MODEL 1
REMARK VINA RESULT:     -13.4      0.000      0.000
REMARK SMILES Cc1ccccc1NC(=O)CSc1nc(C(=O)OCCOCCOCCOC(=O)c2ccc(-c3c4nc(c(-c5c(F)c(F)c(F)c(F)c5F)c5ccc([nH]5)c(-c5c(F)c(F)c(F)c(F)c5F)c5nc(c(-c6c(F)c(F)c(F)c(F)c6F)c6ccc3[nH]6)C=C5)C=C4)cc2)c2ccccc2n1
REMARK SMILES IDX 22 1 21 2 20 3 19 4 18 5 16 6 17 7 15 8 13 9 14 10 99 11
REMARK SMILES IDX 98 12 93 13 97 14 94 15 96 16 95 17 12 18 11 19 9 20 8 21
REMARK SMILES IDX 10 23 7 24 1 25 2 26 3 27 4 28 6 29 5 30 23 31 24 32 25 33
REMARK SMILES IDX 26 34 27 35 28 36 29 37 30 38 31 39 92 40 32 41 91 42 33 43
REMARK SMILES IDX 34 44 35 45 85 46 36 47 90 48 84 49 86 50 37 51 89 52 83 53
REMARK SMILES IDX 82 54 38 56 70 57 50 58 69 59 51 60 54 61 68 62 87 63 52 64
REMARK SMILES IDX 53 65 67 67 88 68 55 69 39 70 40 71 48 72 41 73 42 74 46 75
REMARK SMILES IDX 49 76 43 77 44 78 47 79 45 80 71 81 72 82 80 83 73 84 74 85
REMARK SMILES IDX 78 86 81 87 75 88 76 89 79 90 77 91 56 92 57 93 65 94 58 95
REMARK SMILES IDX 59 96 63 97 66 98 60 99 61 100 64 101 62 102
REMARK H PARENT 8 22 86 55 54 66
REMARK Flexibility Score: inf
ROOT
ATOM      1  C   UNL A   1      33.167  34.264  28.582  1.00  0.00     0.188 C 
ENDROOT
BRANCH   1   2
ATOM      2  O   UNL A   1      34.125  33.303  28.074  1.00  0.00    -0.376 OA
BRANCH   2   3
ATOM      3  C   UNL A   1      34.045  31.880  28.270  1.00  0.00     0.202 C 
BRANCH   3   4
ATOM      4  C   UNL A   1      33.680  30.665  27.107  1.00  0.00     0.261 C 
BRANCH   4   5
ATOM      5  O   UNL A   1      33.056  29.139  27.262  1.00  0.00    -0.458 OA
BRANCH   5   6
ATOM      6  C   UNL A   1      33.082  27.887  26.595  1.00  0.00     0.357 C 
ATOM      7  O   UNL A   1      34.018  27.343  26.018  1.00  0.00    -0.244 OA
BRANCH   6   8
ATOM      8  C   UNL A   1      31.886  27.014  26.356  1.00  0.00     0.160 A 
ATOM      9  C   UNL A   1      31.349  24.801  25.837  1.00  0.00     0.189 A 
ATOM     10  N   UNL A   1      32.023  25.659  26.624  1.00  0.00    -0.215 NA
ATOM     11  N   UNL A   1      30.537  25.201  24.847  1.00  0.00    -0.222 NA
ATOM     12  C   UNL A   1      30.440  26.507  24.584  1.00  0.00     0.076 A 
ATOM     13  C   UNL A   1      31.108  27.491  25.311  1.00  0.00     0.034 A 
ATOM     14  C   UNL A   1      29.681  26.919  23.501  1.00  0.00     0.029 A 
ATOM     15  C   UNL A   1      31.084  28.846  24.899  1.00  0.00     0.013 A 
ATOM     16  C   UNL A   1      29.628  28.259  23.101  1.00  0.00     0.002 A 
ATOM     17  C   UNL A   1      30.352  29.222  23.789  1.00  0.00     0.001 A 
BRANCH   9  18
ATOM     18  S   UNL A   1      31.123  23.075  26.262  1.00  0.00    -0.076 SA
BRANCH  18  19
ATOM     19  C   UNL A   1      31.841  22.067  24.928  1.00  0.00     0.178 C 
BRANCH  19  20
ATOM     20  C   UNL A   1      32.695  20.868  25.314  1.00  0.00     0.234 C 
ATOM     21  N   UNL A   1      34.036  20.857  25.552  1.00  0.00    -0.325 N 
ATOM     22  H   UNL A   1      34.365  19.962  25.802  1.00  0.00     0.169 HD
ATOM     23  O   UNL A   1      32.155  19.749  25.367  1.00  0.00    -0.274 OA
BRANCH  21  24
ATOM     24  C   UNL A   1      35.063  21.814  25.525  1.00  0.00     0.044 A 
ATOM     25  C   UNL A   1      36.814  19.972  25.001  1.00  0.00     0.046 C 
ATOM     26  C   UNL A   1      36.394  21.390  25.295  1.00  0.00    -0.027 A 
ATOM     27  C   UNL A   1      37.441  22.329  25.393  1.00  0.00     0.005 A 
ATOM     28  C   UNL A   1      37.179  23.672  25.642  1.00  0.00     0.000 A 
ATOM     29  C   UNL A   1      34.813  23.179  25.691  1.00  0.00     0.026 A 
ATOM     30  C   UNL A   1      35.863  24.101  25.755  1.00  0.00     0.002 A 
ENDBRANCH  21  24
ENDBRANCH  19  20
ENDBRANCH  18  19
ENDBRANCH   9  18
ENDBRANCH   6   8
ENDBRANCH   5   6
ENDBRANCH   4   5
ENDBRANCH   3   4
ENDBRANCH   2   3
ENDBRANCH   1   2
BRANCH   1  31
ATOM     31  C   UNL A   1      33.456  35.757  28.765  1.00  0.00     0.188 C 
BRANCH  31  32
ATOM     32  O   UNL A   1      32.531  36.355  29.654  1.00  0.00    -0.376 OA
BRANCH  32  33
ATOM     33  C   UNL A   1      33.093  36.825  30.878  1.00  0.00     0.202 C 
BRANCH  33  34
ATOM     34  C   UNL A   1      32.758  35.945  32.110  1.00  0.00     0.261 C 
BRANCH  34  35
ATOM     35  O   UNL A   1      33.493  34.693  32.081  1.00  0.00    -0.460 OA
BRANCH  35  36
ATOM     36  C   UNL A   1      34.697  34.626  32.743  1.00  0.00     0.338 C 
ATOM     37  O   UNL A   1      35.189  35.548  33.380  1.00  0.00    -0.246 OA
BRANCH  36  38
ATOM     38  C   UNL A   1      35.430  33.364  32.362  1.00  0.00     0.060 A 
ATOM     39  C   UNL A   1      35.919  32.328  33.181  1.00  0.00     0.016 A 
ATOM     40  C   UNL A   1      35.975  33.393  31.130  1.00  0.00     0.016 A 
ATOM     41  C   UNL A   1      37.028  31.440  32.758  1.00  0.00     0.010 A 
ATOM     42  C   UNL A   1      37.178  32.711  30.954  1.00  0.00     0.010 A 
ATOM     43  C   UNL A   1      37.756  31.640  31.586  1.00  0.00    -0.014 A 
BRANCH  43  44
ATOM     44  C   UNL A   1      39.140  31.107  31.064  1.00  0.00     0.031 A 
ATOM     45  C   UNL A   1      39.586  29.899  30.130  1.00  0.00     0.074 A 
ATOM     46  C   UNL A   1      40.214  31.843  31.423  1.00  0.00     0.049 A 
ATOM     47  N   UNL A   1      40.463  28.971  30.462  1.00  0.00    -0.248 NA
ATOM     48  C   UNL A   1      39.196  29.656  28.721  1.00  0.00     0.031 C 
ATOM     49  C   UNL A   1      41.621  31.626  31.083  1.00  0.00     0.029 A 
ATOM     50  N   UNL A   1      40.249  32.886  32.356  1.00  0.00    -0.354 N 
ATOM     51  C   UNL A   1      40.689  28.137  29.353  1.00  0.00     0.074 A 
ATOM     52  C   UNL A   1      39.755  28.507  28.366  1.00  0.00     0.031 C 
ATOM     53  C   UNL A   1      42.366  32.186  32.051  1.00  0.00     0.029 A 
ATOM     54  C   UNL A   1      41.457  32.724  33.050  1.00  0.00     0.049 A 
ATOM     55  H   UNL A   1      39.569  33.583  32.495  1.00  0.00     0.167 HD
ATOM     56  C   UNL A   1      41.731  27.278  29.174  1.00  0.00     0.037 A 
ATOM     57  C   UNL A   1      41.423  32.446  34.381  1.00  0.00     0.037 A 
ATOM     58  C   UNL A   1      42.734  27.547  30.161  1.00  0.00     0.049 A 
ATOM     59  C   UNL A   1      42.025  31.099  34.699  1.00  0.00     0.074 A 
ATOM     60  C   UNL A   1      43.809  28.417  30.141  1.00  0.00     0.029 A 
ATOM     61  N   UNL A   1      42.440  27.286  31.485  1.00  0.00    -0.354 N 
ATOM     62  N   UNL A   1      42.362  30.211  33.802  1.00  0.00    -0.248 NA
ATOM     63  C   UNL A   1      42.282  30.635  36.059  1.00  0.00     0.031 C 
ATOM     64  C   UNL A   1      44.090  28.773  31.482  1.00  0.00     0.029 A 
ATOM     65  C   UNL A   1      43.240  28.057  32.305  1.00  0.00     0.049 A 
ATOM     66  H   UNL A   1      41.761  26.646  31.798  1.00  0.00     0.167 HD
ATOM     67  C   UNL A   1      42.792  29.070  34.425  1.00  0.00     0.074 A 
ATOM     68  C   UNL A   1      42.768  29.403  35.834  1.00  0.00     0.031 C 
ATOM     69  C   UNL A   1      43.108  27.931  33.742  1.00  0.00     0.037 A 
BRANCH  56  70
ATOM     70  C   UNL A   1      41.921  26.527  27.864  1.00  0.00     0.064 A 
ATOM     71  C   UNL A   1      41.270  25.310  27.594  1.00  0.00     0.173 A 
ATOM     72  C   UNL A   1      42.837  26.948  26.872  1.00  0.00     0.173 A 
ATOM     73  F   UNL A   1      40.307  24.846  28.399  1.00  0.00    -0.203 F 
ATOM     74  C   UNL A   1      41.619  24.505  26.499  1.00  0.00     0.198 A 
ATOM     75  C   UNL A   1      43.224  26.121  25.807  1.00  0.00     0.198 A 
ATOM     76  F   UNL A   1      43.421  28.154  26.952  1.00  0.00    -0.203 F 
ATOM     77  F   UNL A   1      40.996  23.333  26.309  1.00  0.00    -0.200 F 
ATOM     78  C   UNL A   1      42.628  24.887  25.636  1.00  0.00     0.200 A 
ATOM     79  F   UNL A   1      44.207  26.505  24.980  1.00  0.00    -0.200 F 
ATOM     80  F   UNL A   1      43.025  24.072  24.647  1.00  0.00    -0.200 F 
ENDBRANCH  56  70
BRANCH  57  81
ATOM     81  C   UNL A   1      40.301  33.144  35.090  1.00  0.00     0.064 A 
ATOM     82  C   UNL A   1      39.229  32.347  35.562  1.00  0.00     0.173 A 
ATOM     83  C   UNL A   1      40.380  34.444  35.596  1.00  0.00     0.173 A 
ATOM     84  F   UNL A   1      39.079  31.090  35.109  1.00  0.00    -0.203 F 
ATOM     85  C   UNL A   1      38.380  32.773  36.582  1.00  0.00     0.198 A 
ATOM     86  C   UNL A   1      39.496  34.886  36.592  1.00  0.00     0.198 A 
ATOM     87  F   UNL A   1      41.385  35.257  35.238  1.00  0.00    -0.203 F 
ATOM     88  F   UNL A   1      37.470  31.930  37.093  1.00  0.00    -0.200 F 
ATOM     89  C   UNL A   1      38.528  34.037  37.113  1.00  0.00     0.200 A 
ATOM     90  F   UNL A   1      39.662  36.102  37.136  1.00  0.00    -0.200 F 
ATOM     91  F   UNL A   1      37.776  34.423  38.154  1.00  0.00    -0.200 F 
ENDBRANCH  57  81
BRANCH  69  92
ATOM     92  C   UNL A   1      43.360  26.575  34.347  1.00  0.00     0.064 A 
ATOM     93  C   UNL A   1      42.345  25.740  34.834  1.00  0.00     0.173 A 
ATOM     94  C   UNL A   1      44.656  26.001  34.286  1.00  0.00     0.173 A 
ATOM     95  F   UNL A   1      41.065  26.129  34.842  1.00  0.00    -0.203 F 
ATOM     96  C   UNL A   1      42.615  24.446  35.282  1.00  0.00     0.198 A 
ATOM     97  C   UNL A   1      44.906  24.687  34.666  1.00  0.00     0.198 A 
ATOM     98  F   UNL A   1      45.711  26.692  33.826  1.00  0.00    -0.203 F 
ATOM     99  F   UNL A   1      41.624  23.702  35.792  1.00  0.00    -0.200 F 
ATOM    100  C   UNL A   1      43.888  23.914  35.183  1.00  0.00     0.200 A 
ATOM    101  F   UNL A   1      46.134  24.168  34.511  1.00  0.00    -0.200 F 
ATOM    102  F   UNL A   1      44.130  22.655  35.572  1.00  0.00    -0.200 F 
ENDBRANCH  69  92
ENDBRANCH  43  44
ENDBRANCH  36  38
ENDBRANCH  35  36
ENDBRANCH  34  35
ENDBRANCH  33  34
ENDBRANCH  32  33
ENDBRANCH  31  32
ENDBRANCH   1  31
TORSDOF 21
ENDMDL
MODEL 2
REMARK VINA RESULT:     -13.4      2.362      3.622
REMARK SMILES Cc1ccccc1NC(=O)CSc1nc(C(=O)OCCOCCOCCOC(=O)c2ccc(-c3c4nc(c(-c5c(F)c(F)c(F)c(F)c5F)c5ccc([nH]5)c(-c5c(F)c(F)c(F)c(F)c5F)c5nc(c(-c6c(F)c(F)c(F)c(F)c6F)c6ccc3[nH]6)C=C5)C=C4)cc2)c2ccccc2n1
REMARK SMILES IDX 22 1 21 2 20 3 19 4 18 5 16 6 17 7 15 8 13 9 14 10 99 11
REMARK SMILES IDX 98 12 93 13 97 14 94 15 96 16 95 17 12 18 11 19 9 20 8 21
REMARK SMILES IDX 10 23 7 24 1 25 2 26 3 27 4 28 6 29 5 30 23 31 24 32 25 33
REMARK SMILES IDX 26 34 27 35 28 36 29 37 30 38 31 39 92 40 32 41 91 42 33 43
REMARK SMILES IDX 34 44 35 45 85 46 36 47 90 48 84 49 86 50 37 51 89 52 83 53
REMARK SMILES IDX 82 54 38 56 70 57 50 58 69 59 51 60 54 61 68 62 87 63 52 64
REMARK SMILES IDX 53 65 67 67 88 68 55 69 39 70 40 71 48 72 41 73 42 74 46 75
REMARK SMILES IDX 49 76 43 77 44 78 47 79 45 80 71 81 72 82 80 83 73 84 74 85
REMARK SMILES IDX 78 86 81 87 75 88 76 89 79 90 77 91 56 92 57 93 65 94 58 95
REMARK SMILES IDX 59 96 63 97 66 98 60 99 61 100 64 101 62 102
REMARK H PARENT 8 22 86 55 54 66
REMARK Flexibility Score: inf
ROOT
ATOM      1  C   UNL A   1      30.750  31.183  25.466  1.00  0.00     0.188 C 
ENDROOT
BRANCH   1   2
ATOM      2  O   UNL A   1      30.893  30.066  24.554  1.00  0.00    -0.376 OA
BRANCH   2   3
ATOM      3  C   UNL A   1      29.951  29.721  23.523  1.00  0.00     0.202 C 
BRANCH   3   4
ATOM      4  C   UNL A   1      30.197  28.709  22.153  1.00  0.00     0.261 C 
BRANCH   4   5
ATOM      5  O   UNL A   1      30.710  27.141  22.015  1.00  0.00    -0.458 OA
BRANCH   5   6
ATOM      6  C   UNL A   1      31.916  26.393  22.029  1.00  0.00     0.357 C 
ATOM      7  O   UNL A   1      32.672  26.136  21.097  1.00  0.00    -0.244 OA
BRANCH   6   8
ATOM      8  C   UNL A   1      32.450  25.642  23.212  1.00  0.00     0.160 A 
ATOM      9  C   UNL A   1      31.739  24.167  24.878  1.00  0.00     0.189 A 
ATOM     10  N   UNL A   1      31.801  24.468  23.568  1.00  0.00    -0.215 NA
ATOM     11  N   UNL A   1      32.303  24.925  25.830  1.00  0.00    -0.222 NA
ATOM     12  C   UNL A   1      32.898  26.067  25.472  1.00  0.00     0.076 A 
ATOM     13  C   UNL A   1      33.003  26.500  24.151  1.00  0.00     0.034 A 
ATOM     14  C   UNL A   1      33.394  26.903  26.459  1.00  0.00     0.029 A 
ATOM     15  C   UNL A   1      33.514  27.784  23.843  1.00  0.00     0.013 A 
ATOM     16  C   UNL A   1      33.926  28.163  26.164  1.00  0.00     0.002 A 
ATOM     17  C   UNL A   1      33.964  28.614  24.852  1.00  0.00     0.001 A 
BRANCH   9  18
ATOM     18  S   UNL A   1      31.273  22.543  25.474  1.00  0.00    -0.076 SA
BRANCH  18  19
ATOM     19  C   UNL A   1      32.303  21.311  24.621  1.00  0.00     0.178 C 
BRANCH  19  20
ATOM     20  C   UNL A   1      33.106  20.335  25.469  1.00  0.00     0.234 C 
ATOM     21  N   UNL A   1      34.385  20.491  25.912  1.00  0.00    -0.325 N 
ATOM     22  H   UNL A   1      34.687  19.729  26.459  1.00  0.00     0.169 HD
ATOM     23  O   UNL A   1      32.594  19.239  25.755  1.00  0.00    -0.274 OA
BRANCH  21  24
ATOM     24  C   UNL A   1      35.376  21.476  25.776  1.00  0.00     0.044 A 
ATOM     25  C   UNL A   1      37.025  19.731  24.792  1.00  0.00     0.046 C 
ATOM     26  C   UNL A   1      36.647  21.110  25.272  1.00  0.00    -0.027 A 
ATOM     27  C   UNL A   1      37.681  22.068  25.253  1.00  0.00     0.005 A 
ATOM     28  C   UNL A   1      37.451  23.379  25.655  1.00  0.00     0.000 A 
ATOM     29  C   UNL A   1      35.142  22.817  26.096  1.00  0.00     0.026 A 
ATOM     30  C   UNL A   1      36.173  23.760  26.042  1.00  0.00     0.002 A 
ENDBRANCH  21  24
ENDBRANCH  19  20
ENDBRANCH  18  19
ENDBRANCH   9  18
ENDBRANCH   6   8
ENDBRANCH   5   6
ENDBRANCH   4   5
ENDBRANCH   3   4
ENDBRANCH   2   3
ENDBRANCH   1   2
BRANCH   1  31
ATOM     31  C   UNL A   1      31.670  31.443  26.663  1.00  0.00     0.188 C 
BRANCH  31  32
ATOM     32  O   UNL A   1      31.706  32.818  26.995  1.00  0.00    -0.376 OA
BRANCH  32  33
ATOM     33  C   UNL A   1      32.874  33.235  27.700  1.00  0.00     0.202 C 
BRANCH  33  34
ATOM     34  C   UNL A   1      33.898  32.100  27.961  1.00  0.00     0.261 C 
BRANCH  34  35
ATOM     35  O   UNL A   1      34.387  32.135  29.328  1.00  0.00    -0.460 OA
BRANCH  35  36
ATOM     36  C   UNL A   1      35.743  32.241  29.536  1.00  0.00     0.338 C 
ATOM     37  O   UNL A   1      36.346  33.301  29.640  1.00  0.00    -0.246 OA
BRANCH  36  38
ATOM     38  C   UNL A   1      36.403  30.896  29.361  1.00  0.00     0.060 A 
ATOM     39  C   UNL A   1      36.729  29.924  30.325  1.00  0.00     0.016 A 
ATOM     40  C   UNL A   1      37.060  30.752  28.193  1.00  0.00     0.016 A 
ATOM     41  C   UNL A   1      37.796  28.919  30.108  1.00  0.00     0.010 A 
ATOM     42  C   UNL A   1      38.214  29.972  28.208  1.00  0.00     0.010 A 
ATOM     43  C   UNL A   1      38.644  28.938  29.000  1.00  0.00    -0.014 A 
BRANCH  43  44
ATOM     44  C   UNL A   1      40.022  28.254  28.675  1.00  0.00     0.031 A 
ATOM     45  C   UNL A   1      40.463  26.787  28.249  1.00  0.00     0.074 A 
ATOM     46  C   UNL A   1      41.093  29.076  28.703  1.00  0.00     0.049 A 
ATOM     47  N   UNL A   1      41.361  26.055  28.878  1.00  0.00    -0.248 NA
ATOM     48  C   UNL A   1      40.041  26.033  27.044  1.00  0.00     0.031 C 
ATOM     49  C   UNL A   1      42.494  28.754  28.429  1.00  0.00     0.029 A 
ATOM     50  N   UNL A   1      41.135  30.392  29.178  1.00  0.00    -0.354 N 
ATOM     51  C   UNL A   1      41.572  24.867  28.155  1.00  0.00     0.074 A 
ATOM     52  C   UNL A   1      40.609  24.837  27.128  1.00  0.00     0.031 C 
ATOM     53  C   UNL A   1      43.255  29.639  29.096  1.00  0.00     0.029 A 
ATOM     54  C   UNL A   1      42.362  30.507  29.847  1.00  0.00     0.049 A 
ATOM     55  H   UNL A   1      40.449  31.088  29.065  1.00  0.00     0.167 HD
ATOM     56  C   UNL A   1      42.621  24.008  28.281  1.00  0.00     0.037 A 
ATOM     57  C   UNL A   1      42.366  30.747  31.186  1.00  0.00     0.037 A 
ATOM     58  C   UNL A   1      43.644  24.631  29.067  1.00  0.00     0.049 A 
ATOM     59  C   UNL A   1      42.995  29.619  31.967  1.00  0.00     0.074 A 
ATOM     60  C   UNL A   1      44.705  25.436  28.692  1.00  0.00     0.029 A 
ATOM     61  N   UNL A   1      43.388  24.883  30.400  1.00  0.00    -0.354 N 
ATOM     62  N   UNL A   1      43.323  28.462  31.457  1.00  0.00    -0.248 NA
ATOM     63  C   UNL A   1      43.293  29.698  33.394  1.00  0.00     0.031 C 
ATOM     64  C   UNL A   1      45.015  26.269  29.794  1.00  0.00     0.029 A 
ATOM     65  C   UNL A   1      44.196  25.908  30.849  1.00  0.00     0.049 A 
ATOM     66  H   UNL A   1      42.726  24.403  30.949  1.00  0.00     0.167 HD
ATOM     67  C   UNL A   1      43.785  27.638  32.449  1.00  0.00     0.074 A 
ATOM     68  C   UNL A   1      43.791  28.474  33.632  1.00  0.00     0.031 C 
ATOM     69  C   UNL A   1      44.102  26.328  32.232  1.00  0.00     0.037 A 
BRANCH  56  70
ATOM     70  C   UNL A   1      42.790  22.822  27.341  1.00  0.00     0.064 A 
ATOM     71  C   UNL A   1      42.099  21.612  27.526  1.00  0.00     0.173 A 
ATOM     72  C   UNL A   1      43.724  22.821  26.279  1.00  0.00     0.173 A 
ATOM     73  F   UNL A   1      41.117  21.507  28.430  1.00  0.00    -0.203 F 
ATOM     74  C   UNL A   1      42.423  20.451  26.809  1.00  0.00     0.198 A 
ATOM     75  C   UNL A   1      44.086  21.649  25.599  1.00  0.00     0.198 A 
ATOM     76  F   UNL A   1      44.349  23.954  25.919  1.00  0.00    -0.203 F 
ATOM     77  F   UNL A   1      41.761  19.311  27.053  1.00  0.00    -0.200 F 
ATOM     78  C   UNL A   1      43.449  20.458  25.882  1.00  0.00     0.200 A 
ATOM     79  F   UNL A   1      45.086  21.672  24.704  1.00  0.00    -0.200 F 
ATOM     80  F   UNL A   1      43.820  19.325  25.269  1.00  0.00    -0.200 F 
ENDBRANCH  56  70
BRANCH  57  81
ATOM     81  C   UNL A   1      41.251  31.654  31.615  1.00  0.00     0.064 A 
ATOM     82  C   UNL A   1      40.113  31.056  32.211  1.00  0.00     0.173 A 
ATOM     83  C   UNL A   1      41.379  33.037  31.764  1.00  0.00     0.173 A 
ATOM     84  F   UNL A   1      39.915  29.732  32.096  1.00  0.00    -0.203 F 
ATOM     85  C   UNL A   1      39.240  31.773  33.028  1.00  0.00     0.198 A 
ATOM     86  C   UNL A   1      40.473  33.765  32.552  1.00  0.00     0.198 A 
ATOM     87  F   UNL A   1      42.444  33.683  31.269  1.00  0.00    -0.203 F 
ATOM     88  F   UNL A   1      38.260  31.135  33.685  1.00  0.00    -0.200 F 
ATOM     89  C   UNL A   1      39.434  33.126  33.216  1.00  0.00     0.200 A 
ATOM     90  F   UNL A   1      40.681  35.074  32.766  1.00  0.00    -0.200 F 
ATOM     91  F   UNL A   1      38.655  33.806  34.070  1.00  0.00    -0.200 F 
ENDBRANCH  57  81
BRANCH  69  92
ATOM     92  C   UNL A   1      44.388  25.298  33.293  1.00  0.00     0.064 A 
ATOM     93  C   UNL A   1      43.432  24.835  34.206  1.00  0.00     0.173 A 
ATOM     94  C   UNL A   1      45.628  24.609  33.295  1.00  0.00     0.173 A 
ATOM     95  F   UNL A   1      42.189  25.332  34.228  1.00  0.00    -0.203 F 
ATOM     96  C   UNL A   1      43.713  23.798  35.098  1.00  0.00     0.198 A 
ATOM     97  C   UNL A   1      45.878  23.529  34.135  1.00  0.00     0.198 A 
ATOM     98  F   UNL A   1      46.623  24.947  32.459  1.00  0.00    -0.203 F 
ATOM     99  F   UNL A   1      42.787  23.425  35.992  1.00  0.00    -0.200 F 
ATOM    100  C   UNL A   1      44.926  23.135  35.052  1.00  0.00     0.200 A 
ATOM    101  F   UNL A   1      47.038  22.861  34.039  1.00  0.00    -0.200 F 
ATOM    102  F   UNL A   1      45.171  22.110  35.879  1.00  0.00    -0.200 F 
ENDBRANCH  69  92
ENDBRANCH  43  44
ENDBRANCH  36  38
ENDBRANCH  35  36
ENDBRANCH  34  35
ENDBRANCH  33  34
ENDBRANCH  32  33
ENDBRANCH  31  32
ENDBRANCH   1  31
TORSDOF 21
ENDMDL
MODEL 3
REMARK VINA RESULT:     -13.2      3.613      9.723
REMARK SMILES Cc1ccccc1NC(=O)CSc1nc(C(=O)OCCOCCOCCOC(=O)c2ccc(-c3c4nc(c(-c5c(F)c(F)c(F)c(F)c5F)c5ccc([nH]5)c(-c5c(F)c(F)c(F)c(F)c5F)c5nc(c(-c6c(F)c(F)c(F)c(F)c6F)c6ccc3[nH]6)C=C5)C=C4)cc2)c2ccccc2n1
REMARK SMILES IDX 22 1 21 2 20 3 19 4 18 5 16 6 17 7 15 8 13 9 14 10 99 11
REMARK SMILES IDX 98 12 93 13 97 14 94 15 96 16 95 17 12 18 11 19 9 20 8 21
REMARK SMILES IDX 10 23 7 24 1 25 2 26 3 27 4 28 6 29 5 30 23 31 24 32 25 33
REMARK SMILES IDX 26 34 27 35 28 36 29 37 30 38 31 39 92 40 32 41 91 42 33 43
REMARK SMILES IDX 34 44 35 45 85 46 36 47 90 48 84 49 86 50 37 51 89 52 83 53
REMARK SMILES IDX 82 54 38 56 70 57 50 58 69 59 51 60 54 61 68 62 87 63 52 64
REMARK SMILES IDX 53 65 67 67 88 68 55 69 39 70 40 71 48 72 41 73 42 74 46 75
REMARK SMILES IDX 49 76 43 77 44 78 47 79 45 80 71 81 72 82 80 83 73 84 74 85
REMARK SMILES IDX 78 86 81 87 75 88 76 89 79 90 77 91 56 92 57 93 65 94 58 95
REMARK SMILES IDX 59 96 63 97 66 98 60 99 61 100 64 101 62 102
REMARK H PARENT 8 22 86 55 54 66
REMARK Flexibility Score: inf
ROOT
ATOM      1  C   UNL A   1      40.780  20.823  27.119  1.00  0.00     0.188 C 
ENDROOT
BRANCH   1   2
ATOM      2  O   UNL A   1      39.783  21.875  27.096  1.00  0.00    -0.376 OA
BRANCH   2   3
ATOM      3  C   UNL A   1      38.809  22.062  26.055  1.00  0.00     0.202 C 
BRANCH   3   4
ATOM      4  C   UNL A   1      37.834  23.446  25.746  1.00  0.00     0.261 C 
BRANCH   4   5
ATOM      5  O   UNL A   1      36.521  23.676  24.763  1.00  0.00    -0.458 OA
BRANCH   5   6
ATOM      6  C   UNL A   1      36.033  23.261  23.497  1.00  0.00     0.357 C 
ATOM      7  O   UNL A   1      36.666  22.953  22.493  1.00  0.00    -0.244 OA
BRANCH   6   8
ATOM      8  C   UNL A   1      34.587  23.238  23.098  1.00  0.00     0.160 A 
ATOM      9  C   UNL A   1      32.791  24.692  22.759  1.00  0.00     0.189 A 
ATOM     10  N   UNL A   1      34.074  24.380  22.499  1.00  0.00    -0.215 NA
ATOM     11  N   UNL A   1      31.996  23.935  23.530  1.00  0.00    -0.222 NA
ATOM     12  C   UNL A   1      32.515  22.855  24.123  1.00  0.00     0.076 A 
ATOM     13  C   UNL A   1      33.836  22.444  23.952  1.00  0.00     0.034 A 
ATOM     14  C   UNL A   1      31.727  22.126  24.998  1.00  0.00     0.029 A 
ATOM     15  C   UNL A   1      34.373  21.379  24.716  1.00  0.00     0.013 A 
ATOM     16  C   UNL A   1      32.240  21.054  25.738  1.00  0.00     0.002 A 
ATOM     17  C   UNL A   1      33.574  20.695  25.613  1.00  0.00     0.001 A 
BRANCH   9  18
ATOM     18  S   UNL A   1      31.877  25.899  21.800  1.00  0.00    -0.076 SA
BRANCH  18  19
ATOM     19  C   UNL A   1      31.569  27.345  22.859  1.00  0.00     0.178 C 
BRANCH  19  20
ATOM     20  C   UNL A   1      30.734  27.150  24.117  1.00  0.00     0.234 C 
ATOM     21  N   UNL A   1      30.991  27.646  25.359  1.00  0.00    -0.325 N 
ATOM     22  H   UNL A   1      30.297  27.398  26.012  1.00  0.00     0.169 HD
ATOM     23  O   UNL A   1      29.734  26.413  24.055  1.00  0.00    -0.274 OA
BRANCH  21  24
ATOM     24  C   UNL A   1      32.009  28.425  25.932  1.00  0.00     0.044 A 
ATOM     25  C   UNL A   1      33.651  26.418  25.827  1.00  0.00     0.046 C 
ATOM     26  C   UNL A   1      33.270  27.832  26.187  1.00  0.00    -0.027 A 
ATOM     27  C   UNL A   1      34.250  28.573  26.877  1.00  0.00     0.005 A 
ATOM     28  C   UNL A   1      34.023  29.894  27.246  1.00  0.00     0.000 A 
ATOM     29  C   UNL A   1      31.830  29.777  26.236  1.00  0.00     0.026 A 
ATOM     30  C   UNL A   1      32.827  30.505  26.894  1.00  0.00     0.002 A 
ENDBRANCH  21  24
ENDBRANCH  19  20
ENDBRANCH  18  19
ENDBRANCH   9  18
ENDBRANCH   6   8
ENDBRANCH   5   6
ENDBRANCH   4   5
ENDBRANCH   3   4
ENDBRANCH   2   3
ENDBRANCH   1   2
BRANCH   1  31
ATOM     31  C   UNL A   1      41.995  20.765  26.187  1.00  0.00     0.188 C 
BRANCH  31  32
ATOM     32  O   UNL A   1      42.966  21.729  26.547  1.00  0.00    -0.376 OA
BRANCH  32  33
ATOM     33  C   UNL A   1      43.652  22.328  25.450  1.00  0.00     0.202 C 
BRANCH  33  34
ATOM     34  C   UNL A   1      43.184  23.768  25.116  1.00  0.00     0.261 C 
BRANCH  34  35
ATOM     35  O   UNL A   1      41.912  24.069  25.749  1.00  0.00    -0.460 OA
BRANCH  35  36
ATOM     36  C   UNL A   1      41.528  25.385  25.853  1.00  0.00     0.338 C 
ATOM     37  O   UNL A   1      41.744  26.239  25.002  1.00  0.00    -0.246 OA
BRANCH  36  38
ATOM     38  C   UNL A   1      41.042  25.677  27.251  1.00  0.00     0.060 A 
ATOM     39  C   UNL A   1      39.838  25.308  27.878  1.00  0.00     0.016 A 
ATOM     40  C   UNL A   1      41.689  26.692  27.858  1.00  0.00     0.016 A 
ATOM     41  C   UNL A   1      39.277  26.062  29.025  1.00  0.00     0.010 A 
ATOM     42  C   UNL A   1      40.944  27.486  28.728  1.00  0.00     0.010 A 
ATOM     43  C   UNL A   1      39.822  27.261  29.483  1.00  0.00    -0.014 A 
BRANCH  43  44
ATOM     44  C   UNL A   1      39.283  28.416  30.405  1.00  0.00     0.031 A 
ATOM     45  C   UNL A   1      38.286  29.637  30.190  1.00  0.00     0.074 A 
ATOM     46  C   UNL A   1      39.694  28.367  31.690  1.00  0.00     0.049 A 
ATOM     47  N   UNL A   1      38.573  30.899  30.440  1.00  0.00    -0.248 NA
ATOM     48  C   UNL A   1      36.861  29.578  29.785  1.00  0.00     0.031 C 
ATOM     49  C   UNL A   1      39.357  29.273  32.788  1.00  0.00     0.029 A 
ATOM     50  N   UNL A   1      40.687  27.539  32.228  1.00  0.00    -0.354 N 
ATOM     51  C   UNL A   1      37.420  31.679  30.241  1.00  0.00     0.074 A 
ATOM     52  C   UNL A   1      36.446  30.832  29.676  1.00  0.00     0.031 C 
ATOM     53  C   UNL A   1      40.363  29.229  33.678  1.00  0.00     0.029 A 
ATOM     54  C   UNL A   1      41.382  28.338  33.146  1.00  0.00     0.049 A 
ATOM     55  H   UNL A   1      40.859  26.595  32.007  1.00  0.00     0.167 HD
ATOM     56  C   UNL A   1      37.202  32.948  30.687  1.00  0.00     0.037 A 
ATOM     57  C   UNL A   1      42.694  28.616  32.921  1.00  0.00     0.037 A 
ATOM     58  C   UNL A   1      38.213  33.286  31.644  1.00  0.00     0.049 A 
ATOM     59  C   UNL A   1      42.940  30.092  32.719  1.00  0.00     0.074 A 
ATOM     60  C   UNL A   1      38.253  33.107  33.015  1.00  0.00     0.029 A 
ATOM     61  N   UNL A   1      39.517  33.413  31.207  1.00  0.00    -0.354 N 
ATOM     62  N   UNL A   1      41.997  30.984  32.577  1.00  0.00    -0.248 NA
ATOM     63  C   UNL A   1      44.274  30.680  32.643  1.00  0.00     0.031 C 
ATOM     64  C   UNL A   1      39.615  33.010  33.389  1.00  0.00     0.029 A 
ATOM     65  C   UNL A   1      40.387  33.211  32.259  1.00  0.00     0.049 A 
ATOM     66  H   UNL A   1      39.786  33.617  30.282  1.00  0.00     0.167 HD
ATOM     67  C   UNL A   1      42.557  32.208  32.324  1.00  0.00     0.074 A 
ATOM     68  C   UNL A   1      43.984  31.973  32.423  1.00  0.00     0.031 C 
ATOM     69  C   UNL A   1      41.813  33.312  32.026  1.00  0.00     0.037 A 
BRANCH  56  70
ATOM     70  C   UNL A   1      35.853  33.629  30.507  1.00  0.00     0.064 A 
ATOM     71  C   UNL A   1      35.455  34.199  29.285  1.00  0.00     0.173 A 
ATOM     72  C   UNL A   1      34.951  33.823  31.579  1.00  0.00     0.173 A 
ATOM     73  F   UNL A   1      36.166  34.005  28.168  1.00  0.00    -0.203 F 
ATOM     74  C   UNL A   1      34.326  35.023  29.180  1.00  0.00     0.198 A 
ATOM     75  C   UNL A   1      33.852  34.690  31.488  1.00  0.00     0.198 A 
ATOM     76  F   UNL A   1      35.154  33.217  32.760  1.00  0.00    -0.203 F 
ATOM     77  F   UNL A   1      34.012  35.577  27.999  1.00  0.00    -0.200 F 
ATOM     78  C   UNL A   1      33.554  35.308  30.290  1.00  0.00     0.200 A 
ATOM     79  F   UNL A   1      33.115  34.958  32.576  1.00  0.00    -0.200 F 
ATOM     80  F   UNL A   1      32.532  36.173  30.207  1.00  0.00    -0.200 F 
ENDBRANCH  56  70
BRANCH  57  81
ATOM     81  C   UNL A   1      43.431  27.466  32.301  1.00  0.00     0.064 A 
ATOM     82  C   UNL A   1      43.832  27.598  30.949  1.00  0.00     0.173 A 
ATOM     83  C   UNL A   1      44.024  26.431  33.029  1.00  0.00     0.173 A 
ATOM     84  F   UNL A   1      43.293  28.562  30.182  1.00  0.00    -0.203 F 
ATOM     85  C   UNL A   1      44.865  26.838  30.403  1.00  0.00     0.198 A 
ATOM     86  C   UNL A   1      45.034  25.638  32.462  1.00  0.00     0.198 A 
ATOM     87  F   UNL A   1      43.737  26.255  34.326  1.00  0.00    -0.203 F 
ATOM     88  F   UNL A   1      45.304  27.097  29.162  1.00  0.00    -0.200 F 
ATOM     89  C   UNL A   1      45.482  25.870  31.169  1.00  0.00     0.200 A 
ATOM     90  F   UNL A   1      45.661  24.721  33.218  1.00  0.00    -0.200 F 
ATOM     91  F   UNL A   1      46.535  25.197  30.684  1.00  0.00    -0.200 F 
ENDBRANCH  57  81
BRANCH  69  92
ATOM     92  C   UNL A   1      42.342  34.625  31.510  1.00  0.00     0.064 A 
ATOM     93  C   UNL A   1      42.877  35.625  32.333  1.00  0.00     0.173 A 
ATOM     94  C   UNL A   1      42.483  34.833  30.114  1.00  0.00     0.173 A 
ATOM     95  F   UNL A   1      42.901  35.495  33.665  1.00  0.00    -0.203 F 
ATOM     96  C   UNL A   1      43.458  36.778  31.800  1.00  0.00     0.198 A 
ATOM     97  C   UNL A   1      43.127  35.948  29.589  1.00  0.00     0.198 A 
ATOM     98  F   UNL A   1      42.024  33.942  29.220  1.00  0.00    -0.203 F 
ATOM     99  F   UNL A   1      43.907  37.734  32.625  1.00  0.00    -0.200 F 
ATOM    100  C   UNL A   1      43.598  36.932  30.433  1.00  0.00     0.200 A 
ATOM    101  F   UNL A   1      43.305  36.055  28.264  1.00  0.00    -0.200 F 
ATOM    102  F   UNL A   1      44.199  38.019  29.930  1.00  0.00    -0.200 F 
ENDBRANCH  69  92
ENDBRANCH  43  44
ENDBRANCH  36  38
ENDBRANCH  35  36
ENDBRANCH  34  35
ENDBRANCH  33  34
ENDBRANCH  32  33
ENDBRANCH  31  32
ENDBRANCH   1  31
TORSDOF 21
ENDMDL
