MODEL 1
REMARK VINA RESULT:     -10.4      0.000      0.000
REMARK SMILES Cc1cc(C(=O)N[C@@H](Cc2ccccc2)C(=O)OCCOCCOCCOC(=O)c2ccc(-c3c4nc(c(-c5c(F)c(F)c(F)c(F)c5F)c5ccc([nH]5)c(-c5c(F)c(F)c(F)c(F)c5F)c5nc(c(-c6c(F)c(F)c(F)c(F)c6F)c6ccc3[nH]6)C=C5)C=C4)cc2)c(C)o1
REMARK SMILES IDX 22 1 21 2 20 3 19 4 18 5 16 6 17 7 8 8 7 9 5 10 6 11 4 13
REMARK SMILES IDX 1 14 2 15 3 16 95 17 93 18 94 19 9 20 10 21 11 22 15 23
REMARK SMILES IDX 12 24 14 25 13 26 23 27 24 28 25 29 26 30 27 31 28 32 29 33
REMARK SMILES IDX 30 34 31 35 92 36 32 37 91 38 33 39 34 40 35 41 85 42 36 43
REMARK SMILES IDX 90 44 84 45 86 46 37 47 89 48 83 49 82 50 38 52 70 53 50 54
REMARK SMILES IDX 69 55 51 56 54 57 68 58 87 59 52 60 53 61 67 63 88 64 55 65
REMARK SMILES IDX 39 66 40 67 48 68 41 69 42 70 46 71 49 72 43 73 44 74 47 75
REMARK SMILES IDX 45 76 71 77 72 78 80 79 73 80 74 81 78 82 81 83 75 84 76 85
REMARK SMILES IDX 79 86 77 87 56 88 57 89 65 90 58 91 59 92 63 93 66 94 60 95
REMARK SMILES IDX 61 96 64 97 62 98
REMARK H PARENT 7 12 86 51 54 62
REMARK Flexibility Score: inf
ROOT
ATOM      1  C   UNL A   1      35.684  22.407  25.837  1.00  0.00     0.188 C 
ENDROOT
BRANCH   1   2
ATOM      2  O   UNL A   1      34.405  22.980  25.582  1.00  0.00    -0.376 OA
BRANCH   2   3
ATOM      3  C   UNL A   1      33.249  22.164  25.739  1.00  0.00     0.202 C 
BRANCH   3   4
ATOM      4  C   UNL A   1      31.947  22.592  25.036  1.00  0.00     0.261 C 
BRANCH   4   5
ATOM      5  O   UNL A   1      30.732  22.365  25.787  1.00  0.00    -0.462 OA
BRANCH   5   6
ATOM      6  C   UNL A   1      30.271  23.400  26.542  1.00  0.00     0.329 C 
ATOM      7  O   UNL A   1      29.646  23.264  27.590  1.00  0.00    -0.250 OA
BRANCH   6   8
ATOM      8  C   UNL A   1      30.514  24.801  25.917  1.00  0.00     0.197 C 
BRANCH   8   9
ATOM      9  N   UNL A   1      29.512  25.332  24.984  1.00  0.00    -0.338 N 
ATOM     10  C   UNL A   1      29.496  26.303  24.017  1.00  0.00     0.255 C 
ATOM     11  O   UNL A   1      28.377  26.611  23.602  1.00  0.00    -0.269 OA
ATOM     12  H   UNL A   1      28.641  24.882  25.075  1.00  0.00     0.164 HD
BRANCH  10  13
ATOM     13  C   UNL A   1      30.705  26.887  23.437  1.00  0.00     0.081 A 
ATOM     14  C   UNL A   1      33.543  29.172  22.639  1.00  0.00     0.087 C 
ATOM     15  C   UNL A   1      32.481  28.171  22.858  1.00  0.00     0.101 A 
ATOM     16  C   UNL A   1      31.287  28.188  23.541  1.00  0.00     0.059 A 
ATOM     17  O   UNL A   1      32.690  26.944  22.330  1.00  0.00    -0.466 OA
ATOM     18  C   UNL A   1      31.634  26.161  22.687  1.00  0.00     0.113 A 
ATOM     19  C   UNL A   1      31.771  24.752  22.239  1.00  0.00     0.088 C 
ENDBRANCH  10  13
ENDBRANCH   8   9
BRANCH   8  20
ATOM     20  C   UNL A   1      30.740  25.817  27.056  1.00  0.00     0.072 C 
BRANCH  20  21
ATOM     21  C   UNL A   1      31.872  26.778  26.762  1.00  0.00    -0.045 A 
ATOM     22  C   UNL A   1      33.027  26.307  26.123  1.00  0.00     0.004 A 
ATOM     23  C   UNL A   1      31.838  28.102  27.218  1.00  0.00     0.004 A 
ATOM     24  C   UNL A   1      34.145  27.128  25.991  1.00  0.00     0.000 A 
ATOM     25  C   UNL A   1      32.966  28.914  27.107  1.00  0.00     0.000 A 
ATOM     26  C   UNL A   1      34.121  28.424  26.501  1.00  0.00     0.000 A 
ENDBRANCH  20  21
ENDBRANCH   8  20
ENDBRANCH   6   8
ENDBRANCH   5   6
ENDBRANCH   4   5
ENDBRANCH   3   4
ENDBRANCH   2   3
ENDBRANCH   1   2
BRANCH   1  27
ATOM     27  C   UNL A   1      36.636  22.137  24.656  1.00  0.00     0.188 C 
BRANCH  27  28
ATOM     28  O   UNL A   1      37.826  21.475  25.004  1.00  0.00    -0.376 OA
BRANCH  28  29
ATOM     29  C   UNL A   1      37.848  20.065  24.916  1.00  0.00     0.202 C 
BRANCH  29  30
ATOM     30  C   UNL A   1      39.111  19.294  25.345  1.00  0.00     0.261 C 
BRANCH  30  31
ATOM     31  O   UNL A   1      39.969  19.922  26.317  1.00  0.00    -0.460 OA
BRANCH  31  32
ATOM     32  C   UNL A   1      41.293  19.671  26.233  1.00  0.00     0.338 C 
ATOM     33  O   UNL A   1      41.824  18.665  25.774  1.00  0.00    -0.246 OA
BRANCH  32  34
ATOM     34  C   UNL A   1      42.027  20.902  26.596  1.00  0.00     0.060 A 
ATOM     35  C   UNL A   1      42.192  21.227  27.951  1.00  0.00     0.016 A 
ATOM     36  C   UNL A   1      42.547  21.741  25.609  1.00  0.00     0.016 A 
ATOM     37  C   UNL A   1      42.865  22.394  28.318  1.00  0.00     0.010 A 
ATOM     38  C   UNL A   1      43.195  22.926  25.979  1.00  0.00     0.010 A 
ATOM     39  C   UNL A   1      43.339  23.271  27.336  1.00  0.00    -0.014 A 
BRANCH  39  40
ATOM     40  C   UNL A   1      43.800  24.630  27.721  1.00  0.00     0.031 A 
ATOM     41  C   UNL A   1      42.763  25.655  28.091  1.00  0.00     0.074 A 
ATOM     42  C   UNL A   1      45.104  24.954  27.767  1.00  0.00     0.049 A 
ATOM     43  N   UNL A   1      42.903  26.930  28.355  1.00  0.00    -0.248 NA
ATOM     44  C   UNL A   1      41.375  25.172  28.166  1.00  0.00     0.031 C 
ATOM     45  C   UNL A   1      46.212  24.041  27.503  1.00  0.00     0.029 A 
ATOM     46  N   UNL A   1      45.715  26.153  28.051  1.00  0.00    -0.354 N 
ATOM     47  C   UNL A   1      41.621  27.404  28.603  1.00  0.00     0.074 A 
ATOM     48  C   UNL A   1      40.716  26.286  28.445  1.00  0.00     0.031 C 
ATOM     49  C   UNL A   1      47.370  24.716  27.624  1.00  0.00     0.029 A 
ATOM     50  C   UNL A   1      47.082  26.118  27.928  1.00  0.00     0.049 A 
ATOM     51  H   UNL A   1      45.219  26.960  28.317  1.00  0.00     0.167 HD
ATOM     52  C   UNL A   1      41.234  28.660  28.928  1.00  0.00     0.037 A 
ATOM     53  C   UNL A   1      47.990  27.112  28.015  1.00  0.00     0.037 A 
ATOM     54  C   UNL A   1      42.136  29.771  29.091  1.00  0.00     0.049 A 
ATOM     55  C   UNL A   1      47.527  28.521  28.303  1.00  0.00     0.074 A 
ATOM     56  C   UNL A   1      41.839  31.080  29.425  1.00  0.00     0.029 A 
ATOM     57  N   UNL A   1      43.510  29.703  28.923  1.00  0.00    -0.354 N 
ATOM     58  N   UNL A   1      46.315  28.967  28.529  1.00  0.00    -0.248 NA
ATOM     59  C   UNL A   1      48.561  29.565  28.339  1.00  0.00     0.031 C 
ATOM     60  C   UNL A   1      43.026  31.819  29.398  1.00  0.00     0.029 A 
ATOM     61  C   UNL A   1      44.072  30.955  29.118  1.00  0.00     0.049 A 
ATOM     62  H   UNL A   1      44.013  28.886  28.699  1.00  0.00     0.167 HD
ATOM     63  C   UNL A   1      46.444  30.332  28.763  1.00  0.00     0.074 A 
ATOM     64  C   UNL A   1      47.855  30.639  28.666  1.00  0.00     0.031 C 
ATOM     65  C   UNL A   1      45.481  31.248  29.032  1.00  0.00     0.037 A 
BRANCH  52  66
ATOM     66  C   UNL A   1      39.761  28.913  29.080  1.00  0.00     0.064 A 
ATOM     67  C   UNL A   1      39.103  28.773  30.310  1.00  0.00     0.173 A 
ATOM     68  C   UNL A   1      39.001  29.323  27.973  1.00  0.00     0.173 A 
ATOM     69  F   UNL A   1      39.779  28.369  31.396  1.00  0.00    -0.203 F 
ATOM     70  C   UNL A   1      37.735  29.005  30.421  1.00  0.00     0.198 A 
ATOM     71  C   UNL A   1      37.640  29.588  28.095  1.00  0.00     0.198 A 
ATOM     72  F   UNL A   1      39.582  29.476  26.773  1.00  0.00    -0.203 F 
ATOM     73  F   UNL A   1      37.116  28.813  31.595  1.00  0.00    -0.200 F 
ATOM     74  C   UNL A   1      37.006  29.419  29.315  1.00  0.00     0.200 A 
ATOM     75  F   UNL A   1      36.942  30.003  27.028  1.00  0.00    -0.200 F 
ATOM     76  F   UNL A   1      35.691  29.649  29.425  1.00  0.00    -0.200 F 
ENDBRANCH  52  66
BRANCH  53  77
ATOM     77  C   UNL A   1      49.435  26.826  27.795  1.00  0.00     0.064 A 
ATOM     78  C   UNL A   1      49.985  26.816  26.506  1.00  0.00     0.173 A 
ATOM     79  C   UNL A   1      50.288  26.522  28.868  1.00  0.00     0.173 A 
ATOM     80  F   UNL A   1      49.207  27.069  25.444  1.00  0.00    -0.203 F 
ATOM     81  C   UNL A   1      51.325  26.494  26.296  1.00  0.00     0.198 A 
ATOM     82  C   UNL A   1      51.635  26.236  28.660  1.00  0.00     0.198 A 
ATOM     83  F   UNL A   1      49.812  26.509  30.121  1.00  0.00    -0.203 F 
ATOM     84  F   UNL A   1      51.811  26.439  25.048  1.00  0.00    -0.200 F 
ATOM     85  C   UNL A   1      52.151  26.213  27.374  1.00  0.00     0.200 A 
ATOM     86  F   UNL A   1      52.432  25.976  29.705  1.00  0.00    -0.200 F 
ATOM     87  F   UNL A   1      53.441  25.908  27.172  1.00  0.00    -0.200 F 
ENDBRANCH  53  77
BRANCH  65  88
ATOM     88  C   UNL A   1      45.915  32.664  29.292  1.00  0.00     0.064 A 
ATOM     89  C   UNL A   1      45.983  33.621  28.267  1.00  0.00     0.173 A 
ATOM     90  C   UNL A   1      46.218  33.083  30.597  1.00  0.00     0.173 A 
ATOM     91  F   UNL A   1      45.716  33.273  27.000  1.00  0.00    -0.203 F 
ATOM     92  C   UNL A   1      46.363  34.934  28.536  1.00  0.00     0.198 A 
ATOM     93  C   UNL A   1      46.563  34.405  30.867  1.00  0.00     0.198 A 
ATOM     94  F   UNL A   1      46.159  32.214  31.617  1.00  0.00    -0.203 F 
ATOM     95  F   UNL A   1      46.470  35.817  27.534  1.00  0.00    -0.200 F 
ATOM     96  C   UNL A   1      46.644  35.327  29.836  1.00  0.00     0.200 A 
ATOM     97  F   UNL A   1      46.816  34.785  32.128  1.00  0.00    -0.200 F 
ATOM     98  F   UNL A   1      46.998  36.593  30.094  1.00  0.00    -0.200 F 
ENDBRANCH  65  88
ENDBRANCH  39  40
ENDBRANCH  32  34
ENDBRANCH  31  32
ENDBRANCH  30  31
ENDBRANCH  29  30
ENDBRANCH  28  29
ENDBRANCH  27  28
ENDBRANCH   1  27
TORSDOF 21
ENDMDL
MODEL 2
REMARK VINA RESULT:     -10.3      5.389      9.687
REMARK SMILES Cc1cc(C(=O)N[C@@H](Cc2ccccc2)C(=O)OCCOCCOCCOC(=O)c2ccc(-c3c4nc(c(-c5c(F)c(F)c(F)c(F)c5F)c5ccc([nH]5)c(-c5c(F)c(F)c(F)c(F)c5F)c5nc(c(-c6c(F)c(F)c(F)c(F)c6F)c6ccc3[nH]6)C=C5)C=C4)cc2)c(C)o1
REMARK SMILES IDX 22 1 21 2 20 3 19 4 18 5 16 6 17 7 8 8 7 9 5 10 6 11 4 13
REMARK SMILES IDX 1 14 2 15 3 16 95 17 93 18 94 19 9 20 10 21 11 22 15 23
REMARK SMILES IDX 12 24 14 25 13 26 23 27 24 28 25 29 26 30 27 31 28 32 29 33
REMARK SMILES IDX 30 34 31 35 92 36 32 37 91 38 33 39 34 40 35 41 85 42 36 43
REMARK SMILES IDX 90 44 84 45 86 46 37 47 89 48 83 49 82 50 38 52 70 53 50 54
REMARK SMILES IDX 69 55 51 56 54 57 68 58 87 59 52 60 53 61 67 63 88 64 55 65
REMARK SMILES IDX 39 66 40 67 48 68 41 69 42 70 46 71 49 72 43 73 44 74 47 75
REMARK SMILES IDX 45 76 71 77 72 78 80 79 73 80 74 81 78 82 81 83 75 84 76 85
REMARK SMILES IDX 79 86 77 87 56 88 57 89 65 90 58 91 59 92 63 93 66 94 60 95
REMARK SMILES IDX 61 96 64 97 62 98
REMARK H PARENT 7 12 86 51 54 62
REMARK Flexibility Score: inf
ROOT
ATOM      1  C   UNL A   1      33.992  29.579  26.491  1.00  0.00     0.188 C 
ENDROOT
BRANCH   1   2
ATOM      2  O   UNL A   1      33.731  28.230  26.866  1.00  0.00    -0.376 OA
BRANCH   2   3
ATOM      3  C   UNL A   1      32.453  27.907  27.404  1.00  0.00     0.202 C 
BRANCH   3   4
ATOM      4  C   UNL A   1      31.323  27.517  26.433  1.00  0.00     0.261 C 
BRANCH   4   5
ATOM      5  O   UNL A   1      31.705  26.619  25.365  1.00  0.00    -0.462 OA
BRANCH   5   6
ATOM      6  C   UNL A   1      30.995  26.701  24.206  1.00  0.00     0.329 C 
ATOM      7  O   UNL A   1      30.375  25.765  23.709  1.00  0.00    -0.250 OA
BRANCH   6   8
ATOM      8  C   UNL A   1      31.109  28.073  23.487  1.00  0.00     0.197 C 
BRANCH   8   9
ATOM      9  N   UNL A   1      32.343  28.374  22.749  1.00  0.00    -0.338 N 
ATOM     10  C   UNL A   1      33.454  27.664  22.374  1.00  0.00     0.255 C 
ATOM     11  O   UNL A   1      34.393  28.343  21.956  1.00  0.00    -0.269 OA
ATOM     12  H   UNL A   1      32.382  29.312  22.452  1.00  0.00     0.164 HD
BRANCH  10  13
ATOM     13  C   UNL A   1      33.519  26.203  22.376  1.00  0.00     0.081 A 
ATOM     14  C   UNL A   1      33.917  22.644  23.417  1.00  0.00     0.087 C 
ATOM     15  C   UNL A   1      33.723  24.000  22.870  1.00  0.00     0.101 A 
ATOM     16  C   UNL A   1      33.967  25.263  23.356  1.00  0.00     0.059 A 
ATOM     17  O   UNL A   1      33.151  24.081  21.648  1.00  0.00    -0.466 OA
ATOM     18  C   UNL A   1      33.010  25.403  21.349  1.00  0.00     0.113 A 
ATOM     19  C   UNL A   1      32.316  25.642  20.059  1.00  0.00     0.088 C 
ENDBRANCH  10  13
ENDBRANCH   8   9
BRANCH   8  20
ATOM     20  C   UNL A   1      29.898  28.239  22.545  1.00  0.00     0.072 C 
BRANCH  20  21
ATOM     21  C   UNL A   1      29.247  29.599  22.669  1.00  0.00    -0.045 A 
ATOM     22  C   UNL A   1      28.483  30.098  21.605  1.00  0.00     0.004 A 
ATOM     23  C   UNL A   1      29.486  30.420  23.779  1.00  0.00     0.004 A 
ATOM     24  C   UNL A   1      28.014  31.410  21.627  1.00  0.00     0.000 A 
ATOM     25  C   UNL A   1      29.038  31.741  23.788  1.00  0.00     0.000 A 
ATOM     26  C   UNL A   1      28.308  32.237  22.709  1.00  0.00     0.000 A 
ENDBRANCH  20  21
ENDBRANCH   8  20
ENDBRANCH   6   8
ENDBRANCH   5   6
ENDBRANCH   4   5
ENDBRANCH   3   4
ENDBRANCH   2   3
ENDBRANCH   1   2
BRANCH   1  27
ATOM     27  C   UNL A   1      33.285  30.719  27.250  1.00  0.00     0.188 C 
BRANCH  27  28
ATOM     28  O   UNL A   1      32.005  31.039  26.762  1.00  0.00    -0.376 OA
BRANCH  28  29
ATOM     29  C   UNL A   1      31.620  32.399  26.762  1.00  0.00     0.202 C 
BRANCH  29  30
ATOM     30  C   UNL A   1      32.620  33.476  27.222  1.00  0.00     0.261 C 
BRANCH  30  31
ATOM     31  O   UNL A   1      32.269  34.247  28.387  1.00  0.00    -0.460 OA
BRANCH  31  32
ATOM     32  C   UNL A   1      33.113  35.232  28.759  1.00  0.00     0.338 C 
ATOM     33  O   UNL A   1      32.920  36.440  28.671  1.00  0.00    -0.246 OA
BRANCH  32  34
ATOM     34  C   UNL A   1      34.246  34.627  29.493  1.00  0.00     0.060 A 
ATOM     35  C   UNL A   1      35.519  34.622  28.905  1.00  0.00     0.016 A 
ATOM     36  C   UNL A   1      34.056  34.057  30.753  1.00  0.00     0.016 A 
ATOM     37  C   UNL A   1      36.600  34.039  29.570  1.00  0.00     0.010 A 
ATOM     38  C   UNL A   1      35.135  33.446  31.405  1.00  0.00     0.010 A 
ATOM     39  C   UNL A   1      36.409  33.414  30.808  1.00  0.00    -0.014 A 
BRANCH  39  40
ATOM     40  C   UNL A   1      37.485  32.561  31.377  1.00  0.00     0.031 A 
ATOM     41  C   UNL A   1      37.984  32.872  32.761  1.00  0.00     0.074 A 
ATOM     42  C   UNL A   1      37.999  31.518  30.701  1.00  0.00     0.049 A 
ATOM     43  N   UNL A   1      38.981  32.350  33.429  1.00  0.00    -0.248 NA
ATOM     44  C   UNL A   1      37.259  33.927  33.487  1.00  0.00     0.031 C 
ATOM     45  C   UNL A   1      37.560  31.063  29.385  1.00  0.00     0.029 A 
ATOM     46  N   UNL A   1      39.015  30.654  31.036  1.00  0.00    -0.354 N 
ATOM     47  C   UNL A   1      39.016  33.027  34.641  1.00  0.00     0.074 A 
ATOM     48  C   UNL A   1      37.952  34.007  34.612  1.00  0.00     0.031 C 
ATOM     49  C   UNL A   1      38.311  30.010  29.017  1.00  0.00     0.029 A 
ATOM     50  C   UNL A   1      39.314  29.747  30.050  1.00  0.00     0.049 A 
ATOM     51  H   UNL A   1      39.484  30.683  31.901  1.00  0.00     0.167 HD
ATOM     52  C   UNL A   1      39.864  32.850  35.682  1.00  0.00     0.037 A 
ATOM     53  C   UNL A   1      40.306  28.835  29.976  1.00  0.00     0.037 A 
ATOM     54  C   UNL A   1      40.919  31.871  35.712  1.00  0.00     0.049 A 
ATOM     55  C   UNL A   1      41.288  28.709  31.117  1.00  0.00     0.074 A 
ATOM     56  C   UNL A   1      41.826  31.613  36.725  1.00  0.00     0.029 A 
ATOM     57  N   UNL A   1      41.213  30.994  34.679  1.00  0.00    -0.354 N 
ATOM     58  N   UNL A   1      41.323  29.356  32.257  1.00  0.00    -0.248 NA
ATOM     59  C   UNL A   1      42.372  27.729  30.955  1.00  0.00     0.031 C 
ATOM     60  C   UNL A   1      42.708  30.623  36.280  1.00  0.00     0.029 A 
ATOM     61  C   UNL A   1      42.307  30.214  35.019  1.00  0.00     0.049 A 
ATOM     62  H   UNL A   1      40.717  30.935  33.831  1.00  0.00     0.167 HD
ATOM     63  C   UNL A   1      42.410  28.842  32.958  1.00  0.00     0.074 A 
ATOM     64  C   UNL A   1      42.999  27.819  32.120  1.00  0.00     0.031 C 
ATOM     65  C   UNL A   1      42.878  29.188  34.182  1.00  0.00     0.037 A 
BRANCH  52  66
ATOM     66  C   UNL A   1      39.717  33.774  36.858  1.00  0.00     0.064 A 
ATOM     67  C   UNL A   1      40.350  35.024  36.908  1.00  0.00     0.173 A 
ATOM     68  C   UNL A   1      38.909  33.404  37.944  1.00  0.00     0.173 A 
ATOM     69  F   UNL A   1      41.146  35.419  35.903  1.00  0.00    -0.203 F 
ATOM     70  C   UNL A   1      40.204  35.856  38.015  1.00  0.00     0.198 A 
ATOM     71  C   UNL A   1      38.737  34.254  39.033  1.00  0.00     0.198 A 
ATOM     72  F   UNL A   1      38.277  32.220  37.946  1.00  0.00    -0.203 F 
ATOM     73  F   UNL A   1      40.861  37.024  38.066  1.00  0.00    -0.200 F 
ATOM     74  C   UNL A   1      39.392  35.474  39.073  1.00  0.00     0.200 A 
ATOM     75  F   UNL A   1      37.939  33.887  40.047  1.00  0.00    -0.200 F 
ATOM     76  F   UNL A   1      39.245  36.279  40.133  1.00  0.00    -0.200 F 
ENDBRANCH  52  66
BRANCH  53  77
ATOM     77  C   UNL A   1      40.451  27.983  28.763  1.00  0.00     0.064 A 
ATOM     78  C   UNL A   1      41.209  28.410  27.663  1.00  0.00     0.173 A 
ATOM     79  C   UNL A   1      39.804  26.742  28.664  1.00  0.00     0.173 A 
ATOM     80  F   UNL A   1      41.821  29.602  27.694  1.00  0.00    -0.203 F 
ATOM     81  C   UNL A   1      41.299  27.637  26.507  1.00  0.00     0.198 A 
ATOM     82  C   UNL A   1      39.925  25.954  27.521  1.00  0.00     0.198 A 
ATOM     83  F   UNL A   1      39.060  26.289  29.683  1.00  0.00    -0.203 F 
ATOM     84  F   UNL A   1      41.986  28.094  25.450  1.00  0.00    -0.200 F 
ATOM     85  C   UNL A   1      40.664  26.406  26.440  1.00  0.00     0.200 A 
ATOM     86  F   UNL A   1      39.319  24.760  27.466  1.00  0.00    -0.200 F 
ATOM     87  F   UNL A   1      40.755  25.661  25.329  1.00  0.00    -0.200 F 
ENDBRANCH  53  77
BRANCH  65  88
ATOM     88  C   UNL A   1      44.057  28.426  34.722  1.00  0.00     0.064 A 
ATOM     89  C   UNL A   1      45.374  28.880  34.557  1.00  0.00     0.173 A 
ATOM     90  C   UNL A   1      43.859  27.248  35.461  1.00  0.00     0.173 A 
ATOM     91  F   UNL A   1      45.622  29.992  33.850  1.00  0.00    -0.203 F 
ATOM     92  C   UNL A   1      46.449  28.171  35.089  1.00  0.00     0.198 A 
ATOM     93  C   UNL A   1      44.934  26.561  36.020  1.00  0.00     0.198 A 
ATOM     94  F   UNL A   1      42.621  26.773  35.659  1.00  0.00    -0.203 F 
ATOM     95  F   UNL A   1      47.702  28.596  34.875  1.00  0.00    -0.200 F 
ATOM     96  C   UNL A   1      46.228  27.018  35.827  1.00  0.00     0.200 A 
ATOM     97  F   UNL A   1      44.714  25.457  36.749  1.00  0.00    -0.200 F 
ATOM     98  F   UNL A   1      47.262  26.343  36.347  1.00  0.00    -0.200 F 
ENDBRANCH  65  88
ENDBRANCH  39  40
ENDBRANCH  32  34
ENDBRANCH  31  32
ENDBRANCH  30  31
ENDBRANCH  29  30
ENDBRANCH  28  29
ENDBRANCH  27  28
ENDBRANCH   1  27
TORSDOF 21
ENDMDL
MODEL 3
REMARK VINA RESULT:     -10.2      6.195     10.669
REMARK SMILES Cc1cc(C(=O)N[C@@H](Cc2ccccc2)C(=O)OCCOCCOCCOC(=O)c2ccc(-c3c4nc(c(-c5c(F)c(F)c(F)c(F)c5F)c5ccc([nH]5)c(-c5c(F)c(F)c(F)c(F)c5F)c5nc(c(-c6c(F)c(F)c(F)c(F)c6F)c6ccc3[nH]6)C=C5)C=C4)cc2)c(C)o1
REMARK SMILES IDX 22 1 21 2 20 3 19 4 18 5 16 6 17 7 8 8 7 9 5 10 6 11 4 13
REMARK SMILES IDX 1 14 2 15 3 16 95 17 93 18 94 19 9 20 10 21 11 22 15 23
REMARK SMILES IDX 12 24 14 25 13 26 23 27 24 28 25 29 26 30 27 31 28 32 29 33
REMARK SMILES IDX 30 34 31 35 92 36 32 37 91 38 33 39 34 40 35 41 85 42 36 43
REMARK SMILES IDX 90 44 84 45 86 46 37 47 89 48 83 49 82 50 38 52 70 53 50 54
REMARK SMILES IDX 69 55 51 56 54 57 68 58 87 59 52 60 53 61 67 63 88 64 55 65
REMARK SMILES IDX 39 66 40 67 48 68 41 69 42 70 46 71 49 72 43 73 44 74 47 75
REMARK SMILES IDX 45 76 71 77 72 78 80 79 73 80 74 81 78 82 81 83 75 84 76 85
REMARK SMILES IDX 79 86 77 87 56 88 57 89 65 90 58 91 59 92 63 93 66 94 60 95
REMARK SMILES IDX 61 96 64 97 62 98
REMARK H PARENT 7 12 86 51 54 62
REMARK Flexibility Score: inf
ROOT
ATOM      1  C   UNL A   1      35.795  32.359  28.102  1.00  0.00     0.188 C 
ENDROOT
BRANCH   1   2
ATOM      2  O   UNL A   1      35.408  31.120  27.515  1.00  0.00    -0.376 OA
BRANCH   2   3
ATOM      3  C   UNL A   1      34.241  30.468  28.007  1.00  0.00     0.202 C 
BRANCH   3   4
ATOM      4  C   UNL A   1      33.057  30.257  27.045  1.00  0.00     0.261 C 
BRANCH   4   5
ATOM      5  O   UNL A   1      32.956  28.935  26.466  1.00  0.00    -0.462 OA
BRANCH   5   6
ATOM      6  C   UNL A   1      31.996  28.112  26.971  1.00  0.00     0.329 C 
ATOM      7  O   UNL A   1      31.390  28.319  28.019  1.00  0.00    -0.250 OA
BRANCH   6   8
ATOM      8  C   UNL A   1      31.784  26.807  26.155  1.00  0.00     0.197 C 
BRANCH   8   9
ATOM      9  N   UNL A   1      31.148  25.663  26.822  1.00  0.00    -0.338 N 
ATOM     10  C   UNL A   1      30.931  24.347  26.507  1.00  0.00     0.255 C 
ATOM     11  O   UNL A   1      30.143  23.754  27.247  1.00  0.00    -0.269 OA
ATOM     12  H   UNL A   1      30.790  25.899  27.708  1.00  0.00     0.164 HD
BRANCH  10  13
ATOM     13  C   UNL A   1      31.633  23.645  25.434  1.00  0.00     0.081 A 
ATOM     14  C   UNL A   1      32.464  21.946  22.219  1.00  0.00     0.087 C 
ATOM     15  C   UNL A   1      32.279  22.599  23.529  1.00  0.00     0.101 A 
ATOM     16  C   UNL A   1      31.176  23.047  24.218  1.00  0.00     0.059 A 
ATOM     17  O   UNL A   1      33.401  22.874  24.230  1.00  0.00    -0.466 OA
ATOM     18  C   UNL A   1      33.024  23.517  25.370  1.00  0.00     0.113 A 
ATOM     19  C   UNL A   1      34.170  23.955  26.205  1.00  0.00     0.088 C 
ENDBRANCH  10  13
ENDBRANCH   8   9
BRANCH   8  20
ATOM     20  C   UNL A   1      31.001  27.150  24.870  1.00  0.00     0.072 C 
BRANCH  20  21
ATOM     21  C   UNL A   1      31.666  26.610  23.623  1.00  0.00    -0.045 A 
ATOM     22  C   UNL A   1      33.065  26.546  23.560  1.00  0.00     0.004 A 
ATOM     23  C   UNL A   1      30.918  26.280  22.485  1.00  0.00     0.004 A 
ATOM     24  C   UNL A   1      33.703  26.212  22.368  1.00  0.00     0.000 A 
ATOM     25  C   UNL A   1      31.559  25.970  21.286  1.00  0.00     0.000 A 
ATOM     26  C   UNL A   1      32.951  25.943  21.227  1.00  0.00     0.000 A 
ENDBRANCH  20  21
ENDBRANCH   8  20
ENDBRANCH   6   8
ENDBRANCH   5   6
ENDBRANCH   4   5
ENDBRANCH   3   4
ENDBRANCH   2   3
ENDBRANCH   1   2
BRANCH   1  27
ATOM     27  C   UNL A   1      34.830  33.063  29.074  1.00  0.00     0.188 C 
BRANCH  27  28
ATOM     28  O   UNL A   1      34.161  34.174  28.531  1.00  0.00    -0.376 OA
BRANCH  28  29
ATOM     29  C   UNL A   1      33.018  34.654  29.209  1.00  0.00     0.202 C 
BRANCH  29  30
ATOM     30  C   UNL A   1      32.898  36.155  29.534  1.00  0.00     0.261 C 
BRANCH  30  31
ATOM     31  O   UNL A   1      33.169  36.560  30.890  1.00  0.00    -0.460 OA
BRANCH  31  32
ATOM     32  C   UNL A   1      32.724  35.755  31.879  1.00  0.00     0.338 C 
ATOM     33  O   UNL A   1      31.556  35.517  32.166  1.00  0.00    -0.246 OA
BRANCH  32  34
ATOM     34  C   UNL A   1      33.881  35.028  32.447  1.00  0.00     0.060 A 
ATOM     35  C   UNL A   1      35.158  35.603  32.366  1.00  0.00     0.016 A 
ATOM     36  C   UNL A   1      33.714  33.780  33.049  1.00  0.00     0.016 A 
ATOM     37  C   UNL A   1      36.268  34.927  32.878  1.00  0.00     0.010 A 
ATOM     38  C   UNL A   1      34.833  33.091  33.534  1.00  0.00     0.010 A 
ATOM     39  C   UNL A   1      36.120  33.651  33.432  1.00  0.00    -0.014 A 
BRANCH  39  40
ATOM     40  C   UNL A   1      37.323  32.826  33.716  1.00  0.00     0.031 A 
ATOM     41  C   UNL A   1      38.054  33.056  35.010  1.00  0.00     0.074 A 
ATOM     42  C   UNL A   1      37.754  31.878  32.865  1.00  0.00     0.049 A 
ATOM     43  N   UNL A   1      39.182  32.547  35.436  1.00  0.00    -0.248 NA
ATOM     44  C   UNL A   1      37.424  33.998  35.950  1.00  0.00     0.031 C 
ATOM     45  C   UNL A   1      37.102  31.505  31.614  1.00  0.00     0.029 A 
ATOM     46  N   UNL A   1      38.856  31.058  32.930  1.00  0.00    -0.354 N 
ATOM     47  C   UNL A   1      39.408  33.123  36.679  1.00  0.00     0.074 A 
ATOM     48  C   UNL A   1      38.310  34.031  36.933  1.00  0.00     0.031 C 
ATOM     49  C   UNL A   1      37.823  30.537  31.020  1.00  0.00     0.029 A 
ATOM     50  C   UNL A   1      39.011  30.256  31.827  1.00  0.00     0.049 A 
ATOM     51  H   UNL A   1      39.475  31.047  33.695  1.00  0.00     0.167 HD
ATOM     52  C   UNL A   1      40.442  32.918  37.530  1.00  0.00     0.037 A 
ATOM     53  C   UNL A   1      40.017  29.421  31.491  1.00  0.00     0.037 A 
ATOM     54  C   UNL A   1      41.531  32.011  37.279  1.00  0.00     0.049 A 
ATOM     55  C   UNL A   1      41.198  29.266  32.421  1.00  0.00     0.074 A 
ATOM     56  C   UNL A   1      42.621  31.731  38.084  1.00  0.00     0.029 A 
ATOM     57  N   UNL A   1      41.671  31.243  36.134  1.00  0.00    -0.354 N 
ATOM     58  N   UNL A   1      41.412  29.819  33.591  1.00  0.00    -0.248 NA
ATOM     59  C   UNL A   1      42.280  28.376  31.976  1.00  0.00     0.031 C 
ATOM     60  C   UNL A   1      43.454  30.841  37.398  1.00  0.00     0.029 A 
ATOM     61  C   UNL A   1      42.846  30.510  36.197  1.00  0.00     0.049 A 
ATOM     62  H   UNL A   1      41.030  31.220  35.386  1.00  0.00     0.167 HD
ATOM     63  C   UNL A   1      42.634  29.322  34.033  1.00  0.00     0.074 A 
ATOM     64  C   UNL A   1      43.107  28.411  33.012  1.00  0.00     0.031 C 
ATOM     65  C   UNL A   1      43.303  29.596  35.180  1.00  0.00     0.037 A 
BRANCH  52  66
ATOM     66  C   UNL A   1      40.470  33.730  38.793  1.00  0.00     0.064 A 
ATOM     67  C   UNL A   1      41.257  34.884  38.922  1.00  0.00     0.173 A 
ATOM     68  C   UNL A   1      39.674  33.355  39.887  1.00  0.00     0.173 A 
ATOM     69  F   UNL A   1      42.047  35.278  37.912  1.00  0.00    -0.203 F 
ATOM     70  C   UNL A   1      41.271  35.613  40.107  1.00  0.00     0.198 A 
ATOM     71  C   UNL A   1      39.664  34.106  41.059  1.00  0.00     0.198 A 
ATOM     72  F   UNL A   1      38.899  32.262  39.817  1.00  0.00    -0.203 F 
ATOM     73  F   UNL A   1      42.072  36.681  40.228  1.00  0.00    -0.200 F 
ATOM     74  C   UNL A   1      40.469  35.228  41.172  1.00  0.00     0.200 A 
ATOM     75  F   UNL A   1      38.876  33.740  42.080  1.00  0.00    -0.200 F 
ATOM     76  F   UNL A   1      40.477  35.935  42.310  1.00  0.00    -0.200 F 
ENDBRANCH  52  66
BRANCH  53  77
ATOM     77  C   UNL A   1      39.976  28.683  30.199  1.00  0.00     0.064 A 
ATOM     78  C   UNL A   1      39.368  27.423  30.100  1.00  0.00     0.173 A 
ATOM     79  C   UNL A   1      40.576  29.206  29.043  1.00  0.00     0.173 A 
ATOM     80  F   UNL A   1      38.807  26.864  31.182  1.00  0.00    -0.203 F 
ATOM     81  C   UNL A   1      39.378  26.709  28.903  1.00  0.00     0.198 A 
ATOM     82  C   UNL A   1      40.555  28.506  27.838  1.00  0.00     0.198 A 
ATOM     83  F   UNL A   1      41.179  30.403  29.082  1.00  0.00    -0.203 F 
ATOM     84  F   UNL A   1      38.837  25.484  28.853  1.00  0.00    -0.200 F 
ATOM     85  C   UNL A   1      39.965  27.255  27.771  1.00  0.00     0.200 A 
ATOM     86  F   UNL A   1      41.112  29.043  26.745  1.00  0.00    -0.200 F 
ATOM     87  F   UNL A   1      39.970  26.569  26.620  1.00  0.00    -0.200 F 
ENDBRANCH  53  77
BRANCH  65  88
ATOM     88  C   UNL A   1      44.597  28.871  35.426  1.00  0.00     0.064 A 
ATOM     89  C   UNL A   1      44.641  27.623  36.066  1.00  0.00     0.173 A 
ATOM     90  C   UNL A   1      45.809  29.412  34.965  1.00  0.00     0.173 A 
ATOM     91  F   UNL A   1      43.515  27.066  36.536  1.00  0.00    -0.203 F 
ATOM     92  C   UNL A   1      45.850  26.958  36.259  1.00  0.00     0.198 A 
ATOM     93  C   UNL A   1      47.011  28.728  35.130  1.00  0.00     0.198 A 
ATOM     94  F   UNL A   1      45.826  30.597  34.337  1.00  0.00    -0.203 F 
ATOM     95  F   UNL A   1      45.873  25.792  36.918  1.00  0.00    -0.200 F 
ATOM     96  C   UNL A   1      47.032  27.507  35.784  1.00  0.00     0.200 A 
ATOM     97  F   UNL A   1      48.149  29.252  34.652  1.00  0.00    -0.200 F 
ATOM     98  F   UNL A   1      48.192  26.860  35.961  1.00  0.00    -0.200 F 
ENDBRANCH  65  88
ENDBRANCH  39  40
ENDBRANCH  32  34
ENDBRANCH  31  32
ENDBRANCH  30  31
ENDBRANCH  29  30
ENDBRANCH  28  29
ENDBRANCH  27  28
ENDBRANCH   1  27
TORSDOF 21
ENDMDL
