MODEL 1
REMARK VINA RESULT:     -11.3      0.000      0.000
REMARK SMILES Cc1cc(F)c([C@@](C)(C(=O)OCCOCCOCCOC(=O)c2ccc(-c3c4nc(c(-c5c(F)c(F)c(F)c(F)c5F)c5ccc([nH]5)c(-c5c(F)c(F)c(F)c(F)c5F)c5nc(c(-c6c(F)c(F)c(F)c(F)c6F)c6ccc3[nH]6)C=C5)C=C4)cc2)[NH+]2CC[NH2+]CC2)cc1F
REMARK SMILES IDX 16 1 15 2 14 3 13 4 12 5 11 6 9 7 10 8 7 9 8 10 6 11 1 12
REMARK SMILES IDX 2 13 3 14 93 15 4 16 92 17 94 18 5 19 86 20 87 21 91 22
REMARK SMILES IDX 88 24 90 25 89 26 17 29 18 30 19 31 20 32 21 33 22 34 23 35
REMARK SMILES IDX 24 36 85 37 25 38 84 39 26 40 27 41 28 42 78 43 29 44 83 45
REMARK SMILES IDX 77 46 79 47 30 48 82 49 76 50 75 51 31 53 63 54 43 55 62 56
REMARK SMILES IDX 44 57 47 58 61 59 80 60 45 61 46 62 60 64 81 65 48 66 32 67
REMARK SMILES IDX 33 68 41 69 34 70 35 71 39 72 42 73 36 74 37 75 40 76 38 77
REMARK SMILES IDX 64 78 65 79 73 80 66 81 67 82 71 83 74 84 68 85 69 86 72 87
REMARK SMILES IDX 70 88 49 89 50 90 58 91 51 92 52 93 56 94 59 95 53 96 54 97
REMARK SMILES IDX 57 98 55 99
REMARK H PARENT 86 23 89 27 89 28 79 52 47 63
REMARK Flexibility Score: inf
ROOT
ATOM      1  C   UNL A   1      34.724  20.852  25.659  1.00  0.00     0.188 C 
ENDROOT
BRANCH   1   2
ATOM      2  C   UNL A   1      33.189  20.942  25.721  1.00  0.00     0.188 C 
BRANCH   2   3
ATOM      3  O   UNL A   1      32.579  22.092  26.274  1.00  0.00    -0.376 OA
BRANCH   3   4
ATOM      4  C   UNL A   1      31.292  22.480  25.805  1.00  0.00     0.202 C 
BRANCH   4   5
ATOM      5  C   UNL A   1      30.499  23.477  26.648  1.00  0.00     0.261 C 
BRANCH   5   6
ATOM      6  O   UNL A   1      31.123  24.779  26.706  1.00  0.00    -0.458 OA
BRANCH   6   7
ATOM      7  C   UNL A   1      30.780  25.658  25.721  1.00  0.00     0.372 C 
ATOM      8  O   UNL A   1      29.608  25.935  25.462  1.00  0.00    -0.244 OA
BRANCH   7   9
ATOM      9  C   UNL A   1      31.998  26.222  24.894  1.00  0.00     0.221 C 
ATOM     10  C   UNL A   1      31.289  26.719  23.601  1.00  0.00     0.098 C 
BRANCH   9  11
ATOM     11  C   UNL A   1      33.107  25.205  24.495  1.00  0.00     0.062 A 
ATOM     12  C   UNL A   1      36.528  22.861  23.107  1.00  0.00     0.047 C 
ATOM     13  C   UNL A   1      35.328  23.615  23.590  1.00  0.00    -0.012 A 
ATOM     14  C   UNL A   1      34.117  23.625  22.895  1.00  0.00     0.046 A 
ATOM     15  C   UNL A   1      35.384  24.313  24.785  1.00  0.00     0.126 A 
ATOM     16  C   UNL A   1      33.034  24.404  23.344  1.00  0.00     0.133 A 
ATOM     17  C   UNL A   1      34.305  25.077  25.224  1.00  0.00     0.053 A 
ATOM     18  F   UNL A   1      36.504  24.301  25.523  1.00  0.00    -0.207 F 
ATOM     19  F   UNL A   1      31.919  24.382  22.603  1.00  0.00    -0.206 F 
ENDBRANCH   9  11
BRANCH   9  20
ATOM     20  N   UNL A   1      32.537  27.406  25.638  1.00  0.00    -0.308 N 
ATOM     21  C   UNL A   1      32.838  28.664  24.962  1.00  0.00     0.325 C 
ATOM     22  C   UNL A   1      32.491  27.520  27.084  1.00  0.00     0.325 C 
ATOM     23  H   UNL A   1      33.321  26.773  25.483  1.00  0.00     0.349 HD
ATOM     24  C   UNL A   1      32.211  29.946  25.592  1.00  0.00     0.322 C 
ATOM     25  C   UNL A   1      31.529  28.623  27.551  1.00  0.00     0.322 C 
ATOM     26  N   UNL A   1      31.836  29.953  27.011  1.00  0.00    -0.337 N 
ATOM     27  H   UNL A   1      31.011  30.543  27.124  1.00  0.00     0.346 HD
ATOM     28  H   UNL A   1      32.641  30.304  27.529  1.00  0.00     0.346 HD
ENDBRANCH   9  20
ENDBRANCH   7   9
ENDBRANCH   6   7
ENDBRANCH   5   6
ENDBRANCH   4   5
ENDBRANCH   3   4
ENDBRANCH   2   3
ENDBRANCH   1   2
BRANCH   1  29
ATOM     29  O   UNL A   1      35.381  20.082  24.673  1.00  0.00    -0.376 OA
BRANCH  29  30
ATOM     30  C   UNL A   1      36.549  19.363  25.037  1.00  0.00     0.202 C 
BRANCH  30  31
ATOM     31  C   UNL A   1      37.915  19.964  24.690  1.00  0.00     0.261 C 
BRANCH  31  32
ATOM     32  O   UNL A   1      38.312  21.030  25.569  1.00  0.00    -0.460 OA
BRANCH  32  33
ATOM     33  C   UNL A   1      39.511  20.854  26.181  1.00  0.00     0.338 C 
ATOM     34  O   UNL A   1      40.231  19.875  26.141  1.00  0.00    -0.246 OA
BRANCH  33  35
ATOM     35  C   UNL A   1      39.944  22.132  26.779  1.00  0.00     0.060 A 
ATOM     36  C   UNL A   1      40.848  22.165  27.840  1.00  0.00     0.016 A 
ATOM     37  C   UNL A   1      39.490  23.321  26.195  1.00  0.00     0.016 A 
ATOM     38  C   UNL A   1      41.318  23.402  28.299  1.00  0.00     0.010 A 
ATOM     39  C   UNL A   1      39.949  24.550  26.664  1.00  0.00     0.010 A 
ATOM     40  C   UNL A   1      40.883  24.602  27.703  1.00  0.00    -0.014 A 
BRANCH  40  41
ATOM     41  C   UNL A   1      41.578  25.882  27.985  1.00  0.00     0.031 A 
ATOM     42  C   UNL A   1      42.966  26.176  27.505  1.00  0.00     0.074 A 
ATOM     43  C   UNL A   1      40.946  26.765  28.780  1.00  0.00     0.049 A 
ATOM     44  N   UNL A   1      43.621  27.310  27.546  1.00  0.00    -0.248 NA
ATOM     45  C   UNL A   1      43.734  25.058  26.942  1.00  0.00     0.031 C 
ATOM     46  C   UNL A   1      39.660  26.523  29.435  1.00  0.00     0.029 A 
ATOM     47  N   UNL A   1      41.287  28.034  29.170  1.00  0.00    -0.354 N 
ATOM     48  C   UNL A   1      44.864  27.054  26.987  1.00  0.00     0.074 A 
ATOM     49  C   UNL A   1      44.900  25.639  26.678  1.00  0.00     0.031 C 
ATOM     50  C   UNL A   1      39.294  27.627  30.101  1.00  0.00     0.029 A 
ATOM     51  C   UNL A   1      40.313  28.655  29.911  1.00  0.00     0.049 A 
ATOM     52  H   UNL A   1      42.146  28.458  28.941  1.00  0.00     0.167 HD
ATOM     53  C   UNL A   1      45.861  27.935  26.727  1.00  0.00     0.037 A 
ATOM     54  C   UNL A   1      40.224  29.925  30.345  1.00  0.00     0.037 A 
ATOM     55  C   UNL A   1      45.805  29.340  27.050  1.00  0.00     0.049 A 
ATOM     56  C   UNL A   1      41.311  30.899  29.991  1.00  0.00     0.074 A 
ATOM     57  C   UNL A   1      46.721  30.333  26.742  1.00  0.00     0.029 A 
ATOM     58  N   UNL A   1      44.785  29.948  27.766  1.00  0.00    -0.354 N 
ATOM     59  N   UNL A   1      42.407  30.696  29.301  1.00  0.00    -0.248 NA
ATOM     60  C   UNL A   1      41.140  32.283  30.452  1.00  0.00     0.031 C 
ATOM     61  C   UNL A   1      46.276  31.531  27.309  1.00  0.00     0.029 A 
ATOM     62  C   UNL A   1      45.059  31.296  27.928  1.00  0.00     0.049 A 
ATOM     63  H   UNL A   1      43.985  29.489  28.110  1.00  0.00     0.167 HD
ATOM     64  C   UNL A   1      43.040  31.927  29.221  1.00  0.00     0.074 A 
ATOM     65  C   UNL A   1      42.202  32.877  29.923  1.00  0.00     0.031 C 
ATOM     66  C   UNL A   1      44.212  32.238  28.616  1.00  0.00     0.037 A 
BRANCH  53  67
ATOM     67  C   UNL A   1      47.080  27.442  25.998  1.00  0.00     0.064 A 
ATOM     68  C   UNL A   1      47.167  27.531  24.601  1.00  0.00     0.173 A 
ATOM     69  C   UNL A   1      48.219  27.014  26.698  1.00  0.00     0.173 A 
ATOM     70  F   UNL A   1      46.110  27.942  23.884  1.00  0.00    -0.203 F 
ATOM     71  C   UNL A   1      48.344  27.205  23.932  1.00  0.00     0.198 A 
ATOM     72  C   UNL A   1      49.403  26.715  26.028  1.00  0.00     0.198 A 
ATOM     73  F   UNL A   1      48.198  26.927  28.037  1.00  0.00    -0.203 F 
ATOM     74  F   UNL A   1      48.397  27.289  22.595  1.00  0.00    -0.200 F 
ATOM     75  C   UNL A   1      49.464  26.811  24.645  1.00  0.00     0.200 A 
ATOM     76  F   UNL A   1      50.493  26.355  26.721  1.00  0.00    -0.200 F 
ATOM     77  F   UNL A   1      50.605  26.529  24.002  1.00  0.00    -0.200 F 
ENDBRANCH  53  67
BRANCH  54  78
ATOM     78  C   UNL A   1      38.989  30.365  31.040  1.00  0.00     0.064 A 
ATOM     79  C   UNL A   1      38.922  30.344  32.440  1.00  0.00     0.173 A 
ATOM     80  C   UNL A   1      37.887  30.870  30.337  1.00  0.00     0.173 A 
ATOM     81  F   UNL A   1      39.953  29.864  33.151  1.00  0.00    -0.203 F 
ATOM     82  C   UNL A   1      37.794  30.802  33.112  1.00  0.00     0.198 A 
ATOM     83  C   UNL A   1      36.768  31.352  31.012  1.00  0.00     0.198 A 
ATOM     84  F   UNL A   1      37.913  30.927  28.998  1.00  0.00    -0.203 F 
ATOM     85  F   UNL A   1      37.746  30.749  34.450  1.00  0.00    -0.200 F 
ATOM     86  C   UNL A   1      36.720  31.314  32.398  1.00  0.00     0.200 A 
ATOM     87  F   UNL A   1      35.740  31.865  30.321  1.00  0.00    -0.200 F 
ATOM     88  F   UNL A   1      35.641  31.771  33.047  1.00  0.00    -0.200 F 
ENDBRANCH  54  78
BRANCH  66  89
ATOM     89  C   UNL A   1      44.666  33.666  28.661  1.00  0.00     0.064 A 
ATOM     90  C   UNL A   1      45.534  34.125  29.663  1.00  0.00     0.173 A 
ATOM     91  C   UNL A   1      44.316  34.554  27.633  1.00  0.00     0.173 A 
ATOM     92  F   UNL A   1      45.886  33.315  30.673  1.00  0.00    -0.203 F 
ATOM     93  C   UNL A   1      46.033  35.424  29.634  1.00  0.00     0.198 A 
ATOM     94  C   UNL A   1      44.838  35.844  27.595  1.00  0.00     0.198 A 
ATOM     95  F   UNL A   1      43.495  34.160  26.649  1.00  0.00    -0.203 F 
ATOM     96  F   UNL A   1      46.846  35.849  30.612  1.00  0.00    -0.200 F 
ATOM     97  C   UNL A   1      45.696  36.278  28.595  1.00  0.00     0.200 A 
ATOM     98  F   UNL A   1      44.522  36.663  26.581  1.00  0.00    -0.200 F 
ATOM     99  F   UNL A   1      46.200  37.519  28.555  1.00  0.00    -0.200 F 
ENDBRANCH  66  89
ENDBRANCH  40  41
ENDBRANCH  33  35
ENDBRANCH  32  33
ENDBRANCH  31  32
ENDBRANCH  30  31
ENDBRANCH  29  30
ENDBRANCH   1  29
TORSDOF 19
ENDMDL
MODEL 2
REMARK VINA RESULT:     -11.2      4.196      9.755
REMARK SMILES Cc1cc(F)c([C@@](C)(C(=O)OCCOCCOCCOC(=O)c2ccc(-c3c4nc(c(-c5c(F)c(F)c(F)c(F)c5F)c5ccc([nH]5)c(-c5c(F)c(F)c(F)c(F)c5F)c5nc(c(-c6c(F)c(F)c(F)c(F)c6F)c6ccc3[nH]6)C=C5)C=C4)cc2)[NH+]2CC[NH2+]CC2)cc1F
REMARK SMILES IDX 16 1 15 2 14 3 13 4 12 5 11 6 9 7 10 8 7 9 8 10 6 11 1 12
REMARK SMILES IDX 2 13 3 14 93 15 4 16 92 17 94 18 5 19 86 20 87 21 91 22
REMARK SMILES IDX 88 24 90 25 89 26 17 29 18 30 19 31 20 32 21 33 22 34 23 35
REMARK SMILES IDX 24 36 85 37 25 38 84 39 26 40 27 41 28 42 78 43 29 44 83 45
REMARK SMILES IDX 77 46 79 47 30 48 82 49 76 50 75 51 31 53 63 54 43 55 62 56
REMARK SMILES IDX 44 57 47 58 61 59 80 60 45 61 46 62 60 64 81 65 48 66 32 67
REMARK SMILES IDX 33 68 41 69 34 70 35 71 39 72 42 73 36 74 37 75 40 76 38 77
REMARK SMILES IDX 64 78 65 79 73 80 66 81 67 82 71 83 74 84 68 85 69 86 72 87
REMARK SMILES IDX 70 88 49 89 50 90 58 91 51 92 52 93 56 94 59 95 53 96 54 97
REMARK SMILES IDX 57 98 55 99
REMARK H PARENT 86 23 89 27 89 28 79 52 47 63
REMARK Flexibility Score: inf
ROOT
ATOM      1  C   UNL A   1      30.238  28.658  23.671  1.00  0.00     0.188 C 
ENDROOT
BRANCH   1   2
ATOM      2  C   UNL A   1      29.897  27.248  23.159  1.00  0.00     0.188 C 
BRANCH   2   3
ATOM      3  O   UNL A   1      30.215  26.121  23.953  1.00  0.00    -0.376 OA
BRANCH   3   4
ATOM      4  C   UNL A   1      29.491  25.904  25.160  1.00  0.00     0.202 C 
BRANCH   4   5
ATOM      5  C   UNL A   1      30.138  25.024  26.228  1.00  0.00     0.261 C 
BRANCH   5   6
ATOM      6  O   UNL A   1      30.724  23.821  25.680  1.00  0.00    -0.458 OA
BRANCH   6   7
ATOM      7  C   UNL A   1      31.846  23.359  26.301  1.00  0.00     0.372 C 
ATOM      8  O   UNL A   1      31.820  22.863  27.428  1.00  0.00    -0.244 OA
BRANCH   7   9
ATOM      9  C   UNL A   1      33.182  23.586  25.495  1.00  0.00     0.221 C 
ATOM     10  C   UNL A   1      34.217  23.731  26.647  1.00  0.00     0.098 C 
BRANCH   9  11
ATOM     11  C   UNL A   1      33.253  24.856  24.598  1.00  0.00     0.062 A 
ATOM     12  C   UNL A   1      34.072  28.248  21.961  1.00  0.00     0.047 C 
ATOM     13  C   UNL A   1      33.744  27.113  22.882  1.00  0.00    -0.012 A 
ATOM     14  C   UNL A   1      33.756  27.247  24.272  1.00  0.00     0.046 A 
ATOM     15  C   UNL A   1      33.385  25.881  22.363  1.00  0.00     0.126 A 
ATOM     16  C   UNL A   1      33.513  26.139  25.105  1.00  0.00     0.133 A 
ATOM     17  C   UNL A   1      33.141  24.792  23.196  1.00  0.00     0.053 A 
ATOM     18  F   UNL A   1      33.307  25.704  21.035  1.00  0.00    -0.207 F 
ATOM     19  F   UNL A   1      33.573  26.346  26.427  1.00  0.00    -0.206 F 
ENDBRANCH   9  11
BRANCH   9  20
ATOM     20  N   UNL A   1      33.470  22.325  24.738  1.00  0.00    -0.308 N 
ATOM     21  C   UNL A   1      34.836  21.863  24.511  1.00  0.00     0.325 C 
ATOM     22  C   UNL A   1      32.463  21.315  24.470  1.00  0.00     0.325 C 
ATOM     23  H   UNL A   1      33.264  23.044  24.046  1.00  0.00     0.349 HD
ATOM     24  C   UNL A   1      35.134  20.384  24.910  1.00  0.00     0.322 C 
ATOM     25  C   UNL A   1      32.725  20.012  25.241  1.00  0.00     0.322 C 
ATOM     26  N   UNL A   1      34.037  19.412  24.974  1.00  0.00    -0.337 N 
ATOM     27  H   UNL A   1      34.242  18.744  25.719  1.00  0.00     0.346 HD
ATOM     28  H   UNL A   1      33.979  18.969  24.058  1.00  0.00     0.346 HD
ENDBRANCH   9  20
ENDBRANCH   7   9
ENDBRANCH   6   7
ENDBRANCH   5   6
ENDBRANCH   4   5
ENDBRANCH   3   4
ENDBRANCH   2   3
ENDBRANCH   1   2
BRANCH   1  29
ATOM     29  O   UNL A   1      30.854  28.861  24.927  1.00  0.00    -0.376 OA
BRANCH  29  30
ATOM     30  C   UNL A   1      31.352  30.153  25.240  1.00  0.00     0.202 C 
BRANCH  30  31
ATOM     31  C   UNL A   1      32.756  30.269  25.841  1.00  0.00     0.261 C 
BRANCH  31  32
ATOM     32  O   UNL A   1      32.756  30.678  27.220  1.00  0.00    -0.460 OA
BRANCH  32  33
ATOM     33  C   UNL A   1      33.485  31.791  27.489  1.00  0.00     0.338 C 
ATOM     34  O   UNL A   1      33.095  32.942  27.541  1.00  0.00    -0.246 OA
BRANCH  33  35
ATOM     35  C   UNL A   1      34.839  31.393  27.919  1.00  0.00     0.060 A 
ATOM     36  C   UNL A   1      35.866  32.329  28.035  1.00  0.00     0.016 A 
ATOM     37  C   UNL A   1      35.047  30.060  28.296  1.00  0.00     0.016 A 
ATOM     38  C   UNL A   1      37.102  31.928  28.557  1.00  0.00     0.010 A 
ATOM     39  C   UNL A   1      36.283  29.661  28.801  1.00  0.00     0.010 A 
ATOM     40  C   UNL A   1      37.314  30.593  28.958  1.00  0.00    -0.014 A 
BRANCH  40  41
ATOM     41  C   UNL A   1      38.503  30.225  29.763  1.00  0.00     0.031 A 
ATOM     42  C   UNL A   1      38.727  30.723  31.158  1.00  0.00     0.074 A 
ATOM     43  C   UNL A   1      39.449  29.480  29.161  1.00  0.00     0.049 A 
ATOM     44  N   UNL A   1      39.638  30.350  32.022  1.00  0.00    -0.248 NA
ATOM     45  C   UNL A   1      37.847  31.796  31.638  1.00  0.00     0.031 C 
ATOM     46  C   UNL A   1      39.416  29.069  27.757  1.00  0.00     0.029 A 
ATOM     47  N   UNL A   1      40.611  28.935  29.643  1.00  0.00    -0.354 N 
ATOM     48  C   UNL A   1      39.424  31.116  33.158  1.00  0.00     0.074 A 
ATOM     49  C   UNL A   1      38.342  32.028  32.850  1.00  0.00     0.031 C 
ATOM     50  C   UNL A   1      40.478  28.291  27.504  1.00  0.00     0.029 A 
ATOM     51  C   UNL A   1      41.259  28.142  28.729  1.00  0.00     0.049 A 
ATOM     52  H   UNL A   1      40.947  29.096  30.555  1.00  0.00     0.167 HD
ATOM     53  C   UNL A   1      40.057  31.032  34.354  1.00  0.00     0.037 A 
ATOM     54  C   UNL A   1      42.330  27.342  28.873  1.00  0.00     0.037 A 
ATOM     55  C   UNL A   1      41.140  30.120  34.636  1.00  0.00     0.049 A 
ATOM     56  C   UNL A   1      42.976  27.217  30.223  1.00  0.00     0.074 A 
ATOM     57  C   UNL A   1      41.782  29.890  35.841  1.00  0.00     0.029 A 
ATOM     58  N   UNL A   1      41.748  29.299  33.698  1.00  0.00    -0.354 N 
ATOM     59  N   UNL A   1      42.657  27.810  31.347  1.00  0.00    -0.248 NA
ATOM     60  C   UNL A   1      44.115  26.295  30.333  1.00  0.00     0.031 C 
ATOM     61  C   UNL A   1      42.806  28.963  35.623  1.00  0.00     0.029 A 
ATOM     62  C   UNL A   1      42.771  28.579  34.293  1.00  0.00     0.049 A 
ATOM     63  H   UNL A   1      41.491  29.238  32.749  1.00  0.00     0.167 HD
ATOM     64  C   UNL A   1      43.532  27.314  32.301  1.00  0.00     0.074 A 
ATOM     65  C   UNL A   1      44.391  26.361  31.628  1.00  0.00     0.031 C 
ATOM     66  C   UNL A   1      43.612  27.622  33.618  1.00  0.00     0.037 A 
BRANCH  53  67
ATOM     67  C   UNL A   1      39.567  31.892  35.485  1.00  0.00     0.064 A 
ATOM     68  C   UNL A   1      38.571  31.432  36.358  1.00  0.00     0.173 A 
ATOM     69  C   UNL A   1      40.189  33.114  35.788  1.00  0.00     0.173 A 
ATOM     70  F   UNL A   1      37.950  30.267  36.119  1.00  0.00    -0.203 F 
ATOM     71  C   UNL A   1      38.209  32.163  37.486  1.00  0.00     0.198 A 
ATOM     72  C   UNL A   1      39.844  33.830  36.933  1.00  0.00     0.198 A 
ATOM     73  F   UNL A   1      41.161  33.594  34.998  1.00  0.00    -0.203 F 
ATOM     74  F   UNL A   1      37.245  31.706  38.298  1.00  0.00    -0.200 F 
ATOM     75  C   UNL A   1      38.854  33.354  37.780  1.00  0.00     0.200 A 
ATOM     76  F   UNL A   1      40.485  34.970  37.228  1.00  0.00    -0.200 F 
ATOM     77  F   UNL A   1      38.528  34.040  38.884  1.00  0.00    -0.200 F 
ENDBRANCH  53  67
BRANCH  54  78
ATOM     78  C   UNL A   1      42.758  26.497  27.730  1.00  0.00     0.064 A 
ATOM     79  C   UNL A   1      43.676  26.992  26.792  1.00  0.00     0.173 A 
ATOM     80  C   UNL A   1      42.319  25.175  27.585  1.00  0.00     0.173 A 
ATOM     81  F   UNL A   1      44.118  28.254  26.892  1.00  0.00    -0.203 F 
ATOM     82  C   UNL A   1      44.131  26.198  25.745  1.00  0.00     0.198 A 
ATOM     83  C   UNL A   1      42.795  24.372  26.550  1.00  0.00     0.198 A 
ATOM     84  F   UNL A   1      41.457  24.652  28.468  1.00  0.00    -0.203 F 
ATOM     85  F   UNL A   1      44.989  26.702  24.849  1.00  0.00    -0.200 F 
ATOM     86  C   UNL A   1      43.697  24.886  25.629  1.00  0.00     0.200 A 
ATOM     87  F   UNL A   1      42.389  23.099  26.452  1.00  0.00    -0.200 F 
ATOM     88  F   UNL A   1      44.147  24.116  24.629  1.00  0.00    -0.200 F 
ENDBRANCH  54  78
BRANCH  66  89
ATOM     89  C   UNL A   1      44.649  26.918  34.441  1.00  0.00     0.064 A 
ATOM     90  C   UNL A   1      45.902  27.497  34.688  1.00  0.00     0.173 A 
ATOM     91  C   UNL A   1      44.347  25.704  35.075  1.00  0.00     0.173 A 
ATOM     92  F   UNL A   1      46.240  28.652  34.094  1.00  0.00    -0.203 F 
ATOM     93  C   UNL A   1      46.816  26.885  35.540  1.00  0.00     0.198 A 
ATOM     94  C   UNL A   1      45.254  25.107  35.946  1.00  0.00     0.198 A 
ATOM     95  F   UNL A   1      43.159  25.113  34.876  1.00  0.00    -0.203 F 
ATOM     96  F   UNL A   1      48.016  27.446  35.748  1.00  0.00    -0.200 F 
ATOM     97  C   UNL A   1      46.488  25.697  36.178  1.00  0.00     0.200 A 
ATOM     98  F   UNL A   1      44.929  23.967  36.573  1.00  0.00    -0.200 F 
ATOM     99  F   UNL A   1      47.360  25.124  37.018  1.00  0.00    -0.200 F 
ENDBRANCH  66  89
ENDBRANCH  40  41
ENDBRANCH  33  35
ENDBRANCH  32  33
ENDBRANCH  31  32
ENDBRANCH  30  31
ENDBRANCH  29  30
ENDBRANCH   1  29
TORSDOF 19
ENDMDL
MODEL 3
REMARK VINA RESULT:     -11.1      4.191      9.931
REMARK SMILES Cc1cc(F)c([C@@](C)(C(=O)OCCOCCOCCOC(=O)c2ccc(-c3c4nc(c(-c5c(F)c(F)c(F)c(F)c5F)c5ccc([nH]5)c(-c5c(F)c(F)c(F)c(F)c5F)c5nc(c(-c6c(F)c(F)c(F)c(F)c6F)c6ccc3[nH]6)C=C5)C=C4)cc2)[NH+]2CC[NH2+]CC2)cc1F
REMARK SMILES IDX 16 1 15 2 14 3 13 4 12 5 11 6 9 7 10 8 7 9 8 10 6 11 1 12
REMARK SMILES IDX 2 13 3 14 93 15 4 16 92 17 94 18 5 19 86 20 87 21 91 22
REMARK SMILES IDX 88 24 90 25 89 26 17 29 18 30 19 31 20 32 21 33 22 34 23 35
REMARK SMILES IDX 24 36 85 37 25 38 84 39 26 40 27 41 28 42 78 43 29 44 83 45
REMARK SMILES IDX 77 46 79 47 30 48 82 49 76 50 75 51 31 53 63 54 43 55 62 56
REMARK SMILES IDX 44 57 47 58 61 59 80 60 45 61 46 62 60 64 81 65 48 66 32 67
REMARK SMILES IDX 33 68 41 69 34 70 35 71 39 72 42 73 36 74 37 75 40 76 38 77
REMARK SMILES IDX 64 78 65 79 73 80 66 81 67 82 71 83 74 84 68 85 69 86 72 87
REMARK SMILES IDX 70 88 49 89 50 90 58 91 51 92 52 93 56 94 59 95 53 96 54 97
REMARK SMILES IDX 57 98 55 99
REMARK H PARENT 86 23 89 27 89 28 79 52 47 63
REMARK Flexibility Score: inf
ROOT
ATOM      1  C   UNL A   1      30.271  29.495  23.477  1.00  0.00     0.188 C 
ENDROOT
BRANCH   1   2
ATOM      2  C   UNL A   1      30.404  28.463  22.344  1.00  0.00     0.188 C 
BRANCH   2   3
ATOM      3  O   UNL A   1      31.014  27.214  22.605  1.00  0.00    -0.376 OA
BRANCH   3   4
ATOM      4  C   UNL A   1      32.271  26.923  22.002  1.00  0.00     0.202 C 
BRANCH   4   5
ATOM      5  C   UNL A   1      32.530  25.485  21.558  1.00  0.00     0.261 C 
BRANCH   5   6
ATOM      6  O   UNL A   1      33.645  24.879  22.251  1.00  0.00    -0.458 OA
BRANCH   6   7
ATOM      7  C   UNL A   1      33.426  23.643  22.782  1.00  0.00     0.372 C 
ATOM      8  O   UNL A   1      33.194  22.656  22.082  1.00  0.00    -0.244 OA
BRANCH   7   9
ATOM      9  C   UNL A   1      33.414  23.599  24.358  1.00  0.00     0.221 C 
ATOM     10  C   UNL A   1      32.485  22.380  24.626  1.00  0.00     0.098 C 
BRANCH   9  11
ATOM     11  C   UNL A   1      32.830  24.842  25.090  1.00  0.00     0.062 A 
ATOM     12  C   UNL A   1      31.349  28.024  27.699  1.00  0.00     0.047 C 
ATOM     13  C   UNL A   1      31.827  26.959  26.762  1.00  0.00    -0.012 A 
ATOM     14  C   UNL A   1      30.963  26.032  26.176  1.00  0.00     0.046 A 
ATOM     15  C   UNL A   1      33.168  26.884  26.424  1.00  0.00     0.126 A 
ATOM     16  C   UNL A   1      31.460  25.000  25.358  1.00  0.00     0.133 A 
ATOM     17  C   UNL A   1      33.649  25.862  25.609  1.00  0.00     0.053 A 
ATOM     18  F   UNL A   1      34.039  27.777  26.916  1.00  0.00    -0.207 F 
ATOM     19  F   UNL A   1      30.567  24.134  24.858  1.00  0.00    -0.206 F 
ENDBRANCH   9  11
BRANCH   9  20
ATOM     20  N   UNL A   1      34.803  23.261  24.809  1.00  0.00    -0.308 N 
ATOM     21  C   UNL A   1      35.060  22.171  25.745  1.00  0.00     0.325 C 
ATOM     22  C   UNL A   1      35.994  23.736  24.130  1.00  0.00     0.325 C 
ATOM     23  H   UNL A   1      34.507  24.073  25.349  1.00  0.00     0.349 HD
ATOM     24  C   UNL A   1      36.136  21.131  25.305  1.00  0.00     0.322 C 
ATOM     25  C   UNL A   1      36.760  22.601  23.434  1.00  0.00     0.322 C 
ATOM     26  N   UNL A   1      37.167  21.515  24.333  1.00  0.00    -0.337 N 
ATOM     27  H   UNL A   1      37.395  20.698  23.766  1.00  0.00     0.346 HD
ATOM     28  H   UNL A   1      37.966  21.856  24.867  1.00  0.00     0.346 HD
ENDBRANCH   9  20
ENDBRANCH   7   9
ENDBRANCH   6   7
ENDBRANCH   5   6
ENDBRANCH   4   5
ENDBRANCH   3   4
ENDBRANCH   2   3
ENDBRANCH   1   2
BRANCH   1  29
ATOM     29  O   UNL A   1      31.079  29.431  24.636  1.00  0.00    -0.376 OA
BRANCH  29  30
ATOM     30  C   UNL A   1      31.308  30.622  25.372  1.00  0.00     0.202 C 
BRANCH  30  31
ATOM     31  C   UNL A   1      32.666  30.809  26.056  1.00  0.00     0.261 C 
BRANCH  31  32
ATOM     32  O   UNL A   1      32.571  31.398  27.365  1.00  0.00    -0.460 OA
BRANCH  32  33
ATOM     33  C   UNL A   1      33.404  32.448  27.585  1.00  0.00     0.338 C 
ATOM     34  O   UNL A   1      33.123  33.631  27.597  1.00  0.00    -0.246 OA
BRANCH  33  35
ATOM     35  C   UNL A   1      34.721  31.942  28.016  1.00  0.00     0.060 A 
ATOM     36  C   UNL A   1      35.851  32.759  27.999  1.00  0.00     0.016 A 
ATOM     37  C   UNL A   1      34.793  30.640  28.529  1.00  0.00     0.016 A 
ATOM     38  C   UNL A   1      37.055  32.272  28.524  1.00  0.00     0.010 A 
ATOM     39  C   UNL A   1      35.996  30.155  29.038  1.00  0.00     0.010 A 
ATOM     40  C   UNL A   1      37.131  30.972  29.061  1.00  0.00    -0.014 A 
BRANCH  40  41
ATOM     41  C   UNL A   1      38.304  30.554  29.867  1.00  0.00     0.031 A 
ATOM     42  C   UNL A   1      38.539  31.028  31.267  1.00  0.00     0.074 A 
ATOM     43  C   UNL A   1      39.226  29.783  29.259  1.00  0.00     0.049 A 
ATOM     44  N   UNL A   1      39.434  30.614  32.130  1.00  0.00    -0.248 NA
ATOM     45  C   UNL A   1      37.696  32.126  31.756  1.00  0.00     0.031 C 
ATOM     46  C   UNL A   1      39.184  29.389  27.850  1.00  0.00     0.029 A 
ATOM     47  N   UNL A   1      40.366  29.193  29.739  1.00  0.00    -0.354 N 
ATOM     48  C   UNL A   1      39.243  31.374  33.274  1.00  0.00     0.074 A 
ATOM     49  C   UNL A   1      38.194  32.326  32.973  1.00  0.00     0.031 C 
ATOM     50  C   UNL A   1      40.219  28.578  27.592  1.00  0.00     0.029 A 
ATOM     51  C   UNL A   1      40.990  28.388  28.818  1.00  0.00     0.049 A 
ATOM     52  H   UNL A   1      40.705  29.332  30.653  1.00  0.00     0.167 HD
ATOM     53  C   UNL A   1      39.868  31.255  34.471  1.00  0.00     0.037 A 
ATOM     54  C   UNL A   1      42.032  27.550  28.957  1.00  0.00     0.037 A 
ATOM     55  C   UNL A   1      40.918  30.303  34.746  1.00  0.00     0.049 A 
ATOM     56  C   UNL A   1      42.668  27.387  30.307  1.00  0.00     0.074 A 
ATOM     57  C   UNL A   1      41.547  30.037  35.951  1.00  0.00     0.029 A 
ATOM     58  N   UNL A   1      41.500  29.472  33.801  1.00  0.00    -0.354 N 
ATOM     59  N   UNL A   1      42.366  27.979  31.437  1.00  0.00    -0.248 NA
ATOM     60  C   UNL A   1      43.774  26.425  30.410  1.00  0.00     0.031 C 
ATOM     61  C   UNL A   1      42.540  29.079  35.725  1.00  0.00     0.029 A 
ATOM     62  C   UNL A   1      42.496  28.710  34.391  1.00  0.00     0.049 A 
ATOM     63  H   UNL A   1      41.245  29.431  32.851  1.00  0.00     0.167 HD
ATOM     64  C   UNL A   1      43.220  27.442  32.388  1.00  0.00     0.074 A 
ATOM     65  C   UNL A   1      44.048  26.467  31.707  1.00  0.00     0.031 C 
ATOM     66  C   UNL A   1      43.306  27.732  33.708  1.00  0.00     0.037 A 
BRANCH  53  67
ATOM     67  C   UNL A   1      39.404  32.119  35.610  1.00  0.00     0.064 A 
ATOM     68  C   UNL A   1      38.472  31.640  36.542  1.00  0.00     0.173 A 
ATOM     69  C   UNL A   1      39.993  33.370  35.858  1.00  0.00     0.173 A 
ATOM     70  F   UNL A   1      37.885  30.448  36.357  1.00  0.00    -0.203 F 
ATOM     71  C   UNL A   1      38.141  32.380  37.674  1.00  0.00     0.198 A 
ATOM     72  C   UNL A   1      39.680  34.095  37.006  1.00  0.00     0.198 A 
ATOM     73  F   UNL A   1      40.905  33.869  35.010  1.00  0.00    -0.203 F 
ATOM     74  F   UNL A   1      37.238  31.903  38.543  1.00  0.00    -0.200 F 
ATOM     75  C   UNL A   1      38.754  33.600  37.912  1.00  0.00     0.200 A 
ATOM     76  F   UNL A   1      40.291  35.264  37.246  1.00  0.00    -0.200 F 
ATOM     77  F   UNL A   1      38.459  34.295  39.018  1.00  0.00    -0.200 F 
ENDBRANCH  53  67
BRANCH  54  78
ATOM     78  C   UNL A   1      42.435  26.704  27.806  1.00  0.00     0.064 A 
ATOM     79  C   UNL A   1      41.787  25.484  27.566  1.00  0.00     0.173 A 
ATOM     80  C   UNL A   1      43.415  27.116  26.894  1.00  0.00     0.173 A 
ATOM     81  F   UNL A   1      40.845  25.049  28.417  1.00  0.00    -0.203 F 
ATOM     82  C   UNL A   1      42.112  24.702  26.462  1.00  0.00     0.198 A 
ATOM     83  C   UNL A   1      43.723  26.345  25.775  1.00  0.00     0.198 A 
ATOM     84  F   UNL A   1      44.048  28.285  27.071  1.00  0.00    -0.203 F 
ATOM     85  F   UNL A   1      41.495  23.529  26.270  1.00  0.00    -0.200 F 
ATOM     86  C   UNL A   1      43.074  25.137  25.562  1.00  0.00     0.200 A 
ATOM     87  F   UNL A   1      44.638  26.777  24.897  1.00  0.00    -0.200 F 
ATOM     88  F   UNL A   1      43.375  24.392  24.491  1.00  0.00    -0.200 F 
ENDBRANCH  54  78
BRANCH  66  89
ATOM     89  C   UNL A   1      44.314  26.984  34.527  1.00  0.00     0.064 A 
ATOM     90  C   UNL A   1      45.593  27.508  34.767  1.00  0.00     0.173 A 
ATOM     91  C   UNL A   1      43.963  25.785  35.164  1.00  0.00     0.173 A 
ATOM     92  F   UNL A   1      45.979  28.646  34.170  1.00  0.00    -0.203 F 
ATOM     93  C   UNL A   1      46.484  26.856  35.615  1.00  0.00     0.198 A 
ATOM     94  C   UNL A   1      44.847  25.149  36.031  1.00  0.00     0.198 A 
ATOM     95  F   UNL A   1      42.749  25.247  34.971  1.00  0.00    -0.203 F 
ATOM     96  F   UNL A   1      47.708  27.364  35.816  1.00  0.00    -0.200 F 
ATOM     97  C   UNL A   1      46.107  25.685  36.255  1.00  0.00     0.200 A 
ATOM     98  F   UNL A   1      44.475  24.025  36.660  1.00  0.00    -0.200 F 
ATOM     99  F   UNL A   1      46.957  25.074  37.092  1.00  0.00    -0.200 F 
ENDBRANCH  66  89
ENDBRANCH  40  41
ENDBRANCH  33  35
ENDBRANCH  32  33
ENDBRANCH  31  32
ENDBRANCH  30  31
ENDBRANCH  29  30
ENDBRANCH   1  29
TORSDOF 19
ENDMDL
