MODEL 1
REMARK VINA RESULT:     -10.6      0.000      0.000
REMARK SMILES O=C(/C=C/c1ccc(O)cc1)NC[C@@H]1CC[C@H](C(=O)OCCOCCOCCOC(=O)c2ccc(-c3c4nc(c(-c5c(F)c(F)c(F)c(F)c5F)c5ccc([nH]5)c(-c5c(F)c(F)c(F)c(F)c5F)c5nc(c(-c6c(F)c(F)c(F)c(F)c6F)c6ccc3[nH]6)C=C5)C=C4)cc2)O1
REMARK SMILES IDX 23 1 22 2 21 3 20 4 18 5 19 6 17 7 14 8 15 9 95 10 16 11
REMARK SMILES IDX 13 12 12 13 1 14 2 15 3 17 4 18 5 19 6 20 11 21 7 22 10 23
REMARK SMILES IDX 8 24 9 25 24 27 25 28 26 29 27 30 28 31 29 32 30 33 31 34
REMARK SMILES IDX 32 35 33 36 94 37 34 38 93 39 35 40 36 41 37 42 87 43 38 44
REMARK SMILES IDX 92 45 86 46 88 47 39 48 91 49 85 50 84 51 40 53 72 54 52 55
REMARK SMILES IDX 71 56 53 57 56 58 70 59 89 60 54 61 55 62 69 64 90 65 57 66
REMARK SMILES IDX 41 67 42 68 50 69 43 70 44 71 48 72 51 73 45 74 46 75 49 76
REMARK SMILES IDX 47 77 73 78 74 79 82 80 75 81 76 82 80 83 83 84 77 85 78 86
REMARK SMILES IDX 81 87 79 88 58 89 59 90 67 91 60 92 61 93 65 94 68 95 62 96
REMARK SMILES IDX 63 97 66 98 64 99
REMARK H PARENT 12 16 9 26 88 52 56 63
REMARK Flexibility Score: inf
ROOT
ATOM      1  O   UNL A   1      34.602  22.740  25.795  1.00  0.00    -0.376 OA
ENDROOT
BRANCH   1   2
ATOM      2  C   UNL A   1      34.028  23.000  24.510  1.00  0.00     0.202 C 
BRANCH   2   3
ATOM      3  C   UNL A   1      33.467  24.407  24.227  1.00  0.00     0.261 C 
BRANCH   3   4
ATOM      4  O   UNL A   1      32.684  24.493  23.012  1.00  0.00    -0.461 OA
BRANCH   4   5
ATOM      5  C   UNL A   1      32.718  25.682  22.359  1.00  0.00     0.335 C 
ATOM      6  O   UNL A   1      33.675  26.068  21.694  1.00  0.00    -0.249 OA
BRANCH   5   7
ATOM      7  C   UNL A   1      31.405  26.485  22.444  1.00  0.00     0.228 C 
ATOM      8  C   UNL A   1      31.754  28.381  23.742  1.00  0.00     0.138 C 
ATOM      9  C   UNL A   1      31.046  27.363  24.623  1.00  0.00     0.037 C 
ATOM     10  O   UNL A   1      31.732  27.883  22.391  1.00  0.00    -0.361 OA
ATOM     11  C   UNL A   1      30.475  26.383  23.638  1.00  0.00     0.047 C 
BRANCH   8  12
ATOM     12  C   UNL A   1      33.200  28.634  24.191  1.00  0.00     0.148 C 
BRANCH  12  13
ATOM     13  N   UNL A   1      33.256  29.715  25.151  1.00  0.00    -0.350 N 
ATOM     14  O   UNL A   1      33.974  28.459  26.935  1.00  0.00    -0.270 OA
ATOM     15  C   UNL A   1      33.555  29.511  26.471  1.00  0.00     0.244 C 
ATOM     16  H   UNL A   1      33.072  30.632  24.844  1.00  0.00     0.163 HD
BRANCH  15  17
ATOM     17  C   UNL A   1      33.350  30.685  27.353  1.00  0.00     0.072 C 
ATOM     18  C   UNL A   1      34.349  31.485  27.756  1.00  0.00     0.014 C 
BRANCH  18  19
ATOM     19  C   UNL A   1      34.152  32.681  28.580  1.00  0.00    -0.025 A 
ATOM     20  C   UNL A   1      34.682  32.791  29.872  1.00  0.00     0.012 A 
ATOM     21  C   UNL A   1      33.468  33.772  28.026  1.00  0.00     0.012 A 
ATOM     22  C   UNL A   1      34.509  33.964  30.610  1.00  0.00     0.047 A 
ATOM     23  C   UNL A   1      33.293  34.943  28.764  1.00  0.00     0.047 A 
ATOM     24  C   UNL A   1      33.812  35.030  30.049  1.00  0.00     0.115 A 
BRANCH  24  25
ATOM     25  O   UNL A   1      33.619  36.192  30.733  1.00  0.00    -0.508 OA
ATOM     26  H   UNL A   1      32.958  36.242  31.395  1.00  0.00     0.293 HD
ENDBRANCH  24  25
ENDBRANCH  18  19
ENDBRANCH  15  17
ENDBRANCH  12  13
ENDBRANCH   8  12
ENDBRANCH   5   7
ENDBRANCH   4   5
ENDBRANCH   3   4
ENDBRANCH   2   3
ENDBRANCH   1   2
BRANCH   1  27
ATOM     27  C   UNL A   1      35.626  21.762  25.872  1.00  0.00     0.188 C 
BRANCH  27  28
ATOM     28  C   UNL A   1      35.582  20.604  24.872  1.00  0.00     0.188 C 
BRANCH  28  29
ATOM     29  O   UNL A   1      36.641  19.686  24.981  1.00  0.00    -0.376 OA
BRANCH  29  30
ATOM     30  C   UNL A   1      37.993  20.123  24.976  1.00  0.00     0.202 C 
BRANCH  30  31
ATOM     31  C   UNL A   1      39.118  19.319  25.665  1.00  0.00     0.261 C 
BRANCH  31  32
ATOM     32  O   UNL A   1      40.462  19.476  25.176  1.00  0.00    -0.460 OA
BRANCH  32  33
ATOM     33  C   UNL A   1      41.483  19.270  26.042  1.00  0.00     0.338 C 
ATOM     34  O   UNL A   1      42.045  18.211  26.271  1.00  0.00    -0.246 OA
BRANCH  33  35
ATOM     35  C   UNL A   1      42.009  20.610  26.426  1.00  0.00     0.060 A 
ATOM     36  C   UNL A   1      42.052  21.621  25.451  1.00  0.00     0.016 A 
ATOM     37  C   UNL A   1      42.332  20.910  27.751  1.00  0.00     0.016 A 
ATOM     38  C   UNL A   1      42.412  22.927  25.798  1.00  0.00     0.010 A 
ATOM     39  C   UNL A   1      42.726  22.210  28.090  1.00  0.00     0.010 A 
ATOM     40  C   UNL A   1      42.778  23.225  27.116  1.00  0.00    -0.014 A 
BRANCH  40  41
ATOM     41  C   UNL A   1      43.355  24.550  27.465  1.00  0.00     0.031 A 
ATOM     42  C   UNL A   1      42.440  25.605  28.020  1.00  0.00     0.074 A 
ATOM     43  C   UNL A   1      44.658  24.830  27.275  1.00  0.00     0.049 A 
ATOM     44  N   UNL A   1      42.673  26.870  28.264  1.00  0.00    -0.248 NA
ATOM     45  C   UNL A   1      41.071  25.171  28.343  1.00  0.00     0.031 C 
ATOM     46  C   UNL A   1      45.664  23.887  26.794  1.00  0.00     0.029 A 
ATOM     47  N   UNL A   1      45.351  26.006  27.444  1.00  0.00    -0.354 N 
ATOM     48  C   UNL A   1      41.482  27.383  28.761  1.00  0.00     0.074 A 
ATOM     49  C   UNL A   1      40.521  26.302  28.760  1.00  0.00     0.031 C 
ATOM     50  C   UNL A   1      46.839  24.530  26.675  1.00  0.00     0.029 A 
ATOM     51  C   UNL A   1      46.658  25.938  27.025  1.00  0.00     0.049 A 
ATOM     52  H   UNL A   1      44.948  26.819  27.827  1.00  0.00     0.167 HD
ATOM     53  C   UNL A   1      41.217  28.641  29.188  1.00  0.00     0.037 A 
ATOM     54  C   UNL A   1      47.585  26.910  26.898  1.00  0.00     0.037 A 
ATOM     55  C   UNL A   1      42.169  29.720  29.178  1.00  0.00     0.049 A 
ATOM     56  C   UNL A   1      47.233  28.330  27.274  1.00  0.00     0.074 A 
ATOM     57  C   UNL A   1      41.994  31.027  29.596  1.00  0.00     0.029 A 
ATOM     58  N   UNL A   1      43.473  29.619  28.717  1.00  0.00    -0.354 N 
ATOM     59  N   UNL A   1      46.113  28.807  27.762  1.00  0.00    -0.248 NA
ATOM     60  C   UNL A   1      48.274  29.351  27.075  1.00  0.00     0.031 C 
ATOM     61  C   UNL A   1      43.172  31.734  29.331  1.00  0.00     0.029 A 
ATOM     62  C   UNL A   1      44.102  30.852  28.806  1.00  0.00     0.049 A 
ATOM     63  H   UNL A   1      43.890  28.795  28.374  1.00  0.00     0.167 HD
ATOM     64  C   UNL A   1      46.322  30.168  27.947  1.00  0.00     0.074 A 
ATOM     65  C   UNL A   1      47.684  30.441  27.542  1.00  0.00     0.031 C 
ATOM     66  C   UNL A   1      45.460  31.111  28.403  1.00  0.00     0.037 A 
BRANCH  53  67
ATOM     67  C   UNL A   1      39.829  28.929  29.681  1.00  0.00     0.064 A 
ATOM     68  C   UNL A   1      38.809  29.338  28.809  1.00  0.00     0.173 A 
ATOM     69  C   UNL A   1      39.503  28.742  31.034  1.00  0.00     0.173 A 
ATOM     70  F   UNL A   1      39.073  29.544  27.510  1.00  0.00    -0.203 F 
ATOM     71  C   UNL A   1      37.518  29.569  29.278  1.00  0.00     0.198 A 
ATOM     72  C   UNL A   1      38.203  28.945  31.491  1.00  0.00     0.198 A 
ATOM     73  F   UNL A   1      40.440  28.348  31.908  1.00  0.00    -0.203 F 
ATOM     74  F   UNL A   1      36.570  30.001  28.435  1.00  0.00    -0.200 F 
ATOM     75  C   UNL A   1      37.214  29.364  30.614  1.00  0.00     0.200 A 
ATOM     76  F   UNL A   1      37.909  28.731  32.780  1.00  0.00    -0.200 F 
ATOM     77  F   UNL A   1      35.968  29.573  31.060  1.00  0.00    -0.200 F 
ENDBRANCH  53  67
BRANCH  54  78
ATOM     78  C   UNL A   1      48.928  26.597  26.334  1.00  0.00     0.064 A 
ATOM     79  C   UNL A   1      49.963  26.107  27.144  1.00  0.00     0.173 A 
ATOM     80  C   UNL A   1      49.222  26.835  24.982  1.00  0.00     0.173 A 
ATOM     81  F   UNL A   1      49.747  25.896  28.450  1.00  0.00    -0.203 F 
ATOM     82  C   UNL A   1      51.242  25.894  26.632  1.00  0.00     0.198 A 
ATOM     83  C   UNL A   1      50.490  26.587  24.463  1.00  0.00     0.198 A 
ATOM     84  F   UNL A   1      48.274  27.315  24.164  1.00  0.00    -0.203 F 
ATOM     85  F   UNL A   1      52.228  25.489  27.443  1.00  0.00    -0.200 F 
ATOM     86  C   UNL A   1      51.503  26.127  25.289  1.00  0.00     0.200 A 
ATOM     87  F   UNL A   1      50.734  26.807  23.163  1.00  0.00    -0.200 F 
ATOM     88  F   UNL A   1      52.733  25.926  24.799  1.00  0.00    -0.200 F 
ENDBRANCH  54  78
BRANCH  66  89
ATOM     89  C   UNL A   1      45.964  32.523  28.512  1.00  0.00     0.064 A 
ATOM     90  C   UNL A   1      46.626  32.982  29.661  1.00  0.00     0.173 A 
ATOM     91  C   UNL A   1      45.835  33.413  27.433  1.00  0.00     0.173 A 
ATOM     92  F   UNL A   1      46.766  32.178  30.725  1.00  0.00    -0.203 F 
ATOM     93  C   UNL A   1      47.118  34.283  29.734  1.00  0.00     0.198 A 
ATOM     94  C   UNL A   1      46.357  34.702  27.497  1.00  0.00     0.198 A 
ATOM     95  F   UNL A   1      45.218  33.024  26.306  1.00  0.00    -0.203 F 
ATOM     96  F   UNL A   1      47.706  34.712  30.860  1.00  0.00    -0.200 F 
ATOM     97  C   UNL A   1      46.991  35.139  28.650  1.00  0.00     0.200 A 
ATOM     98  F   UNL A   1      46.249  35.522  26.442  1.00  0.00    -0.200 F 
ATOM     99  F   UNL A   1      47.477  36.385  28.718  1.00  0.00    -0.200 F 
ENDBRANCH  66  89
ENDBRANCH  40  41
ENDBRANCH  33  35
ENDBRANCH  32  33
ENDBRANCH  31  32
ENDBRANCH  30  31
ENDBRANCH  29  30
ENDBRANCH  28  29
ENDBRANCH  27  28
ENDBRANCH   1  27
TORSDOF 22
ENDMDL
MODEL 2
REMARK VINA RESULT:     -10.6      2.823      8.938
REMARK SMILES O=C(/C=C/c1ccc(O)cc1)NC[C@@H]1CC[C@H](C(=O)OCCOCCOCCOC(=O)c2ccc(-c3c4nc(c(-c5c(F)c(F)c(F)c(F)c5F)c5ccc([nH]5)c(-c5c(F)c(F)c(F)c(F)c5F)c5nc(c(-c6c(F)c(F)c(F)c(F)c6F)c6ccc3[nH]6)C=C5)C=C4)cc2)O1
REMARK SMILES IDX 23 1 22 2 21 3 20 4 18 5 19 6 17 7 14 8 15 9 95 10 16 11
REMARK SMILES IDX 13 12 12 13 1 14 2 15 3 17 4 18 5 19 6 20 11 21 7 22 10 23
REMARK SMILES IDX 8 24 9 25 24 27 25 28 26 29 27 30 28 31 29 32 30 33 31 34
REMARK SMILES IDX 32 35 33 36 94 37 34 38 93 39 35 40 36 41 37 42 87 43 38 44
REMARK SMILES IDX 92 45 86 46 88 47 39 48 91 49 85 50 84 51 40 53 72 54 52 55
REMARK SMILES IDX 71 56 53 57 56 58 70 59 89 60 54 61 55 62 69 64 90 65 57 66
REMARK SMILES IDX 41 67 42 68 50 69 43 70 44 71 48 72 51 73 45 74 46 75 49 76
REMARK SMILES IDX 47 77 73 78 74 79 82 80 75 81 76 82 80 83 83 84 77 85 78 86
REMARK SMILES IDX 81 87 79 88 58 89 59 90 67 91 60 92 61 93 65 94 68 95 62 96
REMARK SMILES IDX 63 97 66 98 64 99
REMARK H PARENT 12 16 9 26 88 52 56 63
REMARK Flexibility Score: inf
ROOT
ATOM      1  O   UNL A   1      37.907  22.765  26.017  1.00  0.00    -0.376 OA
ENDROOT
BRANCH   1   2
ATOM      2  C   UNL A   1      36.524  22.879  25.666  1.00  0.00     0.202 C 
BRANCH   2   3
ATOM      3  C   UNL A   1      35.954  24.280  25.371  1.00  0.00     0.261 C 
BRANCH   3   4
ATOM      4  O   UNL A   1      34.515  24.309  25.224  1.00  0.00    -0.461 OA
BRANCH   4   5
ATOM      5  C   UNL A   1      34.043  24.436  23.958  1.00  0.00     0.335 C 
ATOM      6  O   UNL A   1      33.911  23.494  23.182  1.00  0.00    -0.249 OA
BRANCH   5   7
ATOM      7  C   UNL A   1      33.593  25.865  23.594  1.00  0.00     0.228 C 
ATOM      8  C   UNL A   1      31.657  26.376  24.775  1.00  0.00     0.138 C 
ATOM      9  C   UNL A   1      31.232  26.013  23.359  1.00  0.00     0.037 C 
ATOM     10  O   UNL A   1      33.093  26.492  24.786  1.00  0.00    -0.361 OA
ATOM     11  C   UNL A   1      32.505  26.129  22.571  1.00  0.00     0.047 C 
BRANCH   8  12
ATOM     12  C   UNL A   1      31.200  25.335  25.805  1.00  0.00     0.148 C 
BRANCH  12  13
ATOM     13  N   UNL A   1      31.271  24.001  25.249  1.00  0.00    -0.350 N 
ATOM     14  O   UNL A   1      31.323  22.874  27.250  1.00  0.00    -0.270 OA
ATOM     15  C   UNL A   1      31.417  22.886  26.030  1.00  0.00     0.244 C 
ATOM     16  H   UNL A   1      31.211  23.890  24.273  1.00  0.00     0.163 HD
BRANCH  15  17
ATOM     17  C   UNL A   1      31.695  21.631  25.292  1.00  0.00     0.072 C 
ATOM     18  C   UNL A   1      32.891  21.021  25.301  1.00  0.00     0.014 C 
BRANCH  18  19
ATOM     19  C   UNL A   1      33.162  19.750  24.623  1.00  0.00    -0.025 A 
ATOM     20  C   UNL A   1      32.306  19.233  23.642  1.00  0.00     0.012 A 
ATOM     21  C   UNL A   1      34.350  19.071  24.922  1.00  0.00     0.012 A 
ATOM     22  C   UNL A   1      32.620  18.039  22.987  1.00  0.00     0.047 A 
ATOM     23  C   UNL A   1      34.663  17.878  24.270  1.00  0.00     0.047 A 
ATOM     24  C   UNL A   1      33.797  17.370  23.311  1.00  0.00     0.115 A 
BRANCH  24  25
ATOM     25  O   UNL A   1      34.142  16.204  22.698  1.00  0.00    -0.508 OA
ATOM     26  H   UNL A   1      33.546  15.792  22.105  1.00  0.00     0.293 HD
ENDBRANCH  24  25
ENDBRANCH  18  19
ENDBRANCH  15  17
ENDBRANCH  12  13
ENDBRANCH   8  12
ENDBRANCH   5   7
ENDBRANCH   4   5
ENDBRANCH   3   4
ENDBRANCH   2   3
ENDBRANCH   1   2
BRANCH   1  27
ATOM     27  C   UNL A   1      38.562  21.541  25.725  1.00  0.00     0.188 C 
BRANCH  27  28
ATOM     28  C   UNL A   1      39.994  21.360  26.235  1.00  0.00     0.188 C 
BRANCH  28  29
ATOM     29  O   UNL A   1      40.566  20.105  25.964  1.00  0.00    -0.376 OA
BRANCH  29  30
ATOM     30  C   UNL A   1      41.761  19.689  26.607  1.00  0.00     0.202 C 
BRANCH  30  31
ATOM     31  C   UNL A   1      42.795  18.778  25.909  1.00  0.00     0.261 C 
BRANCH  31  32
ATOM     32  O   UNL A   1      43.286  19.173  24.616  1.00  0.00    -0.460 OA
BRANCH  32  33
ATOM     33  C   UNL A   1      44.598  19.494  24.504  1.00  0.00     0.338 C 
ATOM     34  O   UNL A   1      45.472  18.826  23.974  1.00  0.00    -0.246 OA
BRANCH  33  35
ATOM     35  C   UNL A   1      44.727  20.937  24.854  1.00  0.00     0.060 A 
ATOM     36  C   UNL A   1      45.260  21.281  26.108  1.00  0.00     0.016 A 
ATOM     37  C   UNL A   1      44.452  21.936  23.919  1.00  0.00     0.016 A 
ATOM     38  C   UNL A   1      45.522  22.618  26.425  1.00  0.00     0.010 A 
ATOM     39  C   UNL A   1      44.682  23.277  24.251  1.00  0.00     0.010 A 
ATOM     40  C   UNL A   1      45.209  23.628  25.508  1.00  0.00    -0.014 A 
BRANCH  40  41
ATOM     41  C   UNL A   1      45.288  25.061  25.897  1.00  0.00     0.031 A 
ATOM     42  C   UNL A   1      46.625  25.747  25.836  1.00  0.00     0.074 A 
ATOM     43  C   UNL A   1      44.207  25.743  26.321  1.00  0.00     0.049 A 
ATOM     44  N   UNL A   1      46.974  26.936  26.256  1.00  0.00    -0.248 NA
ATOM     45  C   UNL A   1      47.718  24.980  25.216  1.00  0.00     0.031 C 
ATOM     46  C   UNL A   1      42.846  25.219  26.381  1.00  0.00     0.029 A 
ATOM     47  N   UNL A   1      44.096  27.026  26.807  1.00  0.00    -0.354 N 
ATOM     48  C   UNL A   1      48.324  27.058  25.957  1.00  0.00     0.074 A 
ATOM     49  C   UNL A   1      48.739  25.814  25.346  1.00  0.00     0.031 C 
ATOM     50  C   UNL A   1      42.041  26.159  26.906  1.00  0.00     0.029 A 
ATOM     51  C   UNL A   1      42.837  27.333  27.262  1.00  0.00     0.049 A 
ATOM     52  H   UNL A   1      44.848  27.661  26.826  1.00  0.00     0.167 HD
ATOM     53  C   UNL A   1      49.144  28.116  26.166  1.00  0.00     0.037 A 
ATOM     54  C   UNL A   1      42.391  28.418  27.929  1.00  0.00     0.037 A 
ATOM     55  C   UNL A   1      48.736  29.350  26.786  1.00  0.00     0.049 A 
ATOM     56  C   UNL A   1      43.350  29.540  28.253  1.00  0.00     0.074 A 
ATOM     57  C   UNL A   1      49.493  30.481  27.036  1.00  0.00     0.029 A 
ATOM     58  N   UNL A   1      47.460  29.610  27.262  1.00  0.00    -0.354 N 
ATOM     59  N   UNL A   1      44.620  29.660  27.952  1.00  0.00    -0.248 NA
ATOM     60  C   UNL A   1      42.812  30.677  29.017  1.00  0.00     0.031 C 
ATOM     61  C   UNL A   1      48.693  31.402  27.718  1.00  0.00     0.029 A 
ATOM     62  C   UNL A   1      47.419  30.871  27.838  1.00  0.00     0.049 A 
ATOM     63  H   UNL A   1      46.696  28.992  27.203  1.00  0.00     0.167 HD
ATOM     64  C   UNL A   1      45.024  30.886  28.467  1.00  0.00     0.074 A 
ATOM     65  C   UNL A   1      43.859  31.486  29.080  1.00  0.00     0.031 C 
ATOM     66  C   UNL A   1      46.252  31.460  28.442  1.00  0.00     0.037 A 
BRANCH  53  67
ATOM     67  C   UNL A   1      50.578  27.979  25.745  1.00  0.00     0.064 A 
ATOM     68  C   UNL A   1      50.966  28.119  24.404  1.00  0.00     0.173 A 
ATOM     69  C   UNL A   1      51.581  27.759  26.701  1.00  0.00     0.173 A 
ATOM     70  F   UNL A   1      50.043  28.317  23.450  1.00  0.00    -0.203 F 
ATOM     71  C   UNL A   1      52.305  28.022  24.034  1.00  0.00     0.198 A 
ATOM     72  C   UNL A   1      52.921  27.693  26.330  1.00  0.00     0.198 A 
ATOM     73  F   UNL A   1      51.263  27.623  27.997  1.00  0.00    -0.203 F 
ATOM     74  F   UNL A   1      52.649  28.115  22.741  1.00  0.00    -0.200 F 
ATOM     75  C   UNL A   1      53.281  27.819  24.997  1.00  0.00     0.200 A 
ATOM     76  F   UNL A   1      53.864  27.513  27.264  1.00  0.00    -0.200 F 
ATOM     77  F   UNL A   1      54.570  27.740  24.640  1.00  0.00    -0.200 F 
ENDBRANCH  53  67
BRANCH  54  78
ATOM     78  C   UNL A   1      40.978  28.483  28.396  1.00  0.00     0.064 A 
ATOM     79  C   UNL A   1      39.958  28.974  27.569  1.00  0.00     0.173 A 
ATOM     80  C   UNL A   1      40.627  28.108  29.703  1.00  0.00     0.173 A 
ATOM     81  F   UNL A   1      40.245  29.380  26.323  1.00  0.00    -0.203 F 
ATOM     82  C   UNL A   1      38.652  29.112  28.036  1.00  0.00     0.198 A 
ATOM     83  C   UNL A   1      39.314  28.212  30.157  1.00  0.00     0.198 A 
ATOM     84  F   UNL A   1      41.564  27.643  30.542  1.00  0.00    -0.203 F 
ATOM     85  F   UNL A   1      37.712  29.647  27.244  1.00  0.00    -0.200 F 
ATOM     86  C   UNL A   1      38.329  28.724  29.328  1.00  0.00     0.200 A 
ATOM     87  F   UNL A   1      39.007  27.828  31.404  1.00  0.00    -0.200 F 
ATOM     88  F   UNL A   1      37.075  28.861  29.778  1.00  0.00    -0.200 F 
ENDBRANCH  54  78
BRANCH  66  89
ATOM     89  C   UNL A   1      46.402  32.816  29.076  1.00  0.00     0.064 A 
ATOM     90  C   UNL A   1      46.846  32.964  30.399  1.00  0.00     0.173 A 
ATOM     91  C   UNL A   1      46.152  33.982  28.335  1.00  0.00     0.173 A 
ATOM     92  F   UNL A   1      47.086  31.883  31.156  1.00  0.00    -0.203 F 
ATOM     93  C   UNL A   1      47.012  34.227  30.962  1.00  0.00     0.198 A 
ATOM     94  C   UNL A   1      46.351  35.243  28.891  1.00  0.00     0.198 A 
ATOM     95  F   UNL A   1      45.734  33.899  27.063  1.00  0.00    -0.203 F 
ATOM     96  F   UNL A   1      47.393  34.343  32.242  1.00  0.00    -0.200 F 
ATOM     97  C   UNL A   1      46.774  35.366  30.206  1.00  0.00     0.200 A 
ATOM     98  F   UNL A   1      46.137  36.341  28.153  1.00  0.00    -0.200 F 
ATOM     99  F   UNL A   1      46.947  36.579  30.746  1.00  0.00    -0.200 F 
ENDBRANCH  66  89
ENDBRANCH  40  41
ENDBRANCH  33  35
ENDBRANCH  32  33
ENDBRANCH  31  32
ENDBRANCH  30  31
ENDBRANCH  29  30
ENDBRANCH  28  29
ENDBRANCH  27  28
ENDBRANCH   1  27
TORSDOF 22
ENDMDL
MODEL 3
REMARK VINA RESULT:     -10.5      5.575     11.758
REMARK SMILES O=C(/C=C/c1ccc(O)cc1)NC[C@@H]1CC[C@H](C(=O)OCCOCCOCCOC(=O)c2ccc(-c3c4nc(c(-c5c(F)c(F)c(F)c(F)c5F)c5ccc([nH]5)c(-c5c(F)c(F)c(F)c(F)c5F)c5nc(c(-c6c(F)c(F)c(F)c(F)c6F)c6ccc3[nH]6)C=C5)C=C4)cc2)O1
REMARK SMILES IDX 23 1 22 2 21 3 20 4 18 5 19 6 17 7 14 8 15 9 95 10 16 11
REMARK SMILES IDX 13 12 12 13 1 14 2 15 3 17 4 18 5 19 6 20 11 21 7 22 10 23
REMARK SMILES IDX 8 24 9 25 24 27 25 28 26 29 27 30 28 31 29 32 30 33 31 34
REMARK SMILES IDX 32 35 33 36 94 37 34 38 93 39 35 40 36 41 37 42 87 43 38 44
REMARK SMILES IDX 92 45 86 46 88 47 39 48 91 49 85 50 84 51 40 53 72 54 52 55
REMARK SMILES IDX 71 56 53 57 56 58 70 59 89 60 54 61 55 62 69 64 90 65 57 66
REMARK SMILES IDX 41 67 42 68 50 69 43 70 44 71 48 72 51 73 45 74 46 75 49 76
REMARK SMILES IDX 47 77 73 78 74 79 82 80 75 81 76 82 80 83 83 84 77 85 78 86
REMARK SMILES IDX 81 87 79 88 58 89 59 90 67 91 60 92 61 93 65 94 68 95 62 96
REMARK SMILES IDX 63 97 66 98 64 99
REMARK H PARENT 12 16 9 26 88 52 56 63
REMARK Flexibility Score: inf
ROOT
ATOM      1  O   UNL A   1      33.439  30.432  27.705  1.00  0.00    -0.376 OA
ENDROOT
BRANCH   1   2
ATOM      2  C   UNL A   1      33.046  29.685  26.549  1.00  0.00     0.202 C 
BRANCH   2   3
ATOM      3  C   UNL A   1      31.789  28.798  26.640  1.00  0.00     0.261 C 
BRANCH   3   4
ATOM      4  O   UNL A   1      31.616  27.907  25.513  1.00  0.00    -0.461 OA
BRANCH   4   5
ATOM      5  C   UNL A   1      30.894  26.781  25.742  1.00  0.00     0.335 C 
ATOM      6  O   UNL A   1      30.829  26.223  26.834  1.00  0.00    -0.249 OA
BRANCH   5   7
ATOM      7  C   UNL A   1      30.077  26.298  24.528  1.00  0.00     0.228 C 
ATOM      8  C   UNL A   1      31.339  24.762  23.323  1.00  0.00     0.138 C 
ATOM      9  C   UNL A   1      31.427  26.089  22.583  1.00  0.00     0.037 C 
ATOM     10  O   UNL A   1      30.333  24.896  24.346  1.00  0.00    -0.361 OA
ATOM     11  C   UNL A   1      30.278  26.879  23.141  1.00  0.00     0.047 C 
BRANCH   8  12
ATOM     12  C   UNL A   1      32.680  24.354  23.948  1.00  0.00     0.148 C 
BRANCH  12  13
ATOM     13  N   UNL A   1      32.609  23.009  24.476  1.00  0.00    -0.350 N 
ATOM     14  O   UNL A   1      34.820  22.834  25.075  1.00  0.00    -0.270 OA
ATOM     15  C   UNL A   1      33.715  22.332  24.914  1.00  0.00     0.244 C 
ATOM     16  H   UNL A   1      31.733  22.564  24.523  1.00  0.00     0.163 HD
BRANCH  15  17
ATOM     17  C   UNL A   1      33.499  20.896  25.212  1.00  0.00     0.072 C 
ATOM     18  C   UNL A   1      33.946  19.905  24.425  1.00  0.00     0.014 C 
BRANCH  18  19
ATOM     19  C   UNL A   1      33.789  18.482  24.739  1.00  0.00    -0.025 A 
ATOM     20  C   UNL A   1      32.660  17.987  25.404  1.00  0.00     0.012 A 
ATOM     21  C   UNL A   1      34.771  17.586  24.296  1.00  0.00     0.012 A 
ATOM     22  C   UNL A   1      32.527  16.618  25.648  1.00  0.00     0.047 A 
ATOM     23  C   UNL A   1      34.639  16.219  24.541  1.00  0.00     0.047 A 
ATOM     24  C   UNL A   1      33.521  15.745  25.216  1.00  0.00     0.115 A 
BRANCH  24  25
ATOM     25  O   UNL A   1      33.432  14.403  25.432  1.00  0.00    -0.508 OA
ATOM     26  H   UNL A   1      32.782  13.899  24.984  1.00  0.00     0.293 HD
ENDBRANCH  24  25
ENDBRANCH  18  19
ENDBRANCH  15  17
ENDBRANCH  12  13
ENDBRANCH   8  12
ENDBRANCH   5   7
ENDBRANCH   4   5
ENDBRANCH   3   4
ENDBRANCH   2   3
ENDBRANCH   1   2
BRANCH   1  27
ATOM     27  C   UNL A   1      33.724  31.810  27.532  1.00  0.00     0.188 C 
BRANCH  27  28
ATOM     28  C   UNL A   1      34.622  32.487  28.571  1.00  0.00     0.188 C 
BRANCH  28  29
ATOM     29  O   UNL A   1      34.503  33.887  28.635  1.00  0.00    -0.376 OA
BRANCH  29  30
ATOM     30  C   UNL A   1      33.233  34.509  28.766  1.00  0.00     0.202 C 
BRANCH  30  31
ATOM     31  C   UNL A   1      32.988  35.679  29.745  1.00  0.00     0.261 C 
BRANCH  31  32
ATOM     32  O   UNL A   1      32.265  35.408  30.959  1.00  0.00    -0.460 OA
BRANCH  32  33
ATOM     33  C   UNL A   1      32.741  35.930  32.115  1.00  0.00     0.338 C 
ATOM     34  O   UNL A   1      32.186  36.746  32.832  1.00  0.00    -0.246 OA
BRANCH  33  35
ATOM     35  C   UNL A   1      33.912  35.101  32.520  1.00  0.00     0.060 A 
ATOM     36  C   UNL A   1      35.198  35.658  32.419  1.00  0.00     0.016 A 
ATOM     37  C   UNL A   1      33.742  33.848  33.111  1.00  0.00     0.016 A 
ATOM     38  C   UNL A   1      36.311  34.967  32.911  1.00  0.00     0.010 A 
ATOM     39  C   UNL A   1      34.861  33.142  33.571  1.00  0.00     0.010 A 
ATOM     40  C   UNL A   1      36.153  33.692  33.466  1.00  0.00    -0.014 A 
BRANCH  40  41
ATOM     41  C   UNL A   1      37.335  32.858  33.809  1.00  0.00     0.031 A 
ATOM     42  C   UNL A   1      38.060  33.139  35.095  1.00  0.00     0.074 A 
ATOM     43  C   UNL A   1      37.779  31.885  32.990  1.00  0.00     0.049 A 
ATOM     44  N   UNL A   1      39.190  32.651  35.541  1.00  0.00    -0.248 NA
ATOM     45  C   UNL A   1      37.421  34.107  36.001  1.00  0.00     0.031 C 
ATOM     46  C   UNL A   1      37.144  31.474  31.742  1.00  0.00     0.029 A 
ATOM     47  N   UNL A   1      38.893  31.082  33.083  1.00  0.00    -0.354 N 
ATOM     48  C   UNL A   1      39.399  33.254  36.774  1.00  0.00     0.074 A 
ATOM     49  C   UNL A   1      38.296  34.164  36.994  1.00  0.00     0.031 C 
ATOM     50  C   UNL A   1      37.895  30.518  31.167  1.00  0.00     0.029 A 
ATOM     51  C   UNL A   1      39.086  30.283  31.982  1.00  0.00     0.049 A 
ATOM     52  H   UNL A   1      39.493  31.081  33.863  1.00  0.00     0.167 HD
ATOM     53  C   UNL A   1      40.416  33.062  37.647  1.00  0.00     0.037 A 
ATOM     54  C   UNL A   1      40.126  29.489  31.652  1.00  0.00     0.037 A 
ATOM     55  C   UNL A   1      41.521  32.167  37.424  1.00  0.00     0.049 A 
ATOM     56  C   UNL A   1      41.304  29.375  32.590  1.00  0.00     0.074 A 
ATOM     57  C   UNL A   1      42.596  31.900  38.254  1.00  0.00     0.029 A 
ATOM     58  N   UNL A   1      41.697  31.399  36.282  1.00  0.00    -0.354 N 
ATOM     59  N   UNL A   1      41.489  29.932  33.763  1.00  0.00    -0.248 NA
ATOM     60  C   UNL A   1      42.424  28.525  32.155  1.00  0.00     0.031 C 
ATOM     61  C   UNL A   1      43.454  31.018  37.589  1.00  0.00     0.029 A 
ATOM     62  C   UNL A   1      42.883  30.686  36.372  1.00  0.00     0.049 A 
ATOM     63  H   UNL A   1      41.074  31.366  35.521  1.00  0.00     0.167 HD
ATOM     64  C   UNL A   1      42.726  29.486  34.211  1.00  0.00     0.074 A 
ATOM     65  C   UNL A   1      43.241  28.592  33.196  1.00  0.00     0.031 C 
ATOM     66  C   UNL A   1      43.383  29.795  35.356  1.00  0.00     0.037 A 
BRANCH  53  67
ATOM     67  C   UNL A   1      40.398  33.855  38.921  1.00  0.00     0.064 A 
ATOM     68  C   UNL A   1      39.712  33.403  40.059  1.00  0.00     0.173 A 
ATOM     69  C   UNL A   1      41.119  35.055  39.021  1.00  0.00     0.173 A 
ATOM     70  F   UNL A   1      38.996  32.270  40.011  1.00  0.00    -0.203 F 
ATOM     71  C   UNL A   1      39.732  34.136  41.243  1.00  0.00     0.198 A 
ATOM     72  C   UNL A   1      41.162  35.767  40.217  1.00  0.00     0.198 A 
ATOM     73  F   UNL A   1      41.796  35.527  37.964  1.00  0.00    -0.203 F 
ATOM     74  F   UNL A   1      39.034  33.708  42.305  1.00  0.00    -0.200 F 
ATOM     75  C   UNL A   1      40.464  35.310  41.324  1.00  0.00     0.200 A 
ATOM     76  F   UNL A   1      41.883  36.893  40.297  1.00  0.00    -0.200 F 
ATOM     77  F   UNL A   1      40.494  36.006  42.469  1.00  0.00    -0.200 F 
ENDBRANCH  53  67
BRANCH  54  78
ATOM     78  C   UNL A   1      40.140  28.776  30.344  1.00  0.00     0.064 A 
ATOM     79  C   UNL A   1      40.719  29.353  29.204  1.00  0.00     0.173 A 
ATOM     80  C   UNL A   1      39.523  27.524  30.193  1.00  0.00     0.173 A 
ATOM     81  F   UNL A   1      41.291  30.563  29.285  1.00  0.00    -0.203 F 
ATOM     82  C   UNL A   1      40.658  28.720  27.964  1.00  0.00     0.198 A 
ATOM     83  C   UNL A   1      39.493  26.876  28.960  1.00  0.00     0.198 A 
ATOM     84  F   UNL A   1      38.941  26.931  31.246  1.00  0.00    -0.203 F 
ATOM     85  F   UNL A   1      41.161  29.325  26.880  1.00  0.00    -0.200 F 
ATOM     86  C   UNL A   1      40.051  27.478  27.844  1.00  0.00     0.200 A 
ATOM     87  F   UNL A   1      38.913  25.672  28.852  1.00  0.00    -0.200 F 
ATOM     88  F   UNL A   1      39.989  26.873  26.650  1.00  0.00    -0.200 F 
ENDBRANCH  54  78
BRANCH  66  89
ATOM     89  C   UNL A   1      44.721  29.149  35.590  1.00  0.00     0.064 A 
ATOM     90  C   UNL A   1      45.914  29.757  35.174  1.00  0.00     0.173 A 
ATOM     91  C   UNL A   1      44.815  27.935  36.289  1.00  0.00     0.173 A 
ATOM     92  F   UNL A   1      45.882  30.911  34.491  1.00  0.00    -0.203 F 
ATOM     93  C   UNL A   1      47.149  29.163  35.427  1.00  0.00     0.198 A 
ATOM     94  C   UNL A   1      46.052  27.361  36.570  1.00  0.00     0.198 A 
ATOM     95  F   UNL A   1      43.705  27.314  36.719  1.00  0.00    -0.203 F 
ATOM     96  F   UNL A   1      48.272  29.741  34.979  1.00  0.00    -0.200 F 
ATOM     97  C   UNL A   1      47.218  27.971  36.133  1.00  0.00     0.200 A 
ATOM     98  F   UNL A   1      46.117  26.218  37.267  1.00  0.00    -0.200 F 
ATOM     99  F   UNL A   1      48.406  27.409  36.387  1.00  0.00    -0.200 F 
ENDBRANCH  66  89
ENDBRANCH  40  41
ENDBRANCH  33  35
ENDBRANCH  32  33
ENDBRANCH  31  32
ENDBRANCH  30  31
ENDBRANCH  29  30
ENDBRANCH  28  29
ENDBRANCH  27  28
ENDBRANCH   1  27
TORSDOF 22
ENDMDL
