MODEL 1
REMARK VINA RESULT:     -10.7      0.000      0.000
REMARK SMILES CC(C)[C@H](NC(=O)CN1C(=O)c2ccccc2C1=O)C(=O)OCCOCCOCCOC(=O)c1ccc(-c2c3nc(c(-c4c(F)c(F)c(F)c(F)c4F)c4ccc([nH]4)c(-c4c(F)c(F)c(F)c(F)c4F)c4nc(c(-c5c(F)c(F)c(F)c(F)c5F)c5ccc2[nH]5)C=C4)C=C3)cc1
REMARK SMILES IDX 26 1 25 2 24 3 23 4 22 5 20 6 21 7 4 8 2 9 1 10 3 11 5 12
REMARK SMILES IDX 6 13 7 15 8 16 9 17 10 18 18 19 11 20 12 21 17 22 19 23
REMARK SMILES IDX 13 24 16 25 14 26 15 27 27 28 28 29 29 30 30 31 31 32 32 33
REMARK SMILES IDX 33 34 34 35 35 36 96 37 36 38 95 39 37 40 38 41 39 42 89 43
REMARK SMILES IDX 40 44 94 45 88 46 90 47 41 48 93 49 87 50 86 51 42 53 74 54
REMARK SMILES IDX 54 55 73 56 55 57 58 58 72 59 91 60 56 61 57 62 71 64 92 65
REMARK SMILES IDX 59 66 43 67 44 68 52 69 45 70 46 71 50 72 53 73 47 74 48 75
REMARK SMILES IDX 51 76 49 77 75 78 76 79 84 80 77 81 78 82 82 83 85 84 79 85
REMARK SMILES IDX 80 86 83 87 81 88 60 89 61 90 69 91 62 92 63 93 67 94 70 95
REMARK SMILES IDX 64 96 65 97 68 98 66 99
REMARK H PARENT 5 14 90 52 58 63
REMARK Flexibility Score: inf
ROOT
ATOM      1  C   UNL A   1      41.016  22.056  26.158  1.00  0.00     0.188 C 
ENDROOT
BRANCH   1   2
ATOM      2  O   UNL A   1      39.831  22.489  26.818  1.00  0.00    -0.376 OA
BRANCH   2   3
ATOM      3  C   UNL A   1      38.603  22.537  26.107  1.00  0.00     0.202 C 
BRANCH   3   4
ATOM      4  C   UNL A   1      38.183  21.268  25.369  1.00  0.00     0.261 C 
BRANCH   4   5
ATOM      5  O   UNL A   1      36.761  21.099  25.224  1.00  0.00    -0.462 OA
BRANCH   5   6
ATOM      6  C   UNL A   1      36.146  21.919  24.324  1.00  0.00     0.328 C 
ATOM      7  O   UNL A   1      36.685  22.386  23.326  1.00  0.00    -0.250 OA
BRANCH   6   8
ATOM      8  C   UNL A   1      34.740  22.363  24.790  1.00  0.00     0.194 C 
BRANCH   8   9
ATOM      9  C   UNL A   1      34.899  23.291  26.024  1.00  0.00     0.017 C 
ATOM     10  C   UNL A   1      35.452  24.683  25.690  1.00  0.00     0.010 C 
ATOM     11  C   UNL A   1      33.596  23.412  26.816  1.00  0.00     0.010 C 
ENDBRANCH   8   9
BRANCH   8  12
ATOM     12  N   UNL A   1      33.829  21.251  25.094  1.00  0.00    -0.341 N 
ATOM     13  C   UNL A   1      32.779  20.710  24.414  1.00  0.00     0.240 C 
ATOM     14  H   UNL A   1      34.012  20.813  25.956  1.00  0.00     0.164 HD
ATOM     15  O   UNL A   1      32.409  19.590  24.788  1.00  0.00    -0.273 OA
BRANCH  13  16
ATOM     16  C   UNL A   1      32.188  21.291  23.122  1.00  0.00     0.229 C 
BRANCH  16  17
ATOM     17  N   UNL A   1      31.862  22.697  23.070  1.00  0.00    -0.265 N 
ATOM     18  C   UNL A   1      32.529  23.614  22.315  1.00  0.00     0.262 C 
ATOM     19  C   UNL A   1      31.140  23.326  24.049  1.00  0.00     0.262 C 
ATOM     20  O   UNL A   1      33.501  23.467  21.603  1.00  0.00    -0.269 OA
ATOM     21  C   UNL A   1      31.873  24.893  22.556  1.00  0.00     0.053 A 
ATOM     22  C   UNL A   1      31.096  24.744  23.689  1.00  0.00     0.053 A 
ATOM     23  O   UNL A   1      30.638  22.853  25.052  1.00  0.00    -0.269 OA
ATOM     24  C   UNL A   1      31.906  26.066  21.831  1.00  0.00     0.015 A 
ATOM     25  C   UNL A   1      30.402  25.803  24.236  1.00  0.00     0.015 A 
ATOM     26  C   UNL A   1      31.155  27.135  22.327  1.00  0.00     0.001 A 
ATOM     27  C   UNL A   1      30.438  27.015  23.537  1.00  0.00     0.001 A 
ENDBRANCH  16  17
ENDBRANCH  13  16
ENDBRANCH   8  12
ENDBRANCH   6   8
ENDBRANCH   5   6
ENDBRANCH   4   5
ENDBRANCH   3   4
ENDBRANCH   2   3
ENDBRANCH   1   2
BRANCH   1  28
ATOM     28  C   UNL A   1      41.780  20.814  26.653  1.00  0.00     0.188 C 
BRANCH  28  29
ATOM     29  O   UNL A   1      41.873  19.775  25.697  1.00  0.00    -0.376 OA
BRANCH  29  30
ATOM     30  C   UNL A   1      42.378  18.541  26.181  1.00  0.00     0.202 C 
BRANCH  30  31
ATOM     31  C   UNL A   1      43.800  18.256  25.688  1.00  0.00     0.261 C 
BRANCH  31  32
ATOM     32  O   UNL A   1      44.119  18.839  24.412  1.00  0.00    -0.460 OA
BRANCH  32  33
ATOM     33  C   UNL A   1      45.300  19.489  24.309  1.00  0.00     0.338 C 
ATOM     34  O   UNL A   1      46.333  19.071  23.824  1.00  0.00    -0.246 OA
BRANCH  33  35
ATOM     35  C   UNL A   1      45.071  20.890  24.732  1.00  0.00     0.060 A 
ATOM     36  C   UNL A   1      44.482  21.795  23.837  1.00  0.00     0.016 A 
ATOM     37  C   UNL A   1      45.422  21.297  26.021  1.00  0.00     0.016 A 
ATOM     38  C   UNL A   1      44.274  23.124  24.221  1.00  0.00     0.010 A 
ATOM     39  C   UNL A   1      45.239  22.628  26.394  1.00  0.00     0.010 A 
ATOM     40  C   UNL A   1      44.695  23.555  25.487  1.00  0.00    -0.014 A 
BRANCH  40  41
ATOM     41  C   UNL A   1      44.820  24.998  25.808  1.00  0.00     0.031 A 
ATOM     42  C   UNL A   1      46.184  25.619  25.684  1.00  0.00     0.074 A 
ATOM     43  C   UNL A   1      43.789  25.720  26.278  1.00  0.00     0.049 A 
ATOM     44  N   UNL A   1      46.620  26.772  26.118  1.00  0.00    -0.248 NA
ATOM     45  C   UNL A   1      47.199  24.814  24.984  1.00  0.00     0.031 C 
ATOM     46  C   UNL A   1      42.410  25.256  26.394  1.00  0.00     0.029 A 
ATOM     47  N   UNL A   1      43.759  26.999  26.779  1.00  0.00    -0.354 N 
ATOM     48  C   UNL A   1      47.962  26.819  25.768  1.00  0.00     0.074 A 
ATOM     49  C   UNL A   1      48.273  25.580  25.090  1.00  0.00     0.031 C 
ATOM     50  C   UNL A   1      41.672  26.227  26.961  1.00  0.00     0.029 A 
ATOM     51  C   UNL A   1      42.537  27.359  27.293  1.00  0.00     0.049 A 
ATOM     52  H   UNL A   1      44.539  27.601  26.770  1.00  0.00     0.167 HD
ATOM     53  C   UNL A   1      48.860  27.805  25.999  1.00  0.00     0.037 A 
ATOM     54  C   UNL A   1      42.177  28.454  27.991  1.00  0.00     0.037 A 
ATOM     55  C   UNL A   1      48.551  29.033  26.678  1.00  0.00     0.049 A 
ATOM     56  C   UNL A   1      43.212  29.508  28.308  1.00  0.00     0.074 A 
ATOM     57  C   UNL A   1      49.390  30.095  26.965  1.00  0.00     0.029 A 
ATOM     58  N   UNL A   1      47.300  29.358  27.180  1.00  0.00    -0.354 N 
ATOM     59  N   UNL A   1      44.481  29.548  27.980  1.00  0.00    -0.248 NA
ATOM     60  C   UNL A   1      42.767  30.663  29.103  1.00  0.00     0.031 C 
ATOM     61  C   UNL A   1      48.655  31.046  27.680  1.00  0.00     0.029 A 
ATOM     62  C   UNL A   1      47.348  30.598  27.792  1.00  0.00     0.049 A 
ATOM     63  H   UNL A   1      46.498  28.791  27.113  1.00  0.00     0.167 HD
ATOM     64  C   UNL A   1      44.973  30.743  28.494  1.00  0.00     0.074 A 
ATOM     65  C   UNL A   1      43.870  31.399  29.160  1.00  0.00     0.031 C 
ATOM     66  C   UNL A   1      46.228  31.251  28.418  1.00  0.00     0.037 A 
BRANCH  53  67
ATOM     67  C   UNL A   1      50.268  27.573  25.547  1.00  0.00     0.064 A 
ATOM     68  C   UNL A   1      50.659  27.777  24.216  1.00  0.00     0.173 A 
ATOM     69  C   UNL A   1      51.246  27.156  26.464  1.00  0.00     0.173 A 
ATOM     70  F   UNL A   1      49.757  28.156  23.299  1.00  0.00    -0.203 F 
ATOM     71  C   UNL A   1      51.973  27.550  23.814  1.00  0.00     0.198 A 
ATOM     72  C   UNL A   1      52.563  26.957  26.065  1.00  0.00     0.198 A 
ATOM     73  F   UNL A   1      50.921  26.947  27.749  1.00  0.00    -0.203 F 
ATOM     74  F   UNL A   1      52.314  27.706  22.528  1.00  0.00    -0.200 F 
ATOM     75  C   UNL A   1      52.924  27.146  24.739  1.00  0.00     0.200 A 
ATOM     76  F   UNL A   1      53.483  26.576  26.961  1.00  0.00    -0.200 F 
ATOM     77  F   UNL A   1      54.189  26.933  24.352  1.00  0.00    -0.200 F 
ENDBRANCH  53  67
BRANCH  54  78
ATOM     78  C   UNL A   1      40.780  28.606  28.477  1.00  0.00     0.064 A 
ATOM     79  C   UNL A   1      40.425  28.233  29.780  1.00  0.00     0.173 A 
ATOM     80  C   UNL A   1      39.765  29.095  27.641  1.00  0.00     0.173 A 
ATOM     81  F   UNL A   1      41.352  27.727  30.607  1.00  0.00    -0.203 F 
ATOM     82  C   UNL A   1      39.107  28.329  30.224  1.00  0.00     0.198 A 
ATOM     83  C   UNL A   1      38.453  29.216  28.094  1.00  0.00     0.198 A 
ATOM     84  F   UNL A   1      40.049  29.457  26.381  1.00  0.00    -0.203 F 
ATOM     85  F   UNL A   1      38.787  27.919  31.459  1.00  0.00    -0.200 F 
ATOM     86  C   UNL A   1      38.123  28.826  29.383  1.00  0.00     0.200 A 
ATOM     87  F   UNL A   1      37.507  29.702  27.280  1.00  0.00    -0.200 F 
ATOM     88  F   UNL A   1      36.856  28.917  29.810  1.00  0.00    -0.200 F 
ENDBRANCH  54  78
BRANCH  66  89
ATOM     89  C   UNL A   1      46.473  32.609  29.004  1.00  0.00     0.064 A 
ATOM     90  C   UNL A   1      46.935  32.774  30.317  1.00  0.00     0.173 A 
ATOM     91  C   UNL A   1      46.336  33.755  28.203  1.00  0.00     0.173 A 
ATOM     92  F   UNL A   1      47.072  31.712  31.123  1.00  0.00    -0.203 F 
ATOM     93  C   UNL A   1      47.247  34.040  30.809  1.00  0.00     0.198 A 
ATOM     94  C   UNL A   1      46.672  35.013  28.690  1.00  0.00     0.198 A 
ATOM     95  F   UNL A   1      45.905  33.645  26.937  1.00  0.00    -0.203 F 
ATOM     96  F   UNL A   1      47.669  34.180  32.073  1.00  0.00    -0.200 F 
ATOM     97  C   UNL A   1      47.126  35.155  29.992  1.00  0.00     0.200 A 
ATOM     98  F   UNL A   1      46.568  36.088  27.895  1.00  0.00    -0.200 F 
ATOM     99  F   UNL A   1      47.448  36.369  30.462  1.00  0.00    -0.200 F 
ENDBRANCH  66  89
ENDBRANCH  40  41
ENDBRANCH  33  35
ENDBRANCH  32  33
ENDBRANCH  31  32
ENDBRANCH  30  31
ENDBRANCH  29  30
ENDBRANCH  28  29
ENDBRANCH   1  28
TORSDOF 21
ENDMDL
MODEL 2
REMARK VINA RESULT:     -10.5      0.989      2.136
REMARK SMILES CC(C)[C@H](NC(=O)CN1C(=O)c2ccccc2C1=O)C(=O)OCCOCCOCCOC(=O)c1ccc(-c2c3nc(c(-c4c(F)c(F)c(F)c(F)c4F)c4ccc([nH]4)c(-c4c(F)c(F)c(F)c(F)c4F)c4nc(c(-c5c(F)c(F)c(F)c(F)c5F)c5ccc2[nH]5)C=C4)C=C3)cc1
REMARK SMILES IDX 26 1 25 2 24 3 23 4 22 5 20 6 21 7 4 8 2 9 1 10 3 11 5 12
REMARK SMILES IDX 6 13 7 15 8 16 9 17 10 18 18 19 11 20 12 21 17 22 19 23
REMARK SMILES IDX 13 24 16 25 14 26 15 27 27 28 28 29 29 30 30 31 31 32 32 33
REMARK SMILES IDX 33 34 34 35 35 36 96 37 36 38 95 39 37 40 38 41 39 42 89 43
REMARK SMILES IDX 40 44 94 45 88 46 90 47 41 48 93 49 87 50 86 51 42 53 74 54
REMARK SMILES IDX 54 55 73 56 55 57 58 58 72 59 91 60 56 61 57 62 71 64 92 65
REMARK SMILES IDX 59 66 43 67 44 68 52 69 45 70 46 71 50 72 53 73 47 74 48 75
REMARK SMILES IDX 51 76 49 77 75 78 76 79 84 80 77 81 78 82 82 83 85 84 79 85
REMARK SMILES IDX 80 86 83 87 81 88 60 89 61 90 69 91 62 92 63 93 67 94 70 95
REMARK SMILES IDX 64 96 65 97 68 98 66 99
REMARK H PARENT 5 14 90 52 58 63
REMARK Flexibility Score: inf
ROOT
ATOM      1  C   UNL A   1      40.941  21.545  26.219  1.00  0.00     0.188 C 
ENDROOT
BRANCH   1   2
ATOM      2  O   UNL A   1      39.594  21.331  26.629  1.00  0.00    -0.376 OA
BRANCH   2   3
ATOM      3  C   UNL A   1      38.559  21.283  25.660  1.00  0.00     0.202 C 
BRANCH   3   4
ATOM      4  C   UNL A   1      37.635  22.496  25.576  1.00  0.00     0.261 C 
BRANCH   4   5
ATOM      5  O   UNL A   1      36.308  22.278  26.088  1.00  0.00    -0.462 OA
BRANCH   5   6
ATOM      6  C   UNL A   1      35.449  21.608  25.267  1.00  0.00     0.328 C 
ATOM      7  O   UNL A   1      35.751  20.631  24.591  1.00  0.00    -0.250 OA
BRANCH   6   8
ATOM      8  C   UNL A   1      34.086  22.326  25.123  1.00  0.00     0.194 C 
BRANCH   8   9
ATOM      9  C   UNL A   1      34.287  23.597  24.256  1.00  0.00     0.017 C 
ATOM     10  C   UNL A   1      34.782  24.817  25.043  1.00  0.00     0.010 C 
ATOM     11  C   UNL A   1      35.201  23.331  23.058  1.00  0.00     0.010 C 
ENDBRANCH   8   9
BRANCH   8  12
ATOM     12  N   UNL A   1      33.449  22.668  26.402  1.00  0.00    -0.341 N 
ATOM     13  C   UNL A   1      32.186  23.065  26.723  1.00  0.00     0.240 C 
ATOM     14  H   UNL A   1      34.053  22.598  27.177  1.00  0.00     0.164 HD
ATOM     15  O   UNL A   1      31.877  22.979  27.919  1.00  0.00    -0.273 OA
BRANCH  13  16
ATOM     16  C   UNL A   1      31.092  23.398  25.699  1.00  0.00     0.229 C 
BRANCH  16  17
ATOM     17  N   UNL A   1      31.101  24.691  25.059  1.00  0.00    -0.265 N 
ATOM     18  C   UNL A   1      30.905  25.873  25.708  1.00  0.00     0.262 C 
ATOM     19  C   UNL A   1      30.904  24.853  23.713  1.00  0.00     0.262 C 
ATOM     20  O   UNL A   1      30.654  26.078  26.878  1.00  0.00    -0.269 OA
ATOM     21  C   UNL A   1      31.000  26.915  24.693  1.00  0.00     0.053 A 
ATOM     22  C   UNL A   1      30.894  26.295  23.463  1.00  0.00     0.053 A 
ATOM     23  O   UNL A   1      30.735  24.003  22.858  1.00  0.00    -0.269 OA
ATOM     24  C   UNL A   1      31.211  28.272  24.821  1.00  0.00     0.015 A 
ATOM     25  C   UNL A   1      30.867  27.017  22.288  1.00  0.00     0.015 A 
ATOM     26  C   UNL A   1      31.257  29.018  23.641  1.00  0.00     0.001 A 
ATOM     27  C   UNL A   1      31.051  28.400  22.388  1.00  0.00     0.001 A 
ENDBRANCH  16  17
ENDBRANCH  13  16
ENDBRANCH   8  12
ENDBRANCH   6   8
ENDBRANCH   5   6
ENDBRANCH   4   5
ENDBRANCH   3   4
ENDBRANCH   2   3
ENDBRANCH   1   2
BRANCH   1  28
ATOM     28  C   UNL A   1      42.030  20.501  26.531  1.00  0.00     0.188 C 
BRANCH  28  29
ATOM     29  O   UNL A   1      41.811  19.241  25.924  1.00  0.00    -0.376 OA
BRANCH  29  30
ATOM     30  C   UNL A   1      42.619  18.180  26.407  1.00  0.00     0.202 C 
BRANCH  30  31
ATOM     31  C   UNL A   1      44.061  18.261  25.897  1.00  0.00     0.261 C 
BRANCH  31  32
ATOM     32  O   UNL A   1      44.183  18.536  24.491  1.00  0.00    -0.460 OA
BRANCH  32  33
ATOM     33  C   UNL A   1      45.258  19.255  24.094  1.00  0.00     0.338 C 
ATOM     34  O   UNL A   1      46.170  18.886  23.381  1.00  0.00    -0.246 OA
BRANCH  33  35
ATOM     35  C   UNL A   1      45.043  20.652  24.535  1.00  0.00     0.060 A 
ATOM     36  C   UNL A   1      44.387  21.553  23.684  1.00  0.00     0.016 A 
ATOM     37  C   UNL A   1      45.474  21.059  25.799  1.00  0.00     0.016 A 
ATOM     38  C   UNL A   1      44.190  22.879  24.085  1.00  0.00     0.010 A 
ATOM     39  C   UNL A   1      45.302  22.388  26.188  1.00  0.00     0.010 A 
ATOM     40  C   UNL A   1      44.690  23.311  25.322  1.00  0.00    -0.014 A 
BRANCH  40  41
ATOM     41  C   UNL A   1      44.821  24.754  25.639  1.00  0.00     0.031 A 
ATOM     42  C   UNL A   1      46.186  25.371  25.507  1.00  0.00     0.074 A 
ATOM     43  C   UNL A   1      43.793  25.481  26.110  1.00  0.00     0.049 A 
ATOM     44  N   UNL A   1      46.627  26.524  25.937  1.00  0.00    -0.248 NA
ATOM     45  C   UNL A   1      47.196  24.561  24.806  1.00  0.00     0.031 C 
ATOM     46  C   UNL A   1      42.413  25.021  26.232  1.00  0.00     0.029 A 
ATOM     47  N   UNL A   1      43.769  26.762  26.607  1.00  0.00    -0.354 N 
ATOM     48  C   UNL A   1      47.967  26.566  25.581  1.00  0.00     0.074 A 
ATOM     49  C   UNL A   1      48.272  25.324  24.906  1.00  0.00     0.031 C 
ATOM     50  C   UNL A   1      41.680  25.996  26.799  1.00  0.00     0.029 A 
ATOM     51  C   UNL A   1      42.550  27.127  27.125  1.00  0.00     0.049 A 
ATOM     52  H   UNL A   1      44.551  27.361  26.593  1.00  0.00     0.167 HD
ATOM     53  C   UNL A   1      48.869  27.549  25.806  1.00  0.00     0.037 A 
ATOM     54  C   UNL A   1      42.196  28.225  27.821  1.00  0.00     0.037 A 
ATOM     55  C   UNL A   1      48.567  28.780  26.483  1.00  0.00     0.049 A 
ATOM     56  C   UNL A   1      43.235  29.276  28.131  1.00  0.00     0.074 A 
ATOM     57  C   UNL A   1      49.410  29.840  26.764  1.00  0.00     0.029 A 
ATOM     58  N   UNL A   1      47.319  29.111  26.988  1.00  0.00    -0.354 N 
ATOM     59  N   UNL A   1      44.504  29.312  27.798  1.00  0.00    -0.248 NA
ATOM     60  C   UNL A   1      42.797  30.436  28.924  1.00  0.00     0.031 C 
ATOM     61  C   UNL A   1      48.681  30.796  27.479  1.00  0.00     0.029 A 
ATOM     62  C   UNL A   1      47.373  30.352  27.596  1.00  0.00     0.049 A 
ATOM     63  H   UNL A   1      46.515  28.546  26.926  1.00  0.00     0.167 HD
ATOM     64  C   UNL A   1      45.001  30.506  28.307  1.00  0.00     0.074 A 
ATOM     65  C   UNL A   1      43.902  31.168  28.975  1.00  0.00     0.031 C 
ATOM     66  C   UNL A   1      46.257  31.010  28.225  1.00  0.00     0.037 A 
BRANCH  53  67
ATOM     67  C   UNL A   1      50.275  27.311  25.350  1.00  0.00     0.064 A 
ATOM     68  C   UNL A   1      51.263  26.836  26.225  1.00  0.00     0.173 A 
ATOM     69  C   UNL A   1      50.636  27.547  24.015  1.00  0.00     0.173 A 
ATOM     70  F   UNL A   1      50.973  26.615  27.515  1.00  0.00    -0.203 F 
ATOM     71  C   UNL A   1      52.567  26.626  25.783  1.00  0.00     0.198 A 
ATOM     72  C   UNL A   1      51.932  27.310  23.570  1.00  0.00     0.198 A 
ATOM     73  F   UNL A   1      49.726  28.003  23.140  1.00  0.00    -0.203 F 
ATOM     74  F   UNL A   1      53.507  26.215  26.646  1.00  0.00    -0.200 F 
ATOM     75  C   UNL A   1      52.899  26.858  24.456  1.00  0.00     0.200 A 
ATOM     76  F   UNL A   1      52.249  27.526  22.286  1.00  0.00    -0.200 F 
ATOM     77  F   UNL A   1      54.152  26.651  24.032  1.00  0.00    -0.200 F 
ENDBRANCH  53  67
BRANCH  54  78
ATOM     78  C   UNL A   1      40.801  28.383  28.311  1.00  0.00     0.064 A 
ATOM     79  C   UNL A   1      39.812  28.953  27.498  1.00  0.00     0.173 A 
ATOM     80  C   UNL A   1      40.435  28.000  29.610  1.00  0.00     0.173 A 
ATOM     81  F   UNL A   1      40.120  29.367  26.260  1.00  0.00    -0.203 F 
ATOM     82  C   UNL A   1      38.514  29.147  27.970  1.00  0.00     0.198 A 
ATOM     83  C   UNL A   1      39.131  28.169  30.072  1.00  0.00     0.198 A 
ATOM     84  F   UNL A   1      41.346  27.460  30.433  1.00  0.00    -0.203 F 
ATOM     85  F   UNL A   1      37.601  29.738  27.188  1.00  0.00    -0.200 F 
ATOM     86  C   UNL A   1      38.173  28.750  29.254  1.00  0.00     0.200 A 
ATOM     87  F   UNL A   1      38.805  27.780  31.311  1.00  0.00    -0.200 F 
ATOM     88  F   UNL A   1      36.927  28.937  29.707  1.00  0.00    -0.200 F 
ENDBRANCH  54  78
BRANCH  66  89
ATOM     89  C   UNL A   1      46.508  32.370  28.807  1.00  0.00     0.064 A 
ATOM     90  C   UNL A   1      46.977  32.537  30.116  1.00  0.00     0.173 A 
ATOM     91  C   UNL A   1      46.371  33.513  28.003  1.00  0.00     0.173 A 
ATOM     92  F   UNL A   1      47.115  31.477  30.925  1.00  0.00    -0.203 F 
ATOM     93  C   UNL A   1      47.295  33.803  30.603  1.00  0.00     0.198 A 
ATOM     94  C   UNL A   1      46.712  34.772  28.485  1.00  0.00     0.198 A 
ATOM     95  F   UNL A   1      45.934  33.401  26.739  1.00  0.00    -0.203 F 
ATOM     96  F   UNL A   1      47.723  33.945  31.865  1.00  0.00    -0.200 F 
ATOM     97  C   UNL A   1      47.173  34.917  29.784  1.00  0.00     0.200 A 
ATOM     98  F   UNL A   1      46.608  35.845  27.688  1.00  0.00    -0.200 F 
ATOM     99  F   UNL A   1      47.501  36.131  30.249  1.00  0.00    -0.200 F 
ENDBRANCH  66  89
ENDBRANCH  40  41
ENDBRANCH  33  35
ENDBRANCH  32  33
ENDBRANCH  31  32
ENDBRANCH  30  31
ENDBRANCH  29  30
ENDBRANCH  28  29
ENDBRANCH   1  28
TORSDOF 21
ENDMDL
MODEL 3
REMARK VINA RESULT:     -10.3      1.468      7.350
REMARK SMILES CC(C)[C@H](NC(=O)CN1C(=O)c2ccccc2C1=O)C(=O)OCCOCCOCCOC(=O)c1ccc(-c2c3nc(c(-c4c(F)c(F)c(F)c(F)c4F)c4ccc([nH]4)c(-c4c(F)c(F)c(F)c(F)c4F)c4nc(c(-c5c(F)c(F)c(F)c(F)c5F)c5ccc2[nH]5)C=C4)C=C3)cc1
REMARK SMILES IDX 26 1 25 2 24 3 23 4 22 5 20 6 21 7 4 8 2 9 1 10 3 11 5 12
REMARK SMILES IDX 6 13 7 15 8 16 9 17 10 18 18 19 11 20 12 21 17 22 19 23
REMARK SMILES IDX 13 24 16 25 14 26 15 27 27 28 28 29 29 30 30 31 31 32 32 33
REMARK SMILES IDX 33 34 34 35 35 36 96 37 36 38 95 39 37 40 38 41 39 42 89 43
REMARK SMILES IDX 40 44 94 45 88 46 90 47 41 48 93 49 87 50 86 51 42 53 74 54
REMARK SMILES IDX 54 55 73 56 55 57 58 58 72 59 91 60 56 61 57 62 71 64 92 65
REMARK SMILES IDX 59 66 43 67 44 68 52 69 45 70 46 71 50 72 53 73 47 74 48 75
REMARK SMILES IDX 51 76 49 77 75 78 76 79 84 80 77 81 78 82 82 83 85 84 79 85
REMARK SMILES IDX 80 86 83 87 81 88 60 89 61 90 69 91 62 92 63 93 67 94 70 95
REMARK SMILES IDX 64 96 65 97 68 98 66 99
REMARK H PARENT 5 14 90 52 58 63
REMARK Flexibility Score: inf
ROOT
ATOM      1  C   UNL A   1      39.694  20.801  26.125  1.00  0.00     0.188 C 
ENDROOT
BRANCH   1   2
ATOM      2  O   UNL A   1      39.478  22.203  26.008  1.00  0.00    -0.376 OA
BRANCH   2   3
ATOM      3  C   UNL A   1      38.159  22.724  26.075  1.00  0.00     0.202 C 
BRANCH   3   4
ATOM      4  C   UNL A   1      37.130  22.116  25.125  1.00  0.00     0.261 C 
BRANCH   4   5
ATOM      5  O   UNL A   1      35.937  22.902  24.948  1.00  0.00    -0.462 OA
BRANCH   5   6
ATOM      6  C   UNL A   1      35.472  23.012  23.670  1.00  0.00     0.328 C 
ATOM      7  O   UNL A   1      36.168  22.907  22.665  1.00  0.00    -0.250 OA
BRANCH   6   8
ATOM      8  C   UNL A   1      33.999  23.477  23.613  1.00  0.00     0.194 C 
BRANCH   8   9
ATOM      9  C   UNL A   1      33.082  22.247  23.843  1.00  0.00     0.017 C 
ATOM     10  C   UNL A   1      32.106  22.408  25.015  1.00  0.00     0.010 C 
ATOM     11  C   UNL A   1      32.326  21.855  22.572  1.00  0.00     0.010 C 
ENDBRANCH   8   9
BRANCH   8  12
ATOM     12  N   UNL A   1      33.635  24.167  22.366  1.00  0.00    -0.341 N 
ATOM     13  C   UNL A   1      33.180  25.425  22.111  1.00  0.00     0.240 C 
ATOM     14  H   UNL A   1      33.740  23.610  21.561  1.00  0.00     0.164 HD
ATOM     15  O   UNL A   1      33.259  25.803  20.935  1.00  0.00    -0.273 OA
BRANCH  13  16
ATOM     16  C   UNL A   1      32.789  26.444  23.190  1.00  0.00     0.229 C 
BRANCH  16  17
ATOM     17  N   UNL A   1      31.557  27.183  23.042  1.00  0.00    -0.265 N 
ATOM     18  C   UNL A   1      31.487  28.514  22.761  1.00  0.00     0.262 C 
ATOM     19  C   UNL A   1      30.364  26.746  23.555  1.00  0.00     0.262 C 
ATOM     20  O   UNL A   1      32.383  29.322  22.623  1.00  0.00    -0.269 OA
ATOM     21  C   UNL A   1      30.069  28.842  22.697  1.00  0.00     0.053 A 
ATOM     22  C   UNL A   1      29.383  27.796  23.283  1.00  0.00     0.053 A 
ATOM     23  O   UNL A   1      30.123  25.713  24.153  1.00  0.00    -0.269 OA
ATOM     24  C   UNL A   1      29.425  29.926  22.136  1.00  0.00     0.015 A 
ATOM     25  C   UNL A   1      28.015  27.832  23.455  1.00  0.00     0.015 A 
ATOM     26  C   UNL A   1      28.032  29.953  22.235  1.00  0.00     0.001 A 
ATOM     27  C   UNL A   1      27.336  28.933  22.920  1.00  0.00     0.001 A 
ENDBRANCH  16  17
ENDBRANCH  13  16
ENDBRANCH   8  12
ENDBRANCH   6   8
ENDBRANCH   5   6
ENDBRANCH   4   5
ENDBRANCH   3   4
ENDBRANCH   2   3
ENDBRANCH   1   2
BRANCH   1  28
ATOM     28  C   UNL A   1      41.019  20.257  26.690  1.00  0.00     0.188 C 
BRANCH  28  29
ATOM     29  O   UNL A   1      41.729  19.423  25.795  1.00  0.00    -0.376 OA
BRANCH  29  30
ATOM     30  C   UNL A   1      42.844  18.740  26.345  1.00  0.00     0.202 C 
BRANCH  30  31
ATOM     31  C   UNL A   1      43.806  18.225  25.271  1.00  0.00     0.261 C 
BRANCH  31  32
ATOM     32  O   UNL A   1      44.950  19.067  25.040  1.00  0.00    -0.460 OA
BRANCH  32  33
ATOM     33  C   UNL A   1      44.841  20.003  24.070  1.00  0.00     0.338 C 
ATOM     34  O   UNL A   1      44.603  19.821  22.891  1.00  0.00    -0.246 OA
BRANCH  33  35
ATOM     35  C   UNL A   1      44.883  21.328  24.728  1.00  0.00     0.060 A 
ATOM     36  C   UNL A   1      44.569  22.478  23.988  1.00  0.00     0.016 A 
ATOM     37  C   UNL A   1      45.212  21.426  26.081  1.00  0.00     0.016 A 
ATOM     38  C   UNL A   1      44.617  23.737  24.596  1.00  0.00     0.010 A 
ATOM     39  C   UNL A   1      45.287  22.684  26.680  1.00  0.00     0.010 A 
ATOM     40  C   UNL A   1      45.022  23.846  25.934  1.00  0.00    -0.014 A 
BRANCH  40  41
ATOM     41  C   UNL A   1      45.425  25.151  26.514  1.00  0.00     0.031 A 
ATOM     42  C   UNL A   1      44.342  26.006  27.113  1.00  0.00     0.074 A 
ATOM     43  C   UNL A   1      46.685  25.611  26.440  1.00  0.00     0.049 A 
ATOM     44  N   UNL A   1      44.370  27.264  27.467  1.00  0.00    -0.248 NA
ATOM     45  C   UNL A   1      43.042  25.347  27.324  1.00  0.00     0.031 C 
ATOM     46  C   UNL A   1      47.834  24.863  25.937  1.00  0.00     0.029 A 
ATOM     47  N   UNL A   1      47.199  26.843  26.765  1.00  0.00    -0.354 N 
ATOM     48  C   UNL A   1      43.090  27.552  27.918  1.00  0.00     0.074 A 
ATOM     49  C   UNL A   1      42.306  26.344  27.789  1.00  0.00     0.031 C 
ATOM     50  C   UNL A   1      48.915  25.663  25.958  1.00  0.00     0.029 A 
ATOM     51  C   UNL A   1      48.523  26.992  26.427  1.00  0.00     0.049 A 
ATOM     52  H   UNL A   1      46.670  27.551  27.198  1.00  0.00     0.167 HD
ATOM     53  C   UNL A   1      42.606  28.725  28.389  1.00  0.00     0.037 A 
ATOM     54  C   UNL A   1      49.306  28.089  26.452  1.00  0.00     0.037 A 
ATOM     55  C   UNL A   1      43.384  29.927  28.510  1.00  0.00     0.049 A 
ATOM     56  C   UNL A   1      48.727  29.407  26.907  1.00  0.00     0.074 A 
ATOM     57  C   UNL A   1      42.988  31.168  28.973  1.00  0.00     0.029 A 
ATOM     58  N   UNL A   1      44.722  30.034  28.160  1.00  0.00    -0.354 N 
ATOM     59  N   UNL A   1      47.515  29.680  27.327  1.00  0.00    -0.248 NA
ATOM     60  C   UNL A   1      49.622  30.575  26.878  1.00  0.00     0.031 C 
ATOM     61  C   UNL A   1      44.076  32.040  28.863  1.00  0.00     0.029 A 
ATOM     62  C   UNL A   1      45.162  31.327  28.380  1.00  0.00     0.049 A 
ATOM     63  H   UNL A   1      45.275  29.300  27.806  1.00  0.00     0.167 HD
ATOM     64  C   UNL A   1      47.513  31.032  27.647  1.00  0.00     0.074 A 
ATOM     65  C   UNL A   1      48.843  31.530  27.368  1.00  0.00     0.031 C 
ATOM     66  C   UNL A   1      46.501  31.794  28.130  1.00  0.00     0.037 A 
BRANCH  53  67
ATOM     67  C   UNL A   1      41.158  28.770  28.768  1.00  0.00     0.064 A 
ATOM     68  C   UNL A   1      40.159  29.057  27.827  1.00  0.00     0.173 A 
ATOM     69  C   UNL A   1      40.764  28.505  30.088  1.00  0.00     0.173 A 
ATOM     70  F   UNL A   1      40.487  29.336  26.557  1.00  0.00    -0.203 F 
ATOM     71  C   UNL A   1      38.817  29.099  28.201  1.00  0.00     0.198 A 
ATOM     72  C   UNL A   1      39.422  28.521  30.452  1.00  0.00     0.198 A 
ATOM     73  F   UNL A   1      41.683  28.226  31.024  1.00  0.00    -0.203 F 
ATOM     74  F   UNL A   1      37.883  29.422  27.296  1.00  0.00    -0.200 F 
ATOM     75  C   UNL A   1      38.450  28.826  29.510  1.00  0.00     0.200 A 
ATOM     76  F   UNL A   1      39.067  28.248  31.715  1.00  0.00    -0.200 F 
ATOM     77  F   UNL A   1      37.159  28.863  29.866  1.00  0.00    -0.200 F 
ENDBRANCH  53  67
BRANCH  54  78
ATOM     78  C   UNL A   1      50.720  28.007  26.000  1.00  0.00     0.064 A 
ATOM     79  C   UNL A   1      51.767  27.892  26.926  1.00  0.00     0.173 A 
ATOM     80  C   UNL A   1      51.059  28.077  24.641  1.00  0.00     0.173 A 
ATOM     81  F   UNL A   1      51.498  27.856  28.239  1.00  0.00    -0.203 F 
ATOM     82  C   UNL A   1      53.097  27.863  26.510  1.00  0.00     0.198 A 
ATOM     83  C   UNL A   1      52.387  28.020  24.224  1.00  0.00     0.198 A 
ATOM     84  F   UNL A   1      50.097  28.199  23.714  1.00  0.00    -0.203 F 
ATOM     85  F   UNL A   1      54.080  27.801  27.419  1.00  0.00    -0.200 F 
ATOM     86  C   UNL A   1      53.407  27.922  25.159  1.00  0.00     0.200 A 
ATOM     87  F   UNL A   1      52.681  28.072  22.919  1.00  0.00    -0.200 F 
ATOM     88  F   UNL A   1      54.685  27.895  24.761  1.00  0.00    -0.200 F 
ENDBRANCH  54  78
BRANCH  66  89
ATOM     89  C   UNL A   1      46.794  33.227  28.459  1.00  0.00     0.064 A 
ATOM     90  C   UNL A   1      46.588  34.255  27.529  1.00  0.00     0.173 A 
ATOM     91  C   UNL A   1      47.192  33.582  29.758  1.00  0.00     0.173 A 
ATOM     92  F   UNL A   1      46.218  33.965  26.273  1.00  0.00    -0.203 F 
ATOM     93  C   UNL A   1      46.775  35.588  27.887  1.00  0.00     0.198 A 
ATOM     94  C   UNL A   1      47.354  34.915  30.118  1.00  0.00     0.198 A 
ATOM     95  F   UNL A   1      47.393  32.633  30.685  1.00  0.00    -0.203 F 
ATOM     96  F   UNL A   1      46.593  36.556  26.978  1.00  0.00    -0.200 F 
ATOM     97  C   UNL A   1      47.147  35.917  29.183  1.00  0.00     0.200 A 
ATOM     98  F   UNL A   1      47.699  35.232  31.374  1.00  0.00    -0.200 F 
ATOM     99  F   UNL A   1      47.305  37.202  29.530  1.00  0.00    -0.200 F 
ENDBRANCH  66  89
ENDBRANCH  40  41
ENDBRANCH  33  35
ENDBRANCH  32  33
ENDBRANCH  31  32
ENDBRANCH  30  31
ENDBRANCH  29  30
ENDBRANCH  28  29
ENDBRANCH   1  28
TORSDOF 21
ENDMDL
