MODEL 1
REMARK VINA RESULT:     -10.8      0.000      0.000
REMARK SMILES Nc1cc(F)c(OCc2ccc(C(=O)OCCOCCOCCOC(=O)c3ccc(-c4c5nc(c(-c6c(F)c(F)c(F)c(F)c6F)c6ccc([nH]6)c(-c6c(F)c(F)c(F)c(F)c6F)c6nc(c(-c7c(F)c(F)c(F)c(F)c7F)c7ccc4[nH]7)C=C6)C=C5)cc3)cc2)cc1F
REMARK SMILES IDX 19 1 18 2 17 3 16 4 15 5 13 6 14 7 12 8 9 9 10 10 91 11
REMARK SMILES IDX 11 12 90 13 8 14 7 15 6 16 2 17 3 18 93 19 4 20 92 21 94 22
REMARK SMILES IDX 5 23 1 24 20 27 21 28 22 29 23 30 24 31 25 32 26 33 27 34
REMARK SMILES IDX 28 35 89 36 29 37 88 38 30 39 31 40 32 41 82 42 33 43 87 44
REMARK SMILES IDX 81 45 83 46 34 47 86 48 80 49 79 50 35 52 67 53 47 54 66 55
REMARK SMILES IDX 48 56 51 57 65 58 84 59 49 60 50 61 64 63 85 64 52 65 36 66
REMARK SMILES IDX 37 67 45 68 38 69 39 70 43 71 46 72 40 73 41 74 44 75 42 76
REMARK SMILES IDX 68 77 69 78 77 79 70 80 71 81 75 82 78 83 72 84 73 85 76 86
REMARK SMILES IDX 74 87 53 88 54 89 62 90 55 91 56 92 60 93 63 94 57 95 58 96
REMARK SMILES IDX 61 97 59 98
REMARK H PARENT 1 25 1 26 83 51 51 62
REMARK Flexibility Score: inf
ROOT
ATOM      1  C   UNL A   1      44.505  19.032  24.573  1.00  0.00     0.188 C 
ENDROOT
BRANCH   1   2
ATOM      2  O   UNL A   1      43.160  18.709  24.858  1.00  0.00    -0.376 OA
BRANCH   2   3
ATOM      3  C   UNL A   1      42.725  18.560  26.199  1.00  0.00     0.202 C 
BRANCH   3   4
ATOM      4  C   UNL A   1      41.651  19.461  26.822  1.00  0.00     0.261 C 
BRANCH   4   5
ATOM      5  O   UNL A   1      41.698  20.833  26.413  1.00  0.00    -0.460 OA
BRANCH   5   6
ATOM      6  C   UNL A   1      41.169  21.720  27.295  1.00  0.00     0.338 C 
ATOM      7  O   UNL A   1      41.707  22.183  28.285  1.00  0.00    -0.246 OA
BRANCH   6   8
ATOM      8  C   UNL A   1      39.894  22.239  26.757  1.00  0.00     0.060 A 
ATOM      9  C   UNL A   1      37.565  23.371  25.666  1.00  0.00    -0.011 A 
ATOM     10  C   UNL A   1      38.389  24.121  26.520  1.00  0.00     0.008 A 
ATOM     11  C   UNL A   1      37.914  22.037  25.395  1.00  0.00     0.008 A 
ATOM     12  C   UNL A   1      39.538  23.554  27.074  1.00  0.00     0.016 A 
ATOM     13  C   UNL A   1      39.084  21.477  25.916  1.00  0.00     0.016 A 
BRANCH   9  14
ATOM     14  C   UNL A   1      36.328  24.037  25.089  1.00  0.00     0.265 C 
BRANCH  14  15
ATOM     15  O   UNL A   1      35.077  23.512  25.533  1.00  0.00    -0.486 OA
BRANCH  15  16
ATOM     16  C   UNL A   1      34.292  22.816  24.655  1.00  0.00     0.158 A 
ATOM     17  C   UNL A   1      32.491  21.676  22.799  1.00  0.00     0.071 A 
ATOM     18  C   UNL A   1      32.826  23.025  22.715  1.00  0.00     0.071 A 
ATOM     19  C   UNL A   1      33.071  20.916  23.826  1.00  0.00     0.149 A 
ATOM     20  C   UNL A   1      33.724  23.578  23.627  1.00  0.00     0.167 A 
ATOM     21  C   UNL A   1      33.972  21.463  24.740  1.00  0.00     0.091 A 
ATOM     22  F   UNL A   1      32.746  19.619  23.947  1.00  0.00    -0.205 F 
ATOM     23  F   UNL A   1      34.008  24.886  23.529  1.00  0.00    -0.203 F 
BRANCH  17  24
ATOM     24  N   UNL A   1      31.524  21.135  21.964  1.00  0.00    -0.396 N 
ATOM     25  H   UNL A   1      31.565  20.184  21.715  1.00  0.00     0.156 HD
ATOM     26  H   UNL A   1      30.797  21.703  21.621  1.00  0.00     0.156 HD
ENDBRANCH  17  24
ENDBRANCH  15  16
ENDBRANCH  14  15
ENDBRANCH   9  14
ENDBRANCH   6   8
ENDBRANCH   5   6
ENDBRANCH   4   5
ENDBRANCH   3   4
ENDBRANCH   2   3
ENDBRANCH   1   2
BRANCH   1  27
ATOM     27  C   UNL A   1      45.261  20.110  25.377  1.00  0.00     0.188 C 
BRANCH  27  28
ATOM     28  O   UNL A   1      46.020  21.097  24.719  1.00  0.00    -0.376 OA
BRANCH  28  29
ATOM     29  C   UNL A   1      45.626  22.459  24.741  1.00  0.00     0.202 C 
BRANCH  29  30
ATOM     30  C   UNL A   1      44.243  22.966  24.302  1.00  0.00     0.261 C 
BRANCH  30  31
ATOM     31  O   UNL A   1      43.623  23.930  25.154  1.00  0.00    -0.460 OA
BRANCH  31  32
ATOM     32  C   UNL A   1      44.305  25.100  25.288  1.00  0.00     0.338 C 
ATOM     33  O   UNL A   1      45.232  25.501  24.623  1.00  0.00    -0.246 OA
BRANCH  32  34
ATOM     34  C   UNL A   1      43.617  25.923  26.300  1.00  0.00     0.060 A 
ATOM     35  C   UNL A   1      42.644  25.361  27.125  1.00  0.00     0.016 A 
ATOM     36  C   UNL A   1      43.972  27.272  26.425  1.00  0.00     0.016 A 
ATOM     37  C   UNL A   1      42.031  26.156  28.094  1.00  0.00     0.010 A 
ATOM     38  C   UNL A   1      43.348  28.068  27.386  1.00  0.00     0.010 A 
ATOM     39  C   UNL A   1      42.387  27.509  28.240  1.00  0.00    -0.014 A 
BRANCH  39  40
ATOM     40  C   UNL A   1      41.856  28.286  29.386  1.00  0.00     0.031 A 
ATOM     41  C   UNL A   1      40.558  29.028  29.306  1.00  0.00     0.074 A 
ATOM     42  C   UNL A   1      42.578  28.304  30.522  1.00  0.00     0.049 A 
ATOM     43  N   UNL A   1      39.921  29.667  30.255  1.00  0.00    -0.248 NA
ATOM     44  C   UNL A   1      39.888  29.064  27.999  1.00  0.00     0.031 C 
ATOM     45  C   UNL A   1      43.874  27.647  30.699  1.00  0.00     0.029 A 
ATOM     46  N   UNL A   1      42.324  28.880  31.741  1.00  0.00    -0.354 N 
ATOM     47  C   UNL A   1      38.762  30.159  29.672  1.00  0.00     0.074 A 
ATOM     48  C   UNL A   1      38.809  29.789  28.271  1.00  0.00     0.031 C 
ATOM     49  C   UNL A   1      44.288  27.830  31.961  1.00  0.00     0.029 A 
ATOM     50  C   UNL A   1      43.299  28.634  32.675  1.00  0.00     0.049 A 
ATOM     51  H   UNL A   1      41.521  29.417  31.926  1.00  0.00     0.167 HD
ATOM     52  C   UNL A   1      37.747  30.834  30.263  1.00  0.00     0.037 A 
ATOM     53  C   UNL A   1      43.385  29.005  33.966  1.00  0.00     0.037 A 
ATOM     54  C   UNL A   1      37.714  31.204  31.657  1.00  0.00     0.049 A 
ATOM     55  C   UNL A   1      42.261  29.792  34.581  1.00  0.00     0.074 A 
ATOM     56  C   UNL A   1      36.705  31.853  32.350  1.00  0.00     0.029 A 
ATOM     57  N   UNL A   1      38.736  30.974  32.566  1.00  0.00    -0.354 N 
ATOM     58  N   UNL A   1      41.131  30.178  34.042  1.00  0.00    -0.248 NA
ATOM     59  C   UNL A   1      42.421  30.188  35.987  1.00  0.00     0.031 C 
ATOM     60  C   UNL A   1      37.139  32.063  33.662  1.00  0.00     0.029 A 
ATOM     61  C   UNL A   1      38.394  31.497  33.804  1.00  0.00     0.049 A 
ATOM     62  H   UNL A   1      39.578  30.508  32.362  1.00  0.00     0.167 HD
ATOM     63  C   UNL A   1      40.437  30.840  35.045  1.00  0.00     0.074 A 
ATOM     64  C   UNL A   1      41.264  30.787  36.231  1.00  0.00     0.031 C 
ATOM     65  C   UNL A   1      39.224  31.441  34.983  1.00  0.00     0.037 A 
BRANCH  52  66
ATOM     66  C   UNL A   1      36.562  31.208  29.421  1.00  0.00     0.064 A 
ATOM     67  C   UNL A   1      36.395  32.515  28.941  1.00  0.00     0.173 A 
ATOM     68  C   UNL A   1      35.653  30.229  28.988  1.00  0.00     0.173 A 
ATOM     69  F   UNL A   1      37.237  33.487  29.324  1.00  0.00    -0.203 F 
ATOM     70  C   UNL A   1      35.359  32.831  28.065  1.00  0.00     0.198 A 
ATOM     71  C   UNL A   1      34.634  30.543  28.092  1.00  0.00     0.198 A 
ATOM     72  F   UNL A   1      35.777  28.960  29.406  1.00  0.00    -0.203 F 
ATOM     73  F   UNL A   1      35.211  34.090  27.631  1.00  0.00    -0.200 F 
ATOM     74  C   UNL A   1      34.487  31.843  27.632  1.00  0.00     0.200 A 
ATOM     75  F   UNL A   1      33.806  29.583  27.658  1.00  0.00    -0.200 F 
ATOM     76  F   UNL A   1      33.509  32.142  26.766  1.00  0.00    -0.200 F 
ENDBRANCH  52  66
BRANCH  53  77
ATOM     77  C   UNL A   1      44.565  28.598  34.770  1.00  0.00     0.064 A 
ATOM     78  C   UNL A   1      45.692  29.425  34.862  1.00  0.00     0.173 A 
ATOM     79  C   UNL A   1      44.583  27.386  35.475  1.00  0.00     0.173 A 
ATOM     80  F   UNL A   1      45.728  30.586  34.191  1.00  0.00    -0.203 F 
ATOM     81  C   UNL A   1      46.799  29.049  35.619  1.00  0.00     0.198 A 
ATOM     82  C   UNL A   1      45.679  27.025  36.256  1.00  0.00     0.198 A 
ATOM     83  F   UNL A   1      43.526  26.563  35.423  1.00  0.00    -0.203 F 
ATOM     84  F   UNL A   1      47.880  29.840  35.659  1.00  0.00    -0.200 F 
ATOM     85  C   UNL A   1      46.788  27.854  36.322  1.00  0.00     0.200 A 
ATOM     86  F   UNL A   1      45.657  25.877  36.946  1.00  0.00    -0.200 F 
ATOM     87  F   UNL A   1      47.850  27.497  37.057  1.00  0.00    -0.200 F 
ENDBRANCH  53  77
BRANCH  65  88
ATOM     88  C   UNL A   1      38.703  32.089  36.235  1.00  0.00     0.064 A 
ATOM     89  C   UNL A   1      37.969  31.362  37.183  1.00  0.00     0.173 A 
ATOM     90  C   UNL A   1      38.999  33.430  36.521  1.00  0.00     0.173 A 
ATOM     91  F   UNL A   1      37.647  30.080  36.951  1.00  0.00    -0.203 F 
ATOM     92  C   UNL A   1      37.535  31.959  38.365  1.00  0.00     0.198 A 
ATOM     93  C   UNL A   1      38.591  34.015  37.716  1.00  0.00     0.198 A 
ATOM     94  F   UNL A   1      39.704  34.168  35.650  1.00  0.00    -0.203 F 
ATOM     95  F   UNL A   1      36.802  31.257  39.239  1.00  0.00    -0.200 F 
ATOM     96  C   UNL A   1      37.856  33.281  38.635  1.00  0.00     0.200 A 
ATOM     97  F   UNL A   1      38.915  35.288  37.983  1.00  0.00    -0.200 F 
ATOM     98  F   UNL A   1      37.453  33.849  39.780  1.00  0.00    -0.200 F 
ENDBRANCH  65  88
ENDBRANCH  39  40
ENDBRANCH  32  34
ENDBRANCH  31  32
ENDBRANCH  30  31
ENDBRANCH  29  30
ENDBRANCH  28  29
ENDBRANCH  27  28
ENDBRANCH   1  27
TORSDOF 21
ENDMDL
MODEL 2
REMARK VINA RESULT:     -10.7      3.848      9.581
REMARK SMILES Nc1cc(F)c(OCc2ccc(C(=O)OCCOCCOCCOC(=O)c3ccc(-c4c5nc(c(-c6c(F)c(F)c(F)c(F)c6F)c6ccc([nH]6)c(-c6c(F)c(F)c(F)c(F)c6F)c6nc(c(-c7c(F)c(F)c(F)c(F)c7F)c7ccc4[nH]7)C=C6)C=C5)cc3)cc2)cc1F
REMARK SMILES IDX 19 1 18 2 17 3 16 4 15 5 13 6 14 7 12 8 9 9 10 10 91 11
REMARK SMILES IDX 11 12 90 13 8 14 7 15 6 16 2 17 3 18 93 19 4 20 92 21 94 22
REMARK SMILES IDX 5 23 1 24 20 27 21 28 22 29 23 30 24 31 25 32 26 33 27 34
REMARK SMILES IDX 28 35 89 36 29 37 88 38 30 39 31 40 32 41 82 42 33 43 87 44
REMARK SMILES IDX 81 45 83 46 34 47 86 48 80 49 79 50 35 52 67 53 47 54 66 55
REMARK SMILES IDX 48 56 51 57 65 58 84 59 49 60 50 61 64 63 85 64 52 65 36 66
REMARK SMILES IDX 37 67 45 68 38 69 39 70 43 71 46 72 40 73 41 74 44 75 42 76
REMARK SMILES IDX 68 77 69 78 77 79 70 80 71 81 75 82 78 83 72 84 73 85 76 86
REMARK SMILES IDX 74 87 53 88 54 89 62 90 55 91 56 92 60 93 63 94 57 95 58 96
REMARK SMILES IDX 61 97 59 98
REMARK H PARENT 1 25 1 26 83 51 51 62
REMARK Flexibility Score: inf
ROOT
ATOM      1  C   UNL A   1      32.197  28.342  25.954  1.00  0.00     0.188 C 
ENDROOT
BRANCH   1   2
ATOM      2  O   UNL A   1      31.020  28.762  25.295  1.00  0.00    -0.376 OA
BRANCH   2   3
ATOM      3  C   UNL A   1      31.064  29.177  23.940  1.00  0.00     0.202 C 
BRANCH   3   4
ATOM      4  C   UNL A   1      31.015  28.182  22.772  1.00  0.00     0.261 C 
BRANCH   4   5
ATOM      5  O   UNL A   1      32.268  27.571  22.442  1.00  0.00    -0.460 OA
BRANCH   5   6
ATOM      6  C   UNL A   1      32.180  26.345  21.864  1.00  0.00     0.338 C 
ATOM      7  O   UNL A   1      31.639  26.066  20.809  1.00  0.00    -0.246 OA
BRANCH   6   8
ATOM      8  C   UNL A   1      33.049  25.400  22.595  1.00  0.00     0.060 A 
ATOM      9  C   UNL A   1      34.600  23.635  24.137  1.00  0.00    -0.011 A 
ATOM     10  C   UNL A   1      34.393  24.958  24.560  1.00  0.00     0.008 A 
ATOM     11  C   UNL A   1      34.042  23.225  22.915  1.00  0.00     0.008 A 
ATOM     12  C   UNL A   1      33.636  25.839  23.787  1.00  0.00     0.016 A 
ATOM     13  C   UNL A   1      33.249  24.092  22.156  1.00  0.00     0.016 A 
BRANCH   9  14
ATOM     14  C   UNL A   1      35.431  22.717  25.017  1.00  0.00     0.265 C 
BRANCH  14  15
ATOM     15  O   UNL A   1      34.694  21.776  25.799  1.00  0.00    -0.486 OA
BRANCH  15  16
ATOM     16  C   UNL A   1      34.259  20.617  25.217  1.00  0.00     0.158 A 
ATOM     17  C   UNL A   1      33.062  18.270  24.194  1.00  0.00     0.071 A 
ATOM     18  C   UNL A   1      32.277  19.372  24.524  1.00  0.00     0.071 A 
ATOM     19  C   UNL A   1      34.448  18.367  24.387  1.00  0.00     0.149 A 
ATOM     20  C   UNL A   1      32.876  20.530  25.018  1.00  0.00     0.167 A 
ATOM     21  C   UNL A   1      35.053  19.524  24.878  1.00  0.00     0.091 A 
ATOM     22  F   UNL A   1      35.227  17.311  24.101  1.00  0.00    -0.205 F 
ATOM     23  F   UNL A   1      32.087  21.565  25.346  1.00  0.00    -0.203 F 
BRANCH  17  24
ATOM     24  N   UNL A   1      32.474  17.077  23.798  1.00  0.00    -0.396 N 
ATOM     25  H   UNL A   1      32.982  16.236  23.854  1.00  0.00     0.156 HD
ATOM     26  H   UNL A   1      31.549  17.073  23.461  1.00  0.00     0.156 HD
ENDBRANCH  17  24
ENDBRANCH  15  16
ENDBRANCH  14  15
ENDBRANCH   9  14
ENDBRANCH   6   8
ENDBRANCH   5   6
ENDBRANCH   4   5
ENDBRANCH   3   4
ENDBRANCH   2   3
ENDBRANCH   1   2
BRANCH   1  27
ATOM     27  C   UNL A   1      33.017  29.311  26.832  1.00  0.00     0.188 C 
BRANCH  27  28
ATOM     28  O   UNL A   1      32.460  30.528  27.273  1.00  0.00    -0.376 OA
BRANCH  28  29
ATOM     29  C   UNL A   1      33.276  31.662  27.512  1.00  0.00     0.202 C 
BRANCH  29  30
ATOM     30  C   UNL A   1      32.832  33.113  27.271  1.00  0.00     0.261 C 
BRANCH  30  31
ATOM     31  O   UNL A   1      32.277  33.800  28.394  1.00  0.00    -0.460 OA
BRANCH  31  32
ATOM     32  C   UNL A   1      32.998  34.871  28.824  1.00  0.00     0.338 C 
ATOM     33  O   UNL A   1      32.691  36.040  28.784  1.00  0.00    -0.246 OA
BRANCH  32  34
ATOM     34  C   UNL A   1      34.192  34.370  29.530  1.00  0.00     0.060 A 
ATOM     35  C   UNL A   1      34.064  33.677  30.733  1.00  0.00     0.016 A 
ATOM     36  C   UNL A   1      35.453  34.591  28.959  1.00  0.00     0.016 A 
ATOM     37  C   UNL A   1      35.209  33.188  31.363  1.00  0.00     0.010 A 
ATOM     38  C   UNL A   1      36.597  34.113  29.599  1.00  0.00     0.010 A 
ATOM     39  C   UNL A   1      36.480  33.391  30.795  1.00  0.00    -0.014 A 
BRANCH  39  40
ATOM     40  C   UNL A   1      37.661  32.715  31.383  1.00  0.00     0.031 A 
ATOM     41  C   UNL A   1      38.199  33.090  32.729  1.00  0.00     0.074 A 
ATOM     42  C   UNL A   1      38.243  31.732  30.671  1.00  0.00     0.049 A 
ATOM     43  N   UNL A   1      39.161  32.522  33.414  1.00  0.00    -0.248 NA
ATOM     44  C   UNL A   1      37.590  34.251  33.392  1.00  0.00     0.031 C 
ATOM     45  C   UNL A   1      37.824  31.309  29.334  1.00  0.00     0.029 A 
ATOM     46  N   UNL A   1      39.296  30.906  30.970  1.00  0.00    -0.354 N 
ATOM     47  C   UNL A   1      39.256  33.236  34.600  1.00  0.00     0.074 A 
ATOM     48  C   UNL A   1      38.289  34.312  34.520  1.00  0.00     0.031 C 
ATOM     49  C   UNL A   1      38.591  30.282  28.940  1.00  0.00     0.029 A 
ATOM     50  C   UNL A   1      39.569  29.989  29.986  1.00  0.00     0.049 A 
ATOM     51  H   UNL A   1      39.807  30.966  31.809  1.00  0.00     0.167 HD
ATOM     52  C   UNL A   1      40.062  32.993  35.662  1.00  0.00     0.037 A 
ATOM     53  C   UNL A   1      40.494  29.014  29.933  1.00  0.00     0.037 A 
ATOM     54  C   UNL A   1      41.027  31.923  35.728  1.00  0.00     0.049 A 
ATOM     55  C   UNL A   1      41.403  28.797  31.111  1.00  0.00     0.074 A 
ATOM     56  C   UNL A   1      41.856  31.576  36.782  1.00  0.00     0.029 A 
ATOM     57  N   UNL A   1      41.304  31.036  34.698  1.00  0.00    -0.354 N 
ATOM     58  N   UNL A   1      41.427  29.423  32.262  1.00  0.00    -0.248 NA
ATOM     59  C   UNL A   1      42.409  27.734  30.986  1.00  0.00     0.031 C 
ATOM     60  C   UNL A   1      42.672  30.518  36.371  1.00  0.00     0.029 A 
ATOM     61  C   UNL A   1      42.314  30.166  35.081  1.00  0.00     0.049 A 
ATOM     62  H   UNL A   1      40.851  31.027  33.824  1.00  0.00     0.167 HD
ATOM     63  C   UNL A   1      42.430  28.817  33.005  1.00  0.00     0.074 A 
ATOM     64  C   UNL A   1      42.979  27.760  32.183  1.00  0.00     0.031 C 
ATOM     65  C   UNL A   1      42.857  29.115  34.256  1.00  0.00     0.037 A 
BRANCH  52  66
ATOM     66  C   UNL A   1      39.932  33.880  36.866  1.00  0.00     0.064 A 
ATOM     67  C   UNL A   1      40.556  35.136  36.913  1.00  0.00     0.173 A 
ATOM     68  C   UNL A   1      39.081  33.531  37.925  1.00  0.00     0.173 A 
ATOM     69  F   UNL A   1      41.379  35.518  35.924  1.00  0.00    -0.203 F 
ATOM     70  C   UNL A   1      40.339  36.005  37.979  1.00  0.00     0.198 A 
ATOM     71  C   UNL A   1      38.845  34.413  38.977  1.00  0.00     0.198 A 
ATOM     72  F   UNL A   1      38.448  32.348  37.922  1.00  0.00    -0.203 F 
ATOM     73  F   UNL A   1      40.958  37.193  38.010  1.00  0.00    -0.200 F 
ATOM     74  C   UNL A   1      39.475  35.649  39.004  1.00  0.00     0.200 A 
ATOM     75  F   UNL A   1      37.994  34.075  39.955  1.00  0.00    -0.200 F 
ATOM     76  F   UNL A   1      39.244  36.498  40.014  1.00  0.00    -0.200 F 
ENDBRANCH  52  66
BRANCH  53  77
ATOM     77  C   UNL A   1      40.577  28.145  28.731  1.00  0.00     0.064 A 
ATOM     78  C   UNL A   1      39.879  26.932  28.671  1.00  0.00     0.173 A 
ATOM     79  C   UNL A   1      41.340  28.517  27.614  1.00  0.00     0.173 A 
ATOM     80  F   UNL A   1      39.151  26.526  29.722  1.00  0.00    -0.203 F 
ATOM     81  C   UNL A   1      39.951  26.117  27.545  1.00  0.00     0.198 A 
ATOM     82  C   UNL A   1      41.387  27.715  26.477  1.00  0.00     0.198 A 
ATOM     83  F   UNL A   1      42.022  29.672  27.621  1.00  0.00    -0.203 F 
ATOM     84  F   UNL A   1      39.305  24.943  27.529  1.00  0.00    -0.200 F 
ATOM     85  C   UNL A   1      40.698  26.512  26.446  1.00  0.00     0.200 A 
ATOM     86  F   UNL A   1      42.096  28.110  25.411  1.00  0.00    -0.200 F 
ATOM     87  F   UNL A   1      40.759  25.732  25.358  1.00  0.00    -0.200 F 
ENDBRANCH  53  77
BRANCH  65  88
ATOM     88  C   UNL A   1      43.972  28.285  34.826  1.00  0.00     0.064 A 
ATOM     89  C   UNL A   1      43.717  27.087  35.508  1.00  0.00     0.173 A 
ATOM     90  C   UNL A   1      45.311  28.657  34.631  1.00  0.00     0.173 A 
ATOM     91  F   UNL A   1      42.454  26.693  35.734  1.00  0.00    -0.203 F 
ATOM     92  C   UNL A   1      44.762  26.299  35.988  1.00  0.00     0.198 A 
ATOM     93  C   UNL A   1      46.353  27.852  35.084  1.00  0.00     0.198 A 
ATOM     94  F   UNL A   1      45.610  29.791  33.979  1.00  0.00    -0.203 F 
ATOM     95  F   UNL A   1      44.493  25.177  36.670  1.00  0.00    -0.200 F 
ATOM     96  C   UNL A   1      46.077  26.676  35.766  1.00  0.00     0.200 A 
ATOM     97  F   UNL A   1      47.624  28.211  34.855  1.00  0.00    -0.200 F 
ATOM     98  F   UNL A   1      47.081  25.908  36.213  1.00  0.00    -0.200 F 
ENDBRANCH  65  88
ENDBRANCH  39  40
ENDBRANCH  32  34
ENDBRANCH  31  32
ENDBRANCH  30  31
ENDBRANCH  29  30
ENDBRANCH  28  29
ENDBRANCH  27  28
ENDBRANCH   1  27
TORSDOF 21
ENDMDL
MODEL 3
REMARK VINA RESULT:     -10.4      4.286      8.142
REMARK SMILES Nc1cc(F)c(OCc2ccc(C(=O)OCCOCCOCCOC(=O)c3ccc(-c4c5nc(c(-c6c(F)c(F)c(F)c(F)c6F)c6ccc([nH]6)c(-c6c(F)c(F)c(F)c(F)c6F)c6nc(c(-c7c(F)c(F)c(F)c(F)c7F)c7ccc4[nH]7)C=C6)C=C5)cc3)cc2)cc1F
REMARK SMILES IDX 19 1 18 2 17 3 16 4 15 5 13 6 14 7 12 8 9 9 10 10 91 11
REMARK SMILES IDX 11 12 90 13 8 14 7 15 6 16 2 17 3 18 93 19 4 20 92 21 94 22
REMARK SMILES IDX 5 23 1 24 20 27 21 28 22 29 23 30 24 31 25 32 26 33 27 34
REMARK SMILES IDX 28 35 89 36 29 37 88 38 30 39 31 40 32 41 82 42 33 43 87 44
REMARK SMILES IDX 81 45 83 46 34 47 86 48 80 49 79 50 35 52 67 53 47 54 66 55
REMARK SMILES IDX 48 56 51 57 65 58 84 59 49 60 50 61 64 63 85 64 52 65 36 66
REMARK SMILES IDX 37 67 45 68 38 69 39 70 43 71 46 72 40 73 41 74 44 75 42 76
REMARK SMILES IDX 68 77 69 78 77 79 70 80 71 81 75 82 78 83 72 84 73 85 76 86
REMARK SMILES IDX 74 87 53 88 54 89 62 90 55 91 56 92 60 93 63 94 57 95 58 96
REMARK SMILES IDX 61 97 59 98
REMARK H PARENT 1 25 1 26 83 51 51 62
REMARK Flexibility Score: inf
ROOT
ATOM      1  C   UNL A   1      44.540  19.042  25.056  1.00  0.00     0.188 C 
ENDROOT
BRANCH   1   2
ATOM      2  O   UNL A   1      43.157  18.830  25.249  1.00  0.00    -0.376 OA
BRANCH   2   3
ATOM      3  C   UNL A   1      42.470  19.484  26.303  1.00  0.00     0.202 C 
BRANCH   3   4
ATOM      4  C   UNL A   1      41.478  20.628  26.055  1.00  0.00     0.261 C 
BRANCH   4   5
ATOM      5  O   UNL A   1      41.737  21.828  26.794  1.00  0.00    -0.460 OA
BRANCH   5   6
ATOM      6  C   UNL A   1      42.177  22.879  26.056  1.00  0.00     0.338 C 
ATOM      7  O   UNL A   1      42.708  22.839  24.959  1.00  0.00    -0.246 OA
BRANCH   6   8
ATOM      8  C   UNL A   1      41.711  24.137  26.676  1.00  0.00     0.060 A 
ATOM      9  C   UNL A   1      40.997  26.552  27.922  1.00  0.00    -0.011 A 
ATOM     10  C   UNL A   1      41.603  25.522  28.658  1.00  0.00     0.008 A 
ATOM     11  C   UNL A   1      40.729  26.337  26.559  1.00  0.00     0.008 A 
ATOM     12  C   UNL A   1      41.944  24.317  28.044  1.00  0.00     0.016 A 
ATOM     13  C   UNL A   1      41.105  25.147  25.929  1.00  0.00     0.016 A 
BRANCH   9  14
ATOM     14  C   UNL A   1      40.648  27.845  28.640  1.00  0.00     0.265 C 
BRANCH  14  15
ATOM     15  O   UNL A   1      40.965  27.885  30.031  1.00  0.00    -0.486 OA
BRANCH  15  16
ATOM     16  C   UNL A   1      40.104  28.502  30.898  1.00  0.00     0.158 A 
ATOM     17  C   UNL A   1      38.069  29.630  32.501  1.00  0.00     0.071 A 
ATOM     18  C   UNL A   1      37.874  28.398  31.882  1.00  0.00     0.071 A 
ATOM     19  C   UNL A   1      39.295  30.281  32.300  1.00  0.00     0.149 A 
ATOM     20  C   UNL A   1      38.887  27.842  31.102  1.00  0.00     0.167 A 
ATOM     21  C   UNL A   1      40.313  29.729  31.523  1.00  0.00     0.091 A 
ATOM     22  F   UNL A   1      39.501  31.483  32.863  1.00  0.00    -0.205 F 
ATOM     23  F   UNL A   1      38.656  26.664  30.503  1.00  0.00    -0.203 F 
BRANCH  17  24
ATOM     24  N   UNL A   1      37.036  30.243  33.196  1.00  0.00    -0.396 N 
ATOM     25  H   UNL A   1      36.418  29.701  33.738  1.00  0.00     0.156 HD
ATOM     26  H   UNL A   1      36.922  31.219  33.148  1.00  0.00     0.156 HD
ENDBRANCH  17  24
ENDBRANCH  15  16
ENDBRANCH  14  15
ENDBRANCH   9  14
ENDBRANCH   6   8
ENDBRANCH   5   6
ENDBRANCH   4   5
ENDBRANCH   3   4
ENDBRANCH   2   3
ENDBRANCH   1   2
BRANCH   1  27
ATOM     27  C   UNL A   1      45.073  20.340  24.413  1.00  0.00     0.188 C 
BRANCH  27  28
ATOM     28  O   UNL A   1      46.021  21.138  25.084  1.00  0.00    -0.376 OA
BRANCH  28  29
ATOM     29  C   UNL A   1      46.290  22.465  24.661  1.00  0.00     0.202 C 
BRANCH  29  30
ATOM     30  C   UNL A   1      45.989  23.716  25.500  1.00  0.00     0.261 C 
BRANCH  30  31
ATOM     31  O   UNL A   1      45.547  24.869  24.781  1.00  0.00    -0.460 OA
BRANCH  31  32
ATOM     32  C   UNL A   1      46.411  25.921  24.797  1.00  0.00     0.338 C 
ATOM     33  O   UNL A   1      47.347  26.126  24.060  1.00  0.00    -0.246 OA
BRANCH  32  34
ATOM     34  C   UNL A   1      45.923  26.905  25.781  1.00  0.00     0.060 A 
ATOM     35  C   UNL A   1      44.562  27.197  25.873  1.00  0.00     0.016 A 
ATOM     36  C   UNL A   1      46.849  27.525  26.629  1.00  0.00     0.016 A 
ATOM     37  C   UNL A   1      44.125  28.110  26.834  1.00  0.00     0.010 A 
ATOM     38  C   UNL A   1      46.411  28.447  27.580  1.00  0.00     0.010 A 
ATOM     39  C   UNL A   1      45.043  28.731  27.701  1.00  0.00    -0.014 A 
BRANCH  39  40
ATOM     40  C   UNL A   1      44.543  29.557  28.826  1.00  0.00     0.031 A 
ATOM     41  C   UNL A   1      44.199  28.960  30.155  1.00  0.00     0.074 A 
ATOM     42  C   UNL A   1      44.412  30.882  28.624  1.00  0.00     0.049 A 
ATOM     43  N   UNL A   1      43.846  29.569  31.259  1.00  0.00    -0.248 NA
ATOM     44  C   UNL A   1      44.250  27.496  30.262  1.00  0.00     0.031 C 
ATOM     45  C   UNL A   1      44.684  31.565  27.359  1.00  0.00     0.029 A 
ATOM     46  N   UNL A   1      44.032  31.889  29.474  1.00  0.00    -0.354 N 
ATOM     47  C   UNL A   1      43.659  28.568  32.202  1.00  0.00     0.074 A 
ATOM     48  C   UNL A   1      43.887  27.307  31.526  1.00  0.00     0.031 C 
ATOM     49  C   UNL A   1      44.493  32.882  27.523  1.00  0.00     0.029 A 
ATOM     50  C   UNL A   1      44.063  33.133  28.897  1.00  0.00     0.049 A 
ATOM     51  H   UNL A   1      43.762  31.733  30.408  1.00  0.00     0.167 HD
ATOM     52  C   UNL A   1      43.350  28.700  33.515  1.00  0.00     0.037 A 
ATOM     53  C   UNL A   1      43.788  34.344  29.416  1.00  0.00     0.037 A 
ATOM     54  C   UNL A   1      43.117  29.961  34.177  1.00  0.00     0.049 A 
ATOM     55  C   UNL A   1      43.406  34.453  30.866  1.00  0.00     0.074 A 
ATOM     56  C   UNL A   1      42.840  30.192  35.515  1.00  0.00     0.029 A 
ATOM     57  N   UNL A   1      43.119  31.200  33.553  1.00  0.00    -0.354 N 
ATOM     58  N   UNL A   1      43.316  33.509  31.770  1.00  0.00    -0.248 NA
ATOM     59  C   UNL A   1      43.094  35.798  31.370  1.00  0.00     0.031 C 
ATOM     60  C   UNL A   1      42.621  31.562  35.688  1.00  0.00     0.029 A 
ATOM     61  C   UNL A   1      42.816  32.193  34.472  1.00  0.00     0.049 A 
ATOM     62  H   UNL A   1      43.308  31.351  32.599  1.00  0.00     0.167 HD
ATOM     63  C   UNL A   1      42.960  34.145  32.951  1.00  0.00     0.074 A 
ATOM     64  C   UNL A   1      42.871  35.558  32.655  1.00  0.00     0.031 C 
ATOM     65  C   UNL A   1      42.727  33.601  34.170  1.00  0.00     0.037 A 
BRANCH  52  66
ATOM     66  C   UNL A   1      43.263  27.456  34.350  1.00  0.00     0.064 A 
ATOM     67  C   UNL A   1      44.391  26.941  35.006  1.00  0.00     0.173 A 
ATOM     68  C   UNL A   1      42.025  26.844  34.597  1.00  0.00     0.173 A 
ATOM     69  F   UNL A   1      45.598  27.491  34.805  1.00  0.00    -0.203 F 
ATOM     70  C   UNL A   1      44.284  25.857  35.873  1.00  0.00     0.198 A 
ATOM     71  C   UNL A   1      41.916  25.776  35.484  1.00  0.00     0.198 A 
ATOM     72  F   UNL A   1      40.913  27.306  34.006  1.00  0.00    -0.203 F 
ATOM     73  F   UNL A   1      45.378  25.373  36.477  1.00  0.00    -0.200 F 
ATOM     74  C   UNL A   1      43.046  25.283  36.121  1.00  0.00     0.200 A 
ATOM     75  F   UNL A   1      40.717  25.236  35.738  1.00  0.00    -0.200 F 
ATOM     76  F   UNL A   1      42.940  24.257  36.977  1.00  0.00    -0.200 F 
ENDBRANCH  52  66
BRANCH  53  77
ATOM     77  C   UNL A   1      43.905  35.553  28.561  1.00  0.00     0.064 A 
ATOM     78  C   UNL A   1      42.777  36.107  27.941  1.00  0.00     0.173 A 
ATOM     79  C   UNL A   1      45.140  36.188  28.362  1.00  0.00     0.173 A 
ATOM     80  F   UNL A   1      41.578  35.525  28.088  1.00  0.00    -0.203 F 
ATOM     81  C   UNL A   1      42.882  37.244  27.143  1.00  0.00     0.198 A 
ATOM     82  C   UNL A   1      45.238  37.341  27.588  1.00  0.00     0.198 A 
ATOM     83  F   UNL A   1      46.247  35.699  28.939  1.00  0.00    -0.203 F 
ATOM     84  F   UNL A   1      41.795  37.731  26.530  1.00  0.00    -0.200 F 
ATOM     85  C   UNL A   1      44.110  37.864  26.974  1.00  0.00     0.200 A 
ATOM     86  F   UNL A   1      46.424  37.947  27.441  1.00  0.00    -0.200 F 
ATOM     87  F   UNL A   1      44.209  38.963  26.213  1.00  0.00    -0.200 F 
ENDBRANCH  53  77
BRANCH  65  88
ATOM     88  C   UNL A   1      42.357  34.533  35.288  1.00  0.00     0.064 A 
ATOM     89  C   UNL A   1      43.334  35.225  36.018  1.00  0.00     0.173 A 
ATOM     90  C   UNL A   1      41.011  34.789  35.589  1.00  0.00     0.173 A 
ATOM     91  F   UNL A   1      44.637  35.006  35.780  1.00  0.00    -0.203 F 
ATOM     92  C   UNL A   1      42.978  36.127  37.019  1.00  0.00     0.198 A 
ATOM     93  C   UNL A   1      40.656  35.714  36.568  1.00  0.00     0.198 A 
ATOM     94  F   UNL A   1      40.035  34.159  34.916  1.00  0.00    -0.203 F 
ATOM     95  F   UNL A   1      43.929  36.748  37.729  1.00  0.00    -0.200 F 
ATOM     96  C   UNL A   1      41.640  36.378  37.285  1.00  0.00     0.200 A 
ATOM     97  F   UNL A   1      39.363  35.967  36.812  1.00  0.00    -0.200 F 
ATOM     98  F   UNL A   1      41.299  37.259  38.235  1.00  0.00    -0.200 F 
ENDBRANCH  65  88
ENDBRANCH  39  40
ENDBRANCH  32  34
ENDBRANCH  31  32
ENDBRANCH  30  31
ENDBRANCH  29  30
ENDBRANCH  28  29
ENDBRANCH  27  28
ENDBRANCH   1  27
TORSDOF 21
ENDMDL
