MODEL 1
REMARK VINA RESULT:     -11.6      0.000      0.000
REMARK SMILES O=C(N/N=C/c1ccc(C(=O)OCCOCCOCCOC(=O)c2ccc(-c3c4nc(c(-c5c(F)c(F)c(F)c(F)c5F)c5ccc([nH]5)c(-c5c(F)c(F)c(F)c(F)c5F)c5nc(c(-c6c(F)c(F)c(F)c(F)c6F)c6ccc3[nH]6)C=C5)C=C4)cc2)cc1)C(=O)Nc1ccc2c(c1)OCO2
REMARK SMILES IDX 16 1 15 2 14 3 13 4 12 5 10 6 11 7 9 8 6 9 7 10 88 11 8 12
REMARK SMILES IDX 87 13 5 14 4 15 3 16 1 17 2 18 89 20 90 21 91 22 92 24 93 25
REMARK SMILES IDX 97 26 94 27 96 28 95 29 98 30 100 31 99 32 17 33 18 34 19 35
REMARK SMILES IDX 20 36 21 37 22 38 23 39 24 40 25 41 86 42 26 43 85 44 27 45
REMARK SMILES IDX 28 46 29 47 79 48 30 49 84 50 78 51 80 52 31 53 83 54 77 55
REMARK SMILES IDX 76 56 32 58 64 59 44 60 63 61 45 62 48 63 62 64 81 65 46 66
REMARK SMILES IDX 47 67 61 69 82 70 49 71 33 72 34 73 42 74 35 75 36 76 40 77
REMARK SMILES IDX 43 78 37 79 38 80 41 81 39 82 65 83 66 84 74 85 67 86 68 87
REMARK SMILES IDX 72 88 75 89 69 90 70 91 73 92 71 93 50 94 51 95 59 96 52 97
REMARK SMILES IDX 53 98 57 99 60 100 54 101 55 102 58 103 56 104
REMARK H PARENT 3 19 91 23 80 57 48 68
REMARK Flexibility Score: inf
ROOT
ATOM      1  C   UNL A   1      42.484  18.838  26.226  1.00  0.00     0.188 C 
ENDROOT
BRANCH   1   2
ATOM      2  O   UNL A   1      42.366  19.602  27.417  1.00  0.00    -0.376 OA
BRANCH   2   3
ATOM      3  C   UNL A   1      41.315  20.554  27.549  1.00  0.00     0.202 C 
BRANCH   3   4
ATOM      4  C   UNL A   1      40.121  20.527  26.585  1.00  0.00     0.261 C 
BRANCH   4   5
ATOM      5  O   UNL A   1      40.044  21.682  25.735  1.00  0.00    -0.460 OA
BRANCH   5   6
ATOM      6  C   UNL A   1      39.371  22.734  26.257  1.00  0.00     0.338 C 
ATOM      7  O   UNL A   1      39.833  23.655  26.911  1.00  0.00    -0.246 OA
BRANCH   6   8
ATOM      8  C   UNL A   1      37.977  22.748  25.774  1.00  0.00     0.060 A 
ATOM      9  C   UNL A   1      35.327  22.976  24.268  1.00  0.00    -0.005 A 
ATOM     10  C   UNL A   1      36.294  21.823  24.283  1.00  0.00     0.010 A 
ATOM     11  C   UNL A   1      35.779  23.715  25.518  1.00  0.00     0.010 A 
ATOM     12  C   UNL A   1      37.562  21.754  24.914  1.00  0.00     0.016 A 
ATOM     13  C   UNL A   1      37.031  23.648  26.191  1.00  0.00     0.016 A 
BRANCH   9  14
ATOM     14  C   UNL A   1      33.892  23.506  22.770  1.00  0.00     0.141 C 
ATOM     15  N   UNL A   1      33.824  24.342  21.675  1.00  0.00    -0.180 NA
BRANCH  15  16
ATOM     16  N   UNL A   1      32.560  24.743  21.398  1.00  0.00    -0.239 N 
ATOM     17  O   UNL A   1      30.866  26.240  21.642  1.00  0.00    -0.262 OA
ATOM     18  C   UNL A   1      32.060  25.980  21.783  1.00  0.00     0.329 C 
ATOM     19  H   UNL A   1      31.971  24.131  20.903  1.00  0.00     0.194 HD
BRANCH  18  20
ATOM     20  C   UNL A   1      33.014  27.099  22.286  1.00  0.00     0.315 C 
ATOM     21  O   UNL A   1      34.027  27.335  21.626  1.00  0.00    -0.263 OA
ATOM     22  N   UNL A   1      32.722  27.927  23.376  1.00  0.00    -0.318 N 
ATOM     23  H   UNL A   1      32.923  28.888  23.306  1.00  0.00     0.170 HD
BRANCH  22  24
ATOM     24  C   UNL A   1      32.154  27.443  24.568  1.00  0.00     0.045 A 
ATOM     25  C   UNL A   1      30.313  27.310  24.599  1.00  0.00     0.030 A 
ATOM     26  C   UNL A   1      33.187  26.271  25.523  1.00  0.00     0.076 A 
ATOM     27  C   UNL A   1      29.528  25.953  25.557  1.00  0.00     0.053 A 
ATOM     28  C   UNL A   1      32.371  24.855  26.311  1.00  0.00     0.167 A 
ATOM     29  C   UNL A   1      30.581  24.707  26.315  1.00  0.00     0.165 A 
ATOM     30  O   UNL A   1      32.852  23.688  26.807  1.00  0.00    -0.454 OA
ATOM     31  O   UNL A   1      30.298  23.502  26.860  1.00  0.00    -0.454 OA
ATOM     32  C   UNL A   1      31.631  22.857  26.861  1.00  0.00     0.468 C 
ENDBRANCH  22  24
ENDBRANCH  18  20
ENDBRANCH  15  16
ENDBRANCH   9  14
ENDBRANCH   6   8
ENDBRANCH   5   6
ENDBRANCH   4   5
ENDBRANCH   3   4
ENDBRANCH   2   3
ENDBRANCH   1   2
BRANCH   1  33
ATOM     33  C   UNL A   1      43.446  19.293  25.109  1.00  0.00     0.188 C 
BRANCH  33  34
ATOM     34  O   UNL A   1      44.812  19.110  25.374  1.00  0.00    -0.376 OA
BRANCH  34  35
ATOM     35  C   UNL A   1      45.725  20.172  25.149  1.00  0.00     0.202 C 
BRANCH  35  36
ATOM     36  C   UNL A   1      45.355  21.665  24.996  1.00  0.00     0.261 C 
BRANCH  36  37
ATOM     37  O   UNL A   1      44.696  22.329  26.079  1.00  0.00    -0.460 OA
BRANCH  37  38
ATOM     38  C   UNL A   1      43.722  23.206  25.738  1.00  0.00     0.338 C 
ATOM     39  O   UNL A   1      42.990  23.161  24.766  1.00  0.00    -0.246 OA
BRANCH  38  40
ATOM     40  C   UNL A   1      43.542  24.164  26.849  1.00  0.00     0.060 A 
ATOM     41  C   UNL A   1      42.948  23.716  28.037  1.00  0.00     0.016 A 
ATOM     42  C   UNL A   1      43.925  25.498  26.707  1.00  0.00     0.016 A 
ATOM     43  C   UNL A   1      42.710  24.613  29.079  1.00  0.00     0.010 A 
ATOM     44  C   UNL A   1      43.667  26.399  27.745  1.00  0.00     0.010 A 
ATOM     45  C   UNL A   1      43.034  25.967  28.925  1.00  0.00    -0.014 A 
BRANCH  45  46
ATOM     46  C   UNL A   1      42.565  26.964  29.920  1.00  0.00     0.031 A 
ATOM     47  C   UNL A   1      43.266  27.045  31.247  1.00  0.00     0.074 A 
ATOM     48  C   UNL A   1      41.533  27.786  29.654  1.00  0.00     0.049 A 
ATOM     49  N   UNL A   1      42.988  27.780  32.294  1.00  0.00    -0.248 NA
ATOM     50  C   UNL A   1      44.440  26.174  31.415  1.00  0.00     0.031 C 
ATOM     51  C   UNL A   1      40.794  27.835  28.394  1.00  0.00     0.029 A 
ATOM     52  N   UNL A   1      40.921  28.729  30.443  1.00  0.00    -0.354 N 
ATOM     53  C   UNL A   1      43.947  27.455  33.246  1.00  0.00     0.074 A 
ATOM     54  C   UNL A   1      44.795  26.439  32.664  1.00  0.00     0.031 C 
ATOM     55  C   UNL A   1      39.815  28.750  28.502  1.00  0.00     0.029 A 
ATOM     56  C   UNL A   1      39.836  29.324  29.848  1.00  0.00     0.049 A 
ATOM     57  H   UNL A   1      41.231  28.957  31.349  1.00  0.00     0.167 HD
ATOM     58  C   UNL A   1      44.108  27.965  34.491  1.00  0.00     0.037 A 
ATOM     59  C   UNL A   1      38.947  30.206  30.344  1.00  0.00     0.037 A 
ATOM     60  C   UNL A   1      43.259  28.971  35.073  1.00  0.00     0.049 A 
ATOM     61  C   UNL A   1      39.099  30.697  31.763  1.00  0.00     0.074 A 
ATOM     62  C   UNL A   1      43.352  29.562  36.322  1.00  0.00     0.029 A 
ATOM     63  N   UNL A   1      42.153  29.529  34.449  1.00  0.00    -0.354 N 
ATOM     64  N   UNL A   1      40.021  30.407  32.648  1.00  0.00    -0.248 NA
ATOM     65  C   UNL A   1      38.081  31.641  32.250  1.00  0.00     0.031 C 
ATOM     66  C   UNL A   1      42.271  30.435  36.474  1.00  0.00     0.029 A 
ATOM     67  C   UNL A   1      41.539  30.436  35.298  1.00  0.00     0.049 A 
ATOM     68  H   UNL A   1      41.850  29.313  33.537  1.00  0.00     0.167 HD
ATOM     69  C   UNL A   1      39.716  31.154  33.780  1.00  0.00     0.074 A 
ATOM     70  C   UNL A   1      38.529  31.920  33.467  1.00  0.00     0.031 C 
ATOM     71  C   UNL A   1      40.363  31.202  34.971  1.00  0.00     0.037 A 
BRANCH  58  72
ATOM     72  C   UNL A   1      45.232  27.418  35.321  1.00  0.00     0.064 A 
ATOM     73  C   UNL A   1      45.059  26.304  36.155  1.00  0.00     0.173 A 
ATOM     74  C   UNL A   1      46.509  27.996  35.255  1.00  0.00     0.173 A 
ATOM     75  F   UNL A   1      43.854  25.723  36.265  1.00  0.00    -0.203 F 
ATOM     76  C   UNL A   1      46.115  25.805  36.914  1.00  0.00     0.198 A 
ATOM     77  C   UNL A   1      47.570  27.476  35.991  1.00  0.00     0.198 A 
ATOM     78  F   UNL A   1      46.729  29.061  34.471  1.00  0.00    -0.203 F 
ATOM     79  F   UNL A   1      45.914  24.770  37.741  1.00  0.00    -0.200 F 
ATOM     80  C   UNL A   1      47.371  26.386  36.825  1.00  0.00     0.200 A 
ATOM     81  F   UNL A   1      48.786  28.033  35.895  1.00  0.00    -0.200 F 
ATOM     82  F   UNL A   1      48.389  25.902  37.550  1.00  0.00    -0.200 F 
ENDBRANCH  58  72
BRANCH  59  83
ATOM     83  C   UNL A   1      37.816  30.679  29.502  1.00  0.00     0.064 A 
ATOM     84  C   UNL A   1      37.777  31.994  29.016  1.00  0.00     0.173 A 
ATOM     85  C   UNL A   1      36.737  29.838  29.191  1.00  0.00     0.173 A 
ATOM     86  F   UNL A   1      38.769  32.846  29.311  1.00  0.00    -0.203 F 
ATOM     87  C   UNL A   1      36.693  32.454  28.271  1.00  0.00     0.198 A 
ATOM     88  C   UNL A   1      35.669  30.291  28.421  1.00  0.00     0.198 A 
ATOM     89  F   UNL A   1      36.723  28.572  29.636  1.00  0.00    -0.203 F 
ATOM     90  F   UNL A   1      36.657  33.731  27.865  1.00  0.00    -0.200 F 
ATOM     91  C   UNL A   1      35.642  31.601  27.969  1.00  0.00     0.200 A 
ATOM     92  F   UNL A   1      34.661  29.459  28.122  1.00  0.00    -0.200 F 
ATOM     93  F   UNL A   1      34.601  32.044  27.252  1.00  0.00    -0.200 F 
ENDBRANCH  59  83
BRANCH  71  94
ATOM     94  C   UNL A   1      39.832  32.145  36.013  1.00  0.00     0.064 A 
ATOM     95  C   UNL A   1      40.387  33.417  36.212  1.00  0.00     0.173 A 
ATOM     96  C   UNL A   1      38.721  31.787  36.793  1.00  0.00     0.173 A 
ATOM     97  F   UNL A   1      41.459  33.805  35.502  1.00  0.00    -0.203 F 
ATOM     98  C   UNL A   1      39.867  34.286  37.169  1.00  0.00     0.198 A 
ATOM     99  C   UNL A   1      38.183  32.669  37.727  1.00  0.00     0.198 A 
ATOM    100  F   UNL A   1      38.144  30.586  36.638  1.00  0.00    -0.203 F 
ATOM    101  F   UNL A   1      40.445  35.478  37.374  1.00  0.00    -0.200 F 
ATOM    102  C   UNL A   1      38.762  33.914  37.919  1.00  0.00     0.200 A 
ATOM    103  F   UNL A   1      37.105  32.315  38.439  1.00  0.00    -0.200 F 
ATOM    104  F   UNL A   1      38.258  34.755  38.834  1.00  0.00    -0.200 F 
ENDBRANCH  71  94
ENDBRANCH  45  46
ENDBRANCH  38  40
ENDBRANCH  37  38
ENDBRANCH  36  37
ENDBRANCH  35  36
ENDBRANCH  34  35
ENDBRANCH  33  34
ENDBRANCH   1  33
TORSDOF 21
ENDMDL
MODEL 2
REMARK VINA RESULT:     -11.4      4.558      6.805
REMARK SMILES O=C(N/N=C/c1ccc(C(=O)OCCOCCOCCOC(=O)c2ccc(-c3c4nc(c(-c5c(F)c(F)c(F)c(F)c5F)c5ccc([nH]5)c(-c5c(F)c(F)c(F)c(F)c5F)c5nc(c(-c6c(F)c(F)c(F)c(F)c6F)c6ccc3[nH]6)C=C5)C=C4)cc2)cc1)C(=O)Nc1ccc2c(c1)OCO2
REMARK SMILES IDX 16 1 15 2 14 3 13 4 12 5 10 6 11 7 9 8 6 9 7 10 88 11 8 12
REMARK SMILES IDX 87 13 5 14 4 15 3 16 1 17 2 18 89 20 90 21 91 22 92 24 93 25
REMARK SMILES IDX 97 26 94 27 96 28 95 29 98 30 100 31 99 32 17 33 18 34 19 35
REMARK SMILES IDX 20 36 21 37 22 38 23 39 24 40 25 41 86 42 26 43 85 44 27 45
REMARK SMILES IDX 28 46 29 47 79 48 30 49 84 50 78 51 80 52 31 53 83 54 77 55
REMARK SMILES IDX 76 56 32 58 64 59 44 60 63 61 45 62 48 63 62 64 81 65 46 66
REMARK SMILES IDX 47 67 61 69 82 70 49 71 33 72 34 73 42 74 35 75 36 76 40 77
REMARK SMILES IDX 43 78 37 79 38 80 41 81 39 82 65 83 66 84 74 85 67 86 68 87
REMARK SMILES IDX 72 88 75 89 69 90 70 91 73 92 71 93 50 94 51 95 59 96 52 97
REMARK SMILES IDX 53 98 57 99 60 100 54 101 55 102 58 103 56 104
REMARK H PARENT 3 19 91 23 80 57 48 68
REMARK Flexibility Score: inf
ROOT
ATOM      1  C   UNL A   1      43.835  19.720  25.438  1.00  0.00     0.188 C 
ENDROOT
BRANCH   1   2
ATOM      2  O   UNL A   1      42.471  20.080  25.274  1.00  0.00    -0.376 OA
BRANCH   2   3
ATOM      3  C   UNL A   1      41.477  19.498  26.112  1.00  0.00     0.202 C 
BRANCH   3   4
ATOM      4  C   UNL A   1      40.829  20.324  27.233  1.00  0.00     0.261 C 
BRANCH   4   5
ATOM      5  O   UNL A   1      40.870  21.740  26.997  1.00  0.00    -0.460 OA
BRANCH   5   6
ATOM      6  C   UNL A   1      41.838  22.405  27.670  1.00  0.00     0.338 C 
ATOM      7  O   UNL A   1      42.979  22.029  27.884  1.00  0.00    -0.246 OA
BRANCH   6   8
ATOM      8  C   UNL A   1      41.403  23.781  27.977  1.00  0.00     0.060 A 
ATOM      9  C   UNL A   1      40.584  26.470  29.177  1.00  0.00    -0.005 A 
ATOM     10  C   UNL A   1      41.965  25.989  28.826  1.00  0.00     0.010 A 
ATOM     11  C   UNL A   1      39.750  25.500  28.354  1.00  0.00     0.010 A 
ATOM     12  C   UNL A   1      42.350  24.710  28.349  1.00  0.00     0.016 A 
ATOM     13  C   UNL A   1      40.113  24.225  27.838  1.00  0.00     0.016 A 
BRANCH   9  14
ATOM     14  C   UNL A   1      40.000  27.951  30.609  1.00  0.00     0.141 C 
ATOM     15  N   UNL A   1      39.616  29.275  30.606  1.00  0.00    -0.180 NA
BRANCH  15  16
ATOM     16  N   UNL A   1      39.894  29.906  31.772  1.00  0.00    -0.239 N 
ATOM     17  O   UNL A   1      39.195  30.941  33.672  1.00  0.00    -0.262 OA
ATOM     18  C   UNL A   1      38.917  30.239  32.701  1.00  0.00     0.329 C 
ATOM     19  H   UNL A   1      40.830  30.137  31.971  1.00  0.00     0.194 HD
BRANCH  18  20
ATOM     20  C   UNL A   1      37.488  29.638  32.598  1.00  0.00     0.315 C 
ATOM     21  O   UNL A   1      37.315  28.487  33.001  1.00  0.00    -0.263 OA
ATOM     22  N   UNL A   1      36.371  30.374  32.185  1.00  0.00    -0.318 N 
ATOM     23  H   UNL A   1      35.523  30.257  32.671  1.00  0.00     0.170 HD
BRANCH  22  24
ATOM     24  C   UNL A   1      36.410  31.271  31.103  1.00  0.00     0.045 A 
ATOM     25  C   UNL A   1      36.270  30.526  29.420  1.00  0.00     0.030 A 
ATOM     26  C   UNL A   1      35.753  32.948  31.435  1.00  0.00     0.076 A 
ATOM     27  C   UNL A   1      35.414  31.464  28.092  1.00  0.00     0.053 A 
ATOM     28  C   UNL A   1      34.773  33.756  30.139  1.00  0.00     0.167 A 
ATOM     29  C   UNL A   1      34.608  33.017  28.511  1.00  0.00     0.165 A 
ATOM     30  O   UNL A   1      33.922  34.812  30.168  1.00  0.00    -0.454 OA
ATOM     31  O   UNL A   1      33.731  33.787  27.829  1.00  0.00    -0.454 OA
ATOM     32  C   UNL A   1      33.166  34.624  28.912  1.00  0.00     0.468 C 
ENDBRANCH  22  24
ENDBRANCH  18  20
ENDBRANCH  15  16
ENDBRANCH   9  14
ENDBRANCH   6   8
ENDBRANCH   5   6
ENDBRANCH   4   5
ENDBRANCH   3   4
ENDBRANCH   2   3
ENDBRANCH   1   2
BRANCH   1  33
ATOM     33  C   UNL A   1      44.935  20.501  24.689  1.00  0.00     0.188 C 
BRANCH  33  34
ATOM     34  O   UNL A   1      44.479  21.497  23.811  1.00  0.00    -0.376 OA
BRANCH  34  35
ATOM     35  C   UNL A   1      45.047  22.796  23.858  1.00  0.00     0.202 C 
BRANCH  35  36
ATOM     36  C   UNL A   1      45.039  23.742  25.081  1.00  0.00     0.261 C 
BRANCH  36  37
ATOM     37  O   UNL A   1      44.959  25.154  24.863  1.00  0.00    -0.460 OA
BRANCH  37  38
ATOM     38  C   UNL A   1      43.726  25.705  24.958  1.00  0.00     0.338 C 
ATOM     39  O   UNL A   1      42.681  25.266  24.513  1.00  0.00    -0.246 OA
BRANCH  38  40
ATOM     40  C   UNL A   1      43.799  26.867  25.868  1.00  0.00     0.060 A 
ATOM     41  C   UNL A   1      44.929  27.015  26.684  1.00  0.00     0.016 A 
ATOM     42  C   UNL A   1      42.749  27.782  25.941  1.00  0.00     0.016 A 
ATOM     43  C   UNL A   1      44.999  28.068  27.597  1.00  0.00     0.010 A 
ATOM     44  C   UNL A   1      42.811  28.825  26.870  1.00  0.00     0.010 A 
ATOM     45  C   UNL A   1      43.923  28.958  27.722  1.00  0.00    -0.014 A 
BRANCH  45  46
ATOM     46  C   UNL A   1      43.881  29.924  28.848  1.00  0.00     0.031 A 
ATOM     47  C   UNL A   1      43.742  29.394  30.248  1.00  0.00     0.074 A 
ATOM     48  C   UNL A   1      43.965  31.249  28.636  1.00  0.00     0.049 A 
ATOM     49  N   UNL A   1      43.608  30.045  31.376  1.00  0.00    -0.248 NA
ATOM     50  C   UNL A   1      43.751  27.930  30.393  1.00  0.00     0.031 C 
ATOM     51  C   UNL A   1      44.141  31.888  27.334  1.00  0.00     0.029 A 
ATOM     52  N   UNL A   1      43.897  32.298  29.521  1.00  0.00    -0.354 N 
ATOM     53  C   UNL A   1      43.511  29.071  32.362  1.00  0.00     0.074 A 
ATOM     54  C   UNL A   1      43.572  27.787  31.699  1.00  0.00     0.031 C 
ATOM     55  C   UNL A   1      44.149  33.222  27.503  1.00  0.00     0.029 A 
ATOM     56  C   UNL A   1      43.944  33.531  28.918  1.00  0.00     0.049 A 
ATOM     57  H   UNL A   1      43.822  32.176  30.495  1.00  0.00     0.167 HD
ATOM     58  C   UNL A   1      43.388  29.234  33.701  1.00  0.00     0.037 A 
ATOM     59  C   UNL A   1      43.808  34.762  29.446  1.00  0.00     0.037 A 
ATOM     60  C   UNL A   1      43.320  30.511  34.362  1.00  0.00     0.049 A 
ATOM     61  C   UNL A   1      43.589  34.915  30.932  1.00  0.00     0.074 A 
ATOM     62  C   UNL A   1      43.211  30.777  35.716  1.00  0.00     0.029 A 
ATOM     63  N   UNL A   1      43.343  31.737  33.715  1.00  0.00    -0.354 N 
ATOM     64  N   UNL A   1      43.524  33.993  31.861  1.00  0.00    -0.248 NA
ATOM     65  C   UNL A   1      43.424  36.286  31.440  1.00  0.00     0.031 C 
ATOM     66  C   UNL A   1      43.113  32.162  35.883  1.00  0.00     0.029 A 
ATOM     67  C   UNL A   1      43.222  32.761  34.640  1.00  0.00     0.049 A 
ATOM     68  H   UNL A   1      43.433  31.860  32.742  1.00  0.00     0.167 HD
ATOM     69  C   UNL A   1      43.345  34.669  33.062  1.00  0.00     0.074 A 
ATOM     70  C   UNL A   1      43.322  36.081  32.746  1.00  0.00     0.031 C 
ATOM     71  C   UNL A   1      43.212  34.165  34.314  1.00  0.00     0.037 A 
BRANCH  58  72
ATOM     72  C   UNL A   1      43.289  27.994  34.542  1.00  0.00     0.064 A 
ATOM     73  C   UNL A   1      44.391  27.493  35.250  1.00  0.00     0.173 A 
ATOM     74  C   UNL A   1      42.067  27.317  34.666  1.00  0.00     0.173 A 
ATOM     75  F   UNL A   1      45.587  28.095  35.154  1.00  0.00    -0.203 F 
ATOM     76  C   UNL A   1      44.280  26.344  36.030  1.00  0.00     0.198 A 
ATOM     77  C   UNL A   1      41.952  26.186  35.471  1.00  0.00     0.198 A 
ATOM     78  F   UNL A   1      40.981  27.755  34.011  1.00  0.00    -0.203 F 
ATOM     79  F   UNL A   1      45.358  25.856  36.660  1.00  0.00    -0.200 F 
ATOM     80  C   UNL A   1      43.059  25.697  36.146  1.00  0.00     0.200 A 
ATOM     81  F   UNL A   1      40.767  25.569  35.590  1.00  0.00    -0.200 F 
ATOM     82  F   UNL A   1      42.950  24.596  36.902  1.00  0.00    -0.200 F 
ENDBRANCH  58  72
BRANCH  59  83
ATOM     83  C   UNL A   1      43.857  35.961  28.567  1.00  0.00     0.064 A 
ATOM     84  C   UNL A   1      45.072  36.602  28.286  1.00  0.00     0.173 A 
ATOM     85  C   UNL A   1      42.690  36.507  28.014  1.00  0.00     0.173 A 
ATOM     86  F   UNL A   1      46.213  36.136  28.816  1.00  0.00    -0.203 F 
ATOM     87  C   UNL A   1      45.114  37.756  27.505  1.00  0.00     0.198 A 
ATOM     88  C   UNL A   1      42.737  37.642  27.208  1.00  0.00     0.198 A 
ATOM     89  F   UNL A   1      41.501  35.935  28.256  1.00  0.00    -0.203 F 
ATOM     90  F   UNL A   1      46.283  38.378  27.297  1.00  0.00    -0.200 F 
ATOM     91  C   UNL A   1      43.947  38.271  26.961  1.00  0.00     0.200 A 
ATOM     92  F   UNL A   1      41.608  38.131  26.676  1.00  0.00    -0.200 F 
ATOM     93  F   UNL A   1      43.989  39.379  26.210  1.00  0.00    -0.200 F 
ENDBRANCH  59  83
BRANCH  71  94
ATOM     94  C   UNL A   1      43.078  35.144  35.447  1.00  0.00     0.064 A 
ATOM     95  C   UNL A   1      41.828  35.494  35.978  1.00  0.00     0.173 A 
ATOM     96  C   UNL A   1      44.221  35.705  36.038  1.00  0.00     0.173 A 
ATOM     97  F   UNL A   1      40.703  34.997  35.442  1.00  0.00    -0.203 F 
ATOM     98  C   UNL A   1      41.726  36.387  37.042  1.00  0.00     0.198 A 
ATOM     99  C   UNL A   1      44.118  36.573  37.122  1.00  0.00     0.198 A 
ATOM    100  F   UNL A   1      45.442  35.398  35.575  1.00  0.00    -0.203 F 
ATOM    101  F   UNL A   1      40.519  36.744  37.502  1.00  0.00    -0.200 F 
ATOM    102  C   UNL A   1      42.871  36.920  37.617  1.00  0.00     0.200 A 
ATOM    103  F   UNL A   1      45.225  37.073  37.687  1.00  0.00    -0.200 F 
ATOM    104  F   UNL A   1      42.770  37.773  38.647  1.00  0.00    -0.200 F 
ENDBRANCH  71  94
ENDBRANCH  45  46
ENDBRANCH  38  40
ENDBRANCH  37  38
ENDBRANCH  36  37
ENDBRANCH  35  36
ENDBRANCH  34  35
ENDBRANCH  33  34
ENDBRANCH   1  33
TORSDOF 21
ENDMDL
MODEL 3
REMARK VINA RESULT:     -11.1      3.725      5.135
REMARK SMILES O=C(N/N=C/c1ccc(C(=O)OCCOCCOCCOC(=O)c2ccc(-c3c4nc(c(-c5c(F)c(F)c(F)c(F)c5F)c5ccc([nH]5)c(-c5c(F)c(F)c(F)c(F)c5F)c5nc(c(-c6c(F)c(F)c(F)c(F)c6F)c6ccc3[nH]6)C=C5)C=C4)cc2)cc1)C(=O)Nc1ccc2c(c1)OCO2
REMARK SMILES IDX 16 1 15 2 14 3 13 4 12 5 10 6 11 7 9 8 6 9 7 10 88 11 8 12
REMARK SMILES IDX 87 13 5 14 4 15 3 16 1 17 2 18 89 20 90 21 91 22 92 24 93 25
REMARK SMILES IDX 97 26 94 27 96 28 95 29 98 30 100 31 99 32 17 33 18 34 19 35
REMARK SMILES IDX 20 36 21 37 22 38 23 39 24 40 25 41 86 42 26 43 85 44 27 45
REMARK SMILES IDX 28 46 29 47 79 48 30 49 84 50 78 51 80 52 31 53 83 54 77 55
REMARK SMILES IDX 76 56 32 58 64 59 44 60 63 61 45 62 48 63 62 64 81 65 46 66
REMARK SMILES IDX 47 67 61 69 82 70 49 71 33 72 34 73 42 74 35 75 36 76 40 77
REMARK SMILES IDX 43 78 37 79 38 80 41 81 39 82 65 83 66 84 74 85 67 86 68 87
REMARK SMILES IDX 72 88 75 89 69 90 70 91 73 92 71 93 50 94 51 95 59 96 52 97
REMARK SMILES IDX 53 98 57 99 60 100 54 101 55 102 58 103 56 104
REMARK H PARENT 3 19 91 23 80 57 48 68
REMARK Flexibility Score: inf
ROOT
ATOM      1  C   UNL A   1      44.782  19.342  25.293  1.00  0.00     0.188 C 
ENDROOT
BRANCH   1   2
ATOM      2  O   UNL A   1      43.395  19.064  25.171  1.00  0.00    -0.376 OA
BRANCH   2   3
ATOM      3  C   UNL A   1      42.661  18.604  26.301  1.00  0.00     0.202 C 
BRANCH   3   4
ATOM      4  C   UNL A   1      41.858  19.594  27.157  1.00  0.00     0.261 C 
BRANCH   4   5
ATOM      5  O   UNL A   1      41.192  20.607  26.387  1.00  0.00    -0.460 OA
BRANCH   5   6
ATOM      6  C   UNL A   1      40.760  21.676  27.097  1.00  0.00     0.338 C 
ATOM      7  O   UNL A   1      41.351  22.251  27.997  1.00  0.00    -0.246 OA
BRANCH   6   8
ATOM      8  C   UNL A   1      39.515  22.214  26.518  1.00  0.00     0.060 A 
ATOM      9  C   UNL A   1      36.730  23.296  25.872  1.00  0.00    -0.005 A 
ATOM     10  C   UNL A   1      37.937  24.056  26.350  1.00  0.00     0.010 A 
ATOM     11  C   UNL A   1      37.401  22.028  25.366  1.00  0.00     0.010 A 
ATOM     12  C   UNL A   1      39.202  23.539  26.729  1.00  0.00     0.016 A 
ATOM     13  C   UNL A   1      38.676  21.497  25.704  1.00  0.00     0.016 A 
BRANCH   9  14
ATOM     14  C   UNL A   1      34.659  23.797  26.076  1.00  0.00     0.141 C 
ATOM     15  N   UNL A   1      33.779  24.724  25.557  1.00  0.00    -0.180 NA
BRANCH  15  16
ATOM     16  N   UNL A   1      32.748  24.995  26.394  1.00  0.00    -0.239 N 
ATOM     17  O   UNL A   1      30.526  24.944  26.869  1.00  0.00    -0.262 OA
ATOM     18  C   UNL A   1      31.454  24.549  26.165  1.00  0.00     0.329 C 
ATOM     19  H   UNL A   1      32.925  25.533  27.198  1.00  0.00     0.194 HD
BRANCH  18  20
ATOM     20  C   UNL A   1      31.169  23.454  25.100  1.00  0.00     0.315 C 
ATOM     21  O   UNL A   1      31.567  22.310  25.325  1.00  0.00    -0.263 OA
ATOM     22  N   UNL A   1      30.385  23.673  23.961  1.00  0.00    -0.318 N 
ATOM     23  H   UNL A   1      29.743  22.979  23.689  1.00  0.00     0.170 HD
BRANCH  22  24
ATOM     24  C   UNL A   1      30.479  24.844  23.188  1.00  0.00     0.045 A 
ATOM     25  C   UNL A   1      29.572  26.319  23.828  1.00  0.00     0.030 A 
ATOM     26  C   UNL A   1      32.030  25.048  22.236  1.00  0.00     0.076 A 
ATOM     27  C   UNL A   1      30.272  27.994  23.547  1.00  0.00     0.053 A 
ATOM     28  C   UNL A   1      32.761  26.705  22.133  1.00  0.00     0.167 A 
ATOM     29  C   UNL A   1      31.895  28.137  22.784  1.00  0.00     0.165 A 
ATOM     30  O   UNL A   1      34.002  27.132  21.788  1.00  0.00    -0.454 OA
ATOM     31  O   UNL A   1      32.745  29.183  22.668  1.00  0.00    -0.454 OA
ATOM     32  C   UNL A   1      34.019  28.497  22.356  1.00  0.00     0.468 C 
ENDBRANCH  22  24
ENDBRANCH  18  20
ENDBRANCH  15  16
ENDBRANCH   9  14
ENDBRANCH   6   8
ENDBRANCH   5   6
ENDBRANCH   4   5
ENDBRANCH   3   4
ENDBRANCH   2   3
ENDBRANCH   1   2
BRANCH   1  33
ATOM     33  C   UNL A   1      45.470  20.297  24.295  1.00  0.00     0.188 C 
BRANCH  33  34
ATOM     34  O   UNL A   1      44.703  21.401  23.887  1.00  0.00    -0.376 OA
BRANCH  34  35
ATOM     35  C   UNL A   1      45.294  22.688  23.826  1.00  0.00     0.202 C 
BRANCH  35  36
ATOM     36  C   UNL A   1      45.448  23.670  25.010  1.00  0.00     0.261 C 
BRANCH  36  37
ATOM     37  O   UNL A   1      45.112  25.048  24.816  1.00  0.00    -0.460 OA
BRANCH  37  38
ATOM     38  C   UNL A   1      43.825  25.390  25.060  1.00  0.00     0.338 C 
ATOM     39  O   UNL A   1      42.822  24.773  24.750  1.00  0.00    -0.246 OA
BRANCH  38  40
ATOM     40  C   UNL A   1      43.813  26.571  25.948  1.00  0.00     0.060 A 
ATOM     41  C   UNL A   1      45.017  26.991  26.528  1.00  0.00     0.016 A 
ATOM     42  C   UNL A   1      42.620  27.236  26.231  1.00  0.00     0.016 A 
ATOM     43  C   UNL A   1      45.026  28.066  27.419  1.00  0.00     0.010 A 
ATOM     44  C   UNL A   1      42.627  28.299  27.139  1.00  0.00     0.010 A 
ATOM     45  C   UNL A   1      43.825  28.702  27.759  1.00  0.00    -0.014 A 
BRANCH  45  46
ATOM     46  C   UNL A   1      43.787  29.675  28.880  1.00  0.00     0.031 A 
ATOM     47  C   UNL A   1      43.645  29.154  30.282  1.00  0.00     0.074 A 
ATOM     48  C   UNL A   1      43.878  30.999  28.660  1.00  0.00     0.049 A 
ATOM     49  N   UNL A   1      43.514  29.811  31.406  1.00  0.00    -0.248 NA
ATOM     50  C   UNL A   1      43.646  27.691  30.436  1.00  0.00     0.031 C 
ATOM     51  C   UNL A   1      44.057  31.629  27.354  1.00  0.00     0.029 A 
ATOM     52  N   UNL A   1      43.814  32.052  29.539  1.00  0.00    -0.354 N 
ATOM     53  C   UNL A   1      43.411  28.844  32.398  1.00  0.00     0.074 A 
ATOM     54  C   UNL A   1      43.466  27.556  31.742  1.00  0.00     0.031 C 
ATOM     55  C   UNL A   1      44.072  32.964  27.516  1.00  0.00     0.029 A 
ATOM     56  C   UNL A   1      43.868  33.281  28.929  1.00  0.00     0.049 A 
ATOM     57  H   UNL A   1      43.739  31.937  30.514  1.00  0.00     0.167 HD
ATOM     58  C   UNL A   1      43.289  29.014  33.736  1.00  0.00     0.037 A 
ATOM     59  C   UNL A   1      43.738  34.517  29.450  1.00  0.00     0.037 A 
ATOM     60  C   UNL A   1      43.227  30.295  34.390  1.00  0.00     0.049 A 
ATOM     61  C   UNL A   1      43.519  34.679  30.935  1.00  0.00     0.074 A 
ATOM     62  C   UNL A   1      43.119  30.570  35.742  1.00  0.00     0.029 A 
ATOM     63  N   UNL A   1      43.256  31.518  33.736  1.00  0.00    -0.354 N 
ATOM     64  N   UNL A   1      43.449  33.762  31.869  1.00  0.00    -0.248 NA
ATOM     65  C   UNL A   1      43.361  36.054  31.435  1.00  0.00     0.031 C 
ATOM     66  C   UNL A   1      43.028  31.956  35.902  1.00  0.00     0.029 A 
ATOM     67  C   UNL A   1      43.141  32.548  34.655  1.00  0.00     0.049 A 
ATOM     68  H   UNL A   1      43.347  31.635  32.762  1.00  0.00     0.167 HD
ATOM     69  C   UNL A   1      43.273  34.447  33.066  1.00  0.00     0.074 A 
ATOM     70  C   UNL A   1      43.257  35.857  32.743  1.00  0.00     0.031 C 
ATOM     71  C   UNL A   1      43.138  33.950  34.321  1.00  0.00     0.037 A 
BRANCH  58  72
ATOM     72  C   UNL A   1      43.184  27.780  34.584  1.00  0.00     0.064 A 
ATOM     73  C   UNL A   1      44.286  27.272  35.288  1.00  0.00     0.173 A 
ATOM     74  C   UNL A   1      41.956  27.115  34.719  1.00  0.00     0.173 A 
ATOM     75  F   UNL A   1      45.486  27.862  35.181  1.00  0.00    -0.203 F 
ATOM     76  C   UNL A   1      44.169  26.129  36.074  1.00  0.00     0.198 A 
ATOM     77  C   UNL A   1      41.835  25.990  35.531  1.00  0.00     0.198 A 
ATOM     78  F   UNL A   1      40.870  27.561  34.070  1.00  0.00    -0.203 F 
ATOM     79  F   UNL A   1      45.246  25.633  36.699  1.00  0.00    -0.200 F 
ATOM     80  C   UNL A   1      42.942  25.494  36.201  1.00  0.00     0.200 A 
ATOM     81  F   UNL A   1      40.646  25.385  35.661  1.00  0.00    -0.200 F 
ATOM     82  F   UNL A   1      42.828  24.397  36.964  1.00  0.00    -0.200 F 
ENDBRANCH  58  72
BRANCH  59  83
ATOM     83  C   UNL A   1      43.793  35.710  28.564  1.00  0.00     0.064 A 
ATOM     84  C   UNL A   1      45.016  36.317  28.245  1.00  0.00     0.173 A 
ATOM     85  C   UNL A   1      42.625  36.286  28.043  1.00  0.00     0.173 A 
ATOM     86  F   UNL A   1      46.159  35.823  28.742  1.00  0.00    -0.203 F 
ATOM     87  C   UNL A   1      45.066  37.466  27.457  1.00  0.00     0.198 A 
ATOM     88  C   UNL A   1      42.679  37.416  27.231  1.00  0.00     0.198 A 
ATOM     89  F   UNL A   1      41.429  35.747  28.323  1.00  0.00    -0.203 F 
ATOM     90  F   UNL A   1      46.244  38.056  27.212  1.00  0.00    -0.200 F 
ATOM     91  C   UNL A   1      43.898  38.011  26.946  1.00  0.00     0.200 A 
ATOM     92  F   UNL A   1      41.548  37.933  26.731  1.00  0.00    -0.200 F 
ATOM     93  F   UNL A   1      43.947  39.115  26.188  1.00  0.00    -0.200 F 
ENDBRANCH  59  83
BRANCH  71  94
ATOM     94  C   UNL A   1      43.008  34.936  35.448  1.00  0.00     0.064 A 
ATOM     95  C   UNL A   1      41.758  35.386  35.897  1.00  0.00     0.173 A 
ATOM     96  C   UNL A   1      44.151  35.401  36.118  1.00  0.00     0.173 A 
ATOM     97  F   UNL A   1      40.635  34.983  35.284  1.00  0.00    -0.203 F 
ATOM     98  C   UNL A   1      41.658  36.285  36.958  1.00  0.00     0.198 A 
ATOM     99  C   UNL A   1      44.046  36.274  37.198  1.00  0.00     0.198 A 
ATOM    100  F   UNL A   1      45.371  34.996  35.736  1.00  0.00    -0.203 F 
ATOM    101  F   UNL A   1      40.456  36.738  37.338  1.00  0.00    -0.200 F 
ATOM    102  C   UNL A   1      42.801  36.721  37.611  1.00  0.00     0.200 A 
ATOM    103  F   UNL A   1      45.150  36.682  37.838  1.00  0.00    -0.200 F 
ATOM    104  F   UNL A   1      42.702  37.579  38.636  1.00  0.00    -0.200 F 
ENDBRANCH  71  94
ENDBRANCH  45  46
ENDBRANCH  38  40
ENDBRANCH  37  38
ENDBRANCH  36  37
ENDBRANCH  35  36
ENDBRANCH  34  35
ENDBRANCH  33  34
ENDBRANCH   1  33
TORSDOF 21
ENDMDL
