MODEL 1
REMARK VINA RESULT:     -11.1      0.000      0.000
REMARK SMILES CC(=O)N[C@@H](Cc1c(OCC(C)C)ccc2ccccc12)C(=O)OCCOCCOCCOC(=O)c1ccc(-c2c3nc(c(-c4c(F)c(F)c(F)c(F)c4F)c4ccc([nH]4)c(-c4c(F)c(F)c(F)c(F)c4F)c4nc(c(-c5c(F)c(F)c(F)c(F)c5F)c5ccc2[nH]5)C=C4)C=C3)cc1
REMARK SMILES IDX 27 1 26 2 25 3 24 4 22 5 23 6 5 7 4 8 1 9 2 10 3 11 6 13
REMARK SMILES IDX 7 14 8 15 21 16 14 17 16 18 20 19 15 20 17 21 19 22 18 23
REMARK SMILES IDX 9 24 10 25 11 26 12 27 13 28 28 29 29 30 30 31 31 32 32 33
REMARK SMILES IDX 33 34 34 35 35 36 36 37 37 38 98 39 38 40 97 41 39 42 40 43
REMARK SMILES IDX 41 44 91 45 42 46 96 47 90 48 92 49 43 50 95 51 89 52 88 53
REMARK SMILES IDX 44 55 76 56 56 57 75 58 57 59 60 60 74 61 93 62 58 63 59 64
REMARK SMILES IDX 73 66 94 67 61 68 45 69 46 70 54 71 47 72 48 73 52 74 55 75
REMARK SMILES IDX 49 76 50 77 53 78 51 79 77 80 78 81 86 82 79 83 80 84 84 85
REMARK SMILES IDX 87 86 81 87 82 88 85 89 83 90 62 91 63 92 71 93 64 94 65 95
REMARK SMILES IDX 69 96 72 97 66 98 67 99 70 100 68 101
REMARK H PARENT 4 12 92 54 60 65
REMARK Flexibility Score: inf
ROOT
ATOM      1  O   UNL A   1      33.502  27.917  26.975  1.00  0.00    -0.376 OA
ENDROOT
BRANCH   1   2
ATOM      2  C   UNL A   1      32.093  27.820  26.879  1.00  0.00     0.202 C 
BRANCH   2   3
ATOM      3  C   UNL A   1      31.487  26.462  26.496  1.00  0.00     0.261 C 
BRANCH   3   4
ATOM      4  O   UNL A   1      32.384  25.433  25.996  1.00  0.00    -0.462 OA
BRANCH   4   5
ATOM      5  C   UNL A   1      32.211  24.169  26.481  1.00  0.00     0.329 C 
ATOM      6  O   UNL A   1      31.332  23.861  27.282  1.00  0.00    -0.250 OA
BRANCH   5   7
ATOM      7  C   UNL A   1      33.231  23.113  25.964  1.00  0.00     0.196 C 
BRANCH   7   8
ATOM      8  N   UNL A   1      34.604  23.088  26.499  1.00  0.00    -0.343 N 
ATOM      9  C   UNL A   1      35.801  23.703  24.418  1.00  0.00     0.114 C 
ATOM     10  C   UNL A   1      35.796  23.305  25.868  1.00  0.00     0.217 C 
ATOM     11  O   UNL A   1      36.847  23.214  26.501  1.00  0.00    -0.275 OA
ATOM     12  H   UNL A   1      34.673  22.883  27.461  1.00  0.00     0.164 HD
ENDBRANCH   7   8
BRANCH   7  13
ATOM     13  C   UNL A   1      32.597  21.699  26.025  1.00  0.00     0.077 C 
BRANCH  13  14
ATOM     14  C   UNL A   1      32.569  20.966  24.683  1.00  0.00     0.005 A 
ATOM     15  C   UNL A   1      32.429  21.727  23.502  1.00  0.00     0.123 A 
ATOM     16  C   UNL A   1      32.647  19.539  24.588  1.00  0.00    -0.011 A 
ATOM     17  C   UNL A   1      32.101  21.101  22.306  1.00  0.00     0.047 A 
ATOM     18  C   UNL A   1      32.505  18.940  23.310  1.00  0.00    -0.018 A 
ATOM     19  C   UNL A   1      32.903  18.659  25.670  1.00  0.00     0.009 A 
ATOM     20  C   UNL A   1      32.156  19.718  22.207  1.00  0.00     0.012 A 
ATOM     21  C   UNL A   1      32.726  17.567  23.128  1.00  0.00     0.009 A 
ATOM     22  C   UNL A   1      33.121  17.290  25.476  1.00  0.00     0.001 A 
ATOM     23  C   UNL A   1      33.061  16.750  24.200  1.00  0.00     0.001 A 
BRANCH  15  24
ATOM     24  O   UNL A   1      32.759  23.053  23.594  1.00  0.00    -0.493 OA
BRANCH  24  25
ATOM     25  C   UNL A   1      32.712  23.876  22.434  1.00  0.00     0.232 C 
BRANCH  25  26
ATOM     26  C   UNL A   1      31.926  25.186  22.553  1.00  0.00     0.020 C 
ATOM     27  C   UNL A   1      31.778  25.954  21.247  1.00  0.00     0.011 C 
ATOM     28  C   UNL A   1      30.542  24.858  23.126  1.00  0.00     0.011 C 
ENDBRANCH  25  26
ENDBRANCH  24  25
ENDBRANCH  15  24
ENDBRANCH  13  14
ENDBRANCH   7  13
ENDBRANCH   5   7
ENDBRANCH   4   5
ENDBRANCH   3   4
ENDBRANCH   2   3
ENDBRANCH   1   2
BRANCH   1  29
ATOM     29  C   UNL A   1      34.080  29.142  26.552  1.00  0.00     0.188 C 
BRANCH  29  30
ATOM     30  C   UNL A   1      34.789  30.028  27.601  1.00  0.00     0.188 C 
BRANCH  30  31
ATOM     31  O   UNL A   1      34.465  31.406  27.547  1.00  0.00    -0.376 OA
BRANCH  31  32
ATOM     32  C   UNL A   1      33.077  31.704  27.536  1.00  0.00     0.202 C 
BRANCH  32  33
ATOM     33  C   UNL A   1      32.693  33.169  27.256  1.00  0.00     0.261 C 
BRANCH  33  34
ATOM     34  O   UNL A   1      32.194  33.915  28.384  1.00  0.00    -0.460 OA
BRANCH  34  35
ATOM     35  C   UNL A   1      32.903  34.998  28.777  1.00  0.00     0.338 C 
ATOM     36  O   UNL A   1      32.542  36.162  28.728  1.00  0.00    -0.246 OA
BRANCH  35  37
ATOM     37  C   UNL A   1      34.097  34.527  29.525  1.00  0.00     0.060 A 
ATOM     38  C   UNL A   1      35.350  34.589  28.893  1.00  0.00     0.016 A 
ATOM     39  C   UNL A   1      34.004  34.090  30.850  1.00  0.00     0.016 A 
ATOM     40  C   UNL A   1      36.503  34.180  29.566  1.00  0.00     0.010 A 
ATOM     41  C   UNL A   1      35.155  33.638  31.511  1.00  0.00     0.010 A 
ATOM     42  C   UNL A   1      36.401  33.639  30.855  1.00  0.00    -0.014 A 
BRANCH  42  43
ATOM     43  C   UNL A   1      37.515  32.791  31.354  1.00  0.00     0.031 A 
ATOM     44  C   UNL A   1      38.018  33.073  32.747  1.00  0.00     0.074 A 
ATOM     45  C   UNL A   1      38.029  31.767  30.649  1.00  0.00     0.049 A 
ATOM     46  N   UNL A   1      38.963  32.485  33.434  1.00  0.00    -0.248 NA
ATOM     47  C   UNL A   1      37.353  34.175  33.463  1.00  0.00     0.031 C 
ATOM     48  C   UNL A   1      37.604  31.354  29.315  1.00  0.00     0.029 A 
ATOM     49  N   UNL A   1      39.029  30.883  30.974  1.00  0.00    -0.354 N 
ATOM     50  C   UNL A   1      39.004  33.146  34.656  1.00  0.00     0.074 A 
ATOM     51  C   UNL A   1      38.019  34.202  34.604  1.00  0.00     0.031 C 
ATOM     52  C   UNL A   1      38.346  30.299  28.930  1.00  0.00     0.029 A 
ATOM     53  C   UNL A   1      39.314  29.979  29.981  1.00  0.00     0.049 A 
ATOM     54  H   UNL A   1      39.500  30.896  31.840  1.00  0.00     0.167 HD
ATOM     55  C   UNL A   1      39.784  32.893  35.732  1.00  0.00     0.037 A 
ATOM     56  C   UNL A   1      40.257  29.016  29.926  1.00  0.00     0.037 A 
ATOM     57  C   UNL A   1      40.773  31.850  35.786  1.00  0.00     0.049 A 
ATOM     58  C   UNL A   1      41.168  28.800  31.112  1.00  0.00     0.074 A 
ATOM     59  C   UNL A   1      41.616  31.513  36.829  1.00  0.00     0.029 A 
ATOM     60  N   UNL A   1      41.057  30.981  34.743  1.00  0.00    -0.354 N 
ATOM     61  N   UNL A   1      41.190  29.416  32.269  1.00  0.00    -0.248 NA
ATOM     62  C   UNL A   1      42.181  27.742  30.983  1.00  0.00     0.031 C 
ATOM     63  C   UNL A   1      42.451  30.477  36.397  1.00  0.00     0.029 A 
ATOM     64  C   UNL A   1      42.079  30.121  35.111  1.00  0.00     0.049 A 
ATOM     65  H   UNL A   1      40.599  30.975  33.871  1.00  0.00     0.167 HD
ATOM     66  C   UNL A   1      42.187  28.799  33.017  1.00  0.00     0.074 A 
ATOM     67  C   UNL A   1      42.736  27.748  32.186  1.00  0.00     0.031 C 
ATOM     68  C   UNL A   1      42.611  29.074  34.277  1.00  0.00     0.037 A 
BRANCH  55  69
ATOM     69  C   UNL A   1      39.618  33.790  36.925  1.00  0.00     0.064 A 
ATOM     70  C   UNL A   1      38.794  33.441  38.007  1.00  0.00     0.173 A 
ATOM     71  C   UNL A   1      40.294  35.017  36.985  1.00  0.00     0.173 A 
ATOM     72  F   UNL A   1      38.107  32.288  37.990  1.00  0.00    -0.203 F 
ATOM     73  C   UNL A   1      38.630  34.302  39.089  1.00  0.00     0.198 A 
ATOM     74  C   UNL A   1      40.155  35.860  38.085  1.00  0.00     0.198 A 
ATOM     75  F   UNL A   1      41.091  35.401  35.978  1.00  0.00    -0.203 F 
ATOM     76  F   UNL A   1      37.791  33.976  40.083  1.00  0.00    -0.200 F 
ATOM     77  C   UNL A   1      39.316  35.507  39.130  1.00  0.00     0.200 A 
ATOM     78  F   UNL A   1      40.828  37.018  38.127  1.00  0.00    -0.200 F 
ATOM     79  F   UNL A   1      39.161  36.332  40.175  1.00  0.00    -0.200 F 
ENDBRANCH  55  69
BRANCH  56  80
ATOM     80  C   UNL A   1      40.405  28.177  28.704  1.00  0.00     0.064 A 
ATOM     81  C   UNL A   1      39.742  26.947  28.580  1.00  0.00     0.173 A 
ATOM     82  C   UNL A   1      41.254  28.565  27.656  1.00  0.00     0.173 A 
ATOM     83  F   UNL A   1      38.945  26.514  29.567  1.00  0.00    -0.203 F 
ATOM     84  C   UNL A   1      39.941  26.129  27.469  1.00  0.00     0.198 A 
ATOM     85  C   UNL A   1      41.427  27.760  26.531  1.00  0.00     0.198 A 
ATOM     86  F   UNL A   1      41.921  29.727  27.727  1.00  0.00    -0.203 F 
ATOM     87  F   UNL A   1      39.342  24.932  27.405  1.00  0.00    -0.200 F 
ATOM     88  C   UNL A   1      40.778  26.539  26.443  1.00  0.00     0.200 A 
ATOM     89  F   UNL A   1      42.230  28.165  25.538  1.00  0.00    -0.200 F 
ATOM     90  F   UNL A   1      40.970  25.751  25.376  1.00  0.00    -0.200 F 
ENDBRANCH  56  80
BRANCH  68  91
ATOM     91  C   UNL A   1      43.682  28.189  34.855  1.00  0.00     0.064 A 
ATOM     92  C   UNL A   1      45.045  28.509  34.760  1.00  0.00     0.173 A 
ATOM     93  C   UNL A   1      43.335  27.009  35.532  1.00  0.00     0.173 A 
ATOM     94  F   UNL A   1      45.435  29.621  34.119  1.00  0.00    -0.203 F 
ATOM     95  C   UNL A   1      46.020  27.656  35.275  1.00  0.00     0.198 A 
ATOM     96  C   UNL A   1      44.310  26.180  36.081  1.00  0.00     0.198 A 
ATOM     97  F   UNL A   1      42.047  26.660  35.668  1.00  0.00    -0.203 F 
ATOM     98  F   UNL A   1      47.317  27.949  35.107  1.00  0.00    -0.200 F 
ATOM     99  C   UNL A   1      45.652  26.496  35.938  1.00  0.00     0.200 A 
ATOM    100  F   UNL A   1      43.950  25.069  36.739  1.00  0.00    -0.200 F 
ATOM    101  F   UNL A   1      46.591  25.678  36.432  1.00  0.00    -0.200 F 
ENDBRANCH  68  91
ENDBRANCH  42  43
ENDBRANCH  35  37
ENDBRANCH  34  35
ENDBRANCH  33  34
ENDBRANCH  32  33
ENDBRANCH  31  32
ENDBRANCH  30  31
ENDBRANCH  29  30
ENDBRANCH   1  29
TORSDOF 23
ENDMDL
MODEL 2
REMARK VINA RESULT:     -11.0      4.655     10.692
REMARK SMILES CC(=O)N[C@@H](Cc1c(OCC(C)C)ccc2ccccc12)C(=O)OCCOCCOCCOC(=O)c1ccc(-c2c3nc(c(-c4c(F)c(F)c(F)c(F)c4F)c4ccc([nH]4)c(-c4c(F)c(F)c(F)c(F)c4F)c4nc(c(-c5c(F)c(F)c(F)c(F)c5F)c5ccc2[nH]5)C=C4)C=C3)cc1
REMARK SMILES IDX 27 1 26 2 25 3 24 4 22 5 23 6 5 7 4 8 1 9 2 10 3 11 6 13
REMARK SMILES IDX 7 14 8 15 21 16 14 17 16 18 20 19 15 20 17 21 19 22 18 23
REMARK SMILES IDX 9 24 10 25 11 26 12 27 13 28 28 29 29 30 30 31 31 32 32 33
REMARK SMILES IDX 33 34 34 35 35 36 36 37 37 38 98 39 38 40 97 41 39 42 40 43
REMARK SMILES IDX 41 44 91 45 42 46 96 47 90 48 92 49 43 50 95 51 89 52 88 53
REMARK SMILES IDX 44 55 76 56 56 57 75 58 57 59 60 60 74 61 93 62 58 63 59 64
REMARK SMILES IDX 73 66 94 67 61 68 45 69 46 70 54 71 47 72 48 73 52 74 55 75
REMARK SMILES IDX 49 76 50 77 53 78 51 79 77 80 78 81 86 82 79 83 80 84 84 85
REMARK SMILES IDX 87 86 81 87 82 88 85 89 83 90 62 91 63 92 71 93 64 94 65 95
REMARK SMILES IDX 69 96 72 97 66 98 67 99 70 100 68 101
REMARK H PARENT 4 12 92 54 60 65
REMARK Flexibility Score: inf
ROOT
ATOM      1  O   UNL A   1      33.865  21.093  27.161  1.00  0.00    -0.376 OA
ENDROOT
BRANCH   1   2
ATOM      2  C   UNL A   1      33.824  22.487  27.412  1.00  0.00     0.202 C 
BRANCH   2   3
ATOM      3  C   UNL A   1      32.988  23.364  26.471  1.00  0.00     0.261 C 
BRANCH   3   4
ATOM      4  O   UNL A   1      33.189  24.803  26.523  1.00  0.00    -0.462 OA
BRANCH   4   5
ATOM      5  C   UNL A   1      34.051  25.343  25.612  1.00  0.00     0.329 C 
ATOM      6  O   UNL A   1      35.121  24.827  25.298  1.00  0.00    -0.250 OA
BRANCH   5   7
ATOM      7  C   UNL A   1      33.600  26.698  24.993  1.00  0.00     0.196 C 
BRANCH   7   8
ATOM      8  N   UNL A   1      33.753  26.936  23.546  1.00  0.00    -0.343 N 
ATOM      9  C   UNL A   1      32.400  25.026  22.734  1.00  0.00     0.114 C 
ATOM     10  C   UNL A   1      33.278  26.220  22.484  1.00  0.00     0.217 C 
ATOM     11  O   UNL A   1      33.540  26.582  21.338  1.00  0.00    -0.275 OA
ATOM     12  H   UNL A   1      34.277  27.736  23.309  1.00  0.00     0.164 HD
ENDBRANCH   7   8
BRANCH   7  13
ATOM     13  C   UNL A   1      32.155  27.027  25.449  1.00  0.00     0.077 C 
BRANCH  13  14
ATOM     14  C   UNL A   1      31.812  28.518  25.416  1.00  0.00     0.005 A 
ATOM     15  C   UNL A   1      32.476  29.383  26.314  1.00  0.00     0.123 A 
ATOM     16  C   UNL A   1      30.822  29.056  24.531  1.00  0.00    -0.011 A 
ATOM     17  C   UNL A   1      31.992  30.667  26.526  1.00  0.00     0.047 A 
ATOM     18  C   UNL A   1      30.494  30.431  24.644  1.00  0.00    -0.018 A 
ATOM     19  C   UNL A   1      30.163  28.335  23.504  1.00  0.00     0.009 A 
ATOM     20  C   UNL A   1      31.020  31.193  25.687  1.00  0.00     0.012 A 
ATOM     21  C   UNL A   1      29.652  31.052  23.710  1.00  0.00     0.009 A 
ATOM     22  C   UNL A   1      29.325  28.965  22.577  1.00  0.00     0.001 A 
ATOM     23  C   UNL A   1      29.092  30.330  22.664  1.00  0.00     0.001 A 
BRANCH  15  24
ATOM     24  O   UNL A   1      33.657  28.924  26.833  1.00  0.00    -0.493 OA
BRANCH  24  25
ATOM     25  C   UNL A   1      34.765  29.808  26.956  1.00  0.00     0.232 C 
BRANCH  25  26
ATOM     26  C   UNL A   1      35.946  29.315  27.800  1.00  0.00     0.020 C 
ATOM     27  C   UNL A   1      37.301  29.856  27.366  1.00  0.00     0.011 C 
ATOM     28  C   UNL A   1      35.676  29.695  29.261  1.00  0.00     0.011 C 
ENDBRANCH  25  26
ENDBRANCH  24  25
ENDBRANCH  15  24
ENDBRANCH  13  14
ENDBRANCH   7  13
ENDBRANCH   5   7
ENDBRANCH   4   5
ENDBRANCH   3   4
ENDBRANCH   2   3
ENDBRANCH   1   2
BRANCH   1  29
ATOM     29  C   UNL A   1      33.770  20.693  25.803  1.00  0.00     0.188 C 
BRANCH  29  30
ATOM     30  C   UNL A   1      35.073  20.488  24.998  1.00  0.00     0.188 C 
BRANCH  30  31
ATOM     31  O   UNL A   1      36.232  21.076  25.561  1.00  0.00    -0.376 OA
BRANCH  31  32
ATOM     32  C   UNL A   1      37.402  21.000  24.760  1.00  0.00     0.202 C 
BRANCH  32  33
ATOM     33  C   UNL A   1      38.652  20.401  25.432  1.00  0.00     0.261 C 
BRANCH  33  34
ATOM     34  O   UNL A   1      39.717  21.329  25.719  1.00  0.00    -0.460 OA
BRANCH  34  35
ATOM     35  C   UNL A   1      40.384  21.170  26.885  1.00  0.00     0.338 C 
ATOM     36  O   UNL A   1      40.859  20.133  27.318  1.00  0.00    -0.246 OA
BRANCH  35  37
ATOM     37  C   UNL A   1      40.679  22.516  27.440  1.00  0.00     0.060 A 
ATOM     38  C   UNL A   1      39.847  23.588  27.075  1.00  0.00     0.016 A 
ATOM     39  C   UNL A   1      41.717  22.718  28.355  1.00  0.00     0.016 A 
ATOM     40  C   UNL A   1      40.073  24.866  27.591  1.00  0.00     0.010 A 
ATOM     41  C   UNL A   1      41.971  24.009  28.839  1.00  0.00     0.010 A 
ATOM     42  C   UNL A   1      41.177  25.096  28.423  1.00  0.00    -0.014 A 
BRANCH  42  43
ATOM     43  C   UNL A   1      41.674  26.489  28.568  1.00  0.00     0.031 A 
ATOM     44  C   UNL A   1      43.023  26.800  27.971  1.00  0.00     0.074 A 
ATOM     45  C   UNL A   1      40.951  27.469  29.139  1.00  0.00     0.049 A 
ATOM     46  N   UNL A   1      43.689  27.925  27.940  1.00  0.00    -0.248 NA
ATOM     47  C   UNL A   1      43.713  25.676  27.315  1.00  0.00     0.031 C 
ATOM     48  C   UNL A   1      39.616  27.320  29.710  1.00  0.00     0.029 A 
ATOM     49  N   UNL A   1      41.252  28.796  29.326  1.00  0.00    -0.354 N 
ATOM     50  C   UNL A   1      44.871  27.642  27.265  1.00  0.00     0.074 A 
ATOM     51  C   UNL A   1      44.850  26.235  26.938  1.00  0.00     0.031 C 
ATOM     52  C   UNL A   1      39.214  28.510  30.192  1.00  0.00     0.029 A 
ATOM     53  C   UNL A   1      40.274  29.499  29.986  1.00  0.00     0.049 A 
ATOM     54  H   UNL A   1      42.092  29.207  29.016  1.00  0.00     0.167 HD
ATOM     55  C   UNL A   1      45.882  28.479  26.936  1.00  0.00     0.037 A 
ATOM     56  C   UNL A   1      40.248  30.787  30.387  1.00  0.00     0.037 A 
ATOM     57  C   UNL A   1      45.913  29.878  27.268  1.00  0.00     0.049 A 
ATOM     58  C   UNL A   1      41.422  31.685  30.073  1.00  0.00     0.074 A 
ATOM     59  C   UNL A   1      46.892  30.811  26.982  1.00  0.00     0.029 A 
ATOM     60  N   UNL A   1      44.919  30.541  27.972  1.00  0.00    -0.354 N 
ATOM     61  N   UNL A   1      42.527  31.416  29.420  1.00  0.00    -0.248 NA
ATOM     62  C   UNL A   1      41.336  33.074  30.548  1.00  0.00     0.031 C 
ATOM     63  C   UNL A   1      46.519  32.028  27.563  1.00  0.00     0.029 A 
ATOM     64  C   UNL A   1      45.273  31.869  28.149  1.00  0.00     0.049 A 
ATOM     65  H   UNL A   1      44.086  30.130  28.297  1.00  0.00     0.167 HD
ATOM     66  C   UNL A   1      43.246  32.606  29.372  1.00  0.00     0.074 A 
ATOM     67  C   UNL A   1      42.444  33.602  30.050  1.00  0.00     0.031 C 
ATOM     68  C   UNL A   1      44.460  32.853  28.818  1.00  0.00     0.037 A 
BRANCH  55  69
ATOM     69  C   UNL A   1      47.054  27.885  26.209  1.00  0.00     0.064 A 
ATOM     70  C   UNL A   1      48.178  27.393  26.892  1.00  0.00     0.173 A 
ATOM     71  C   UNL A   1      47.051  27.808  24.809  1.00  0.00     0.173 A 
ATOM     72  F   UNL A   1      48.241  27.463  28.230  1.00  0.00    -0.203 F 
ATOM     73  C   UNL A   1      49.268  26.875  26.196  1.00  0.00     0.198 A 
ATOM     74  C   UNL A   1      48.128  27.258  24.119  1.00  0.00     0.198 A 
ATOM     75  F   UNL A   1      46.005  28.266  24.107  1.00  0.00    -0.203 F 
ATOM     76  F   UNL A   1      50.355  26.466  26.865  1.00  0.00    -0.200 F 
ATOM     77  C   UNL A   1      49.239  26.801  24.811  1.00  0.00     0.200 A 
ATOM     78  F   UNL A   1      48.093  27.177  22.782  1.00  0.00    -0.200 F 
ATOM     79  F   UNL A   1      50.287  26.298  24.144  1.00  0.00    -0.200 F 
ENDBRANCH  55  69
BRANCH  56  80
ATOM     80  C   UNL A   1      39.077  31.317  31.139  1.00  0.00     0.064 A 
ATOM     81  C   UNL A   1      38.912  31.056  32.507  1.00  0.00     0.173 A 
ATOM     82  C   UNL A   1      38.072  32.052  30.493  1.00  0.00     0.173 A 
ATOM     83  F   UNL A   1      39.826  30.330  33.165  1.00  0.00    -0.203 F 
ATOM     84  C   UNL A   1      37.777  31.489  33.193  1.00  0.00     0.198 A 
ATOM     85  C   UNL A   1      36.954  32.512  31.187  1.00  0.00     0.198 A 
ATOM     86  F   UNL A   1      38.173  32.321  29.182  1.00  0.00    -0.203 F 
ATOM     87  F   UNL A   1      37.617  31.173  34.485  1.00  0.00    -0.200 F 
ATOM     88  C   UNL A   1      36.803  32.221  32.533  1.00  0.00     0.200 A 
ATOM     89  F   UNL A   1      36.018  33.227  30.547  1.00  0.00    -0.200 F 
ATOM     90  F   UNL A   1      35.712  32.636  33.192  1.00  0.00    -0.200 F 
ENDBRANCH  56  80
BRANCH  68  91
ATOM     91  C   UNL A   1      44.969  34.268  28.869  1.00  0.00     0.064 A 
ATOM     92  C   UNL A   1      45.819  34.718  29.891  1.00  0.00     0.173 A 
ATOM     93  C   UNL A   1      44.611  35.185  27.868  1.00  0.00     0.173 A 
ATOM     94  F   UNL A   1      46.189  33.888  30.877  1.00  0.00    -0.203 F 
ATOM     95  C   UNL A   1      46.251  36.043  29.934  1.00  0.00     0.198 A 
ATOM     96  C   UNL A   1      45.077  36.497  27.893  1.00  0.00     0.198 A 
ATOM     97  F   UNL A   1      43.813  34.807  26.858  1.00  0.00    -0.203 F 
ATOM     98  F   UNL A   1      47.004  36.466  30.959  1.00  0.00    -0.200 F 
ATOM     99  C   UNL A   1      45.883  36.929  28.934  1.00  0.00     0.200 A 
ATOM    100  F   UNL A   1      44.735  37.346  26.913  1.00  0.00    -0.200 F 
ATOM    101  F   UNL A   1      46.298  38.202  28.978  1.00  0.00    -0.200 F 
ENDBRANCH  68  91
ENDBRANCH  42  43
ENDBRANCH  35  37
ENDBRANCH  34  35
ENDBRANCH  33  34
ENDBRANCH  32  33
ENDBRANCH  31  32
ENDBRANCH  30  31
ENDBRANCH  29  30
ENDBRANCH   1  29
TORSDOF 23
ENDMDL
MODEL 3
REMARK VINA RESULT:     -10.9      1.327      3.264
REMARK SMILES CC(=O)N[C@@H](Cc1c(OCC(C)C)ccc2ccccc12)C(=O)OCCOCCOCCOC(=O)c1ccc(-c2c3nc(c(-c4c(F)c(F)c(F)c(F)c4F)c4ccc([nH]4)c(-c4c(F)c(F)c(F)c(F)c4F)c4nc(c(-c5c(F)c(F)c(F)c(F)c5F)c5ccc2[nH]5)C=C4)C=C3)cc1
REMARK SMILES IDX 27 1 26 2 25 3 24 4 22 5 23 6 5 7 4 8 1 9 2 10 3 11 6 13
REMARK SMILES IDX 7 14 8 15 21 16 14 17 16 18 20 19 15 20 17 21 19 22 18 23
REMARK SMILES IDX 9 24 10 25 11 26 12 27 13 28 28 29 29 30 30 31 31 32 32 33
REMARK SMILES IDX 33 34 34 35 35 36 36 37 37 38 98 39 38 40 97 41 39 42 40 43
REMARK SMILES IDX 41 44 91 45 42 46 96 47 90 48 92 49 43 50 95 51 89 52 88 53
REMARK SMILES IDX 44 55 76 56 56 57 75 58 57 59 60 60 74 61 93 62 58 63 59 64
REMARK SMILES IDX 73 66 94 67 61 68 45 69 46 70 54 71 47 72 48 73 52 74 55 75
REMARK SMILES IDX 49 76 50 77 53 78 51 79 77 80 78 81 86 82 79 83 80 84 84 85
REMARK SMILES IDX 87 86 81 87 82 88 85 89 83 90 62 91 63 92 71 93 64 94 65 95
REMARK SMILES IDX 69 96 72 97 66 98 67 99 70 100 68 101
REMARK H PARENT 4 12 92 54 60 65
REMARK Flexibility Score: inf
ROOT
ATOM      1  O   UNL A   1      33.464  28.054  27.086  1.00  0.00    -0.376 OA
ENDROOT
BRANCH   1   2
ATOM      2  C   UNL A   1      32.066  28.139  26.878  1.00  0.00     0.202 C 
BRANCH   2   3
ATOM      3  C   UNL A   1      31.218  26.891  27.156  1.00  0.00     0.261 C 
BRANCH   3   4
ATOM      4  O   UNL A   1      31.803  25.592  26.867  1.00  0.00    -0.462 OA
BRANCH   4   5
ATOM      5  C   UNL A   1      30.969  24.632  26.370  1.00  0.00     0.329 C 
ATOM      6  O   UNL A   1      29.792  24.513  26.704  1.00  0.00    -0.250 OA
BRANCH   5   7
ATOM      7  C   UNL A   1      31.615  23.656  25.345  1.00  0.00     0.196 C 
BRANCH   7   8
ATOM      8  N   UNL A   1      31.353  22.208  25.436  1.00  0.00    -0.343 N 
ATOM      9  C   UNL A   1      33.648  21.407  24.953  1.00  0.00     0.114 C 
ATOM     10  C   UNL A   1      32.195  21.150  25.242  1.00  0.00     0.217 C 
ATOM     11  O   UNL A   1      31.765  20.002  25.347  1.00  0.00    -0.275 OA
ATOM     12  H   UNL A   1      30.428  21.967  25.674  1.00  0.00     0.164 HD
ENDBRANCH   7   8
BRANCH   7  13
ATOM     13  C   UNL A   1      31.358  24.165  23.903  1.00  0.00     0.077 C 
BRANCH  13  14
ATOM     14  C   UNL A   1      31.885  25.576  23.633  1.00  0.00     0.005 A 
ATOM     15  C   UNL A   1      33.281  25.767  23.536  1.00  0.00     0.123 A 
ATOM     16  C   UNL A   1      31.015  26.707  23.508  1.00  0.00    -0.011 A 
ATOM     17  C   UNL A   1      33.812  27.049  23.592  1.00  0.00     0.047 A 
ATOM     18  C   UNL A   1      31.599  27.992  23.365  1.00  0.00    -0.018 A 
ATOM     19  C   UNL A   1      29.599  26.651  23.469  1.00  0.00     0.009 A 
ATOM     20  C   UNL A   1      32.978  28.153  23.490  1.00  0.00     0.012 A 
ATOM     21  C   UNL A   1      30.809  29.116  23.083  1.00  0.00     0.009 A 
ATOM     22  C   UNL A   1      28.822  27.780  23.187  1.00  0.00     0.001 A 
ATOM     23  C   UNL A   1      29.429  29.007  22.966  1.00  0.00     0.001 A 
BRANCH  15  24
ATOM     24  O   UNL A   1      34.027  24.651  23.260  1.00  0.00    -0.493 OA
BRANCH  24  25
ATOM     25  C   UNL A   1      34.776  24.028  24.296  1.00  0.00     0.232 C 
BRANCH  25  26
ATOM     26  C   UNL A   1      36.290  23.924  24.081  1.00  0.00     0.020 C 
ATOM     27  C   UNL A   1      37.099  23.760  25.360  1.00  0.00     0.011 C 
ATOM     28  C   UNL A   1      36.555  22.743  23.140  1.00  0.00     0.011 C 
ENDBRANCH  25  26
ENDBRANCH  24  25
ENDBRANCH  15  24
ENDBRANCH  13  14
ENDBRANCH   7  13
ENDBRANCH   5   7
ENDBRANCH   4   5
ENDBRANCH   3   4
ENDBRANCH   2   3
ENDBRANCH   1   2
BRANCH   1  29
ATOM     29  C   UNL A   1      34.238  29.156  26.635  1.00  0.00     0.188 C 
BRANCH  29  30
ATOM     30  C   UNL A   1      34.862  30.102  27.686  1.00  0.00     0.188 C 
BRANCH  30  31
ATOM     31  O   UNL A   1      34.500  31.466  27.562  1.00  0.00    -0.376 OA
BRANCH  31  32
ATOM     32  C   UNL A   1      33.104  31.724  27.530  1.00  0.00     0.202 C 
BRANCH  32  33
ATOM     33  C   UNL A   1      32.684  33.190  27.315  1.00  0.00     0.261 C 
BRANCH  33  34
ATOM     34  O   UNL A   1      32.280  33.908  28.498  1.00  0.00    -0.460 OA
BRANCH  34  35
ATOM     35  C   UNL A   1      33.007  34.993  28.847  1.00  0.00     0.338 C 
ATOM     36  O   UNL A   1      32.657  36.160  28.776  1.00  0.00    -0.246 OA
BRANCH  35  37
ATOM     37  C   UNL A   1      34.213  34.530  29.580  1.00  0.00     0.060 A 
ATOM     38  C   UNL A   1      35.467  34.668  28.962  1.00  0.00     0.016 A 
ATOM     39  C   UNL A   1      34.128  34.025  30.881  1.00  0.00     0.016 A 
ATOM     40  C   UNL A   1      36.629  34.268  29.624  1.00  0.00     0.010 A 
ATOM     41  C   UNL A   1      35.290  33.582  31.529  1.00  0.00     0.010 A 
ATOM     42  C   UNL A   1      36.539  33.661  30.884  1.00  0.00    -0.014 A 
BRANCH  42  43
ATOM     43  C   UNL A   1      37.680  32.829  31.350  1.00  0.00     0.031 A 
ATOM     44  C   UNL A   1      38.263  33.163  32.700  1.00  0.00     0.074 A 
ATOM     45  C   UNL A   1      38.152  31.778  30.656  1.00  0.00     0.049 A 
ATOM     46  N   UNL A   1      39.246  32.599  33.354  1.00  0.00    -0.248 NA
ATOM     47  C   UNL A   1      37.641  34.293  33.410  1.00  0.00     0.031 C 
ATOM     48  C   UNL A   1      37.651  31.315  29.366  1.00  0.00     0.029 A 
ATOM     49  N   UNL A   1      39.170  30.905  30.956  1.00  0.00    -0.354 N 
ATOM     50  C   UNL A   1      39.357  33.306  34.544  1.00  0.00     0.074 A 
ATOM     51  C   UNL A   1      38.372  34.362  34.509  1.00  0.00     0.031 C 
ATOM     52  C   UNL A   1      38.369  30.245  28.979  1.00  0.00     0.029 A 
ATOM     53  C   UNL A   1      39.396  29.963  29.983  1.00  0.00     0.049 A 
ATOM     54  H   UNL A   1      39.689  30.950  31.792  1.00  0.00     0.167 HD
ATOM     55  C   UNL A   1      40.198  33.092  35.583  1.00  0.00     0.037 A 
ATOM     56  C   UNL A   1      40.334  28.996  29.911  1.00  0.00     0.037 A 
ATOM     57  C   UNL A   1      41.188  32.049  35.619  1.00  0.00     0.049 A 
ATOM     58  C   UNL A   1      41.312  28.824  31.050  1.00  0.00     0.074 A 
ATOM     59  C   UNL A   1      42.090  31.751  36.624  1.00  0.00     0.029 A 
ATOM     60  N   UNL A   1      41.411  31.141  34.596  1.00  0.00    -0.354 N 
ATOM     61  N   UNL A   1      41.401  29.483  32.180  1.00  0.00    -0.248 NA
ATOM     62  C   UNL A   1      42.316  27.759  30.903  1.00  0.00     0.031 C 
ATOM     63  C   UNL A   1      42.899  30.698  36.184  1.00  0.00     0.029 A 
ATOM     64  C   UNL A   1      42.454  30.293  34.936  1.00  0.00     0.049 A 
ATOM     65  H   UNL A   1      40.905  31.103  33.752  1.00  0.00     0.167 HD
ATOM     66  C   UNL A   1      42.440  28.892  32.891  1.00  0.00     0.074 A 
ATOM     67  C   UNL A   1      42.940  27.809  32.071  1.00  0.00     0.031 C 
ATOM     68  C   UNL A   1      42.936  29.214  34.113  1.00  0.00     0.037 A 
BRANCH  55  69
ATOM     69  C   UNL A   1      40.102  34.034  36.748  1.00  0.00     0.064 A 
ATOM     70  C   UNL A   1      39.232  33.797  37.824  1.00  0.00     0.173 A 
ATOM     71  C   UNL A   1      40.892  35.193  36.787  1.00  0.00     0.173 A 
ATOM     72  F   UNL A   1      38.438  32.715  37.826  1.00  0.00    -0.203 F 
ATOM     73  C   UNL A   1      39.135  34.700  38.880  1.00  0.00     0.198 A 
ATOM     74  C   UNL A   1      40.818  36.076  37.861  1.00  0.00     0.198 A 
ATOM     75  F   UNL A   1      41.737  35.470  35.784  1.00  0.00    -0.203 F 
ATOM     76  F   UNL A   1      38.255  34.484  39.867  1.00  0.00    -0.200 F 
ATOM     77  C   UNL A   1      39.934  35.834  38.901  1.00  0.00     0.200 A 
ATOM     78  F   UNL A   1      41.598  37.165  37.885  1.00  0.00    -0.200 F 
ATOM     79  F   UNL A   1      39.843  36.700  39.920  1.00  0.00    -0.200 F 
ENDBRANCH  55  69
BRANCH  56  80
ATOM     80  C   UNL A   1      40.411  28.111  28.715  1.00  0.00     0.064 A 
ATOM     81  C   UNL A   1      39.748  26.876  28.679  1.00  0.00     0.173 A 
ATOM     82  C   UNL A   1      41.193  28.460  27.603  1.00  0.00     0.173 A 
ATOM     83  F   UNL A   1      39.014  26.479  29.729  1.00  0.00    -0.203 F 
ATOM     84  C   UNL A   1      39.882  26.016  27.590  1.00  0.00     0.198 A 
ATOM     85  C   UNL A   1      41.300  27.613  26.501  1.00  0.00     0.198 A 
ATOM     86  F   UNL A   1      41.858  29.625  27.588  1.00  0.00    -0.203 F 
ATOM     87  F   UNL A   1      39.285  24.816  27.609  1.00  0.00    -0.200 F 
ATOM     88  C   UNL A   1      40.653  26.388  26.500  1.00  0.00     0.200 A 
ATOM     89  F   UNL A   1      42.040  27.981  25.447  1.00  0.00    -0.200 F 
ATOM     90  F   UNL A   1      40.783  25.560  25.455  1.00  0.00    -0.200 F 
ENDBRANCH  56  80
BRANCH  68  91
ATOM     91  C   UNL A   1      44.038  28.349  34.662  1.00  0.00     0.064 A 
ATOM     92  C   UNL A   1      45.393  28.673  34.493  1.00  0.00     0.173 A 
ATOM     93  C   UNL A   1      43.731  27.185  35.385  1.00  0.00     0.173 A 
ATOM     94  F   UNL A   1      45.746  29.770  33.807  1.00  0.00    -0.203 F 
ATOM     95  C   UNL A   1      46.396  27.838  34.983  1.00  0.00     0.198 A 
ATOM     96  C   UNL A   1      44.736  26.375  35.907  1.00  0.00     0.198 A 
ATOM     97  F   UNL A   1      42.453  26.834  35.590  1.00  0.00    -0.203 F 
ATOM     98  F   UNL A   1      47.683  28.132  34.746  1.00  0.00    -0.200 F 
ATOM     99  C   UNL A   1      46.068  26.694  35.692  1.00  0.00     0.200 A 
ATOM    100  F   UNL A   1      44.414  25.280  36.610  1.00  0.00    -0.200 F 
ATOM    101  F   UNL A   1      47.034  25.893  36.161  1.00  0.00    -0.200 F 
ENDBRANCH  68  91
ENDBRANCH  42  43
ENDBRANCH  35  37
ENDBRANCH  34  35
ENDBRANCH  33  34
ENDBRANCH  32  33
ENDBRANCH  31  32
ENDBRANCH  30  31
ENDBRANCH  29  30
ENDBRANCH   1  29
TORSDOF 23
ENDMDL
