MODEL 1
REMARK VINA RESULT:     -11.0      0.000      0.000
REMARK SMILES O=C(OCCOCCOCCOC(=O)[C@H]1C[N@H+](Cc2ccc(Cl)c(Cl)c2)CC12CCCCC2)c1ccc(-c2c3nc(c(-c4c(F)c(F)c(F)c(F)c4F)c4ccc([nH]4)c(-c4c(F)c(F)c(F)c(F)c4F)c4nc(c(-c5c(F)c(F)c(F)c(F)c5F)c5ccc2[nH]5)C=C4)C=C3)cc1
REMARK SMILES IDX 7 1 6 2 5 3 4 4 3 5 2 6 1 7 34 8 35 9 96 10 36 11 95 12
REMARK SMILES IDX 37 13 38 14 39 15 89 16 40 17 94 18 88 19 90 20 41 21 93 22
REMARK SMILES IDX 87 23 86 24 42 26 74 27 54 28 73 29 55 30 58 31 72 32 91 33
REMARK SMILES IDX 56 34 57 35 71 37 92 38 59 39 43 40 44 41 52 42 45 43 46 44
REMARK SMILES IDX 50 45 53 46 47 47 48 48 51 49 49 50 75 51 76 52 84 53 77 54
REMARK SMILES IDX 78 55 82 56 85 57 79 58 80 59 83 60 81 61 60 62 61 63 69 64
REMARK SMILES IDX 62 65 63 66 67 67 70 68 64 69 65 70 68 71 66 72 8 73 9 74
REMARK SMILES IDX 10 75 11 76 12 77 13 78 14 79 15 80 16 81 28 82 17 83 27 84
REMARK SMILES IDX 29 85 33 86 30 88 32 89 31 90 18 91 19 92 20 93 26 94 21 95
REMARK SMILES IDX 24 96 22 97 25 98 23 99
REMARK H PARENT 90 25 58 36 17 87
REMARK Flexibility Score: inf
ROOT
ATOM      1  C   UNL A   1      35.236  32.880  28.079  1.00  0.00     0.188 C 
ENDROOT
BRANCH   1   2
ATOM      2  O   UNL A   1      34.542  34.058  27.673  1.00  0.00    -0.376 OA
BRANCH   2   3
ATOM      3  C   UNL A   1      33.234  34.233  28.212  1.00  0.00     0.202 C 
BRANCH   3   4
ATOM      4  C   UNL A   1      32.964  35.560  28.934  1.00  0.00     0.261 C 
BRANCH   4   5
ATOM      5  O   UNL A   1      32.448  35.445  30.267  1.00  0.00    -0.460 OA
BRANCH   5   6
ATOM      6  C   UNL A   1      33.103  35.301  31.443  1.00  0.00     0.338 C 
ATOM      7  O   UNL A   1      32.757  36.020  32.382  1.00  0.00    -0.246 OA
BRANCH   6   8
ATOM      8  C   UNL A   1      34.272  34.387  31.671  1.00  0.00     0.060 A 
ATOM      9  C   UNL A   1      34.246  33.174  32.361  1.00  0.00     0.016 A 
ATOM     10  C   UNL A   1      35.512  34.804  31.143  1.00  0.00     0.016 A 
ATOM     11  C   UNL A   1      35.390  32.403  32.533  1.00  0.00     0.010 A 
ATOM     12  C   UNL A   1      36.674  34.048  31.327  1.00  0.00     0.010 A 
ATOM     13  C   UNL A   1      36.613  32.853  32.052  1.00  0.00    -0.014 A 
BRANCH  13  14
ATOM     14  C   UNL A   1      37.832  32.176  32.531  1.00  0.00     0.031 A 
ATOM     15  C   UNL A   1      38.371  31.057  31.710  1.00  0.00     0.074 A 
ATOM     16  C   UNL A   1      38.533  32.646  33.574  1.00  0.00     0.049 A 
ATOM     17  N   UNL A   1      39.447  30.347  31.899  1.00  0.00    -0.248 NA
ATOM     18  C   UNL A   1      37.642  30.747  30.469  1.00  0.00     0.031 C 
ATOM     19  C   UNL A   1      38.230  33.882  34.270  1.00  0.00     0.029 A 
ATOM     20  N   UNL A   1      39.625  32.156  34.237  1.00  0.00    -0.354 N 
ATOM     21  C   UNL A   1      39.558  29.547  30.778  1.00  0.00     0.074 A 
ATOM     22  C   UNL A   1      38.413  29.811  29.937  1.00  0.00     0.031 C 
ATOM     23  C   UNL A   1      39.019  33.995  35.348  1.00  0.00     0.029 A 
ATOM     24  C   UNL A   1      39.896  32.841  35.397  1.00  0.00     0.049 A 
ATOM     25  H   UNL A   1      40.159  31.393  33.917  1.00  0.00     0.167 HD
ATOM     26  C   UNL A   1      40.555  28.687  30.477  1.00  0.00     0.037 A 
ATOM     27  C   UNL A   1      40.737  32.545  36.403  1.00  0.00     0.037 A 
ATOM     28  C   UNL A   1      41.651  28.411  31.366  1.00  0.00     0.049 A 
ATOM     29  C   UNL A   1      41.687  31.410  36.179  1.00  0.00     0.074 A 
ATOM     30  C   UNL A   1      42.686  27.512  31.211  1.00  0.00     0.029 A 
ATOM     31  N   UNL A   1      41.831  29.023  32.604  1.00  0.00    -0.354 N 
ATOM     32  N   UNL A   1      41.785  30.629  35.129  1.00  0.00    -0.248 NA
ATOM     33  C   UNL A   1      42.675  31.146  37.226  1.00  0.00     0.031 C 
ATOM     34  C   UNL A   1      43.450  27.528  32.384  1.00  0.00     0.029 A 
ATOM     35  C   UNL A   1      42.932  28.485  33.246  1.00  0.00     0.049 A 
ATOM     36  H   UNL A   1      41.258  29.736  32.970  1.00  0.00     0.167 HD
ATOM     37  C   UNL A   1      42.880  29.817  35.358  1.00  0.00     0.074 A 
ATOM     38  C   UNL A   1      43.404  30.193  36.659  1.00  0.00     0.031 C 
ATOM     39  C   UNL A   1      43.417  28.869  34.551  1.00  0.00     0.037 A 
BRANCH  26  40
ATOM     40  C   UNL A   1      40.425  27.948  29.182  1.00  0.00     0.064 A 
ATOM     41  C   UNL A   1      39.642  26.787  29.065  1.00  0.00     0.173 A 
ATOM     42  C   UNL A   1      41.164  28.357  28.065  1.00  0.00     0.173 A 
ATOM     43  F   UNL A   1      38.946  26.331  30.119  1.00  0.00    -0.203 F 
ATOM     44  C   UNL A   1      39.638  26.043  27.888  1.00  0.00     0.198 A 
ATOM     45  C   UNL A   1      41.136  27.626  26.881  1.00  0.00     0.198 A 
ATOM     46  F   UNL A   1      41.942  29.448  28.133  1.00  0.00    -0.203 F 
ATOM     47  F   UNL A   1      38.946  24.897  27.822  1.00  0.00    -0.200 F 
ATOM     48  C   UNL A   1      40.384  26.464  26.797  1.00  0.00     0.200 A 
ATOM     49  F   UNL A   1      41.860  28.033  25.829  1.00  0.00    -0.200 F 
ATOM     50  F   UNL A   1      40.395  25.738  25.670  1.00  0.00    -0.200 F 
ENDBRANCH  26  40
BRANCH  27  51
ATOM     51  C   UNL A   1      40.691  33.323  37.667  1.00  0.00     0.064 A 
ATOM     52  C   UNL A   1      39.678  33.145  38.614  1.00  0.00     0.173 A 
ATOM     53  C   UNL A   1      41.695  34.265  37.959  1.00  0.00     0.173 A 
ATOM     54  F   UNL A   1      38.695  32.263  38.385  1.00  0.00    -0.203 F 
ATOM     55  C   UNL A   1      39.656  33.888  39.796  1.00  0.00     0.198 A 
ATOM     56  C   UNL A   1      41.683  34.992  39.147  1.00  0.00     0.198 A 
ATOM     57  F   UNL A   1      42.696  34.473  37.090  1.00  0.00    -0.203 F 
ATOM     58  F   UNL A   1      38.657  33.718  40.672  1.00  0.00    -0.200 F 
ATOM     59  C   UNL A   1      40.659  34.809  40.063  1.00  0.00     0.200 A 
ATOM     60  F   UNL A   1      42.665  35.867  39.406  1.00  0.00    -0.200 F 
ATOM     61  F   UNL A   1      40.637  35.519  41.198  1.00  0.00    -0.200 F 
ENDBRANCH  27  51
BRANCH  39  62
ATOM     62  C   UNL A   1      44.656  28.195  35.051  1.00  0.00     0.064 A 
ATOM     63  C   UNL A   1      44.598  27.012  35.799  1.00  0.00     0.173 A 
ATOM     64  C   UNL A   1      45.918  28.725  34.744  1.00  0.00     0.173 A 
ATOM     65  F   UNL A   1      43.412  26.482  36.136  1.00  0.00    -0.203 F 
ATOM     66  C   UNL A   1      45.762  26.395  36.244  1.00  0.00     0.198 A 
ATOM     67  C   UNL A   1      47.080  28.086  35.159  1.00  0.00     0.198 A 
ATOM     68  F   UNL A   1      46.022  29.857  34.029  1.00  0.00    -0.203 F 
ATOM     69  F   UNL A   1      45.686  25.294  37.003  1.00  0.00    -0.200 F 
ATOM     70  C   UNL A   1      47.001  26.926  35.915  1.00  0.00     0.200 A 
ATOM     71  F   UNL A   1      48.275  28.593  34.828  1.00  0.00    -0.200 F 
ATOM     72  F   UNL A   1      48.121  26.323  36.334  1.00  0.00    -0.200 F 
ENDBRANCH  39  62
ENDBRANCH  13  14
ENDBRANCH   6   8
ENDBRANCH   5   6
ENDBRANCH   4   5
ENDBRANCH   3   4
ENDBRANCH   2   3
ENDBRANCH   1   2
BRANCH   1  73
ATOM     73  C   UNL A   1      34.398  31.619  28.321  1.00  0.00     0.188 C 
BRANCH  73  74
ATOM     74  O   UNL A   1      34.025  30.933  27.135  1.00  0.00    -0.376 OA
BRANCH  74  75
ATOM     75  C   UNL A   1      32.622  30.848  26.907  1.00  0.00     0.202 C 
BRANCH  75  76
ATOM     76  C   UNL A   1      32.014  29.452  27.098  1.00  0.00     0.261 C 
BRANCH  76  77
ATOM     77  O   UNL A   1      31.741  28.684  25.909  1.00  0.00    -0.463 OA
BRANCH  77  78
ATOM     78  C   UNL A   1      32.659  27.785  25.500  1.00  0.00     0.315 C 
ATOM     79  O   UNL A   1      33.773  28.078  25.074  1.00  0.00    -0.252 OA
BRANCH  78  80
ATOM     80  C   UNL A   1      32.182  26.352  25.586  1.00  0.00     0.166 C 
ATOM     81  C   UNL A   1      30.910  26.109  26.384  1.00  0.00     0.278 C 
ATOM     82  C   UNL A   1      31.935  25.697  24.194  1.00  0.00     0.038 C 
ATOM     83  N   UNL A   1      30.313  24.914  25.803  1.00  0.00    -0.330 N 
ATOM     84  C   UNL A   1      30.614  24.910  24.384  1.00  0.00     0.270 C 
ATOM     85  C   UNL A   1      31.788  26.713  23.030  1.00  0.00     0.014 C 
ATOM     86  C   UNL A   1      33.124  24.764  23.880  1.00  0.00     0.014 C 
ATOM     87  H   UNL A   1      29.303  24.990  25.926  1.00  0.00     0.348 HD
ATOM     88  C   UNL A   1      31.720  26.054  21.652  1.00  0.00     0.001 C 
ATOM     89  C   UNL A   1      33.017  24.083  22.521  1.00  0.00     0.001 C 
ATOM     90  C   UNL A   1      32.906  25.125  21.419  1.00  0.00     0.000 C 
BRANCH  83  91
ATOM     91  C   UNL A   1      30.345  23.650  26.538  1.00  0.00     0.299 C 
BRANCH  91  92
ATOM     92  C   UNL A   1      31.572  22.796  26.335  1.00  0.00     0.008 A 
ATOM     93  C   UNL A   1      32.752  23.076  27.034  1.00  0.00     0.011 A 
ATOM     94  C   UNL A   1      31.570  21.758  25.388  1.00  0.00     0.031 A 
ATOM     95  C   UNL A   1      33.943  22.433  26.697  1.00  0.00     0.022 A 
ATOM     96  C   UNL A   1      32.761  21.104  25.054  1.00  0.00     0.060 A 
ATOM     97  C   UNL A   1      33.956  21.468  25.686  1.00  0.00     0.059 A 
ATOM     98  Cl  UNL A   1      32.700  19.920  23.798  1.00  0.00    -0.083 Cl
ATOM     99  Cl  UNL A   1      35.485  20.809  25.230  1.00  0.00    -0.083 Cl
ENDBRANCH  91  92
ENDBRANCH  83  91
ENDBRANCH  78  80
ENDBRANCH  77  78
ENDBRANCH  76  77
ENDBRANCH  75  76
ENDBRANCH  74  75
ENDBRANCH  73  74
ENDBRANCH   1  73
TORSDOF 19
ENDMDL
MODEL 2
REMARK VINA RESULT:     -10.9      6.471     11.129
REMARK SMILES O=C(OCCOCCOCCOC(=O)[C@H]1C[N@H+](Cc2ccc(Cl)c(Cl)c2)CC12CCCCC2)c1ccc(-c2c3nc(c(-c4c(F)c(F)c(F)c(F)c4F)c4ccc([nH]4)c(-c4c(F)c(F)c(F)c(F)c4F)c4nc(c(-c5c(F)c(F)c(F)c(F)c5F)c5ccc2[nH]5)C=C4)C=C3)cc1
REMARK SMILES IDX 7 1 6 2 5 3 4 4 3 5 2 6 1 7 34 8 35 9 96 10 36 11 95 12
REMARK SMILES IDX 37 13 38 14 39 15 89 16 40 17 94 18 88 19 90 20 41 21 93 22
REMARK SMILES IDX 87 23 86 24 42 26 74 27 54 28 73 29 55 30 58 31 72 32 91 33
REMARK SMILES IDX 56 34 57 35 71 37 92 38 59 39 43 40 44 41 52 42 45 43 46 44
REMARK SMILES IDX 50 45 53 46 47 47 48 48 51 49 49 50 75 51 76 52 84 53 77 54
REMARK SMILES IDX 78 55 82 56 85 57 79 58 80 59 83 60 81 61 60 62 61 63 69 64
REMARK SMILES IDX 62 65 63 66 67 67 70 68 64 69 65 70 68 71 66 72 8 73 9 74
REMARK SMILES IDX 10 75 11 76 12 77 13 78 14 79 15 80 16 81 28 82 17 83 27 84
REMARK SMILES IDX 29 85 33 86 30 88 32 89 31 90 18 91 19 92 20 93 26 94 21 95
REMARK SMILES IDX 24 96 22 97 25 98 23 99
REMARK H PARENT 90 25 58 36 17 87
REMARK Flexibility Score: inf
ROOT
ATOM      1  C   UNL A   1      40.760  20.551  26.520  1.00  0.00     0.188 C 
ENDROOT
BRANCH   1   2
ATOM      2  O   UNL A   1      41.536  19.681  25.696  1.00  0.00    -0.376 OA
BRANCH   2   3
ATOM      3  C   UNL A   1      42.028  18.498  26.322  1.00  0.00     0.202 C 
BRANCH   3   4
ATOM      4  C   UNL A   1      43.453  18.070  25.948  1.00  0.00     0.261 C 
BRANCH   4   5
ATOM      5  O   UNL A   1      43.920  18.527  24.671  1.00  0.00    -0.460 OA
BRANCH   5   6
ATOM      6  C   UNL A   1      44.831  19.482  24.370  1.00  0.00     0.338 C 
ATOM      7  O   UNL A   1      45.863  19.129  23.799  1.00  0.00    -0.246 OA
BRANCH   6   8
ATOM      8  C   UNL A   1      44.716  20.931  24.748  1.00  0.00     0.060 A 
ATOM      9  C   UNL A   1      44.711  22.013  23.867  1.00  0.00     0.016 A 
ATOM     10  C   UNL A   1      44.611  21.217  26.126  1.00  0.00     0.016 A 
ATOM     11  C   UNL A   1      44.614  23.326  24.317  1.00  0.00     0.010 A 
ATOM     12  C   UNL A   1      44.535  22.534  26.593  1.00  0.00     0.010 A 
ATOM     13  C   UNL A   1      44.565  23.593  25.680  1.00  0.00    -0.014 A 
BRANCH  13  14
ATOM     14  C   UNL A   1      44.789  24.984  26.116  1.00  0.00     0.031 A 
ATOM     15  C   UNL A   1      46.178  25.516  26.046  1.00  0.00     0.074 A 
ATOM     16  C   UNL A   1      43.767  25.802  26.409  1.00  0.00     0.049 A 
ATOM     17  N   UNL A   1      46.610  26.712  26.327  1.00  0.00    -0.248 NA
ATOM     18  C   UNL A   1      47.202  24.602  25.515  1.00  0.00     0.031 C 
ATOM     19  C   UNL A   1      42.369  25.449  26.252  1.00  0.00     0.029 A 
ATOM     20  N   UNL A   1      43.729  27.077  26.902  1.00  0.00    -0.354 N 
ATOM     21  C   UNL A   1      47.942  26.715  25.956  1.00  0.00     0.074 A 
ATOM     22  C   UNL A   1      48.267  25.388  25.484  1.00  0.00     0.031 C 
ATOM     23  C   UNL A   1      41.600  26.419  26.765  1.00  0.00     0.029 A 
ATOM     24  C   UNL A   1      42.464  27.470  27.269  1.00  0.00     0.049 A 
ATOM     25  H   UNL A   1      44.524  27.652  26.987  1.00  0.00     0.167 HD
ATOM     26  C   UNL A   1      48.802  27.756  25.986  1.00  0.00     0.037 A 
ATOM     27  C   UNL A   1      42.057  28.545  27.965  1.00  0.00     0.037 A 
ATOM     28  C   UNL A   1      48.455  29.047  26.514  1.00  0.00     0.049 A 
ATOM     29  C   UNL A   1      43.080  29.603  28.235  1.00  0.00     0.074 A 
ATOM     30  C   UNL A   1      49.253  30.162  26.666  1.00  0.00     0.029 A 
ATOM     31  N   UNL A   1      47.197  29.381  27.008  1.00  0.00    -0.354 N 
ATOM     32  N   UNL A   1      44.352  29.606  27.909  1.00  0.00    -0.248 NA
ATOM     33  C   UNL A   1      42.623  30.823  28.903  1.00  0.00     0.031 C 
ATOM     34  C   UNL A   1      48.499  31.147  27.318  1.00  0.00     0.029 A 
ATOM     35  C   UNL A   1      47.210  30.670  27.512  1.00  0.00     0.049 A 
ATOM     36  H   UNL A   1      46.411  28.787  26.999  1.00  0.00     0.167 HD
ATOM     37  C   UNL A   1      44.838  30.846  28.276  1.00  0.00     0.074 A 
ATOM     38  C   UNL A   1      43.723  31.565  28.867  1.00  0.00     0.031 C 
ATOM     39  C   UNL A   1      46.085  31.351  28.111  1.00  0.00     0.037 A 
BRANCH  26  40
ATOM     40  C   UNL A   1      50.195  27.479  25.515  1.00  0.00     0.064 A 
ATOM     41  C   UNL A   1      50.540  27.516  24.154  1.00  0.00     0.173 A 
ATOM     42  C   UNL A   1      51.179  27.084  26.431  1.00  0.00     0.173 A 
ATOM     43  F   UNL A   1      49.622  27.849  23.232  1.00  0.00    -0.203 F 
ATOM     44  C   UNL A   1      51.807  27.128  23.726  1.00  0.00     0.198 A 
ATOM     45  C   UNL A   1      52.453  26.724  26.003  1.00  0.00     0.198 A 
ATOM     46  F   UNL A   1      50.893  27.014  27.740  1.00  0.00    -0.203 F 
ATOM     47  F   UNL A   1      52.092  27.096  22.417  1.00  0.00    -0.200 F 
ATOM     48  C   UNL A   1      52.763  26.734  24.652  1.00  0.00     0.200 A 
ATOM     49  F   UNL A   1      53.374  26.340  26.898  1.00  0.00    -0.200 F 
ATOM     50  F   UNL A   1      53.977  26.343  24.238  1.00  0.00    -0.200 F 
ENDBRANCH  26  40
BRANCH  27  51
ATOM     51  C   UNL A   1      40.653  28.640  28.439  1.00  0.00     0.064 A 
ATOM     52  C   UNL A   1      40.281  28.290  29.741  1.00  0.00     0.173 A 
ATOM     53  C   UNL A   1      39.643  29.109  27.578  1.00  0.00     0.173 A 
ATOM     54  F   UNL A   1      41.202  27.833  30.600  1.00  0.00    -0.203 F 
ATOM     55  C   UNL A   1      38.953  28.387  30.163  1.00  0.00     0.198 A 
ATOM     56  C   UNL A   1      38.322  29.225  28.007  1.00  0.00     0.198 A 
ATOM     57  F   UNL A   1      39.942  29.466  26.320  1.00  0.00    -0.203 F 
ATOM     58  F   UNL A   1      38.620  28.017  31.407  1.00  0.00    -0.200 F 
ATOM     59  C   UNL A   1      37.976  28.857  29.297  1.00  0.00     0.200 A 
ATOM     60  F   UNL A   1      37.387  29.696  27.170  1.00  0.00    -0.200 F 
ATOM     61  F   UNL A   1      36.704  28.952  29.705  1.00  0.00    -0.200 F 
ENDBRANCH  27  51
BRANCH  39  62
ATOM     62  C   UNL A   1      46.294  32.765  28.556  1.00  0.00     0.064 A 
ATOM     63  C   UNL A   1      46.078  33.847  27.693  1.00  0.00     0.173 A 
ATOM     64  C   UNL A   1      46.680  33.036  29.877  1.00  0.00     0.173 A 
ATOM     65  F   UNL A   1      45.730  33.633  26.414  1.00  0.00    -0.203 F 
ATOM     66  C   UNL A   1      46.266  35.154  28.130  1.00  0.00     0.198 A 
ATOM     67  C   UNL A   1      46.832  34.345  30.321  1.00  0.00     0.198 A 
ATOM     68  F   UNL A   1      46.897  32.031  30.740  1.00  0.00    -0.203 F 
ATOM     69  F   UNL A   1      46.107  36.173  27.275  1.00  0.00    -0.200 F 
ATOM     70  C   UNL A   1      46.631  35.401  29.445  1.00  0.00     0.200 A 
ATOM     71  F   UNL A   1      47.171  34.582  31.595  1.00  0.00    -0.200 F 
ATOM     72  F   UNL A   1      46.800  36.661  29.868  1.00  0.00    -0.200 F 
ENDBRANCH  39  62
ENDBRANCH  13  14
ENDBRANCH   6   8
ENDBRANCH   5   6
ENDBRANCH   4   5
ENDBRANCH   3   4
ENDBRANCH   2   3
ENDBRANCH   1   2
BRANCH   1  73
ATOM     73  C   UNL A   1      40.710  22.032  26.127  1.00  0.00     0.188 C 
BRANCH  73  74
ATOM     74  O   UNL A   1      39.535  22.706  26.551  1.00  0.00    -0.376 OA
BRANCH  74  75
ATOM     75  C   UNL A   1      38.342  22.310  25.881  1.00  0.00     0.202 C 
BRANCH  75  76
ATOM     76  C   UNL A   1      37.354  23.447  25.584  1.00  0.00     0.261 C 
BRANCH  76  77
ATOM     77  O   UNL A   1      35.950  23.156  25.733  1.00  0.00    -0.463 OA
BRANCH  77  78
ATOM     78  C   UNL A   1      35.296  22.600  24.693  1.00  0.00     0.315 C 
ATOM     79  O   UNL A   1      35.397  21.423  24.360  1.00  0.00    -0.252 OA
BRANCH  78  80
ATOM     80  C   UNL A   1      34.425  23.578  23.934  1.00  0.00     0.166 C 
ATOM     81  C   UNL A   1      34.270  23.329  22.441  1.00  0.00     0.278 C 
ATOM     82  C   UNL A   1      32.975  23.680  24.495  1.00  0.00     0.038 C 
ATOM     83  N   UNL A   1      32.975  23.893  22.089  1.00  0.00    -0.330 N 
ATOM     84  C   UNL A   1      32.089  23.720  23.224  1.00  0.00     0.270 C 
ATOM     85  C   UNL A   1      32.556  22.490  25.399  1.00  0.00     0.014 C 
ATOM     86  C   UNL A   1      32.864  24.982  25.318  1.00  0.00     0.014 C 
ATOM     87  H   UNL A   1      32.613  23.353  21.303  1.00  0.00     0.348 HD
ATOM     88  C   UNL A   1      31.201  22.689  26.078  1.00  0.00     0.001 C 
ATOM     89  C   UNL A   1      31.493  25.183  25.951  1.00  0.00     0.001 C 
ATOM     90  C   UNL A   1      31.151  24.004  26.848  1.00  0.00     0.000 C 
BRANCH  83  91
ATOM     91  C   UNL A   1      32.904  25.134  21.317  1.00  0.00     0.299 C 
BRANCH  91  92
ATOM     92  C   UNL A   1      32.583  26.383  22.099  1.00  0.00     0.008 A 
ATOM     93  C   UNL A   1      33.609  27.128  22.695  1.00  0.00     0.011 A 
ATOM     94  C   UNL A   1      31.250  26.774  22.304  1.00  0.00     0.031 A 
ATOM     95  C   UNL A   1      33.309  28.153  23.591  1.00  0.00     0.022 A 
ATOM     96  C   UNL A   1      30.945  27.809  23.195  1.00  0.00     0.060 A 
ATOM     97  C   UNL A   1      31.977  28.475  23.866  1.00  0.00     0.059 A 
ATOM     98  Cl  UNL A   1      29.278  28.154  23.482  1.00  0.00    -0.083 Cl
ATOM     99  Cl  UNL A   1      31.678  29.663  25.083  1.00  0.00    -0.083 Cl
ENDBRANCH  91  92
ENDBRANCH  83  91
ENDBRANCH  78  80
ENDBRANCH  77  78
ENDBRANCH  76  77
ENDBRANCH  75  76
ENDBRANCH  74  75
ENDBRANCH  73  74
ENDBRANCH   1  73
TORSDOF 19
ENDMDL
MODEL 3
REMARK VINA RESULT:     -10.9      5.918     11.040
REMARK SMILES O=C(OCCOCCOCCOC(=O)[C@H]1C[N@H+](Cc2ccc(Cl)c(Cl)c2)CC12CCCCC2)c1ccc(-c2c3nc(c(-c4c(F)c(F)c(F)c(F)c4F)c4ccc([nH]4)c(-c4c(F)c(F)c(F)c(F)c4F)c4nc(c(-c5c(F)c(F)c(F)c(F)c5F)c5ccc2[nH]5)C=C4)C=C3)cc1
REMARK SMILES IDX 7 1 6 2 5 3 4 4 3 5 2 6 1 7 34 8 35 9 96 10 36 11 95 12
REMARK SMILES IDX 37 13 38 14 39 15 89 16 40 17 94 18 88 19 90 20 41 21 93 22
REMARK SMILES IDX 87 23 86 24 42 26 74 27 54 28 73 29 55 30 58 31 72 32 91 33
REMARK SMILES IDX 56 34 57 35 71 37 92 38 59 39 43 40 44 41 52 42 45 43 46 44
REMARK SMILES IDX 50 45 53 46 47 47 48 48 51 49 49 50 75 51 76 52 84 53 77 54
REMARK SMILES IDX 78 55 82 56 85 57 79 58 80 59 83 60 81 61 60 62 61 63 69 64
REMARK SMILES IDX 62 65 63 66 67 67 70 68 64 69 65 70 68 71 66 72 8 73 9 74
REMARK SMILES IDX 10 75 11 76 12 77 13 78 14 79 15 80 16 81 28 82 17 83 27 84
REMARK SMILES IDX 29 85 33 86 30 88 32 89 31 90 18 91 19 92 20 93 26 94 21 95
REMARK SMILES IDX 24 96 22 97 25 98 23 99
REMARK H PARENT 90 25 58 36 17 87
REMARK Flexibility Score: inf
ROOT
ATOM      1  C   UNL A   1      36.358  22.073  24.869  1.00  0.00     0.188 C 
ENDROOT
BRANCH   1   2
ATOM      2  O   UNL A   1      37.401  21.339  24.230  1.00  0.00    -0.376 OA
BRANCH   2   3
ATOM      3  C   UNL A   1      37.908  20.215  24.947  1.00  0.00     0.202 C 
BRANCH   3   4
ATOM      4  C   UNL A   1      39.137  20.467  25.831  1.00  0.00     0.261 C 
BRANCH   4   5
ATOM      5  O   UNL A   1      40.156  19.458  25.774  1.00  0.00    -0.460 OA
BRANCH   5   6
ATOM      6  C   UNL A   1      41.488  19.556  25.992  1.00  0.00     0.338 C 
ATOM      7  O   UNL A   1      42.162  18.531  25.881  1.00  0.00    -0.246 OA
BRANCH   6   8
ATOM      8  C   UNL A   1      42.199  20.802  26.434  1.00  0.00     0.060 A 
ATOM      9  C   UNL A   1      42.247  21.304  27.735  1.00  0.00     0.016 A 
ATOM     10  C   UNL A   1      42.873  21.533  25.433  1.00  0.00     0.016 A 
ATOM     11  C   UNL A   1      42.923  22.480  28.043  1.00  0.00     0.010 A 
ATOM     12  C   UNL A   1      43.538  22.728  25.726  1.00  0.00     0.010 A 
ATOM     13  C   UNL A   1      43.537  23.216  27.037  1.00  0.00    -0.014 A 
BRANCH  13  14
ATOM     14  C   UNL A   1      43.952  24.595  27.350  1.00  0.00     0.031 A 
ATOM     15  C   UNL A   1      42.885  25.584  27.668  1.00  0.00     0.074 A 
ATOM     16  C   UNL A   1      45.244  24.922  27.507  1.00  0.00     0.049 A 
ATOM     17  N   UNL A   1      43.006  26.833  28.018  1.00  0.00    -0.248 NA
ATOM     18  C   UNL A   1      41.503  25.078  27.669  1.00  0.00     0.031 C 
ATOM     19  C   UNL A   1      46.336  23.968  27.475  1.00  0.00     0.029 A 
ATOM     20  N   UNL A   1      45.864  26.123  27.714  1.00  0.00    -0.354 N 
ATOM     21  C   UNL A   1      41.726  27.249  28.335  1.00  0.00     0.074 A 
ATOM     22  C   UNL A   1      40.832  26.141  28.082  1.00  0.00     0.031 C 
ATOM     23  C   UNL A   1      47.505  24.622  27.516  1.00  0.00     0.029 A 
ATOM     24  C   UNL A   1      47.231  26.045  27.598  1.00  0.00     0.049 A 
ATOM     25  H   UNL A   1      45.382  26.956  27.924  1.00  0.00     0.167 HD
ATOM     26  C   UNL A   1      41.348  28.450  28.822  1.00  0.00     0.037 A 
ATOM     27  C   UNL A   1      48.154  27.020  27.531  1.00  0.00     0.037 A 
ATOM     28  C   UNL A   1      42.261  29.545  29.009  1.00  0.00     0.049 A 
ATOM     29  C   UNL A   1      47.688  28.412  27.819  1.00  0.00     0.074 A 
ATOM     30  C   UNL A   1      41.994  30.832  29.428  1.00  0.00     0.029 A 
ATOM     31  N   UNL A   1      43.628  29.480  28.753  1.00  0.00    -0.354 N 
ATOM     32  N   UNL A   1      46.473  28.821  28.097  1.00  0.00    -0.248 NA
ATOM     33  C   UNL A   1      48.704  29.466  27.849  1.00  0.00     0.031 C 
ATOM     34  C   UNL A   1      43.185  31.565  29.357  1.00  0.00     0.029 A 
ATOM     35  C   UNL A   1      44.210  30.719  28.957  1.00  0.00     0.049 A 
ATOM     36  H   UNL A   1      44.111  28.670  28.469  1.00  0.00     0.167 HD
ATOM     37  C   UNL A   1      46.580  30.166  28.394  1.00  0.00     0.074 A 
ATOM     38  C   UNL A   1      47.984  30.508  28.244  1.00  0.00     0.031 C 
ATOM     39  C   UNL A   1      45.610  31.030  28.782  1.00  0.00     0.037 A 
BRANCH  26  40
ATOM     40  C   UNL A   1      39.886  28.628  29.087  1.00  0.00     0.064 A 
ATOM     41  C   UNL A   1      39.006  29.110  28.103  1.00  0.00     0.173 A 
ATOM     42  C   UNL A   1      39.373  28.397  30.369  1.00  0.00     0.173 A 
ATOM     43  F   UNL A   1      39.458  29.386  26.868  1.00  0.00    -0.203 F 
ATOM     44  C   UNL A   1      37.677  29.391  28.408  1.00  0.00     0.198 A 
ATOM     45  C   UNL A   1      38.036  28.652  30.663  1.00  0.00     0.198 A 
ATOM     46  F   UNL A   1      40.176  27.954  31.348  1.00  0.00    -0.203 F 
ATOM     47  F   UNL A   1      36.874  29.924  27.476  1.00  0.00    -0.200 F 
ATOM     48  C   UNL A   1      37.193  29.160  29.687  1.00  0.00     0.200 A 
ATOM     49  F   UNL A   1      37.572  28.432  31.901  1.00  0.00    -0.200 F 
ATOM     50  F   UNL A   1      35.919  29.449  29.985  1.00  0.00    -0.200 F 
ENDBRANCH  26  40
BRANCH  27  51
ATOM     51  C   UNL A   1      49.559  26.694  27.174  1.00  0.00     0.064 A 
ATOM     52  C   UNL A   1      49.988  26.605  25.846  1.00  0.00     0.173 A 
ATOM     53  C   UNL A   1      50.516  26.481  28.182  1.00  0.00     0.173 A 
ATOM     54  F   UNL A   1      49.115  26.796  24.847  1.00  0.00    -0.203 F 
ATOM     55  C   UNL A   1      51.314  26.298  25.536  1.00  0.00     0.198 A 
ATOM     56  C   UNL A   1      51.844  26.194  27.872  1.00  0.00     0.198 A 
ATOM     57  F   UNL A   1      50.164  26.561  29.475  1.00  0.00    -0.203 F 
ATOM     58  F   UNL A   1      51.691  26.190  24.254  1.00  0.00    -0.200 F 
ATOM     59  C   UNL A   1      52.241  26.095  26.548  1.00  0.00     0.200 A 
ATOM     60  F   UNL A   1      52.738  26.016  28.855  1.00  0.00    -0.200 F 
ATOM     61  F   UNL A   1      53.513  25.803  26.247  1.00  0.00    -0.200 F 
ENDBRANCH  27  51
BRANCH  39  62
ATOM     62  C   UNL A   1      46.050  32.425  29.098  1.00  0.00     0.064 A 
ATOM     63  C   UNL A   1      46.528  32.775  30.368  1.00  0.00     0.173 A 
ATOM     64  C   UNL A   1      46.025  33.413  28.103  1.00  0.00     0.173 A 
ATOM     65  F   UNL A   1      46.547  31.868  31.357  1.00  0.00    -0.203 F 
ATOM     66  C   UNL A   1      46.943  34.075  30.638  1.00  0.00     0.198 A 
ATOM     67  C   UNL A   1      46.475  34.702  28.365  1.00  0.00     0.198 A 
ATOM     68  F   UNL A   1      45.577  33.123  26.871  1.00  0.00    -0.203 F 
ATOM     69  F   UNL A   1      47.345  34.404  31.872  1.00  0.00    -0.200 F 
ATOM     70  C   UNL A   1      46.927  35.033  29.634  1.00  0.00     0.200 A 
ATOM     71  F   UNL A   1      46.472  35.621  27.392  1.00  0.00    -0.200 F 
ATOM     72  F   UNL A   1      47.339  36.281  29.893  1.00  0.00    -0.200 F 
ENDBRANCH  39  62
ENDBRANCH  13  14
ENDBRANCH   6   8
ENDBRANCH   5   6
ENDBRANCH   4   5
ENDBRANCH   3   4
ENDBRANCH   2   3
ENDBRANCH   1   2
BRANCH   1  73
ATOM     73  C   UNL A   1      34.936  21.511  24.761  1.00  0.00     0.188 C 
BRANCH  73  74
ATOM     74  O   UNL A   1      33.968  22.459  24.334  1.00  0.00    -0.376 OA
BRANCH  74  75
ATOM     75  C   UNL A   1      34.374  23.280  23.244  1.00  0.00     0.202 C 
BRANCH  75  76
ATOM     76  C   UNL A   1      34.234  24.791  23.480  1.00  0.00     0.261 C 
BRANCH  76  77
ATOM     77  O   UNL A   1      33.595  25.563  22.444  1.00  0.00    -0.463 OA
BRANCH  77  78
ATOM     78  C   UNL A   1      33.624  26.908  22.534  1.00  0.00     0.315 C 
ATOM     79  O   UNL A   1      33.939  27.657  21.613  1.00  0.00    -0.252 OA
BRANCH  78  80
ATOM     80  C   UNL A   1      33.253  27.430  23.905  1.00  0.00     0.166 C 
ATOM     81  C   UNL A   1      33.809  28.796  24.280  1.00  0.00     0.278 C 
ATOM     82  C   UNL A   1      31.715  27.525  24.136  1.00  0.00     0.038 C 
ATOM     83  N   UNL A   1      32.856  29.352  25.232  1.00  0.00    -0.330 N 
ATOM     84  C   UNL A   1      31.534  28.881  24.865  1.00  0.00     0.270 C 
ATOM     85  C   UNL A   1      30.873  27.503  22.833  1.00  0.00     0.014 C 
ATOM     86  C   UNL A   1      31.285  26.334  25.018  1.00  0.00     0.014 C 
ATOM     87  H   UNL A   1      32.885  30.366  25.132  1.00  0.00     0.348 HD
ATOM     88  C   UNL A   1      29.367  27.422  23.084  1.00  0.00     0.001 C 
ATOM     89  C   UNL A   1      29.786  26.294  25.292  1.00  0.00     0.001 C 
ATOM     90  C   UNL A   1      29.014  26.242  23.983  1.00  0.00     0.000 C 
BRANCH  83  91
ATOM     91  C   UNL A   1      33.207  29.443  26.648  1.00  0.00     0.299 C 
BRANCH  91  92
ATOM     92  C   UNL A   1      33.201  30.829  27.245  1.00  0.00     0.008 A 
ATOM     93  C   UNL A   1      32.162  31.721  26.951  1.00  0.00     0.011 A 
ATOM     94  C   UNL A   1      34.273  31.268  28.040  1.00  0.00     0.031 A 
ATOM     95  C   UNL A   1      32.258  33.062  27.321  1.00  0.00     0.022 A 
ATOM     96  C   UNL A   1      34.366  32.611  28.421  1.00  0.00     0.060 A 
ATOM     97  C   UNL A   1      33.373  33.516  28.029  1.00  0.00     0.059 A 
ATOM     98  Cl  UNL A   1      35.772  33.098  29.299  1.00  0.00    -0.083 Cl
ATOM     99  Cl  UNL A   1      33.488  35.211  28.338  1.00  0.00    -0.083 Cl
ENDBRANCH  91  92
ENDBRANCH  83  91
ENDBRANCH  78  80
ENDBRANCH  77  78
ENDBRANCH  76  77
ENDBRANCH  75  76
ENDBRANCH  74  75
ENDBRANCH  73  74
ENDBRANCH   1  73
TORSDOF 19
ENDMDL
