MODEL 1
REMARK VINA RESULT:     -12.1      0.000      0.000
REMARK SMILES O=C(OCCOCCOCCOC(=O)c1cc2c(Cl)c(C(F)(F)F)cnc2n1S(=O)(=O)c1ccccc1)c1ccc(-c2c3nc(c(-c4c(F)c(F)c(F)c(F)c4F)c4ccc([nH]4)c(-c4c(F)c(F)c(F)c(F)c4F)c4nc(c(-c5c(F)c(F)c(F)c(F)c5F)c5ccc2[nH]5)C=C4)C=C3)cc1
REMARK SMILES IDX 7 1 6 2 5 3 4 4 3 5 2 6 1 7 38 8 39 9 100 10 40 11 99 12
REMARK SMILES IDX 41 13 42 14 43 15 93 16 44 17 98 18 92 19 94 20 45 21 97 22
REMARK SMILES IDX 91 23 90 24 46 26 78 27 58 28 77 29 59 30 62 31 76 32 95 33
REMARK SMILES IDX 60 34 61 35 75 37 96 38 63 39 47 40 48 41 56 42 49 43 50 44
REMARK SMILES IDX 54 45 57 46 51 47 52 48 55 49 53 50 79 51 80 52 88 53 81 54
REMARK SMILES IDX 82 55 86 56 89 57 83 58 84 59 87 60 85 61 64 62 65 63 73 64
REMARK SMILES IDX 66 65 67 66 71 67 74 68 68 69 69 70 72 71 70 72 8 73 9 74
REMARK SMILES IDX 10 75 11 76 12 77 13 78 14 79 15 80 16 81 28 82 17 83 27 84
REMARK SMILES IDX 18 85 26 86 19 87 20 88 25 89 29 90 30 91 31 92 32 93 33 94
REMARK SMILES IDX 37 95 34 96 36 97 35 98 21 99 22 100 23 101 24 102
REMARK H PARENT 94 25 62 36
REMARK Flexibility Score: inf
ROOT
ATOM      1  C   UNL A   1      40.795  21.580  27.587  1.00  0.00     0.188 C 
ENDROOT
BRANCH   1   2
ATOM      2  O   UNL A   1      41.736  20.507  27.579  1.00  0.00    -0.376 OA
BRANCH   2   3
ATOM      3  C   UNL A   1      41.626  19.446  26.643  1.00  0.00     0.202 C 
BRANCH   3   4
ATOM      4  C   UNL A   1      42.959  18.936  26.098  1.00  0.00     0.261 C 
BRANCH   4   5
ATOM      5  O   UNL A   1      43.392  19.688  24.953  1.00  0.00    -0.460 OA
BRANCH   5   6
ATOM      6  C   UNL A   1      44.446  20.522  24.819  1.00  0.00     0.338 C 
ATOM      7  O   UNL A   1      45.436  20.128  24.204  1.00  0.00    -0.246 OA
BRANCH   6   8
ATOM      8  C   UNL A   1      44.453  21.933  25.289  1.00  0.00     0.060 A 
ATOM      9  C   UNL A   1      45.394  22.513  26.140  1.00  0.00     0.016 A 
ATOM     10  C   UNL A   1      43.389  22.729  24.819  1.00  0.00     0.016 A 
ATOM     11  C   UNL A   1      45.166  23.765  26.681  1.00  0.00     0.010 A 
ATOM     12  C   UNL A   1      43.185  24.008  25.311  1.00  0.00     0.010 A 
ATOM     13  C   UNL A   1      44.032  24.481  26.306  1.00  0.00    -0.014 A 
BRANCH  13  14
ATOM     14  C   UNL A   1      43.792  25.735  26.996  1.00  0.00     0.031 A 
ATOM     15  C   UNL A   1      44.778  26.816  26.749  1.00  0.00     0.074 A 
ATOM     16  C   UNL A   1      42.719  25.909  27.789  1.00  0.00     0.049 A 
ATOM     17  N   UNL A   1      45.506  27.449  27.612  1.00  0.00    -0.248 NA
ATOM     18  C   UNL A   1      45.029  27.196  25.352  1.00  0.00     0.031 C 
ATOM     19  C   UNL A   1      41.546  25.041  27.915  1.00  0.00     0.029 A 
ATOM     20  N   UNL A   1      42.413  26.971  28.585  1.00  0.00    -0.354 N 
ATOM     21  C   UNL A   1      46.189  28.422  26.890  1.00  0.00     0.074 A 
ATOM     22  C   UNL A   1      45.944  28.154  25.497  1.00  0.00     0.031 C 
ATOM     23  C   UNL A   1      40.570  25.712  28.562  1.00  0.00     0.029 A 
ATOM     24  C   UNL A   1      41.092  26.996  28.999  1.00  0.00     0.049 A 
ATOM     25  H   UNL A   1      43.071  27.657  28.843  1.00  0.00     0.167 HD
ATOM     26  C   UNL A   1      46.731  29.511  27.498  1.00  0.00     0.037 A 
ATOM     27  C   UNL A   1      40.454  28.041  29.574  1.00  0.00     0.037 A 
ATOM     28  C   UNL A   1      46.994  29.275  28.891  1.00  0.00     0.049 A 
ATOM     29  C   UNL A   1      41.486  28.939  30.149  1.00  0.00     0.074 A 
ATOM     30  C   UNL A   1      47.774  28.376  29.593  1.00  0.00     0.029 A 
ATOM     31  N   UNL A   1      46.170  29.852  29.823  1.00  0.00    -0.354 N 
ATOM     32  N   UNL A   1      42.231  28.648  31.179  1.00  0.00    -0.248 NA
ATOM     33  C   UNL A   1      41.954  30.054  29.338  1.00  0.00     0.031 C 
ATOM     34  C   UNL A   1      47.059  28.124  30.800  1.00  0.00     0.029 A 
ATOM     35  C   UNL A   1      45.900  28.899  30.767  1.00  0.00     0.049 A 
ATOM     36  H   UNL A   1      45.836  30.778  29.814  1.00  0.00     0.167 HD
ATOM     37  C   UNL A   1      43.449  29.257  30.917  1.00  0.00     0.074 A 
ATOM     38  C   UNL A   1      43.180  30.202  29.841  1.00  0.00     0.031 C 
ATOM     39  C   UNL A   1      44.614  28.741  31.404  1.00  0.00     0.037 A 
BRANCH  26  40
ATOM     40  C   UNL A   1      46.686  30.897  26.904  1.00  0.00     0.064 A 
ATOM     41  C   UNL A   1      47.858  31.679  26.877  1.00  0.00     0.173 A 
ATOM     42  C   UNL A   1      45.483  31.592  26.652  1.00  0.00     0.173 A 
ATOM     43  F   UNL A   1      49.054  31.127  27.131  1.00  0.00    -0.203 F 
ATOM     44  C   UNL A   1      47.815  33.063  26.688  1.00  0.00     0.198 A 
ATOM     45  C   UNL A   1      45.451  32.964  26.410  1.00  0.00     0.198 A 
ATOM     46  F   UNL A   1      44.286  30.999  26.743  1.00  0.00    -0.203 F 
ATOM     47  F   UNL A   1      48.939  33.783  26.800  1.00  0.00    -0.200 F 
ATOM     48  C   UNL A   1      46.612  33.705  26.459  1.00  0.00     0.200 A 
ATOM     49  F   UNL A   1      44.272  33.570  26.210  1.00  0.00    -0.200 F 
ATOM     50  F   UNL A   1      46.562  35.037  26.341  1.00  0.00    -0.200 F 
ENDBRANCH  26  40
BRANCH  27  51
ATOM     51  C   UNL A   1      39.045  28.460  29.378  1.00  0.00     0.064 A 
ATOM     52  C   UNL A   1      38.188  28.629  30.476  1.00  0.00     0.173 A 
ATOM     53  C   UNL A   1      38.584  28.958  28.142  1.00  0.00     0.173 A 
ATOM     54  F   UNL A   1      38.569  28.225  31.697  1.00  0.00    -0.203 F 
ATOM     55  C   UNL A   1      36.959  29.283  30.352  1.00  0.00     0.198 A 
ATOM     56  C   UNL A   1      37.350  29.595  28.017  1.00  0.00     0.198 A 
ATOM     57  F   UNL A   1      39.358  28.928  27.048  1.00  0.00    -0.203 F 
ATOM     58  F   UNL A   1      36.201  29.490  31.438  1.00  0.00    -0.200 F 
ATOM     59  C   UNL A   1      36.545  29.772  29.124  1.00  0.00     0.200 A 
ATOM     60  F   UNL A   1      36.978  30.092  26.829  1.00  0.00    -0.200 F 
ATOM     61  F   UNL A   1      35.394  30.451  29.017  1.00  0.00    -0.200 F 
ENDBRANCH  27  51
BRANCH  39  62
ATOM     62  C   UNL A   1      44.530  27.714  32.494  1.00  0.00     0.064 A 
ATOM     63  C   UNL A   1      44.342  26.342  32.256  1.00  0.00     0.173 A 
ATOM     64  C   UNL A   1      44.819  28.114  33.805  1.00  0.00     0.173 A 
ATOM     65  F   UNL A   1      44.164  25.875  31.013  1.00  0.00    -0.203 F 
ATOM     66  C   UNL A   1      44.407  25.418  33.298  1.00  0.00     0.198 A 
ATOM     67  C   UNL A   1      44.917  27.185  34.837  1.00  0.00     0.198 A 
ATOM     68  F   UNL A   1      45.066  29.406  34.076  1.00  0.00    -0.203 F 
ATOM     69  F   UNL A   1      44.223  24.113  33.050  1.00  0.00    -0.200 F 
ATOM     70  C   UNL A   1      44.702  25.840  34.584  1.00  0.00     0.200 A 
ATOM     71  F   UNL A   1      45.254  27.590  36.069  1.00  0.00    -0.200 F 
ATOM     72  F   UNL A   1      44.815  24.944  35.577  1.00  0.00    -0.200 F 
ENDBRANCH  39  62
ENDBRANCH  13  14
ENDBRANCH   6   8
ENDBRANCH   5   6
ENDBRANCH   4   5
ENDBRANCH   3   4
ENDBRANCH   2   3
ENDBRANCH   1   2
BRANCH   1  73
ATOM     73  C   UNL A   1      39.724  21.768  26.493  1.00  0.00     0.188 C 
BRANCH  73  74
ATOM     74  O   UNL A   1      39.424  23.075  26.020  1.00  0.00    -0.376 OA
BRANCH  74  75
ATOM     75  C   UNL A   1      38.262  23.734  26.499  1.00  0.00     0.202 C 
BRANCH  75  76
ATOM     76  C   UNL A   1      36.958  23.322  25.833  1.00  0.00     0.261 C 
BRANCH  76  77
ATOM     77  O   UNL A   1      36.111  24.464  25.646  1.00  0.00    -0.459 OA
BRANCH  77  78
ATOM     78  C   UNL A   1      34.795  24.276  25.865  1.00  0.00     0.356 C 
ATOM     79  O   UNL A   1      34.300  23.567  26.742  1.00  0.00    -0.244 OA
BRANCH  78  80
ATOM     80  C   UNL A   1      34.027  25.132  25.013  1.00  0.00     0.145 A 
ATOM     81  C   UNL A   1      33.676  26.451  25.259  1.00  0.00     0.048 A 
ATOM     82  N   UNL A   1      33.430  24.778  23.819  1.00  0.00    -0.209 N 
ATOM     83  C   UNL A   1      32.775  26.870  24.246  1.00  0.00     0.040 A 
ATOM     84  C   UNL A   1      32.624  25.795  23.369  1.00  0.00     0.156 A 
ATOM     85  C   UNL A   1      32.024  28.025  23.963  1.00  0.00     0.065 A 
ATOM     86  N   UNL A   1      31.796  25.770  22.308  1.00  0.00    -0.237 NA
ATOM     87  Cl  UNL A   1      32.309  29.355  25.000  1.00  0.00    -0.083 Cl
ATOM     88  C   UNL A   1      31.106  28.028  22.921  1.00  0.00     0.093 A 
ATOM     89  C   UNL A   1      31.045  26.884  22.144  1.00  0.00     0.128 A 
BRANCH  82  90
ATOM     90  S   UNL A   1      33.889  23.425  22.907  1.00  0.00     0.270 S 
ATOM     91  O   UNL A   1      33.006  23.447  21.755  1.00  0.00    -0.201 OA
ATOM     92  O   UNL A   1      35.330  23.539  22.759  1.00  0.00    -0.201 OA
BRANCH  90  93
ATOM     93  C   UNL A   1      33.591  21.950  23.832  1.00  0.00     0.088 A 
ATOM     94  C   UNL A   1      32.284  21.645  24.226  1.00  0.00     0.022 A 
ATOM     95  C   UNL A   1      34.666  21.167  24.264  1.00  0.00     0.022 A 
ATOM     96  C   UNL A   1      32.051  20.524  25.020  1.00  0.00     0.001 A 
ATOM     97  C   UNL A   1      34.422  20.036  25.041  1.00  0.00     0.001 A 
ATOM     98  C   UNL A   1      33.118  19.716  25.417  1.00  0.00     0.000 A 
ENDBRANCH  90  93
ENDBRANCH  82  90
BRANCH  88  99
ATOM     99  C   UNL A   1      30.207  29.185  22.641  1.00  0.00     0.419 C 
ATOM    100  F   UNL A   1      29.924  29.924  23.748  1.00  0.00    -0.166 F 
ATOM    101  F   UNL A   1      30.723  30.045  21.723  1.00  0.00    -0.166 F 
ATOM    102  F   UNL A   1      28.994  28.805  22.145  1.00  0.00    -0.166 F 
ENDBRANCH  88  99
ENDBRANCH  78  80
ENDBRANCH  77  78
ENDBRANCH  76  77
ENDBRANCH  75  76
ENDBRANCH  74  75
ENDBRANCH  73  74
ENDBRANCH   1  73
TORSDOF 20
ENDMDL
MODEL 2
REMARK VINA RESULT:     -12.1      1.078      1.765
REMARK SMILES O=C(OCCOCCOCCOC(=O)c1cc2c(Cl)c(C(F)(F)F)cnc2n1S(=O)(=O)c1ccccc1)c1ccc(-c2c3nc(c(-c4c(F)c(F)c(F)c(F)c4F)c4ccc([nH]4)c(-c4c(F)c(F)c(F)c(F)c4F)c4nc(c(-c5c(F)c(F)c(F)c(F)c5F)c5ccc2[nH]5)C=C4)C=C3)cc1
REMARK SMILES IDX 7 1 6 2 5 3 4 4 3 5 2 6 1 7 38 8 39 9 100 10 40 11 99 12
REMARK SMILES IDX 41 13 42 14 43 15 93 16 44 17 98 18 92 19 94 20 45 21 97 22
REMARK SMILES IDX 91 23 90 24 46 26 78 27 58 28 77 29 59 30 62 31 76 32 95 33
REMARK SMILES IDX 60 34 61 35 75 37 96 38 63 39 47 40 48 41 56 42 49 43 50 44
REMARK SMILES IDX 54 45 57 46 51 47 52 48 55 49 53 50 79 51 80 52 88 53 81 54
REMARK SMILES IDX 82 55 86 56 89 57 83 58 84 59 87 60 85 61 64 62 65 63 73 64
REMARK SMILES IDX 66 65 67 66 71 67 74 68 68 69 69 70 72 71 70 72 8 73 9 74
REMARK SMILES IDX 10 75 11 76 12 77 13 78 14 79 15 80 16 81 28 82 17 83 27 84
REMARK SMILES IDX 18 85 26 86 19 87 20 88 25 89 29 90 30 91 31 92 32 93 33 94
REMARK SMILES IDX 37 95 34 96 36 97 35 98 21 99 22 100 23 101 24 102
REMARK H PARENT 94 25 62 36
REMARK Flexibility Score: inf
ROOT
ATOM      1  C   UNL A   1      40.398  21.845  27.186  1.00  0.00     0.188 C 
ENDROOT
BRANCH   1   2
ATOM      2  O   UNL A   1      41.402  20.832  27.131  1.00  0.00    -0.376 OA
BRANCH   2   3
ATOM      3  C   UNL A   1      41.295  19.747  26.224  1.00  0.00     0.202 C 
BRANCH   3   4
ATOM      4  C   UNL A   1      42.618  19.054  25.901  1.00  0.00     0.261 C 
BRANCH   4   5
ATOM      5  O   UNL A   1      43.333  19.728  24.853  1.00  0.00    -0.460 OA
BRANCH   5   6
ATOM      6  C   UNL A   1      44.449  20.485  24.922  1.00  0.00     0.338 C 
ATOM      7  O   UNL A   1      45.510  20.012  24.511  1.00  0.00    -0.246 OA
BRANCH   6   8
ATOM      8  C   UNL A   1      44.466  21.901  25.377  1.00  0.00     0.060 A 
ATOM      9  C   UNL A   1      45.405  22.480  26.231  1.00  0.00     0.016 A 
ATOM     10  C   UNL A   1      43.416  22.702  24.890  1.00  0.00     0.016 A 
ATOM     11  C   UNL A   1      45.184  23.739  26.759  1.00  0.00     0.010 A 
ATOM     12  C   UNL A   1      43.220  23.988  25.367  1.00  0.00     0.010 A 
ATOM     13  C   UNL A   1      44.061  24.462  26.365  1.00  0.00    -0.014 A 
BRANCH  13  14
ATOM     14  C   UNL A   1      43.827  25.725  27.040  1.00  0.00     0.031 A 
ATOM     15  C   UNL A   1      44.810  26.804  26.769  1.00  0.00     0.074 A 
ATOM     16  C   UNL A   1      42.762  25.910  27.842  1.00  0.00     0.049 A 
ATOM     17  N   UNL A   1      45.546  27.448  27.615  1.00  0.00    -0.248 NA
ATOM     18  C   UNL A   1      45.046  27.164  25.363  1.00  0.00     0.031 C 
ATOM     19  C   UNL A   1      41.592  25.043  27.991  1.00  0.00     0.029 A 
ATOM     20  N   UNL A   1      42.464  26.982  28.626  1.00  0.00    -0.354 N 
ATOM     21  C   UNL A   1      46.222  28.413  26.873  1.00  0.00     0.074 A 
ATOM     22  C   UNL A   1      45.962  28.125  25.486  1.00  0.00     0.031 C 
ATOM     23  C   UNL A   1      40.621  25.722  28.639  1.00  0.00     0.029 A 
ATOM     24  C   UNL A   1      41.147  27.012  29.053  1.00  0.00     0.049 A 
ATOM     25  H   UNL A   1      43.124  27.672  28.868  1.00  0.00     0.167 HD
ATOM     26  C   UNL A   1      46.769  29.510  27.460  1.00  0.00     0.037 A 
ATOM     27  C   UNL A   1      40.514  28.065  29.620  1.00  0.00     0.037 A 
ATOM     28  C   UNL A   1      47.046  29.294  28.853  1.00  0.00     0.049 A 
ATOM     29  C   UNL A   1      41.551  28.971  30.173  1.00  0.00     0.074 A 
ATOM     30  C   UNL A   1      47.834  28.405  29.560  1.00  0.00     0.029 A 
ATOM     31  N   UNL A   1      46.231  29.883  29.786  1.00  0.00    -0.354 N 
ATOM     32  N   UNL A   1      42.307  28.695  31.199  1.00  0.00    -0.248 NA
ATOM     33  C   UNL A   1      42.010  30.075  29.341  1.00  0.00     0.031 C 
ATOM     34  C   UNL A   1      47.132  28.168  30.777  1.00  0.00     0.029 A 
ATOM     35  C   UNL A   1      45.972  28.943  30.746  1.00  0.00     0.049 A 
ATOM     36  H   UNL A   1      45.897  30.808  29.768  1.00  0.00     0.167 HD
ATOM     37  C   UNL A   1      43.522  29.301  30.916  1.00  0.00     0.074 A 
ATOM     38  C   UNL A   1      43.241  30.231  29.829  1.00  0.00     0.031 C 
ATOM     39  C   UNL A   1      44.692  28.792  31.398  1.00  0.00     0.037 A 
BRANCH  26  40
ATOM     40  C   UNL A   1      46.716  30.888  26.848  1.00  0.00     0.064 A 
ATOM     41  C   UNL A   1      47.877  31.686  26.836  1.00  0.00     0.173 A 
ATOM     42  C   UNL A   1      45.509  31.562  26.562  1.00  0.00     0.173 A 
ATOM     43  F   UNL A   1      49.076  31.155  27.122  1.00  0.00    -0.203 F 
ATOM     44  C   UNL A   1      47.819  33.067  26.628  1.00  0.00     0.198 A 
ATOM     45  C   UNL A   1      45.463  32.930  26.302  1.00  0.00     0.198 A 
ATOM     46  F   UNL A   1      44.319  30.953  26.636  1.00  0.00    -0.203 F 
ATOM     47  F   UNL A   1      48.930  33.805  26.754  1.00  0.00    -0.200 F 
ATOM     48  C   UNL A   1      46.612  33.689  26.366  1.00  0.00     0.200 A 
ATOM     49  F   UNL A   1      44.280  33.517  26.070  1.00  0.00    -0.200 F 
ATOM     50  F   UNL A   1      46.545  35.018  26.230  1.00  0.00    -0.200 F 
ENDBRANCH  26  40
BRANCH  27  51
ATOM     51  C   UNL A   1      39.103  28.479  29.432  1.00  0.00     0.064 A 
ATOM     52  C   UNL A   1      38.258  28.666  30.537  1.00  0.00     0.173 A 
ATOM     53  C   UNL A   1      38.628  28.958  28.194  1.00  0.00     0.173 A 
ATOM     54  F   UNL A   1      38.652  28.283  31.761  1.00  0.00    -0.203 F 
ATOM     55  C   UNL A   1      37.027  29.318  30.416  1.00  0.00     0.198 A 
ATOM     56  C   UNL A   1      37.393  29.592  28.072  1.00  0.00     0.198 A 
ATOM     57  F   UNL A   1      39.390  28.910  27.093  1.00  0.00    -0.203 F 
ATOM     58  F   UNL A   1      36.281  29.543  31.507  1.00  0.00    -0.200 F 
ATOM     59  C   UNL A   1      36.600  29.787  29.185  1.00  0.00     0.200 A 
ATOM     60  F   UNL A   1      37.007  30.069  26.880  1.00  0.00    -0.200 F 
ATOM     61  F   UNL A   1      35.448  30.464  29.080  1.00  0.00    -0.200 F 
ENDBRANCH  27  51
BRANCH  39  62
ATOM     62  C   UNL A   1      44.620  27.780  32.502  1.00  0.00     0.064 A 
ATOM     63  C   UNL A   1      44.520  28.119  33.862  1.00  0.00     0.173 A 
ATOM     64  C   UNL A   1      44.476  26.430  32.157  1.00  0.00     0.173 A 
ATOM     65  F   UNL A   1      44.546  29.399  34.258  1.00  0.00    -0.203 F 
ATOM     66  C   UNL A   1      44.321  27.139  34.833  1.00  0.00     0.198 A 
ATOM     67  C   UNL A   1      44.242  25.458  33.124  1.00  0.00     0.198 A 
ATOM     68  F   UNL A   1      44.503  26.060  30.866  1.00  0.00    -0.203 F 
ATOM     69  F   UNL A   1      44.230  27.484  36.126  1.00  0.00    -0.200 F 
ATOM     70  C   UNL A   1      44.174  25.812  34.462  1.00  0.00     0.200 A 
ATOM     71  F   UNL A   1      44.049  24.184  32.758  1.00  0.00    -0.200 F 
ATOM     72  F   UNL A   1      43.931  24.877  35.392  1.00  0.00    -0.200 F 
ENDBRANCH  39  62
ENDBRANCH  13  14
ENDBRANCH   6   8
ENDBRANCH   5   6
ENDBRANCH   4   5
ENDBRANCH   3   4
ENDBRANCH   2   3
ENDBRANCH   1   2
BRANCH   1  73
ATOM     73  C   UNL A   1      39.357  22.058  26.068  1.00  0.00     0.188 C 
BRANCH  73  74
ATOM     74  O   UNL A   1      38.207  21.224  26.010  1.00  0.00    -0.376 OA
BRANCH  74  75
ATOM     75  C   UNL A   1      37.573  21.006  24.759  1.00  0.00     0.202 C 
BRANCH  75  76
ATOM     76  C   UNL A   1      36.943  22.237  24.125  1.00  0.00     0.261 C 
BRANCH  76  77
ATOM     77  O   UNL A   1      35.568  22.352  24.518  1.00  0.00    -0.459 OA
BRANCH  77  78
ATOM     78  C   UNL A   1      35.282  23.311  25.419  1.00  0.00     0.356 C 
ATOM     79  O   UNL A   1      35.951  23.596  26.414  1.00  0.00    -0.244 OA
BRANCH  78  80
ATOM     80  C   UNL A   1      34.143  24.065  24.990  1.00  0.00     0.145 A 
ATOM     81  C   UNL A   1      34.145  25.159  24.138  1.00  0.00     0.048 A 
ATOM     82  N   UNL A   1      32.838  23.887  25.406  1.00  0.00    -0.209 N 
ATOM     83  C   UNL A   1      32.836  25.708  24.113  1.00  0.00     0.040 A 
ATOM     84  C   UNL A   1      32.044  24.903  24.932  1.00  0.00     0.156 A 
ATOM     85  C   UNL A   1      32.207  26.819  23.523  1.00  0.00     0.065 A 
ATOM     86  N   UNL A   1      30.750  25.130  25.225  1.00  0.00    -0.237 NA
ATOM     87  Cl  UNL A   1      33.181  27.726  22.448  1.00  0.00    -0.083 Cl
ATOM     88  C   UNL A   1      30.894  27.136  23.845  1.00  0.00     0.093 A 
ATOM     89  C   UNL A   1      30.234  26.260  24.690  1.00  0.00     0.128 A 
BRANCH  82  90
ATOM     90  S   UNL A   1      32.268  22.457  26.116  1.00  0.00     0.270 S 
ATOM     91  O   UNL A   1      33.208  22.184  27.188  1.00  0.00    -0.201 OA
ATOM     92  O   UNL A   1      30.861  22.702  26.385  1.00  0.00    -0.201 OA
BRANCH  90  93
ATOM     93  C   UNL A   1      32.336  21.139  24.943  1.00  0.00     0.088 A 
ATOM     94  C   UNL A   1      32.760  19.873  25.362  1.00  0.00     0.022 A 
ATOM     95  C   UNL A   1      32.086  21.392  23.590  1.00  0.00     0.022 A 
ATOM     96  C   UNL A   1      32.889  18.847  24.429  1.00  0.00     0.001 A 
ATOM     97  C   UNL A   1      32.198  20.355  22.666  1.00  0.00     0.001 A 
ATOM     98  C   UNL A   1      32.598  19.086  23.085  1.00  0.00     0.000 A 
ENDBRANCH  90  93
ENDBRANCH  82  90
BRANCH  88  99
ATOM     99  C   UNL A   1      30.211  28.360  23.336  1.00  0.00     0.419 C 
ATOM    100  F   UNL A   1      30.620  29.500  23.957  1.00  0.00    -0.166 F 
ATOM    101  F   UNL A   1      30.401  28.556  22.004  1.00  0.00    -0.166 F 
ATOM    102  F   UNL A   1      28.859  28.324  23.511  1.00  0.00    -0.166 F 
ENDBRANCH  88  99
ENDBRANCH  78  80
ENDBRANCH  77  78
ENDBRANCH  76  77
ENDBRANCH  75  76
ENDBRANCH  74  75
ENDBRANCH  73  74
ENDBRANCH   1  73
TORSDOF 20
ENDMDL
MODEL 3
REMARK VINA RESULT:     -11.9      4.392      9.605
REMARK SMILES O=C(OCCOCCOCCOC(=O)c1cc2c(Cl)c(C(F)(F)F)cnc2n1S(=O)(=O)c1ccccc1)c1ccc(-c2c3nc(c(-c4c(F)c(F)c(F)c(F)c4F)c4ccc([nH]4)c(-c4c(F)c(F)c(F)c(F)c4F)c4nc(c(-c5c(F)c(F)c(F)c(F)c5F)c5ccc2[nH]5)C=C4)C=C3)cc1
REMARK SMILES IDX 7 1 6 2 5 3 4 4 3 5 2 6 1 7 38 8 39 9 100 10 40 11 99 12
REMARK SMILES IDX 41 13 42 14 43 15 93 16 44 17 98 18 92 19 94 20 45 21 97 22
REMARK SMILES IDX 91 23 90 24 46 26 78 27 58 28 77 29 59 30 62 31 76 32 95 33
REMARK SMILES IDX 60 34 61 35 75 37 96 38 63 39 47 40 48 41 56 42 49 43 50 44
REMARK SMILES IDX 54 45 57 46 51 47 52 48 55 49 53 50 79 51 80 52 88 53 81 54
REMARK SMILES IDX 82 55 86 56 89 57 83 58 84 59 87 60 85 61 64 62 65 63 73 64
REMARK SMILES IDX 66 65 67 66 71 67 74 68 68 69 69 70 72 71 70 72 8 73 9 74
REMARK SMILES IDX 10 75 11 76 12 77 13 78 14 79 15 80 16 81 28 82 17 83 27 84
REMARK SMILES IDX 18 85 26 86 19 87 20 88 25 89 29 90 30 91 31 92 32 93 33 94
REMARK SMILES IDX 37 95 34 96 36 97 35 98 21 99 22 100 23 101 24 102
REMARK H PARENT 94 25 62 36
REMARK Flexibility Score: inf
ROOT
ATOM      1  C   UNL A   1      34.880  33.251  28.099  1.00  0.00     0.188 C 
ENDROOT
BRANCH   1   2
ATOM      2  O   UNL A   1      34.267  34.487  27.734  1.00  0.00    -0.376 OA
BRANCH   2   3
ATOM      3  C   UNL A   1      34.360  35.625  28.575  1.00  0.00     0.202 C 
BRANCH   3   4
ATOM      4  C   UNL A   1      33.078  35.962  29.335  1.00  0.00     0.261 C 
BRANCH   4   5
ATOM      5  O   UNL A   1      32.810  35.012  30.379  1.00  0.00    -0.460 OA
BRANCH   5   6
ATOM      6  C   UNL A   1      33.403  34.867  31.584  1.00  0.00     0.338 C 
ATOM      7  O   UNL A   1      32.829  35.307  32.581  1.00  0.00    -0.246 OA
BRANCH   6   8
ATOM      8  C   UNL A   1      34.671  34.121  31.802  1.00  0.00     0.060 A 
ATOM      9  C   UNL A   1      35.927  34.682  32.033  1.00  0.00     0.016 A 
ATOM     10  C   UNL A   1      34.559  32.718  31.753  1.00  0.00     0.016 A 
ATOM     11  C   UNL A   1      37.061  33.892  31.994  1.00  0.00     0.010 A 
ATOM     12  C   UNL A   1      35.686  31.912  31.773  1.00  0.00     0.010 A 
ATOM     13  C   UNL A   1      36.935  32.517  31.807  1.00  0.00    -0.014 A 
BRANCH  13  14
ATOM     14  C   UNL A   1      38.166  31.763  31.660  1.00  0.00     0.031 A 
ATOM     15  C   UNL A   1      38.962  31.562  32.896  1.00  0.00     0.074 A 
ATOM     16  C   UNL A   1      38.543  31.252  30.473  1.00  0.00     0.049 A 
ATOM     17  N   UNL A   1      40.188  31.907  33.126  1.00  0.00    -0.248 NA
ATOM     18  C   UNL A   1      38.280  30.953  34.048  1.00  0.00     0.031 C 
ATOM     19  C   UNL A   1      37.746  31.145  29.250  1.00  0.00     0.029 A 
ATOM     20  N   UNL A   1      39.707  30.625  30.149  1.00  0.00    -0.354 N 
ATOM     21  C   UNL A   1      40.490  31.414  34.391  1.00  0.00     0.074 A 
ATOM     22  C   UNL A   1      39.256  30.933  34.955  1.00  0.00     0.031 C 
ATOM     23  C   UNL A   1      38.364  30.304  28.394  1.00  0.00     0.029 A 
ATOM     24  C   UNL A   1      39.648  29.920  28.958  1.00  0.00     0.049 A 
ATOM     25  H   UNL A   1      40.516  30.669  30.708  1.00  0.00     0.167 HD
ATOM     26  C   UNL A   1      41.775  31.238  34.799  1.00  0.00     0.037 A 
ATOM     27  C   UNL A   1      40.551  29.012  28.520  1.00  0.00     0.037 A 
ATOM     28  C   UNL A   1      42.690  32.073  34.071  1.00  0.00     0.049 A 
ATOM     29  C   UNL A   1      41.828  29.266  29.234  1.00  0.00     0.074 A 
ATOM     30  C   UNL A   1      42.832  33.437  33.897  1.00  0.00     0.029 A 
ATOM     31  N   UNL A   1      43.495  31.498  33.122  1.00  0.00    -0.354 N 
ATOM     32  N   UNL A   1      42.584  30.312  29.051  1.00  0.00    -0.248 NA
ATOM     33  C   UNL A   1      42.097  28.507  30.447  1.00  0.00     0.031 C 
ATOM     34  C   UNL A   1      43.330  33.596  32.572  1.00  0.00     0.029 A 
ATOM     35  C   UNL A   1      43.480  32.320  32.028  1.00  0.00     0.049 A 
ATOM     36  H   UNL A   1      43.990  30.652  33.211  1.00  0.00     0.167 HD
ATOM     37  C   UNL A   1      43.130  30.575  30.299  1.00  0.00     0.074 A 
ATOM     38  C   UNL A   1      42.894  29.368  31.081  1.00  0.00     0.031 C 
ATOM     39  C   UNL A   1      43.472  31.844  30.665  1.00  0.00     0.037 A 
BRANCH  26  40
ATOM     40  C   UNL A   1      42.230  30.049  35.608  1.00  0.00     0.064 A 
ATOM     41  C   UNL A   1      43.151  30.235  36.657  1.00  0.00     0.173 A 
ATOM     42  C   UNL A   1      42.039  28.713  35.193  1.00  0.00     0.173 A 
ATOM     43  F   UNL A   1      43.431  31.466  37.112  1.00  0.00    -0.203 F 
ATOM     44  C   UNL A   1      43.879  29.170  37.195  1.00  0.00     0.198 A 
ATOM     45  C   UNL A   1      42.728  27.647  35.769  1.00  0.00     0.198 A 
ATOM     46  F   UNL A   1      41.272  28.396  34.143  1.00  0.00    -0.203 F 
ATOM     47  F   UNL A   1      44.837  29.411  38.100  1.00  0.00    -0.200 F 
ATOM     48  C   UNL A   1      43.671  27.878  36.748  1.00  0.00     0.200 A 
ATOM     49  F   UNL A   1      42.526  26.405  35.307  1.00  0.00    -0.200 F 
ATOM     50  F   UNL A   1      44.412  26.867  37.216  1.00  0.00    -0.200 F 
ENDBRANCH  26  40
BRANCH  27  51
ATOM     51  C   UNL A   1      40.285  27.762  27.770  1.00  0.00     0.064 A 
ATOM     52  C   UNL A   1      40.998  27.463  26.599  1.00  0.00     0.173 A 
ATOM     53  C   UNL A   1      39.522  26.712  28.322  1.00  0.00     0.173 A 
ATOM     54  F   UNL A   1      41.786  28.390  26.033  1.00  0.00    -0.203 F 
ATOM     55  C   UNL A   1      40.974  26.185  26.032  1.00  0.00     0.198 A 
ATOM     56  C   UNL A   1      39.485  25.443  27.746  1.00  0.00     0.198 A 
ATOM     57  F   UNL A   1      38.873  26.863  29.485  1.00  0.00    -0.203 F 
ATOM     58  F   UNL A   1      41.727  25.918  24.956  1.00  0.00    -0.200 F 
ATOM     59  C   UNL A   1      40.224  25.175  26.611  1.00  0.00     0.200 A 
ATOM     60  F   UNL A   1      38.781  24.467  28.336  1.00  0.00    -0.200 F 
ATOM     61  F   UNL A   1      40.249  23.935  26.102  1.00  0.00    -0.200 F 
ENDBRANCH  27  51
BRANCH  39  62
ATOM     62  C   UNL A   1      43.565  32.887  29.592  1.00  0.00     0.064 A 
ATOM     63  C   UNL A   1      42.522  33.775  29.278  1.00  0.00     0.173 A 
ATOM     64  C   UNL A   1      44.808  33.103  28.983  1.00  0.00     0.173 A 
ATOM     65  F   UNL A   1      41.336  33.693  29.897  1.00  0.00    -0.203 F 
ATOM     66  C   UNL A   1      42.712  34.811  28.365  1.00  0.00     0.198 A 
ATOM     67  C   UNL A   1      45.005  34.159  28.099  1.00  0.00     0.198 A 
ATOM     68  F   UNL A   1      45.854  32.321  29.294  1.00  0.00    -0.203 F 
ATOM     69  F   UNL A   1      41.703  35.646  28.078  1.00  0.00    -0.200 F 
ATOM     70  C   UNL A   1      43.954  35.006  27.784  1.00  0.00     0.200 A 
ATOM     71  F   UNL A   1      46.220  34.377  27.579  1.00  0.00    -0.200 F 
ATOM     72  F   UNL A   1      44.150  36.034  26.945  1.00  0.00    -0.200 F 
ENDBRANCH  39  62
ENDBRANCH  13  14
ENDBRANCH   6   8
ENDBRANCH   5   6
ENDBRANCH   4   5
ENDBRANCH   3   4
ENDBRANCH   2   3
ENDBRANCH   1   2
BRANCH   1  73
ATOM     73  C   UNL A   1      34.248  31.877  27.793  1.00  0.00     0.188 C 
BRANCH  73  74
ATOM     74  O   UNL A   1      32.886  31.803  27.391  1.00  0.00    -0.376 OA
BRANCH  74  75
ATOM     75  C   UNL A   1      32.397  30.596  26.826  1.00  0.00     0.202 C 
BRANCH  75  76
ATOM     76  C   UNL A   1      33.445  29.524  26.572  1.00  0.00     0.261 C 
BRANCH  76  77
ATOM     77  O   UNL A   1      32.902  28.480  25.750  1.00  0.00    -0.459 OA
BRANCH  77  78
ATOM     78  C   UNL A   1      33.692  28.027  24.758  1.00  0.00     0.356 C 
ATOM     79  O   UNL A   1      34.466  28.705  24.079  1.00  0.00    -0.244 OA
BRANCH  78  80
ATOM     80  C   UNL A   1      33.618  26.600  24.683  1.00  0.00     0.145 A 
ATOM     81  C   UNL A   1      33.819  25.701  25.719  1.00  0.00     0.048 A 
ATOM     82  N   UNL A   1      33.404  25.850  23.542  1.00  0.00    -0.209 N 
ATOM     83  C   UNL A   1      33.820  24.388  25.179  1.00  0.00     0.040 A 
ATOM     84  C   UNL A   1      33.578  24.514  23.810  1.00  0.00     0.156 A 
ATOM     85  C   UNL A   1      34.031  23.086  25.665  1.00  0.00     0.065 A 
ATOM     86  N   UNL A   1      33.569  23.498  22.928  1.00  0.00    -0.237 NA
ATOM     87  Cl  UNL A   1      34.225  22.960  27.360  1.00  0.00    -0.083 Cl
ATOM     88  C   UNL A   1      34.098  22.011  24.788  1.00  0.00     0.093 A 
ATOM     89  C   UNL A   1      33.860  22.285  23.452  1.00  0.00     0.128 A 
BRANCH  82  90
ATOM     90  S   UNL A   1      32.716  26.476  22.125  1.00  0.00     0.270 S 
ATOM     91  O   UNL A   1      33.743  27.342  21.575  1.00  0.00    -0.201 OA
ATOM     92  O   UNL A   1      32.231  25.317  21.395  1.00  0.00    -0.201 OA
BRANCH  90  93
ATOM     93  C   UNL A   1      31.298  27.449  22.528  1.00  0.00     0.088 A 
ATOM     94  C   UNL A   1      30.219  26.845  23.183  1.00  0.00     0.022 A 
ATOM     95  C   UNL A   1      31.211  28.774  22.087  1.00  0.00     0.022 A 
ATOM     96  C   UNL A   1      29.067  27.587  23.437  1.00  0.00     0.001 A 
ATOM     97  C   UNL A   1      30.063  29.514  22.362  1.00  0.00     0.001 A 
ATOM     98  C   UNL A   1      28.995  28.922  23.036  1.00  0.00     0.000 A 
ENDBRANCH  90  93
ENDBRANCH  82  90
BRANCH  88  99
ATOM     99  C   UNL A   1      34.425  20.626  25.233  1.00  0.00     0.419 C 
ATOM    100  F   UNL A   1      35.677  20.511  25.753  1.00  0.00    -0.166 F 
ATOM    101  F   UNL A   1      33.568  20.158  26.179  1.00  0.00    -0.166 F 
ATOM    102  F   UNL A   1      34.377  19.717  24.215  1.00  0.00    -0.166 F 
ENDBRANCH  88  99
ENDBRANCH  78  80
ENDBRANCH  77  78
ENDBRANCH  76  77
ENDBRANCH  75  76
ENDBRANCH  74  75
ENDBRANCH  73  74
ENDBRANCH   1  73
TORSDOF 20
ENDMDL
