MODEL 1
REMARK VINA RESULT:     -11.6      0.000      0.000
REMARK SMILES Cc1cccc(-c2cc(C(=O)OCCOCCOCCOC(=O)c3ccc(-c4c5nc(c(-c6c(F)c(F)c(F)c(F)c6F)c6ccc([nH]6)c(-c6c(F)c(F)c(F)c(F)c6F)c6nc(c(-c7c(F)c(F)c(F)c(F)c7F)c7ccc4[nH]7)C=C6)C=C5)cc3)ccn2)c1
REMARK SMILES IDX 17 1 16 2 15 3 14 4 13 5 12 6 10 7 11 8 9 9 7 10 8 11 89 12
REMARK SMILES IDX 88 13 87 14 6 15 1 16 2 17 3 18 90 19 4 20 5 21 18 22 19 23
REMARK SMILES IDX 20 24 21 25 22 26 23 27 24 28 25 29 86 30 26 31 85 32 27 33
REMARK SMILES IDX 28 34 29 35 79 36 30 37 84 38 78 39 80 40 31 41 83 42 77 43
REMARK SMILES IDX 76 44 32 46 64 47 44 48 63 49 45 50 48 51 62 52 81 53 46 54
REMARK SMILES IDX 47 55 61 57 82 58 49 59 33 60 34 61 42 62 35 63 36 64 40 65
REMARK SMILES IDX 43 66 37 67 38 68 41 69 39 70 65 71 66 72 74 73 67 74 68 75
REMARK SMILES IDX 72 76 75 77 69 78 70 79 73 80 71 81 50 82 51 83 59 84 52 85
REMARK SMILES IDX 53 86 57 87 60 88 54 89 55 90 58 91 56 92
REMARK H PARENT 80 45 48 56
REMARK Flexibility Score: inf
ROOT
ATOM      1  C   UNL A   1      45.516  22.707  24.986  1.00  0.00     0.188 C 
ENDROOT
BRANCH   1   2
ATOM      2  C   UNL A   1      44.869  21.472  24.348  1.00  0.00     0.188 C 
BRANCH   2   3
ATOM      3  O   UNL A   1      43.719  20.855  24.946  1.00  0.00    -0.376 OA
BRANCH   3   4
ATOM      4  C   UNL A   1      43.771  19.493  25.367  1.00  0.00     0.202 C 
BRANCH   4   5
ATOM      5  C   UNL A   1      42.406  18.957  25.937  1.00  0.00     0.261 C 
BRANCH   5   6
ATOM      6  O   UNL A   1      41.167  19.709  25.596  1.00  0.00    -0.460 OA
BRANCH   6   7
ATOM      7  C   UNL A   1      40.598  20.471  26.600  1.00  0.00     0.338 C 
ATOM      8  O   UNL A   1      40.773  20.223  27.786  1.00  0.00    -0.246 OA
BRANCH   7   9
ATOM      9  C   UNL A   1      39.732  21.695  26.177  1.00  0.00     0.063 A 
ATOM     10  C   UNL A   1      37.539  22.439  25.646  1.00  0.00     0.071 A 
ATOM     11  C   UNL A   1      38.534  21.443  25.569  1.00  0.00     0.044 A 
ATOM     12  N   UNL A   1      37.677  23.713  26.105  1.00  0.00    -0.256 NA
ATOM     13  C   UNL A   1      38.787  23.962  26.742  1.00  0.00     0.112 A 
ATOM     14  C   UNL A   1      39.745  22.971  26.813  1.00  0.00     0.036 A 
BRANCH  10  15
ATOM     15  C   UNL A   1      36.146  22.074  25.680  1.00  0.00     0.000 A 
ATOM     16  C   UNL A   1      34.026  19.178  24.470  1.00  0.00     0.044 C 
ATOM     17  C   UNL A   1      34.440  20.431  25.173  1.00  0.00    -0.050 A 
ATOM     18  C   UNL A   1      33.534  21.204  25.909  1.00  0.00     0.003 A 
ATOM     19  C   UNL A   1      35.749  20.876  25.063  1.00  0.00     0.013 A 
ATOM     20  C   UNL A   1      33.948  22.359  26.581  1.00  0.00     0.001 A 
ATOM     21  C   UNL A   1      35.261  22.786  26.481  1.00  0.00     0.010 A 
ENDBRANCH  10  15
ENDBRANCH   7   9
ENDBRANCH   6   7
ENDBRANCH   5   6
ENDBRANCH   4   5
ENDBRANCH   3   4
ENDBRANCH   2   3
ENDBRANCH   1   2
BRANCH   1  22
ATOM     22  O   UNL A   1      45.014  23.881  24.372  1.00  0.00    -0.376 OA
BRANCH  22  23
ATOM     23  C   UNL A   1      43.972  24.563  25.052  1.00  0.00     0.202 C 
BRANCH  23  24
ATOM     24  C   UNL A   1      44.375  25.982  25.488  1.00  0.00     0.261 C 
BRANCH  24  25
ATOM     25  O   UNL A   1      43.252  26.624  26.146  1.00  0.00    -0.460 OA
BRANCH  25  26
ATOM     26  C   UNL A   1      42.648  27.646  25.477  1.00  0.00     0.338 C 
ATOM     27  O   UNL A   1      42.677  27.794  24.253  1.00  0.00    -0.246 OA
BRANCH  26  28
ATOM     28  C   UNL A   1      42.148  28.693  26.428  1.00  0.00     0.060 A 
ATOM     29  C   UNL A   1      42.916  29.373  27.385  1.00  0.00     0.016 A 
ATOM     30  C   UNL A   1      40.790  28.776  26.583  1.00  0.00     0.016 A 
ATOM     31  C   UNL A   1      42.294  30.086  28.478  1.00  0.00     0.010 A 
ATOM     32  C   UNL A   1      40.281  29.183  27.818  1.00  0.00     0.010 A 
ATOM     33  C   UNL A   1      40.930  29.974  28.750  1.00  0.00    -0.014 A 
BRANCH  33  34
ATOM     34  C   UNL A   1      40.067  30.481  29.918  1.00  0.00     0.031 A 
ATOM     35  C   UNL A   1      39.273  31.846  30.216  1.00  0.00     0.074 A 
ATOM     36  C   UNL A   1      39.860  29.460  30.777  1.00  0.00     0.049 A 
ATOM     37  N   UNL A   1      38.782  32.127  31.404  1.00  0.00    -0.248 NA
ATOM     38  C   UNL A   1      38.995  33.038  29.375  1.00  0.00     0.031 C 
ATOM     39  C   UNL A   1      38.926  29.358  31.882  1.00  0.00     0.029 A 
ATOM     40  N   UNL A   1      40.731  28.367  30.965  1.00  0.00    -0.354 N 
ATOM     41  C   UNL A   1      37.941  33.240  31.306  1.00  0.00     0.074 A 
ATOM     42  C   UNL A   1      38.288  33.885  30.114  1.00  0.00     0.031 C 
ATOM     43  C   UNL A   1      39.483  28.568  32.814  1.00  0.00     0.029 A 
ATOM     44  C   UNL A   1      40.825  28.237  32.358  1.00  0.00     0.049 A 
ATOM     45  H   UNL A   1      41.171  27.820  30.274  1.00  0.00     0.167 HD
ATOM     46  C   UNL A   1      36.890  33.436  32.145  1.00  0.00     0.037 A 
ATOM     47  C   UNL A   1      42.003  28.505  32.993  1.00  0.00     0.037 A 
ATOM     48  C   UNL A   1      37.165  32.732  33.369  1.00  0.00     0.049 A 
ATOM     49  C   UNL A   1      41.875  29.588  34.041  1.00  0.00     0.074 A 
ATOM     50  C   UNL A   1      36.738  31.547  33.926  1.00  0.00     0.029 A 
ATOM     51  N   UNL A   1      38.317  33.105  34.034  1.00  0.00    -0.354 N 
ATOM     52  N   UNL A   1      40.804  30.316  34.197  1.00  0.00    -0.248 NA
ATOM     53  C   UNL A   1      42.926  29.958  34.984  1.00  0.00     0.031 C 
ATOM     54  C   UNL A   1      37.778  31.111  34.803  1.00  0.00     0.029 A 
ATOM     55  C   UNL A   1      38.779  32.070  34.814  1.00  0.00     0.049 A 
ATOM     56  H   UNL A   1      38.747  33.986  33.960  1.00  0.00     0.167 HD
ATOM     57  C   UNL A   1      41.012  31.258  35.162  1.00  0.00     0.074 A 
ATOM     58  C   UNL A   1      42.345  30.972  35.653  1.00  0.00     0.031 C 
ATOM     59  C   UNL A   1      40.089  32.225  35.433  1.00  0.00     0.037 A 
BRANCH  46  60
ATOM     60  C   UNL A   1      35.566  34.127  31.812  1.00  0.00     0.064 A 
ATOM     61  C   UNL A   1      34.921  33.822  30.591  1.00  0.00     0.173 A 
ATOM     62  C   UNL A   1      34.962  35.194  32.525  1.00  0.00     0.173 A 
ATOM     63  F   UNL A   1      35.358  32.823  29.811  1.00  0.00    -0.203 F 
ATOM     64  C   UNL A   1      33.823  34.547  30.105  1.00  0.00     0.198 A 
ATOM     65  C   UNL A   1      33.833  35.885  32.060  1.00  0.00     0.198 A 
ATOM     66  F   UNL A   1      35.444  35.661  33.680  1.00  0.00    -0.203 F 
ATOM     67  F   UNL A   1      33.309  34.251  28.903  1.00  0.00    -0.200 F 
ATOM     68  C   UNL A   1      33.277  35.579  30.839  1.00  0.00     0.200 A 
ATOM     69  F   UNL A   1      33.308  36.877  32.799  1.00  0.00    -0.200 F 
ATOM     70  F   UNL A   1      32.235  36.280  30.371  1.00  0.00    -0.200 F 
ENDBRANCH  46  60
BRANCH  47  71
ATOM     71  C   UNL A   1      43.210  28.129  32.188  1.00  0.00     0.064 A 
ATOM     72  C   UNL A   1      43.913  29.175  31.546  1.00  0.00     0.173 A 
ATOM     73  C   UNL A   1      43.876  26.903  32.291  1.00  0.00     0.173 A 
ATOM     74  F   UNL A   1      43.333  30.378  31.403  1.00  0.00    -0.203 F 
ATOM     75  C   UNL A   1      45.245  29.046  31.152  1.00  0.00     0.198 A 
ATOM     76  C   UNL A   1      45.207  26.764  31.859  1.00  0.00     0.198 A 
ATOM     77  F   UNL A   1      43.307  25.870  32.928  1.00  0.00    -0.203 F 
ATOM     78  F   UNL A   1      45.908  30.110  30.675  1.00  0.00    -0.200 F 
ATOM     79  C   UNL A   1      45.900  27.843  31.330  1.00  0.00     0.200 A 
ATOM     80  F   UNL A   1      45.865  25.616  32.084  1.00  0.00    -0.200 F 
ATOM     81  F   UNL A   1      47.208  27.741  31.051  1.00  0.00    -0.200 F 
ENDBRANCH  47  71
BRANCH  59  82
ATOM     82  C   UNL A   1      40.343  33.489  36.219  1.00  0.00     0.064 A 
ATOM     83  C   UNL A   1      40.989  34.616  35.685  1.00  0.00     0.173 A 
ATOM     84  C   UNL A   1      39.680  33.684  37.456  1.00  0.00     0.173 A 
ATOM     85  F   UNL A   1      41.574  34.577  34.481  1.00  0.00    -0.203 F 
ATOM     86  C   UNL A   1      40.979  35.847  36.347  1.00  0.00     0.198 A 
ATOM     87  C   UNL A   1      39.608  34.932  38.073  1.00  0.00     0.198 A 
ATOM     88  F   UNL A   1      39.024  32.680  38.057  1.00  0.00    -0.203 F 
ATOM     89  F   UNL A   1      41.621  36.892  35.808  1.00  0.00    -0.200 F 
ATOM     90  C   UNL A   1      40.267  36.011  37.521  1.00  0.00     0.200 A 
ATOM     91  F   UNL A   1      38.859  35.089  39.172  1.00  0.00    -0.200 F 
ATOM     92  F   UNL A   1      40.192  37.214  38.105  1.00  0.00    -0.200 F 
ENDBRANCH  59  82
ENDBRANCH  33  34
ENDBRANCH  26  28
ENDBRANCH  25  26
ENDBRANCH  24  25
ENDBRANCH  23  24
ENDBRANCH  22  23
ENDBRANCH   1  22
TORSDOF 18
ENDMDL
MODEL 2
REMARK VINA RESULT:     -11.6      1.969      3.123
REMARK SMILES Cc1cccc(-c2cc(C(=O)OCCOCCOCCOC(=O)c3ccc(-c4c5nc(c(-c6c(F)c(F)c(F)c(F)c6F)c6ccc([nH]6)c(-c6c(F)c(F)c(F)c(F)c6F)c6nc(c(-c7c(F)c(F)c(F)c(F)c7F)c7ccc4[nH]7)C=C6)C=C5)cc3)ccn2)c1
REMARK SMILES IDX 17 1 16 2 15 3 14 4 13 5 12 6 10 7 11 8 9 9 7 10 8 11 89 12
REMARK SMILES IDX 88 13 87 14 6 15 1 16 2 17 3 18 90 19 4 20 5 21 18 22 19 23
REMARK SMILES IDX 20 24 21 25 22 26 23 27 24 28 25 29 86 30 26 31 85 32 27 33
REMARK SMILES IDX 28 34 29 35 79 36 30 37 84 38 78 39 80 40 31 41 83 42 77 43
REMARK SMILES IDX 76 44 32 46 64 47 44 48 63 49 45 50 48 51 62 52 81 53 46 54
REMARK SMILES IDX 47 55 61 57 82 58 49 59 33 60 34 61 42 62 35 63 36 64 40 65
REMARK SMILES IDX 43 66 37 67 38 68 41 69 39 70 65 71 66 72 74 73 67 74 68 75
REMARK SMILES IDX 72 76 75 77 69 78 70 79 73 80 71 81 50 82 51 83 59 84 52 85
REMARK SMILES IDX 53 86 57 87 60 88 54 89 55 90 58 91 56 92
REMARK H PARENT 80 45 48 56
REMARK Flexibility Score: inf
ROOT
ATOM      1  C   UNL A   1      46.662  25.386  28.295  1.00  0.00     0.188 C 
ENDROOT
BRANCH   1   2
ATOM      2  C   UNL A   1      45.913  24.118  27.866  1.00  0.00     0.188 C 
BRANCH   2   3
ATOM      3  O   UNL A   1      46.365  23.344  26.746  1.00  0.00    -0.376 OA
BRANCH   3   4
ATOM      4  C   UNL A   1      45.576  23.266  25.560  1.00  0.00     0.202 C 
BRANCH   4   5
ATOM      5  C   UNL A   1      45.707  21.893  24.803  1.00  0.00     0.261 C 
BRANCH   5   6
ATOM      6  O   UNL A   1      44.453  21.166  24.462  1.00  0.00    -0.460 OA
BRANCH   6   7
ATOM      7  C   UNL A   1      44.146  20.051  25.221  1.00  0.00     0.338 C 
ATOM      8  O   UNL A   1      44.848  19.049  25.222  1.00  0.00    -0.246 OA
BRANCH   7   9
ATOM      9  C   UNL A   1      42.871  20.114  26.116  1.00  0.00     0.063 A 
ATOM     10  C   UNL A   1      41.446  21.537  27.377  1.00  0.00     0.071 A 
ATOM     11  C   UNL A   1      42.746  21.179  26.964  1.00  0.00     0.044 A 
ATOM     12  N   UNL A   1      40.293  20.842  27.176  1.00  0.00    -0.256 NA
ATOM     13  C   UNL A   1      40.373  19.858  26.323  1.00  0.00     0.112 A 
ATOM     14  C   UNL A   1      41.605  19.550  25.783  1.00  0.00     0.036 A 
BRANCH  10  15
ATOM     15  C   UNL A   1      41.125  22.913  27.655  1.00  0.00     0.000 A 
ATOM     16  C   UNL A   1      42.895  25.907  29.154  1.00  0.00     0.044 C 
ATOM     17  C   UNL A   1      41.870  25.075  28.452  1.00  0.00    -0.050 A 
ATOM     18  C   UNL A   1      40.657  25.613  28.004  1.00  0.00     0.003 A 
ATOM     19  C   UNL A   1      42.096  23.719  28.273  1.00  0.00     0.013 A 
ATOM     20  C   UNL A   1      39.723  24.822  27.326  1.00  0.00     0.001 A 
ATOM     21  C   UNL A   1      39.965  23.473  27.135  1.00  0.00     0.010 A 
ENDBRANCH  10  15
ENDBRANCH   7   9
ENDBRANCH   6   7
ENDBRANCH   5   6
ENDBRANCH   4   5
ENDBRANCH   3   4
ENDBRANCH   2   3
ENDBRANCH   1   2
BRANCH   1  22
ATOM     22  O   UNL A   1      46.069  26.520  27.689  1.00  0.00    -0.376 OA
BRANCH  22  23
ATOM     23  C   UNL A   1      46.437  26.794  26.346  1.00  0.00     0.202 C 
BRANCH  23  24
ATOM     24  C   UNL A   1      45.225  27.082  25.443  1.00  0.00     0.261 C 
BRANCH  24  25
ATOM     25  O   UNL A   1      44.013  27.067  26.241  1.00  0.00    -0.460 OA
BRANCH  25  26
ATOM     26  C   UNL A   1      42.916  27.674  25.705  1.00  0.00     0.338 C 
ATOM     27  O   UNL A   1      42.523  27.512  24.548  1.00  0.00    -0.246 OA
BRANCH  26  28
ATOM     28  C   UNL A   1      42.386  28.738  26.621  1.00  0.00     0.060 A 
ATOM     29  C   UNL A   1      43.085  29.336  27.681  1.00  0.00     0.016 A 
ATOM     30  C   UNL A   1      41.031  28.926  26.618  1.00  0.00     0.016 A 
ATOM     31  C   UNL A   1      42.393  30.074  28.713  1.00  0.00     0.010 A 
ATOM     32  C   UNL A   1      40.411  29.348  27.796  1.00  0.00     0.010 A 
ATOM     33  C   UNL A   1      41.002  30.066  28.820  1.00  0.00    -0.014 A 
BRANCH  33  34
ATOM     34  C   UNL A   1      40.047  30.617  29.892  1.00  0.00     0.031 A 
ATOM     35  C   UNL A   1      39.207  31.976  30.053  1.00  0.00     0.074 A 
ATOM     36  C   UNL A   1      39.800  29.642  30.793  1.00  0.00     0.049 A 
ATOM     37  N   UNL A   1      38.625  32.313  31.186  1.00  0.00    -0.248 NA
ATOM     38  C   UNL A   1      38.965  33.112  29.127  1.00  0.00     0.031 C 
ATOM     39  C   UNL A   1      38.792  29.579  31.834  1.00  0.00     0.029 A 
ATOM     40  N   UNL A   1      40.678  28.583  31.105  1.00  0.00    -0.354 N 
ATOM     41  C   UNL A   1      37.771  33.397  30.964  1.00  0.00     0.074 A 
ATOM     42  C   UNL A   1      38.189  33.982  29.763  1.00  0.00     0.031 C 
ATOM     43  C   UNL A   1      39.297  28.857  32.847  1.00  0.00     0.029 A 
ATOM     44  C   UNL A   1      40.674  28.535  32.507  1.00  0.00     0.049 A 
ATOM     45  H   UNL A   1      41.178  28.009  30.481  1.00  0.00     0.167 HD
ATOM     46  C   UNL A   1      36.659  33.615  31.714  1.00  0.00     0.037 A 
ATOM     47  C   UNL A   1      41.798  28.868  33.206  1.00  0.00     0.037 A 
ATOM     48  C   UNL A   1      36.860  32.988  32.993  1.00  0.00     0.049 A 
ATOM     49  C   UNL A   1      41.573  30.004  34.178  1.00  0.00     0.074 A 
ATOM     50  C   UNL A   1      36.419  31.827  33.587  1.00  0.00     0.029 A 
ATOM     51  N   UNL A   1      37.954  33.426  33.715  1.00  0.00    -0.354 N 
ATOM     52  N   UNL A   1      40.479  30.714  34.215  1.00  0.00    -0.248 NA
ATOM     53  C   UNL A   1      42.545  30.453  35.169  1.00  0.00     0.031 C 
ATOM     54  C   UNL A   1      37.401  31.467  34.559  1.00  0.00     0.029 A 
ATOM     55  C   UNL A   1      38.379  32.450  34.585  1.00  0.00     0.049 A 
ATOM     56  H   UNL A   1      38.369  34.313  33.620  1.00  0.00     0.167 HD
ATOM     57  C   UNL A   1      40.598  31.713  35.136  1.00  0.00     0.074 A 
ATOM     58  C   UNL A   1      41.897  31.489  35.735  1.00  0.00     0.031 C 
ATOM     59  C   UNL A   1      39.638  32.672  35.285  1.00  0.00     0.037 A 
BRANCH  46  60
ATOM     60  C   UNL A   1      35.348  34.252  31.249  1.00  0.00     0.064 A 
ATOM     61  C   UNL A   1      34.756  33.803  30.045  1.00  0.00     0.173 A 
ATOM     62  C   UNL A   1      34.712  35.390  31.807  1.00  0.00     0.173 A 
ATOM     63  F   UNL A   1      35.228  32.724  29.405  1.00  0.00    -0.203 F 
ATOM     64  C   UNL A   1      33.677  34.460  29.434  1.00  0.00     0.198 A 
ATOM     65  C   UNL A   1      33.601  36.015  31.220  1.00  0.00     0.198 A 
ATOM     66  F   UNL A   1      35.144  35.992  32.919  1.00  0.00    -0.203 F 
ATOM     67  F   UNL A   1      33.214  34.023  28.254  1.00  0.00    -0.200 F 
ATOM     68  C   UNL A   1      33.099  35.565  30.020  1.00  0.00     0.200 A 
ATOM     69  F   UNL A   1      33.044  37.081  31.816  1.00  0.00    -0.200 F 
ATOM     70  F   UNL A   1      32.075  36.200  29.432  1.00  0.00    -0.200 F 
ENDBRANCH  46  60
BRANCH  47  71
ATOM     71  C   UNL A   1      43.067  28.476  32.512  1.00  0.00     0.064 A 
ATOM     72  C   UNL A   1      43.815  29.508  31.897  1.00  0.00     0.173 A 
ATOM     73  C   UNL A   1      43.728  27.258  32.704  1.00  0.00     0.173 A 
ATOM     74  F   UNL A   1      43.242  30.702  31.671  1.00  0.00    -0.203 F 
ATOM     75  C   UNL A   1      45.174  29.376  31.614  1.00  0.00     0.198 A 
ATOM     76  C   UNL A   1      45.091  27.116  32.385  1.00  0.00     0.198 A 
ATOM     77  F   UNL A   1      43.115  26.241  33.325  1.00  0.00    -0.203 F 
ATOM     78  F   UNL A   1      45.868  30.430  31.159  1.00  0.00    -0.200 F 
ATOM     79  C   UNL A   1      45.819  28.184  31.879  1.00  0.00     0.200 A 
ATOM     80  F   UNL A   1      45.734  25.980  32.695  1.00  0.00    -0.200 F 
ATOM     81  F   UNL A   1      47.145  28.083  31.709  1.00  0.00    -0.200 F 
ENDBRANCH  47  71
BRANCH  59  82
ATOM     82  C   UNL A   1      39.809  33.984  36.011  1.00  0.00     0.064 A 
ATOM     83  C   UNL A   1      39.314  34.226  37.302  1.00  0.00     0.173 A 
ATOM     84  C   UNL A   1      40.731  34.939  35.512  1.00  0.00     0.173 A 
ATOM     85  F   UNL A   1      38.506  33.349  37.912  1.00  0.00    -0.203 F 
ATOM     86  C   UNL A   1      39.707  35.346  38.039  1.00  0.00     0.198 A 
ATOM     87  C   UNL A   1      41.177  36.012  36.280  1.00  0.00     0.198 A 
ATOM     88  F   UNL A   1      41.274  34.808  34.292  1.00  0.00    -0.203 F 
ATOM     89  F   UNL A   1      39.198  35.545  39.262  1.00  0.00    -0.200 F 
ATOM     90  C   UNL A   1      40.657  36.220  37.541  1.00  0.00     0.200 A 
ATOM     91  F   UNL A   1      42.146  36.810  35.811  1.00  0.00    -0.200 F 
ATOM     92  F   UNL A   1      41.091  37.245  38.287  1.00  0.00    -0.200 F 
ENDBRANCH  59  82
ENDBRANCH  33  34
ENDBRANCH  26  28
ENDBRANCH  25  26
ENDBRANCH  24  25
ENDBRANCH  23  24
ENDBRANCH  22  23
ENDBRANCH   1  22
TORSDOF 18
ENDMDL
MODEL 3
REMARK VINA RESULT:     -11.6      5.036     10.349
REMARK SMILES Cc1cccc(-c2cc(C(=O)OCCOCCOCCOC(=O)c3ccc(-c4c5nc(c(-c6c(F)c(F)c(F)c(F)c6F)c6ccc([nH]6)c(-c6c(F)c(F)c(F)c(F)c6F)c6nc(c(-c7c(F)c(F)c(F)c(F)c7F)c7ccc4[nH]7)C=C6)C=C5)cc3)ccn2)c1
REMARK SMILES IDX 17 1 16 2 15 3 14 4 13 5 12 6 10 7 11 8 9 9 7 10 8 11 89 12
REMARK SMILES IDX 88 13 87 14 6 15 1 16 2 17 3 18 90 19 4 20 5 21 18 22 19 23
REMARK SMILES IDX 20 24 21 25 22 26 23 27 24 28 25 29 86 30 26 31 85 32 27 33
REMARK SMILES IDX 28 34 29 35 79 36 30 37 84 38 78 39 80 40 31 41 83 42 77 43
REMARK SMILES IDX 76 44 32 46 64 47 44 48 63 49 45 50 48 51 62 52 81 53 46 54
REMARK SMILES IDX 47 55 61 57 82 58 49 59 33 60 34 61 42 62 35 63 36 64 40 65
REMARK SMILES IDX 43 66 37 67 38 68 41 69 39 70 65 71 66 72 74 73 67 74 68 75
REMARK SMILES IDX 72 76 75 77 69 78 70 79 73 80 71 81 50 82 51 83 59 84 52 85
REMARK SMILES IDX 53 86 57 87 60 88 54 89 55 90 58 91 56 92
REMARK H PARENT 80 45 48 56
REMARK Flexibility Score: inf
ROOT
ATOM      1  C   UNL A   1      33.410  34.385  28.734  1.00  0.00     0.188 C 
ENDROOT
BRANCH   1   2
ATOM      2  C   UNL A   1      34.339  33.304  29.300  1.00  0.00     0.188 C 
BRANCH   2   3
ATOM      3  O   UNL A   1      35.205  32.556  28.435  1.00  0.00    -0.376 OA
BRANCH   3   4
ATOM      4  C   UNL A   1      35.504  31.191  28.722  1.00  0.00     0.202 C 
BRANCH   4   5
ATOM      5  C   UNL A   1      35.732  30.311  27.437  1.00  0.00     0.261 C 
BRANCH   5   6
ATOM      6  O   UNL A   1      34.867  29.114  27.252  1.00  0.00    -0.460 OA
BRANCH   6   7
ATOM      7  C   UNL A   1      33.558  29.337  26.865  1.00  0.00     0.338 C 
ATOM      8  O   UNL A   1      32.797  30.040  27.517  1.00  0.00    -0.246 OA
BRANCH   7   9
ATOM      9  C   UNL A   1      33.074  28.681  25.537  1.00  0.00     0.063 A 
ATOM     10  C   UNL A   1      31.244  28.434  24.042  1.00  0.00     0.071 A 
ATOM     11  C   UNL A   1      31.727  28.525  25.364  1.00  0.00     0.044 A 
ATOM     12  N   UNL A   1      31.976  28.305  22.901  1.00  0.00    -0.256 NA
ATOM     13  C   UNL A   1      33.257  28.510  23.030  1.00  0.00     0.112 A 
ATOM     14  C   UNL A   1      33.766  28.738  24.293  1.00  0.00     0.036 A 
BRANCH  10  15
ATOM     15  C   UNL A   1      29.937  28.938  23.709  1.00  0.00     0.000 A 
ATOM     16  C   UNL A   1      28.346  32.333  23.171  1.00  0.00     0.044 C 
ATOM     17  C   UNL A   1      28.540  30.850  23.202  1.00  0.00    -0.050 A 
ATOM     18  C   UNL A   1      27.517  29.959  22.853  1.00  0.00     0.003 A 
ATOM     19  C   UNL A   1      29.751  30.328  23.631  1.00  0.00     0.013 A 
ATOM     20  C   UNL A   1      27.728  28.576  22.864  1.00  0.00     0.001 A 
ATOM     21  C   UNL A   1      28.946  28.064  23.276  1.00  0.00     0.010 A 
ENDBRANCH  10  15
ENDBRANCH   7   9
ENDBRANCH   6   7
ENDBRANCH   5   6
ENDBRANCH   4   5
ENDBRANCH   3   4
ENDBRANCH   2   3
ENDBRANCH   1   2
BRANCH   1  22
ATOM     22  O   UNL A   1      32.603  34.913  29.771  1.00  0.00    -0.376 OA
BRANCH  22  23
ATOM     23  C   UNL A   1      33.225  35.823  30.666  1.00  0.00     0.202 C 
BRANCH  23  24
ATOM     24  C   UNL A   1      32.736  35.661  32.115  1.00  0.00     0.261 C 
BRANCH  24  25
ATOM     25  O   UNL A   1      33.837  35.219  32.951  1.00  0.00    -0.460 OA
BRANCH  25  26
ATOM     26  C   UNL A   1      34.100  33.881  32.965  1.00  0.00     0.338 C 
ATOM     27  O   UNL A   1      33.270  33.008  33.223  1.00  0.00    -0.246 OA
BRANCH  26  28
ATOM     28  C   UNL A   1      35.574  33.621  32.859  1.00  0.00     0.060 A 
ATOM     29  C   UNL A   1      36.469  34.278  32.001  1.00  0.00     0.016 A 
ATOM     30  C   UNL A   1      36.029  32.457  33.417  1.00  0.00     0.016 A 
ATOM     31  C   UNL A   1      37.773  33.728  31.712  1.00  0.00     0.010 A 
ATOM     32  C   UNL A   1      37.136  31.828  32.845  1.00  0.00     0.010 A 
ATOM     33  C   UNL A   1      38.134  32.438  32.106  1.00  0.00    -0.014 A 
BRANCH  33  34
ATOM     34  C   UNL A   1      39.366  31.572  31.794  1.00  0.00     0.031 A 
ATOM     35  C   UNL A   1      39.586  30.159  31.063  1.00  0.00     0.074 A 
ATOM     36  C   UNL A   1      40.477  32.273  32.105  1.00  0.00     0.049 A 
ATOM     37  N   UNL A   1      40.731  29.512  31.117  1.00  0.00    -0.248 NA
ATOM     38  C   UNL A   1      38.661  29.275  30.309  1.00  0.00     0.031 C 
ATOM     39  C   UNL A   1      41.863  32.004  31.772  1.00  0.00     0.029 A 
ATOM     40  N   UNL A   1      40.553  33.281  33.088  1.00  0.00    -0.354 N 
ATOM     41  C   UNL A   1      40.711  28.458  30.198  1.00  0.00     0.074 A 
ATOM     42  C   UNL A   1      39.363  28.220  29.908  1.00  0.00     0.031 C 
ATOM     43  C   UNL A   1      42.622  32.486  32.768  1.00  0.00     0.029 A 
ATOM     44  C   UNL A   1      41.723  32.980  33.800  1.00  0.00     0.049 A 
ATOM     45  H   UNL A   1      39.928  34.027  33.238  1.00  0.00     0.167 HD
ATOM     46  C   UNL A   1      41.840  27.982  29.609  1.00  0.00     0.037 A 
ATOM     47  C   UNL A   1      41.647  32.565  35.098  1.00  0.00     0.037 A 
ATOM     48  C   UNL A   1      42.950  28.285  30.473  1.00  0.00     0.049 A 
ATOM     49  C   UNL A   1      42.279  31.210  35.322  1.00  0.00     0.074 A 
ATOM     50  C   UNL A   1      43.953  29.228  30.474  1.00  0.00     0.029 A 
ATOM     51  N   UNL A   1      42.881  27.760  31.750  1.00  0.00    -0.354 N 
ATOM     52  N   UNL A   1      42.688  30.438  34.354  1.00  0.00    -0.248 NA
ATOM     53  C   UNL A   1      42.492  30.600  36.631  1.00  0.00     0.031 C 
ATOM     54  C   UNL A   1      44.346  29.405  31.835  1.00  0.00     0.029 A 
ATOM     55  C   UNL A   1      43.626  28.519  32.623  1.00  0.00     0.049 A 
ATOM     56  H   UNL A   1      42.371  26.957  31.999  1.00  0.00     0.167 HD
ATOM     57  C   UNL A   1      43.139  29.252  34.857  1.00  0.00     0.074 A 
ATOM     58  C   UNL A   1      43.030  29.412  36.292  1.00  0.00     0.031 C 
ATOM     59  C   UNL A   1      43.509  28.220  34.044  1.00  0.00     0.037 A 
BRANCH  46  60
ATOM     60  C   UNL A   1      41.963  27.388  28.204  1.00  0.00     0.064 A 
ATOM     61  C   UNL A   1      42.313  26.026  28.063  1.00  0.00     0.173 A 
ATOM     62  C   UNL A   1      41.927  28.098  26.976  1.00  0.00     0.173 A 
ATOM     63  F   UNL A   1      42.369  25.214  29.128  1.00  0.00    -0.203 F 
ATOM     64  C   UNL A   1      42.649  25.447  26.829  1.00  0.00     0.198 A 
ATOM     65  C   UNL A   1      42.215  27.505  25.738  1.00  0.00     0.198 A 
ATOM     66  F   UNL A   1      41.658  29.405  26.900  1.00  0.00    -0.203 F 
ATOM     67  F   UNL A   1      43.045  24.168  26.780  1.00  0.00    -0.200 F 
ATOM     68  C   UNL A   1      42.600  26.186  25.666  1.00  0.00     0.200 A 
ATOM     69  F   UNL A   1      42.147  28.239  24.616  1.00  0.00    -0.200 F 
ATOM     70  F   UNL A   1      42.932  25.638  24.489  1.00  0.00    -0.200 F 
ENDBRANCH  46  60
BRANCH  47  71
ATOM     71  C   UNL A   1      40.528  33.207  35.861  1.00  0.00     0.064 A 
ATOM     72  C   UNL A   1      39.366  32.431  36.082  1.00  0.00     0.173 A 
ATOM     73  C   UNL A   1      40.665  34.359  36.643  1.00  0.00     0.173 A 
ATOM     74  F   UNL A   1      39.163  31.315  35.362  1.00  0.00    -0.203 F 
ATOM     75  C   UNL A   1      38.465  32.713  37.109  1.00  0.00     0.198 A 
ATOM     76  C   UNL A   1      39.735  34.662  37.654  1.00  0.00     0.198 A 
ATOM     77  F   UNL A   1      41.758  35.127  36.538  1.00  0.00    -0.203 F 
ATOM     78  F   UNL A   1      37.455  31.869  37.364  1.00  0.00    -0.200 F 
ATOM     79  C   UNL A   1      38.663  33.820  37.911  1.00  0.00     0.200 A 
ATOM     80  F   UNL A   1      39.956  35.703  38.473  1.00  0.00    -0.200 F 
ATOM     81  F   UNL A   1      37.862  34.041  38.964  1.00  0.00    -0.200 F 
ENDBRANCH  47  71
BRANCH  59  82
ATOM     82  C   UNL A   1      43.694  26.784  34.472  1.00  0.00     0.064 A 
ATOM     83  C   UNL A   1      44.948  26.209  34.730  1.00  0.00     0.173 A 
ATOM     84  C   UNL A   1      42.569  26.036  34.901  1.00  0.00     0.173 A 
ATOM     85  F   UNL A   1      46.084  26.860  34.450  1.00  0.00    -0.203 F 
ATOM     86  C   UNL A   1      45.067  24.970  35.366  1.00  0.00     0.198 A 
ATOM     87  C   UNL A   1      42.696  24.839  35.602  1.00  0.00     0.198 A 
ATOM     88  F   UNL A   1      41.321  26.492  34.712  1.00  0.00    -0.203 F 
ATOM     89  F   UNL A   1      46.284  24.450  35.580  1.00  0.00    -0.200 F 
ATOM     90  C   UNL A   1      43.946  24.302  35.826  1.00  0.00     0.200 A 
ATOM     91  F   UNL A   1      41.606  24.240  36.099  1.00  0.00    -0.200 F 
ATOM     92  F   UNL A   1      44.073  23.156  36.508  1.00  0.00    -0.200 F 
ENDBRANCH  59  82
ENDBRANCH  33  34
ENDBRANCH  26  28
ENDBRANCH  25  26
ENDBRANCH  24  25
ENDBRANCH  23  24
ENDBRANCH  22  23
ENDBRANCH   1  22
TORSDOF 18
ENDMDL
