MODEL 1
REMARK VINA RESULT:     -12.4      0.000      0.000
REMARK SMILES Cc1ccc(C(=O)Nc2cccc(F)c2C(=O)OCCOCCOCCOC(=O)c2ccc(-c3c4nc(c(-c5c(F)c(F)c(F)c(F)c5F)c5ccc([nH]5)c(-c5c(F)c(F)c(F)c(F)c5F)c5nc(c(-c6c(F)c(F)c(F)c(F)c6F)c6ccc3[nH]6)C=C5)C=C4)cc2)c(F)c1
REMARK SMILES IDX 22 1 21 2 20 3 19 4 18 5 16 6 17 7 15 8 9 9 10 10 11 11
REMARK SMILES IDX 13 12 12 13 14 14 8 15 6 16 7 17 5 19 1 20 2 21 3 22 95 23
REMARK SMILES IDX 4 24 93 25 94 26 23 27 24 28 25 29 26 30 27 31 28 32 29 33
REMARK SMILES IDX 30 34 31 35 92 36 32 37 91 38 33 39 34 40 35 41 85 42 36 43
REMARK SMILES IDX 90 44 84 45 86 46 37 47 89 48 83 49 82 50 38 52 70 53 50 54
REMARK SMILES IDX 69 55 51 56 54 57 68 58 87 59 52 60 53 61 67 63 88 64 55 65
REMARK SMILES IDX 39 66 40 67 48 68 41 69 42 70 46 71 49 72 43 73 44 74 47 75
REMARK SMILES IDX 45 76 71 77 72 78 80 79 73 80 74 81 78 82 81 83 75 84 76 85
REMARK SMILES IDX 79 86 77 87 56 88 57 89 65 90 58 91 59 92 63 93 66 94 60 95
REMARK SMILES IDX 61 96 64 97 62 98
REMARK H PARENT 8 18 86 51 54 62
REMARK Flexibility Score: inf
ROOT
ATOM      1  C   UNL A   1      40.060  20.302  26.138  1.00  0.00     0.188 C 
ENDROOT
BRANCH   1   2
ATOM      2  O   UNL A   1      39.183  19.535  25.332  1.00  0.00    -0.376 OA
BRANCH   2   3
ATOM      3  C   UNL A   1      37.943  20.135  24.972  1.00  0.00     0.202 C 
BRANCH   3   4
ATOM      4  C   UNL A   1      37.830  21.675  24.978  1.00  0.00     0.261 C 
BRANCH   4   5
ATOM      5  O   UNL A   1      36.780  22.215  24.145  1.00  0.00    -0.460 OA
BRANCH   5   6
ATOM      6  C   UNL A   1      35.878  23.026  24.756  1.00  0.00     0.343 C 
ATOM      7  O   UNL A   1      36.068  24.180  25.120  1.00  0.00    -0.246 OA
BRANCH   6   8
ATOM      8  C   UNL A   1      34.522  22.443  24.656  1.00  0.00     0.119 A 
ATOM      9  C   UNL A   1      33.602  22.912  23.690  1.00  0.00     0.059 A 
ATOM     10  C   UNL A   1      32.322  22.336  23.615  1.00  0.00     0.027 A 
ATOM     11  C   UNL A   1      31.944  21.343  24.520  1.00  0.00     0.005 A 
ATOM     12  C   UNL A   1      34.124  21.459  25.557  1.00  0.00     0.139 A 
ATOM     13  C   UNL A   1      32.843  20.913  25.497  1.00  0.00     0.040 A 
ATOM     14  F   UNL A   1      34.957  21.032  26.516  1.00  0.00    -0.206 F 
BRANCH   9  15
ATOM     15  N   UNL A   1      33.955  23.939  22.791  1.00  0.00    -0.321 N 
ATOM     16  C   UNL A   1      33.537  25.253  22.725  1.00  0.00     0.258 C 
ATOM     17  O   UNL A   1      33.702  25.856  21.666  1.00  0.00    -0.269 OA
ATOM     18  H   UNL A   1      34.605  23.677  22.099  1.00  0.00     0.170 HD
BRANCH  16  19
ATOM     19  C   UNL A   1      33.055  25.970  23.943  1.00  0.00     0.075 A 
ATOM     20  C   UNL A   1      31.599  27.989  27.477  1.00  0.00     0.044 C 
ATOM     21  C   UNL A   1      32.094  27.299  26.244  1.00  0.00    -0.048 A 
ATOM     22  C   UNL A   1      33.451  27.327  25.931  1.00  0.00     0.004 A 
ATOM     23  C   UNL A   1      31.209  26.681  25.356  1.00  0.00     0.043 A 
ATOM     24  C   UNL A   1      33.913  26.709  24.771  1.00  0.00     0.017 A 
ATOM     25  C   UNL A   1      31.689  26.009  24.228  1.00  0.00     0.136 A 
ATOM     26  F   UNL A   1      30.787  25.420  23.430  1.00  0.00    -0.206 F 
ENDBRANCH  16  19
ENDBRANCH   9  15
ENDBRANCH   6   8
ENDBRANCH   5   6
ENDBRANCH   4   5
ENDBRANCH   3   4
ENDBRANCH   2   3
ENDBRANCH   1   2
BRANCH   1  27
ATOM     27  C   UNL A   1      41.553  19.913  26.262  1.00  0.00     0.188 C 
BRANCH  27  28
ATOM     28  O   UNL A   1      42.422  20.821  25.610  1.00  0.00    -0.376 OA
BRANCH  28  29
ATOM     29  C   UNL A   1      42.288  22.199  25.926  1.00  0.00     0.202 C 
BRANCH  29  30
ATOM     30  C   UNL A   1      42.369  22.639  27.395  1.00  0.00     0.261 C 
BRANCH  30  31
ATOM     31  O   UNL A   1      41.261  23.404  27.846  1.00  0.00    -0.460 OA
BRANCH  31  32
ATOM     32  C   UNL A   1      41.480  24.729  27.810  1.00  0.00     0.338 C 
ATOM     33  O   UNL A   1      42.503  25.316  28.126  1.00  0.00    -0.246 OA
BRANCH  32  34
ATOM     34  C   UNL A   1      40.256  25.406  27.311  1.00  0.00     0.060 A 
ATOM     35  C   UNL A   1      40.585  26.454  26.427  1.00  0.00     0.016 A 
ATOM     36  C   UNL A   1      39.383  25.580  28.374  1.00  0.00     0.016 A 
ATOM     37  C   UNL A   1      40.582  27.720  26.945  1.00  0.00     0.010 A 
ATOM     38  C   UNL A   1      39.412  26.826  28.923  1.00  0.00     0.010 A 
ATOM     39  C   UNL A   1      40.122  27.833  28.248  1.00  0.00    -0.014 A 
BRANCH  39  40
ATOM     40  C   UNL A   1      40.363  29.006  29.031  1.00  0.00     0.031 A 
ATOM     41  C   UNL A   1      39.279  29.976  29.054  1.00  0.00     0.074 A 
ATOM     42  C   UNL A   1      41.495  29.028  29.762  1.00  0.00     0.049 A 
ATOM     43  N   UNL A   1      39.420  31.213  29.341  1.00  0.00    -0.248 NA
ATOM     44  C   UNL A   1      37.918  29.616  28.652  1.00  0.00     0.031 C 
ATOM     45  C   UNL A   1      41.824  29.886  30.886  1.00  0.00     0.029 A 
ATOM     46  N   UNL A   1      42.680  28.335  29.484  1.00  0.00    -0.354 N 
ATOM     47  C   UNL A   1      38.152  31.714  29.520  1.00  0.00     0.074 A 
ATOM     48  C   UNL A   1      37.258  30.732  28.957  1.00  0.00     0.031 C 
ATOM     49  C   UNL A   1      43.157  29.870  31.064  1.00  0.00     0.029 A 
ATOM     50  C   UNL A   1      43.740  29.123  29.956  1.00  0.00     0.049 A 
ATOM     51  H   UNL A   1      42.755  27.458  29.041  1.00  0.00     0.167 HD
ATOM     52  C   UNL A   1      38.009  32.805  30.319  1.00  0.00     0.037 A 
ATOM     53  C   UNL A   1      44.613  29.664  29.056  1.00  0.00     0.037 A 
ATOM     54  C   UNL A   1      39.324  33.289  30.740  1.00  0.00     0.049 A 
ATOM     55  C   UNL A   1      44.457  31.167  28.956  1.00  0.00     0.074 A 
ATOM     56  C   UNL A   1      40.090  33.014  31.863  1.00  0.00     0.029 A 
ATOM     57  N   UNL A   1      40.212  33.762  29.772  1.00  0.00    -0.354 N 
ATOM     58  N   UNL A   1      43.346  31.816  29.194  1.00  0.00    -0.248 NA
ATOM     59  C   UNL A   1      45.574  32.054  28.650  1.00  0.00     0.031 C 
ATOM     60  C   UNL A   1      41.451  33.249  31.538  1.00  0.00     0.029 A 
ATOM     61  C   UNL A   1      41.518  33.681  30.223  1.00  0.00     0.049 A 
ATOM     62  H   UNL A   1      39.946  34.108  28.889  1.00  0.00     0.167 HD
ATOM     63  C   UNL A   1      43.587  33.165  29.129  1.00  0.00     0.074 A 
ATOM     64  C   UNL A   1      44.994  33.259  28.782  1.00  0.00     0.031 C 
ATOM     65  C   UNL A   1      42.637  34.114  29.399  1.00  0.00     0.037 A 
BRANCH  52  66
ATOM     66  C   UNL A   1      36.697  33.119  30.987  1.00  0.00     0.064 A 
ATOM     67  C   UNL A   1      35.694  33.834  30.303  1.00  0.00     0.173 A 
ATOM     68  C   UNL A   1      36.399  32.806  32.328  1.00  0.00     0.173 A 
ATOM     69  F   UNL A   1      35.814  34.140  29.006  1.00  0.00    -0.203 F 
ATOM     70  C   UNL A   1      34.529  34.278  30.933  1.00  0.00     0.198 A 
ATOM     71  C   UNL A   1      35.259  33.297  32.974  1.00  0.00     0.198 A 
ATOM     72  F   UNL A   1      37.187  31.988  33.039  1.00  0.00    -0.203 F 
ATOM     73  F   UNL A   1      33.612  34.957  30.229  1.00  0.00    -0.200 F 
ATOM     74  C   UNL A   1      34.326  34.037  32.276  1.00  0.00     0.200 A 
ATOM     75  F   UNL A   1      35.073  33.049  34.279  1.00  0.00    -0.200 F 
ATOM     76  F   UNL A   1      33.226  34.495  32.888  1.00  0.00    -0.200 F 
ENDBRANCH  52  66
BRANCH  53  77
ATOM     77  C   UNL A   1      44.974  28.736  27.946  1.00  0.00     0.064 A 
ATOM     78  C   UNL A   1      45.906  27.712  28.219  1.00  0.00     0.173 A 
ATOM     79  C   UNL A   1      44.219  28.611  26.773  1.00  0.00     0.173 A 
ATOM     80  F   UNL A   1      46.665  27.779  29.327  1.00  0.00    -0.203 F 
ATOM     81  C   UNL A   1      46.015  26.580  27.412  1.00  0.00     0.198 A 
ATOM     82  C   UNL A   1      44.332  27.475  25.961  1.00  0.00     0.198 A 
ATOM     83  F   UNL A   1      43.317  29.546  26.443  1.00  0.00    -0.203 F 
ATOM     84  F   UNL A   1      46.848  25.586  27.757  1.00  0.00    -0.200 F 
ATOM     85  C   UNL A   1      45.214  26.454  26.291  1.00  0.00     0.200 A 
ATOM     86  F   UNL A   1      43.545  27.338  24.883  1.00  0.00    -0.200 F 
ATOM     87  F   UNL A   1      45.261  25.335  25.551  1.00  0.00    -0.200 F 
ENDBRANCH  53  77
BRANCH  65  88
ATOM     88  C   UNL A   1      42.753  35.580  29.051  1.00  0.00     0.064 A 
ATOM     89  C   UNL A   1      42.072  36.183  27.980  1.00  0.00     0.173 A 
ATOM     90  C   UNL A   1      43.470  36.474  29.887  1.00  0.00     0.173 A 
ATOM     91  F   UNL A   1      41.221  35.491  27.212  1.00  0.00    -0.203 F 
ATOM     92  C   UNL A   1      42.199  37.544  27.693  1.00  0.00     0.198 A 
ATOM     93  C   UNL A   1      43.529  37.844  29.645  1.00  0.00     0.198 A 
ATOM     94  F   UNL A   1      44.115  36.054  30.985  1.00  0.00    -0.203 F 
ATOM     95  F   UNL A   1      41.593  38.049  26.611  1.00  0.00    -0.200 F 
ATOM     96  C   UNL A   1      42.920  38.374  28.528  1.00  0.00     0.200 A 
ATOM     97  F   UNL A   1      44.165  38.645  30.510  1.00  0.00    -0.200 F 
ATOM     98  F   UNL A   1      43.009  39.685  28.270  1.00  0.00    -0.200 F 
ENDBRANCH  65  88
ENDBRANCH  39  40
ENDBRANCH  32  34
ENDBRANCH  31  32
ENDBRANCH  30  31
ENDBRANCH  29  30
ENDBRANCH  28  29
ENDBRANCH  27  28
ENDBRANCH   1  27
TORSDOF 19
ENDMDL
MODEL 2
REMARK VINA RESULT:     -12.3      1.279      2.089
REMARK SMILES Cc1ccc(C(=O)Nc2cccc(F)c2C(=O)OCCOCCOCCOC(=O)c2ccc(-c3c4nc(c(-c5c(F)c(F)c(F)c(F)c5F)c5ccc([nH]5)c(-c5c(F)c(F)c(F)c(F)c5F)c5nc(c(-c6c(F)c(F)c(F)c(F)c6F)c6ccc3[nH]6)C=C5)C=C4)cc2)c(F)c1
REMARK SMILES IDX 22 1 21 2 20 3 19 4 18 5 16 6 17 7 15 8 9 9 10 10 11 11
REMARK SMILES IDX 13 12 12 13 14 14 8 15 6 16 7 17 5 19 1 20 2 21 3 22 95 23
REMARK SMILES IDX 4 24 93 25 94 26 23 27 24 28 25 29 26 30 27 31 28 32 29 33
REMARK SMILES IDX 30 34 31 35 92 36 32 37 91 38 33 39 34 40 35 41 85 42 36 43
REMARK SMILES IDX 90 44 84 45 86 46 37 47 89 48 83 49 82 50 38 52 70 53 50 54
REMARK SMILES IDX 69 55 51 56 54 57 68 58 87 59 52 60 53 61 67 63 88 64 55 65
REMARK SMILES IDX 39 66 40 67 48 68 41 69 42 70 46 71 49 72 43 73 44 74 47 75
REMARK SMILES IDX 45 76 71 77 72 78 80 79 73 80 74 81 78 82 81 83 75 84 76 85
REMARK SMILES IDX 79 86 77 87 56 88 57 89 65 90 58 91 59 92 63 93 66 94 60 95
REMARK SMILES IDX 61 96 64 97 62 98
REMARK H PARENT 8 18 86 51 54 62
REMARK Flexibility Score: inf
ROOT
ATOM      1  C   UNL A   1      37.552  21.399  24.649  1.00  0.00     0.188 C 
ENDROOT
BRANCH   1   2
ATOM      2  O   UNL A   1      36.408  20.630  24.975  1.00  0.00    -0.376 OA
BRANCH   2   3
ATOM      3  C   UNL A   1      35.318  21.317  25.583  1.00  0.00     0.202 C 
BRANCH   3   4
ATOM      4  C   UNL A   1      34.861  22.665  24.985  1.00  0.00     0.261 C 
BRANCH   4   5
ATOM      5  O   UNL A   1      34.279  22.583  23.665  1.00  0.00    -0.460 OA
BRANCH   5   6
ATOM      6  C   UNL A   1      32.923  22.625  23.595  1.00  0.00     0.343 C 
ATOM      7  O   UNL A   1      32.144  21.836  24.116  1.00  0.00    -0.246 OA
BRANCH   6   8
ATOM      8  C   UNL A   1      32.482  23.930  23.056  1.00  0.00     0.119 A 
ATOM      9  C   UNL A   1      31.653  24.786  23.819  1.00  0.00     0.059 A 
ATOM     10  C   UNL A   1      31.254  26.022  23.284  1.00  0.00     0.027 A 
ATOM     11  C   UNL A   1      31.630  26.382  21.989  1.00  0.00     0.005 A 
ATOM     12  C   UNL A   1      32.840  24.302  21.762  1.00  0.00     0.139 A 
ATOM     13  C   UNL A   1      32.415  25.516  21.226  1.00  0.00     0.040 A 
ATOM     14  F   UNL A   1      33.582  23.489  20.998  1.00  0.00    -0.206 F 
BRANCH   9  15
ATOM     15  N   UNL A   1      31.234  24.421  25.115  1.00  0.00    -0.321 N 
ATOM     16  C   UNL A   1      31.611  24.914  26.349  1.00  0.00     0.258 C 
ATOM     17  O   UNL A   1      31.386  24.219  27.337  1.00  0.00    -0.269 OA
ATOM     18  H   UNL A   1      30.565  23.700  25.146  1.00  0.00     0.170 HD
BRANCH  16  19
ATOM     19  C   UNL A   1      32.120  26.310  26.497  1.00  0.00     0.075 A 
ATOM     20  C   UNL A   1      33.642  30.339  26.860  1.00  0.00     0.044 C 
ATOM     21  C   UNL A   1      33.126  28.939  26.744  1.00  0.00    -0.048 A 
ATOM     22  C   UNL A   1      31.831  28.641  27.158  1.00  0.00     0.004 A 
ATOM     23  C   UNL A   1      33.946  27.901  26.291  1.00  0.00     0.043 A 
ATOM     24  C   UNL A   1      31.355  27.334  27.076  1.00  0.00     0.017 A 
ATOM     25  C   UNL A   1      33.440  26.605  26.152  1.00  0.00     0.136 A 
ATOM     26  F   UNL A   1      34.275  25.663  25.692  1.00  0.00    -0.206 F 
ENDBRANCH  16  19
ENDBRANCH   9  15
ENDBRANCH   6   8
ENDBRANCH   5   6
ENDBRANCH   4   5
ENDBRANCH   3   4
ENDBRANCH   2   3
ENDBRANCH   1   2
BRANCH   1  27
ATOM     27  C   UNL A   1      38.525  21.866  25.758  1.00  0.00     0.188 C 
BRANCH  27  28
ATOM     28  O   UNL A   1      39.486  20.887  26.105  1.00  0.00    -0.376 OA
BRANCH  28  29
ATOM     29  C   UNL A   1      40.738  21.343  26.597  1.00  0.00     0.202 C 
BRANCH  29  30
ATOM     30  C   UNL A   1      41.036  22.849  26.601  1.00  0.00     0.261 C 
BRANCH  30  31
ATOM     31  O   UNL A   1      41.126  23.432  27.893  1.00  0.00    -0.460 OA
BRANCH  31  32
ATOM     32  C   UNL A   1      41.342  24.757  27.864  1.00  0.00     0.338 C 
ATOM     33  O   UNL A   1      42.364  25.344  28.179  1.00  0.00    -0.246 OA
BRANCH  32  34
ATOM     34  C   UNL A   1      40.114  25.435  27.375  1.00  0.00     0.060 A 
ATOM     35  C   UNL A   1      40.436  26.478  26.484  1.00  0.00     0.016 A 
ATOM     36  C   UNL A   1      39.252  25.614  28.446  1.00  0.00     0.016 A 
ATOM     37  C   UNL A   1      40.440  27.746  26.997  1.00  0.00     0.010 A 
ATOM     38  C   UNL A   1      39.288  26.862  28.990  1.00  0.00     0.010 A 
ATOM     39  C   UNL A   1      39.993  27.865  28.304  1.00  0.00    -0.014 A 
BRANCH  39  40
ATOM     40  C   UNL A   1      40.244  29.041  29.080  1.00  0.00     0.031 A 
ATOM     41  C   UNL A   1      39.171  30.024  29.090  1.00  0.00     0.074 A 
ATOM     42  C   UNL A   1      41.371  29.054  29.818  1.00  0.00     0.049 A 
ATOM     43  N   UNL A   1      39.326  31.262  29.369  1.00  0.00    -0.248 NA
ATOM     44  C   UNL A   1      37.809  29.678  28.681  1.00  0.00     0.031 C 
ATOM     45  C   UNL A   1      41.704  29.915  30.938  1.00  0.00     0.029 A 
ATOM     46  N   UNL A   1      42.549  28.343  29.553  1.00  0.00    -0.354 N 
ATOM     47  C   UNL A   1      38.064  31.780  29.536  1.00  0.00     0.074 A 
ATOM     48  C   UNL A   1      37.161  30.805  28.975  1.00  0.00     0.031 C 
ATOM     49  C   UNL A   1      43.035  29.884  31.126  1.00  0.00     0.029 A 
ATOM     50  C   UNL A   1      43.616  29.122  30.026  1.00  0.00     0.049 A 
ATOM     51  H   UNL A   1      42.616  27.463  29.117  1.00  0.00     0.167 HD
ATOM     52  C   UNL A   1      37.929  32.878  30.326  1.00  0.00     0.037 A 
ATOM     53  C   UNL A   1      44.501  29.646  29.128  1.00  0.00     0.037 A 
ATOM     54  C   UNL A   1      39.248  33.348  30.752  1.00  0.00     0.049 A 
ATOM     55  C   UNL A   1      44.365  31.150  29.016  1.00  0.00     0.074 A 
ATOM     56  C   UNL A   1      40.003  33.072  31.882  1.00  0.00     0.029 A 
ATOM     57  N   UNL A   1      40.148  33.804  29.787  1.00  0.00    -0.354 N 
ATOM     58  N   UNL A   1      43.260  31.814  29.243  1.00  0.00    -0.248 NA
ATOM     59  C   UNL A   1      45.495  32.020  28.711  1.00  0.00     0.031 C 
ATOM     60  C   UNL A   1      41.369  33.288  31.564  1.00  0.00     0.029 A 
ATOM     61  C   UNL A   1      41.450  33.709  30.247  1.00  0.00     0.049 A 
ATOM     62  H   UNL A   1      39.892  34.146  28.900  1.00  0.00     0.167 HD
ATOM     63  C   UNL A   1      43.519  33.159  29.169  1.00  0.00     0.074 A 
ATOM     64  C   UNL A   1      44.929  33.233  28.831  1.00  0.00     0.031 C 
ATOM     65  C   UNL A   1      42.579  34.122  29.426  1.00  0.00     0.037 A 
BRANCH  52  66
ATOM     66  C   UNL A   1      36.617  33.213  30.984  1.00  0.00     0.064 A 
ATOM     67  C   UNL A   1      35.644  33.970  30.303  1.00  0.00     0.173 A 
ATOM     68  C   UNL A   1      36.292  32.879  32.313  1.00  0.00     0.173 A 
ATOM     69  F   UNL A   1      35.790  34.300  29.014  1.00  0.00    -0.203 F 
ATOM     70  C   UNL A   1      34.483  34.432  30.927  1.00  0.00     0.198 A 
ATOM     71  C   UNL A   1      35.158  33.387  32.955  1.00  0.00     0.198 A 
ATOM     72  F   UNL A   1      37.048  32.025  33.016  1.00  0.00    -0.203 F 
ATOM     73  F   UNL A   1      33.594  35.150  30.226  1.00  0.00    -0.200 F 
ATOM     74  C   UNL A   1      34.255  34.167  32.261  1.00  0.00     0.200 A 
ATOM     75  F   UNL A   1      34.947  33.116  34.252  1.00  0.00    -0.200 F 
ATOM     76  F   UNL A   1      33.159  34.642  32.868  1.00  0.00    -0.200 F 
ENDBRANCH  52  66
BRANCH  53  77
ATOM     77  C   UNL A   1      44.858  28.705  28.027  1.00  0.00     0.064 A 
ATOM     78  C   UNL A   1      45.777  27.674  28.313  1.00  0.00     0.173 A 
ATOM     79  C   UNL A   1      44.107  28.580  26.851  1.00  0.00     0.173 A 
ATOM     80  F   UNL A   1      46.531  27.741  29.423  1.00  0.00    -0.203 F 
ATOM     81  C   UNL A   1      45.877  26.534  27.515  1.00  0.00     0.198 A 
ATOM     82  C   UNL A   1      44.212  27.436  26.049  1.00  0.00     0.198 A 
ATOM     83  F   UNL A   1      43.217  29.521  26.509  1.00  0.00    -0.203 F 
ATOM     84  F   UNL A   1      46.699  25.534  27.872  1.00  0.00    -0.200 F 
ATOM     85  C   UNL A   1      45.081  26.408  26.391  1.00  0.00     0.200 A 
ATOM     86  F   UNL A   1      43.429  27.299  24.967  1.00  0.00    -0.200 F 
ATOM     87  F   UNL A   1      45.120  25.282  25.660  1.00  0.00    -0.200 F 
ENDBRANCH  53  77
BRANCH  65  88
ATOM     88  C   UNL A   1      42.716  35.584  29.069  1.00  0.00     0.064 A 
ATOM     89  C   UNL A   1      42.088  36.177  27.961  1.00  0.00     0.173 A 
ATOM     90  C   UNL A   1      43.395  36.485  29.929  1.00  0.00     0.173 A 
ATOM     91  F   UNL A   1      41.272  35.479  27.161  1.00  0.00    -0.203 F 
ATOM     92  C   UNL A   1      42.233  37.535  27.665  1.00  0.00     0.198 A 
ATOM     93  C   UNL A   1      43.469  37.852  29.674  1.00  0.00     0.198 A 
ATOM     94  F   UNL A   1      43.986  36.076  31.060  1.00  0.00    -0.203 F 
ATOM     95  F   UNL A   1      41.679  38.030  26.550  1.00  0.00    -0.200 F 
ATOM     96  C   UNL A   1      42.916  38.372  28.525  1.00  0.00     0.200 A 
ATOM     97  F   UNL A   1      44.066  38.661  30.560  1.00  0.00    -0.200 F 
ATOM     98  F   UNL A   1      43.020  39.680  28.258  1.00  0.00    -0.200 F 
ENDBRANCH  65  88
ENDBRANCH  39  40
ENDBRANCH  32  34
ENDBRANCH  31  32
ENDBRANCH  30  31
ENDBRANCH  29  30
ENDBRANCH  28  29
ENDBRANCH  27  28
ENDBRANCH   1  27
TORSDOF 19
ENDMDL
MODEL 3
REMARK VINA RESULT:     -12.1      1.716      3.065
REMARK SMILES Cc1ccc(C(=O)Nc2cccc(F)c2C(=O)OCCOCCOCCOC(=O)c2ccc(-c3c4nc(c(-c5c(F)c(F)c(F)c(F)c5F)c5ccc([nH]5)c(-c5c(F)c(F)c(F)c(F)c5F)c5nc(c(-c6c(F)c(F)c(F)c(F)c6F)c6ccc3[nH]6)C=C5)C=C4)cc2)c(F)c1
REMARK SMILES IDX 22 1 21 2 20 3 19 4 18 5 16 6 17 7 15 8 9 9 10 10 11 11
REMARK SMILES IDX 13 12 12 13 14 14 8 15 6 16 7 17 5 19 1 20 2 21 3 22 95 23
REMARK SMILES IDX 4 24 93 25 94 26 23 27 24 28 25 29 26 30 27 31 28 32 29 33
REMARK SMILES IDX 30 34 31 35 92 36 32 37 91 38 33 39 34 40 35 41 85 42 36 43
REMARK SMILES IDX 90 44 84 45 86 46 37 47 89 48 83 49 82 50 38 52 70 53 50 54
REMARK SMILES IDX 69 55 51 56 54 57 68 58 87 59 52 60 53 61 67 63 88 64 55 65
REMARK SMILES IDX 39 66 40 67 48 68 41 69 42 70 46 71 49 72 43 73 44 74 47 75
REMARK SMILES IDX 45 76 71 77 72 78 80 79 73 80 74 81 78 82 81 83 75 84 76 85
REMARK SMILES IDX 79 86 77 87 56 88 57 89 65 90 58 91 59 92 63 93 66 94 60 95
REMARK SMILES IDX 61 96 64 97 62 98
REMARK H PARENT 8 18 86 51 54 62
REMARK Flexibility Score: inf
ROOT
ATOM      1  C   UNL A   1      36.548  22.763  25.260  1.00  0.00     0.188 C 
ENDROOT
BRANCH   1   2
ATOM      2  O   UNL A   1      35.312  22.616  25.937  1.00  0.00    -0.376 OA
BRANCH   2   3
ATOM      3  C   UNL A   1      34.287  23.554  25.625  1.00  0.00     0.202 C 
BRANCH   3   4
ATOM      4  C   UNL A   1      34.686  25.005  25.275  1.00  0.00     0.261 C 
BRANCH   4   5
ATOM      5  O   UNL A   1      33.894  25.625  24.238  1.00  0.00    -0.460 OA
BRANCH   5   6
ATOM      6  C   UNL A   1      33.858  26.983  24.232  1.00  0.00     0.343 C 
ATOM      7  O   UNL A   1      34.193  27.714  23.308  1.00  0.00    -0.246 OA
BRANCH   6   8
ATOM      8  C   UNL A   1      33.071  27.476  25.384  1.00  0.00     0.119 A 
ATOM      9  C   UNL A   1      31.749  27.022  25.604  1.00  0.00     0.059 A 
ATOM     10  C   UNL A   1      31.026  27.504  26.708  1.00  0.00     0.027 A 
ATOM     11  C   UNL A   1      31.589  28.461  27.554  1.00  0.00     0.005 A 
ATOM     12  C   UNL A   1      33.613  28.437  26.232  1.00  0.00     0.139 A 
ATOM     13  C   UNL A   1      32.879  28.934  27.308  1.00  0.00     0.040 A 
ATOM     14  F   UNL A   1      34.843  28.923  26.017  1.00  0.00    -0.206 F 
BRANCH   9  15
ATOM     15  N   UNL A   1      31.152  26.083  24.738  1.00  0.00    -0.321 N 
ATOM     16  C   UNL A   1      30.088  26.218  23.867  1.00  0.00     0.258 C 
ATOM     17  O   UNL A   1      29.526  25.194  23.485  1.00  0.00    -0.269 OA
ATOM     18  H   UNL A   1      31.558  25.186  24.758  1.00  0.00     0.170 HD
BRANCH  16  19
ATOM     19  C   UNL A   1      29.740  27.546  23.279  1.00  0.00     0.075 A 
ATOM     20  C   UNL A   1      28.671  31.397  21.634  1.00  0.00     0.044 C 
ATOM     21  C   UNL A   1      29.031  30.057  22.193  1.00  0.00    -0.048 A 
ATOM     22  C   UNL A   1      30.337  29.588  22.086  1.00  0.00     0.004 A 
ATOM     23  C   UNL A   1      28.061  29.227  22.766  1.00  0.00     0.043 A 
ATOM     24  C   UNL A   1      30.671  28.329  22.582  1.00  0.00     0.017 A 
ATOM     25  C   UNL A   1      28.418  27.994  23.318  1.00  0.00     0.136 A 
ATOM     26  F   UNL A   1      27.442  27.259  23.870  1.00  0.00    -0.206 F 
ENDBRANCH  16  19
ENDBRANCH   9  15
ENDBRANCH   6   8
ENDBRANCH   5   6
ENDBRANCH   4   5
ENDBRANCH   3   4
ENDBRANCH   2   3
ENDBRANCH   1   2
BRANCH   1  27
ATOM     27  C   UNL A   1      37.771  21.907  25.667  1.00  0.00     0.188 C 
BRANCH  27  28
ATOM     28  O   UNL A   1      38.927  22.679  25.936  1.00  0.00    -0.376 OA
BRANCH  28  29
ATOM     29  C   UNL A   1      40.019  22.026  26.568  1.00  0.00     0.202 C 
BRANCH  29  30
ATOM     30  C   UNL A   1      41.262  22.845  26.945  1.00  0.00     0.261 C 
BRANCH  30  31
ATOM     31  O   UNL A   1      41.117  23.637  28.116  1.00  0.00    -0.460 OA
BRANCH  31  32
ATOM     32  C   UNL A   1      41.380  24.938  27.912  1.00  0.00     0.338 C 
ATOM     33  O   UNL A   1      42.439  25.514  28.101  1.00  0.00    -0.246 OA
BRANCH  32  34
ATOM     34  C   UNL A   1      40.153  25.604  27.404  1.00  0.00     0.060 A 
ATOM     35  C   UNL A   1      40.479  26.649  26.516  1.00  0.00     0.016 A 
ATOM     36  C   UNL A   1      39.274  25.777  28.463  1.00  0.00     0.016 A 
ATOM     37  C   UNL A   1      40.464  27.918  27.027  1.00  0.00     0.010 A 
ATOM     38  C   UNL A   1      39.291  27.025  29.005  1.00  0.00     0.010 A 
ATOM     39  C   UNL A   1      39.997  28.034  28.328  1.00  0.00    -0.014 A 
BRANCH  39  40
ATOM     40  C   UNL A   1      40.226  29.213  29.106  1.00  0.00     0.031 A 
ATOM     41  C   UNL A   1      39.136  30.176  29.117  1.00  0.00     0.074 A 
ATOM     42  C   UNL A   1      41.354  29.246  29.843  1.00  0.00     0.049 A 
ATOM     43  N   UNL A   1      39.267  31.416  29.398  1.00  0.00    -0.248 NA
ATOM     44  C   UNL A   1      37.780  29.806  28.709  1.00  0.00     0.031 C 
ATOM     45  C   UNL A   1      41.670  30.112  30.965  1.00  0.00     0.029 A 
ATOM     46  N   UNL A   1      42.544  28.558  29.577  1.00  0.00    -0.354 N 
ATOM     47  C   UNL A   1      37.996  31.910  29.566  1.00  0.00     0.074 A 
ATOM     48  C   UNL A   1      37.111  30.920  29.004  1.00  0.00     0.031 C 
ATOM     49  C   UNL A   1      43.002  30.105  31.152  1.00  0.00     0.029 A 
ATOM     50  C   UNL A   1      43.597  29.356  30.051  1.00  0.00     0.049 A 
ATOM     51  H   UNL A   1      42.628  27.680  29.139  1.00  0.00     0.167 HD
ATOM     52  C   UNL A   1      37.840  33.005  30.358  1.00  0.00     0.037 A 
ATOM     53  C   UNL A   1      44.471  29.898  29.154  1.00  0.00     0.037 A 
ATOM     54  C   UNL A   1      39.150  33.499  30.785  1.00  0.00     0.049 A 
ATOM     55  C   UNL A   1      44.307  31.399  29.044  1.00  0.00     0.074 A 
ATOM     56  C   UNL A   1      39.910  33.235  31.914  1.00  0.00     0.029 A 
ATOM     57  N   UNL A   1      40.041  33.972  29.820  1.00  0.00    -0.354 N 
ATOM     58  N   UNL A   1      43.190  32.042  29.272  1.00  0.00    -0.248 NA
ATOM     59  C   UNL A   1      45.421  32.291  28.740  1.00  0.00     0.031 C 
ATOM     60  C   UNL A   1      41.272  33.476  31.596  1.00  0.00     0.029 A 
ATOM     61  C   UNL A   1      41.345  33.901  30.279  1.00  0.00     0.049 A 
ATOM     62  H   UNL A   1      39.779  34.311  28.934  1.00  0.00     0.167 HD
ATOM     63  C   UNL A   1      43.423  33.392  29.201  1.00  0.00     0.074 A 
ATOM     64  C   UNL A   1      44.832  33.493  28.862  1.00  0.00     0.031 C 
ATOM     65  C   UNL A   1      42.466  34.337  29.459  1.00  0.00     0.037 A 
BRANCH  52  66
ATOM     66  C   UNL A   1      36.522  33.314  31.017  1.00  0.00     0.064 A 
ATOM     67  C   UNL A   1      35.496  33.963  30.302  1.00  0.00     0.173 A 
ATOM     68  C   UNL A   1      36.239  33.062  32.373  1.00  0.00     0.173 A 
ATOM     69  F   UNL A   1      35.602  34.204  28.990  1.00  0.00    -0.203 F 
ATOM     70  C   UNL A   1      34.321  34.404  30.915  1.00  0.00     0.198 A 
ATOM     71  C   UNL A   1      35.088  33.553  33.000  1.00  0.00     0.198 A 
ATOM     72  F   UNL A   1      37.054  32.306  33.121  1.00  0.00    -0.203 F 
ATOM     73  F   UNL A   1      33.382  35.018  30.182  1.00  0.00    -0.200 F 
ATOM     74  C   UNL A   1      34.131  34.227  32.269  1.00  0.00     0.200 A 
ATOM     75  F   UNL A   1      34.915  33.367  34.317  1.00  0.00    -0.200 F 
ATOM     76  F   UNL A   1      33.020  34.684  32.863  1.00  0.00    -0.200 F 
ENDBRANCH  52  66
BRANCH  53  77
ATOM     77  C   UNL A   1      44.845  28.966  28.051  1.00  0.00     0.064 A 
ATOM     78  C   UNL A   1      45.794  27.959  28.332  1.00  0.00     0.173 A 
ATOM     79  C   UNL A   1      44.090  28.819  26.880  1.00  0.00     0.173 A 
ATOM     80  F   UNL A   1      46.553  28.048  29.437  1.00  0.00    -0.203 F 
ATOM     81  C   UNL A   1      45.919  26.822  27.534  1.00  0.00     0.198 A 
ATOM     82  C   UNL A   1      44.220  27.677  26.079  1.00  0.00     0.198 A 
ATOM     83  F   UNL A   1      43.173  29.736  26.544  1.00  0.00    -0.203 F 
ATOM     84  F   UNL A   1      46.769  25.845  27.886  1.00  0.00    -0.200 F 
ATOM     85  C   UNL A   1      45.118  26.674  26.416  1.00  0.00     0.200 A 
ATOM     86  F   UNL A   1      43.433  27.519  25.003  1.00  0.00    -0.200 F 
ATOM     87  F   UNL A   1      45.182  25.548  25.686  1.00  0.00    -0.200 F 
ENDBRANCH  53  77
BRANCH  65  88
ATOM     88  C   UNL A   1      42.576  35.802  29.105  1.00  0.00     0.064 A 
ATOM     89  C   UNL A   1      43.320  36.730  29.852  1.00  0.00     0.173 A 
ATOM     90  C   UNL A   1      42.028  36.304  27.897  1.00  0.00     0.173 A 
ATOM     91  F   UNL A   1      44.034  36.358  30.922  1.00  0.00    -0.203 F 
ATOM     92  C   UNL A   1      43.403  38.077  29.490  1.00  0.00     0.198 A 
ATOM     93  C   UNL A   1      42.181  37.629  27.497  1.00  0.00     0.198 A 
ATOM     94  F   UNL A   1      41.349  35.520  27.047  1.00  0.00    -0.203 F 
ATOM     95  F   UNL A   1      44.058  38.934  30.284  1.00  0.00    -0.200 F 
ATOM     96  C   UNL A   1      42.841  38.524  28.311  1.00  0.00     0.200 A 
ATOM     97  F   UNL A   1      41.698  38.026  26.312  1.00  0.00    -0.200 F 
ATOM     98  F   UNL A   1      42.955  39.807  27.948  1.00  0.00    -0.200 F 
ENDBRANCH  65  88
ENDBRANCH  39  40
ENDBRANCH  32  34
ENDBRANCH  31  32
ENDBRANCH  30  31
ENDBRANCH  29  30
ENDBRANCH  28  29
ENDBRANCH  27  28
ENDBRANCH   1  27
TORSDOF 19
ENDMDL
