MODEL 1
REMARK VINA RESULT:      -8.5      0.000      0.000
REMARK SMILES Cn1nc(N2CCC(CC(=O)OCCOCCOCCOC(=O)c3ccc(-c4c5nc(c(-c6c(F)c(F)c(F)c(F)c6F)c6ccc([nH]6)c(-c6c(F)c(F)c(F)c(F)c6F)c6nc(c(-c7c(F)c(F)c(F)c(F)c7F)c7ccc4[nH]7)C=C6)C=C5)cc3)CC2)c(=O)n(C)c1=O
REMARK SMILES IDX 16 1 15 2 14 3 13 4 12 5 10 6 11 7 9 8 8 9 5 10 6 11 88 12
REMARK SMILES IDX 7 13 87 14 4 15 1 16 2 17 3 18 93 19 91 20 94 21 89 22 92 23
REMARK SMILES IDX 90 24 17 25 18 26 19 27 20 28 21 29 22 30 23 31 24 32 25 33
REMARK SMILES IDX 86 34 26 35 85 36 27 37 28 38 29 39 79 40 30 41 84 42 78 43
REMARK SMILES IDX 80 44 31 45 83 46 77 47 76 48 32 50 64 51 44 52 63 53 45 54
REMARK SMILES IDX 48 55 62 56 81 57 46 58 47 59 61 61 82 62 49 63 33 64 34 65
REMARK SMILES IDX 42 66 35 67 36 68 40 69 43 70 37 71 38 72 41 73 39 74 65 75
REMARK SMILES IDX 66 76 74 77 67 78 68 79 72 80 75 81 69 82 70 83 73 84 71 85
REMARK SMILES IDX 50 86 51 87 59 88 52 89 53 90 57 91 60 92 54 93 55 94 58 95
REMARK SMILES IDX 56 96
REMARK H PARENT 80 49 48 60
REMARK Flexibility Score: inf
ROOT
ATOM      1  C   UNL A   1      36.567  33.213  29.760  1.00  0.00     0.188 C 
ENDROOT
BRANCH   1   2
ATOM      2  O   UNL A   1      36.570  31.791  29.805  1.00  0.00    -0.376 OA
BRANCH   2   3
ATOM      3  C   UNL A   1      37.734  31.143  29.289  1.00  0.00     0.202 C 
BRANCH   3   4
ATOM      4  C   UNL A   1      37.609  29.633  29.042  1.00  0.00     0.261 C 
BRANCH   4   5
ATOM      5  O   UNL A   1      38.437  29.151  27.962  1.00  0.00    -0.463 OA
BRANCH   5   6
ATOM      6  C   UNL A   1      39.548  28.459  28.323  1.00  0.00     0.306 C 
ATOM      7  O   UNL A   1      39.579  27.248  28.519  1.00  0.00    -0.252 OA
BRANCH   6   8
ATOM      8  C   UNL A   1      40.822  29.286  28.369  1.00  0.00     0.126 C 
BRANCH   8   9
ATOM      9  C   UNL A   1      42.066  28.886  27.555  1.00  0.00     0.003 C 
ATOM     10  N   UNL A   1      43.469  26.832  26.066  1.00  0.00    -0.351 N 
ATOM     11  C   UNL A   1      44.022  27.315  27.322  1.00  0.00     0.118 C 
ATOM     12  C   UNL A   1      42.742  27.828  25.292  1.00  0.00     0.118 C 
ATOM     13  C   UNL A   1      42.896  27.786  28.233  1.00  0.00     0.026 C 
ATOM     14  C   UNL A   1      41.607  28.406  26.150  1.00  0.00     0.026 C 
BRANCH  10  15
ATOM     15  C   UNL A   1      43.325  25.468  25.835  1.00  0.00     0.215 A 
ATOM     16  C   UNL A   1      40.930  22.875  26.500  1.00  0.00     0.180 C 
ATOM     17  N   UNL A   1      42.170  23.490  26.064  1.00  0.00    -0.216 N 
ATOM     18  N   UNL A   1      42.276  24.833  26.278  1.00  0.00    -0.145 NA
ATOM     19  C   UNL A   1      43.153  22.687  25.496  1.00  0.00     0.346 A 
ATOM     20  N   UNL A   1      44.294  23.330  25.068  1.00  0.00    -0.259 N 
ATOM     21  O   UNL A   1      42.998  21.468  25.375  1.00  0.00    -0.246 OA
ATOM     22  C   UNL A   1      44.437  24.703  25.103  1.00  0.00     0.299 A 
ATOM     23  C   UNL A   1      45.388  22.559  24.514  1.00  0.00     0.159 C 
ATOM     24  O   UNL A   1      45.385  25.320  24.627  1.00  0.00    -0.265 OA
ENDBRANCH  10  15
ENDBRANCH   8   9
ENDBRANCH   6   8
ENDBRANCH   5   6
ENDBRANCH   4   5
ENDBRANCH   3   4
ENDBRANCH   2   3
ENDBRANCH   1   2
BRANCH   1  25
ATOM     25  C   UNL A   1      35.259  33.888  30.174  1.00  0.00     0.188 C 
BRANCH  25  26
ATOM     26  O   UNL A   1      34.450  33.183  31.102  1.00  0.00    -0.376 OA
BRANCH  26  27
ATOM     27  C   UNL A   1      34.058  33.899  32.278  1.00  0.00     0.202 C 
BRANCH  27  28
ATOM     28  C   UNL A   1      34.697  33.487  33.625  1.00  0.00     0.261 C 
BRANCH  28  29
ATOM     29  O   UNL A   1      35.808  32.565  33.559  1.00  0.00    -0.460 OA
BRANCH  29  30
ATOM     30  C   UNL A   1      36.784  32.668  34.491  1.00  0.00     0.338 C 
ATOM     31  O   UNL A   1      36.655  33.081  35.630  1.00  0.00    -0.246 OA
BRANCH  30  32
ATOM     32  C   UNL A   1      37.981  31.918  34.006  1.00  0.00     0.060 A 
ATOM     33  C   UNL A   1      39.228  32.241  34.565  1.00  0.00     0.016 A 
ATOM     34  C   UNL A   1      37.888  30.860  33.097  1.00  0.00     0.016 A 
ATOM     35  C   UNL A   1      40.377  31.534  34.197  1.00  0.00     0.010 A 
ATOM     36  C   UNL A   1      39.046  30.167  32.710  1.00  0.00     0.010 A 
ATOM     37  C   UNL A   1      40.302  30.520  33.235  1.00  0.00    -0.014 A 
BRANCH  37  38
ATOM     38  C   UNL A   1      41.552  30.007  32.612  1.00  0.00     0.031 A 
ATOM     39  C   UNL A   1      42.153  30.804  31.485  1.00  0.00     0.074 A 
ATOM     40  C   UNL A   1      42.186  28.905  33.056  1.00  0.00     0.049 A 
ATOM     41  N   UNL A   1      43.223  30.566  30.769  1.00  0.00    -0.248 NA
ATOM     42  C   UNL A   1      41.453  32.049  31.122  1.00  0.00     0.031 C 
ATOM     43  C   UNL A   1      41.764  28.078  34.182  1.00  0.00     0.029 A 
ATOM     44  N   UNL A   1      43.338  28.299  32.607  1.00  0.00    -0.354 N 
ATOM     45  C   UNL A   1      43.329  31.632  29.886  1.00  0.00     0.074 A 
ATOM     46  C   UNL A   1      42.195  32.499  30.124  1.00  0.00     0.031 C 
ATOM     47  C   UNL A   1      42.645  27.073  34.339  1.00  0.00     0.029 A 
ATOM     48  C   UNL A   1      43.678  27.165  33.305  1.00  0.00     0.049 A 
ATOM     49  H   UNL A   1      43.869  28.647  31.855  1.00  0.00     0.167 HD
ATOM     50  C   UNL A   1      44.293  31.882  28.970  1.00  0.00     0.037 A 
ATOM     51  C   UNL A   1      44.695  26.298  33.121  1.00  0.00     0.037 A 
ATOM     52  C   UNL A   1      45.418  31.024  28.715  1.00  0.00     0.049 A 
ATOM     53  C   UNL A   1      45.683  26.528  32.001  1.00  0.00     0.074 A 
ATOM     54  C   UNL A   1      46.430  31.187  27.786  1.00  0.00     0.029 A 
ATOM     55  N   UNL A   1      45.677  29.842  29.388  1.00  0.00    -0.354 N 
ATOM     56  N   UNL A   1      45.775  27.536  31.167  1.00  0.00    -0.248 NA
ATOM     57  C   UNL A   1      46.712  25.494  31.796  1.00  0.00     0.031 C 
ATOM     58  C   UNL A   1      47.276  30.078  27.864  1.00  0.00     0.029 A 
ATOM     59  C   UNL A   1      46.823  29.252  28.878  1.00  0.00     0.049 A 
ATOM     60  H   UNL A   1      45.129  29.474  30.120  1.00  0.00     0.167 HD
ATOM     61  C   UNL A   1      46.880  27.275  30.366  1.00  0.00     0.074 A 
ATOM     62  C   UNL A   1      47.439  26.019  30.818  1.00  0.00     0.031 C 
ATOM     63  C   UNL A   1      47.384  28.011  29.345  1.00  0.00     0.037 A 
BRANCH  50  64
ATOM     64  C   UNL A   1      44.171  33.139  28.161  1.00  0.00     0.064 A 
ATOM     65  C   UNL A   1      43.773  33.107  26.816  1.00  0.00     0.173 A 
ATOM     66  C   UNL A   1      44.394  34.392  28.751  1.00  0.00     0.173 A 
ATOM     67  F   UNL A   1      43.566  31.931  26.202  1.00  0.00    -0.203 F 
ATOM     68  C   UNL A   1      43.614  34.283  26.088  1.00  0.00     0.198 A 
ATOM     69  C   UNL A   1      44.206  35.566  28.029  1.00  0.00     0.198 A 
ATOM     70  F   UNL A   1      44.776  34.477  30.035  1.00  0.00    -0.203 F 
ATOM     71  F   UNL A   1      43.267  34.226  24.795  1.00  0.00    -0.200 F 
ATOM     72  C   UNL A   1      43.819  35.510  26.698  1.00  0.00     0.200 A 
ATOM     73  F   UNL A   1      44.392  36.753  28.624  1.00  0.00    -0.200 F 
ATOM     74  F   UNL A   1      43.647  36.642  26.002  1.00  0.00    -0.200 F 
ENDBRANCH  50  64
BRANCH  51  75
ATOM     75  C   UNL A   1      44.845  25.116  34.013  1.00  0.00     0.064 A 
ATOM     76  C   UNL A   1      44.385  23.850  33.618  1.00  0.00     0.173 A 
ATOM     77  C   UNL A   1      45.413  25.229  35.290  1.00  0.00     0.173 A 
ATOM     78  F   UNL A   1      43.800  23.695  32.421  1.00  0.00    -0.203 F 
ATOM     79  C   UNL A   1      44.479  22.749  34.468  1.00  0.00     0.198 A 
ATOM     80  C   UNL A   1      45.533  24.121  36.129  1.00  0.00     0.198 A 
ATOM     81  F   UNL A   1      45.852  26.419  35.727  1.00  0.00    -0.203 F 
ATOM     82  F   UNL A   1      43.987  21.564  34.083  1.00  0.00    -0.200 F 
ATOM     83  C   UNL A   1      45.060  22.884  35.720  1.00  0.00     0.200 A 
ATOM     84  F   UNL A   1      46.098  24.255  37.336  1.00  0.00    -0.200 F 
ATOM     85  F   UNL A   1      45.152  21.825  36.536  1.00  0.00    -0.200 F 
ENDBRANCH  51  75
BRANCH  63  86
ATOM     86  C   UNL A   1      48.622  27.511  28.654  1.00  0.00     0.064 A 
ATOM     87  C   UNL A   1      48.553  26.739  27.486  1.00  0.00     0.173 A 
ATOM     88  C   UNL A   1      49.895  27.888  29.114  1.00  0.00     0.173 A 
ATOM     89  F   UNL A   1      47.362  26.344  27.009  1.00  0.00    -0.203 F 
ATOM     90  C   UNL A   1      49.708  26.352  26.812  1.00  0.00     0.198 A 
ATOM     91  C   UNL A   1      51.047  27.527  28.421  1.00  0.00     0.198 A 
ATOM     92  F   UNL A   1      50.019  28.638  30.221  1.00  0.00    -0.203 F 
ATOM     93  F   UNL A   1      49.618  25.588  25.715  1.00  0.00    -0.200 F 
ATOM     94  C   UNL A   1      50.953  26.756  27.273  1.00  0.00     0.200 A 
ATOM     95  F   UNL A   1      52.247  27.935  28.857  1.00  0.00    -0.200 F 
ATOM     96  F   UNL A   1      52.063  26.401  26.610  1.00  0.00    -0.200 F 
ENDBRANCH  63  86
ENDBRANCH  37  38
ENDBRANCH  30  32
ENDBRANCH  29  30
ENDBRANCH  28  29
ENDBRANCH  27  28
ENDBRANCH  26  27
ENDBRANCH  25  26
ENDBRANCH   1  25
TORSDOF 19
ENDMDL
MODEL 2
REMARK VINA RESULT:      -8.0      5.166      9.599
REMARK SMILES Cn1nc(N2CCC(CC(=O)OCCOCCOCCOC(=O)c3ccc(-c4c5nc(c(-c6c(F)c(F)c(F)c(F)c6F)c6ccc([nH]6)c(-c6c(F)c(F)c(F)c(F)c6F)c6nc(c(-c7c(F)c(F)c(F)c(F)c7F)c7ccc4[nH]7)C=C6)C=C5)cc3)CC2)c(=O)n(C)c1=O
REMARK SMILES IDX 16 1 15 2 14 3 13 4 12 5 10 6 11 7 9 8 8 9 5 10 6 11 88 12
REMARK SMILES IDX 7 13 87 14 4 15 1 16 2 17 3 18 93 19 91 20 94 21 89 22 92 23
REMARK SMILES IDX 90 24 17 25 18 26 19 27 20 28 21 29 22 30 23 31 24 32 25 33
REMARK SMILES IDX 86 34 26 35 85 36 27 37 28 38 29 39 79 40 30 41 84 42 78 43
REMARK SMILES IDX 80 44 31 45 83 46 77 47 76 48 32 50 64 51 44 52 63 53 45 54
REMARK SMILES IDX 48 55 62 56 81 57 46 58 47 59 61 61 82 62 49 63 33 64 34 65
REMARK SMILES IDX 42 66 35 67 36 68 40 69 43 70 37 71 38 72 41 73 39 74 65 75
REMARK SMILES IDX 66 76 74 77 67 78 68 79 72 80 75 81 69 82 70 83 73 84 71 85
REMARK SMILES IDX 50 86 51 87 59 88 52 89 53 90 57 91 60 92 54 93 55 94 58 95
REMARK SMILES IDX 56 96
REMARK H PARENT 80 49 48 60
REMARK Flexibility Score: inf
ROOT
ATOM      1  C   UNL A   1      36.516  33.240  28.534  1.00  0.00     0.188 C 
ENDROOT
BRANCH   1   2
ATOM      2  O   UNL A   1      35.545  32.741  27.619  1.00  0.00    -0.376 OA
BRANCH   2   3
ATOM      3  C   UNL A   1      34.365  32.179  28.193  1.00  0.00     0.202 C 
BRANCH   3   4
ATOM      4  C   UNL A   1      33.941  30.807  27.648  1.00  0.00     0.261 C 
BRANCH   4   5
ATOM      5  O   UNL A   1      33.008  30.883  26.547  1.00  0.00    -0.463 OA
BRANCH   5   6
ATOM      6  C   UNL A   1      32.059  29.914  26.501  1.00  0.00     0.306 C 
ATOM      7  O   UNL A   1      31.724  29.222  27.457  1.00  0.00    -0.252 OA
BRANCH   6   8
ATOM      8  C   UNL A   1      31.333  29.804  25.170  1.00  0.00     0.126 C 
BRANCH   8   9
ATOM      9  C   UNL A   1      31.774  28.790  24.099  1.00  0.00     0.003 C 
ATOM     10  N   UNL A   1      31.989  26.014  23.287  1.00  0.00    -0.351 N 
ATOM     11  C   UNL A   1      33.196  26.784  23.546  1.00  0.00     0.118 C 
ATOM     12  C   UNL A   1      30.879  26.780  22.734  1.00  0.00     0.118 C 
ATOM     13  C   UNL A   1      32.905  27.867  24.577  1.00  0.00     0.026 C 
ATOM     14  C   UNL A   1      30.541  27.937  23.685  1.00  0.00     0.026 C 
BRANCH  10  15
ATOM     15  C   UNL A   1      31.804  24.768  23.874  1.00  0.00     0.215 A 
ATOM     16  C   UNL A   1      30.080  23.361  26.693  1.00  0.00     0.180 C 
ATOM     17  N   UNL A   1      30.957  23.423  25.540  1.00  0.00    -0.216 N 
ATOM     18  N   UNL A   1      31.100  24.652  24.965  1.00  0.00    -0.145 NA
ATOM     19  C   UNL A   1      31.598  22.261  25.123  1.00  0.00     0.346 A 
ATOM     20  N   UNL A   1      32.392  22.372  24.001  1.00  0.00    -0.259 N 
ATOM     21  O   UNL A   1      31.450  21.193  25.722  1.00  0.00    -0.246 OA
ATOM     22  C   UNL A   1      32.484  23.535  23.262  1.00  0.00     0.299 A 
ATOM     23  C   UNL A   1      33.137  21.222  23.532  1.00  0.00     0.159 C 
ATOM     24  O   UNL A   1      33.084  23.640  22.196  1.00  0.00    -0.265 OA
ENDBRANCH  10  15
ENDBRANCH   8   9
ENDBRANCH   6   8
ENDBRANCH   5   6
ENDBRANCH   4   5
ENDBRANCH   3   4
ENDBRANCH   2   3
ENDBRANCH   1   2
BRANCH   1  25
ATOM     25  C   UNL A   1      35.966  33.802  29.845  1.00  0.00     0.188 C 
BRANCH  25  26
ATOM     26  O   UNL A   1      36.531  33.285  31.040  1.00  0.00    -0.376 OA
BRANCH  26  27
ATOM     27  C   UNL A   1      35.667  32.490  31.859  1.00  0.00     0.202 C 
BRANCH  27  28
ATOM     28  C   UNL A   1      36.288  31.299  32.627  1.00  0.00     0.261 C 
BRANCH  28  29
ATOM     29  O   UNL A   1      36.702  30.163  31.834  1.00  0.00    -0.460 OA
BRANCH  29  30
ATOM     30  C   UNL A   1      37.711  29.390  32.299  1.00  0.00     0.338 C 
ATOM     31  O   UNL A   1      37.595  28.353  32.929  1.00  0.00    -0.246 OA
BRANCH  30  32
ATOM     32  C   UNL A   1      38.983  29.843  31.663  1.00  0.00     0.060 A 
ATOM     33  C   UNL A   1      40.002  30.321  32.502  1.00  0.00     0.016 A 
ATOM     34  C   UNL A   1      39.223  29.722  30.291  1.00  0.00     0.016 A 
ATOM     35  C   UNL A   1      41.239  30.703  31.974  1.00  0.00     0.010 A 
ATOM     36  C   UNL A   1      40.456  30.129  29.757  1.00  0.00     0.010 A 
ATOM     37  C   UNL A   1      41.461  30.650  30.592  1.00  0.00    -0.014 A 
BRANCH  37  38
ATOM     38  C   UNL A   1      42.633  31.358  30.010  1.00  0.00     0.031 A 
ATOM     39  C   UNL A   1      43.855  30.541  29.681  1.00  0.00     0.074 A 
ATOM     40  C   UNL A   1      42.616  32.672  29.716  1.00  0.00     0.049 A 
ATOM     41  N   UNL A   1      45.005  30.919  29.183  1.00  0.00    -0.248 NA
ATOM     42  C   UNL A   1      43.759  29.095  29.941  1.00  0.00     0.031 C 
ATOM     43  C   UNL A   1      41.482  33.571  29.909  1.00  0.00     0.029 A 
ATOM     44  N   UNL A   1      43.595  33.477  29.178  1.00  0.00    -0.354 N 
ATOM     45  C   UNL A   1      45.760  29.760  29.061  1.00  0.00     0.074 A 
ATOM     46  C   UNL A   1      44.958  28.671  29.573  1.00  0.00     0.031 C 
ATOM     47  C   UNL A   1      41.827  34.804  29.494  1.00  0.00     0.029 A 
ATOM     48  C   UNL A   1      43.217  34.791  29.035  1.00  0.00     0.049 A 
ATOM     49  H   UNL A   1      44.484  33.142  28.921  1.00  0.00     0.167 HD
ATOM     50  C   UNL A   1      47.004  29.609  28.549  1.00  0.00     0.037 A 
ATOM     51  C   UNL A   1      43.918  35.858  28.597  1.00  0.00     0.037 A 
ATOM     52  C   UNL A   1      47.816  30.684  28.049  1.00  0.00     0.049 A 
ATOM     53  C   UNL A   1      45.353  35.684  28.158  1.00  0.00     0.074 A 
ATOM     54  C   UNL A   1      49.100  30.624  27.536  1.00  0.00     0.029 A 
ATOM     55  N   UNL A   1      47.426  32.012  28.000  1.00  0.00    -0.354 N 
ATOM     56  N   UNL A   1      46.062  34.587  28.049  1.00  0.00    -0.248 NA
ATOM     57  C   UNL A   1      46.088  36.904  27.782  1.00  0.00     0.031 C 
ATOM     58  C   UNL A   1      49.505  31.924  27.222  1.00  0.00     0.029 A 
ATOM     59  C   UNL A   1      48.454  32.785  27.486  1.00  0.00     0.049 A 
ATOM     60  H   UNL A   1      46.548  32.355  28.287  1.00  0.00     0.167 HD
ATOM     61  C   UNL A   1      47.305  34.977  27.566  1.00  0.00     0.074 A 
ATOM     62  C   UNL A   1      47.256  36.412  27.389  1.00  0.00     0.031 C 
ATOM     63  C   UNL A   1      48.392  34.212  27.296  1.00  0.00     0.037 A 
BRANCH  50  64
ATOM     64  C   UNL A   1      47.574  28.222  28.512  1.00  0.00     0.064 A 
ATOM     65  C   UNL A   1      47.358  27.373  27.416  1.00  0.00     0.173 A 
ATOM     66  C   UNL A   1      48.393  27.759  29.551  1.00  0.00     0.173 A 
ATOM     67  F   UNL A   1      46.566  27.765  26.405  1.00  0.00    -0.203 F 
ATOM     68  C   UNL A   1      47.933  26.107  27.368  1.00  0.00     0.198 A 
ATOM     69  C   UNL A   1      48.990  26.504  29.486  1.00  0.00     0.198 A 
ATOM     70  F   UNL A   1      48.631  28.533  30.622  1.00  0.00    -0.203 F 
ATOM     71  F   UNL A   1      47.685  25.300  26.327  1.00  0.00    -0.200 F 
ATOM     72  C   UNL A   1      48.757  25.678  28.397  1.00  0.00     0.200 A 
ATOM     73  F   UNL A   1      49.797  26.096  30.476  1.00  0.00    -0.200 F 
ATOM     74  F   UNL A   1      49.325  24.466  28.341  1.00  0.00    -0.200 F 
ENDBRANCH  50  64
BRANCH  51  75
ATOM     75  C   UNL A   1      43.283  37.204  28.548  1.00  0.00     0.064 A 
ATOM     76  C   UNL A   1      43.415  38.103  29.616  1.00  0.00     0.173 A 
ATOM     77  C   UNL A   1      42.502  37.606  27.455  1.00  0.00     0.173 A 
ATOM     78  F   UNL A   1      44.120  37.754  30.703  1.00  0.00    -0.203 F 
ATOM     79  C   UNL A   1      42.784  39.346  29.597  1.00  0.00     0.198 A 
ATOM     80  C   UNL A   1      41.894  38.861  27.423  1.00  0.00     0.198 A 
ATOM     81  F   UNL A   1      42.326  36.779  26.414  1.00  0.00    -0.203 F 
ATOM     82  F   UNL A   1      42.887  40.165  30.653  1.00  0.00    -0.200 F 
ATOM     83  C   UNL A   1      42.030  39.727  28.497  1.00  0.00     0.200 A 
ATOM     84  F   UNL A   1      41.170  39.226  26.358  1.00  0.00    -0.200 F 
ATOM     85  F   UNL A   1      41.424  40.923  28.478  1.00  0.00    -0.200 F 
ENDBRANCH  51  75
BRANCH  63  86
ATOM     86  C   UNL A   1      49.617  34.888  26.747  1.00  0.00     0.064 A 
ATOM     87  C   UNL A   1      49.690  35.310  25.412  1.00  0.00     0.173 A 
ATOM     88  C   UNL A   1      50.695  35.200  27.592  1.00  0.00     0.173 A 
ATOM     89  F   UNL A   1      48.691  35.029  24.561  1.00  0.00    -0.203 F 
ATOM     90  C   UNL A   1      50.799  36.007  24.940  1.00  0.00     0.198 A 
ATOM     91  C   UNL A   1      51.789  35.925  27.125  1.00  0.00     0.198 A 
ATOM     92  F   UNL A   1      50.672  34.831  28.882  1.00  0.00    -0.203 F 
ATOM     93  F   UNL A   1      50.860  36.374  23.652  1.00  0.00    -0.200 F 
ATOM     94  C   UNL A   1      51.842  36.324  25.799  1.00  0.00     0.200 A 
ATOM     95  F   UNL A   1      52.785  36.247  27.961  1.00  0.00    -0.200 F 
ATOM     96  F   UNL A   1      52.898  37.014  25.347  1.00  0.00    -0.200 F 
ENDBRANCH  63  86
ENDBRANCH  37  38
ENDBRANCH  30  32
ENDBRANCH  29  30
ENDBRANCH  28  29
ENDBRANCH  27  28
ENDBRANCH  26  27
ENDBRANCH  25  26
ENDBRANCH   1  25
TORSDOF 19
ENDMDL
MODEL 3
REMARK VINA RESULT:      -7.9      7.459     13.508
REMARK SMILES Cn1nc(N2CCC(CC(=O)OCCOCCOCCOC(=O)c3ccc(-c4c5nc(c(-c6c(F)c(F)c(F)c(F)c6F)c6ccc([nH]6)c(-c6c(F)c(F)c(F)c(F)c6F)c6nc(c(-c7c(F)c(F)c(F)c(F)c7F)c7ccc4[nH]7)C=C6)C=C5)cc3)CC2)c(=O)n(C)c1=O
REMARK SMILES IDX 16 1 15 2 14 3 13 4 12 5 10 6 11 7 9 8 8 9 5 10 6 11 88 12
REMARK SMILES IDX 7 13 87 14 4 15 1 16 2 17 3 18 93 19 91 20 94 21 89 22 92 23
REMARK SMILES IDX 90 24 17 25 18 26 19 27 20 28 21 29 22 30 23 31 24 32 25 33
REMARK SMILES IDX 86 34 26 35 85 36 27 37 28 38 29 39 79 40 30 41 84 42 78 43
REMARK SMILES IDX 80 44 31 45 83 46 77 47 76 48 32 50 64 51 44 52 63 53 45 54
REMARK SMILES IDX 48 55 62 56 81 57 46 58 47 59 61 61 82 62 49 63 33 64 34 65
REMARK SMILES IDX 42 66 35 67 36 68 40 69 43 70 37 71 38 72 41 73 39 74 65 75
REMARK SMILES IDX 66 76 74 77 67 78 68 79 72 80 75 81 69 82 70 83 73 84 71 85
REMARK SMILES IDX 50 86 51 87 59 88 52 89 53 90 57 91 60 92 54 93 55 94 58 95
REMARK SMILES IDX 56 96
REMARK H PARENT 80 49 48 60
REMARK Flexibility Score: inf
ROOT
ATOM      1  C   UNL A   1      51.666  20.540  36.044  1.00  0.00     0.188 C 
ENDROOT
BRANCH   1   2
ATOM      2  O   UNL A   1      50.604  19.901  36.743  1.00  0.00    -0.376 OA
BRANCH   2   3
ATOM      3  C   UNL A   1      50.966  18.800  37.577  1.00  0.00     0.202 C 
BRANCH   3   4
ATOM      4  C   UNL A   1      50.941  19.064  39.089  1.00  0.00     0.261 C 
BRANCH   4   5
ATOM      5  O   UNL A   1      50.229  20.266  39.456  1.00  0.00    -0.463 OA
BRANCH   5   6
ATOM      6  C   UNL A   1      49.527  20.214  40.617  1.00  0.00     0.306 C 
ATOM      7  O   UNL A   1      49.877  20.745  41.665  1.00  0.00    -0.252 OA
BRANCH   6   8
ATOM      8  C   UNL A   1      48.178  19.521  40.509  1.00  0.00     0.126 C 
BRANCH   8   9
ATOM      9  C   UNL A   1      47.514  18.865  41.733  1.00  0.00     0.003 C 
ATOM     10  N   UNL A   1      45.535  17.007  42.752  1.00  0.00    -0.351 N 
ATOM     11  C   UNL A   1      45.380  18.432  43.001  1.00  0.00     0.118 C 
ATOM     12  C   UNL A   1      46.914  16.540  42.699  1.00  0.00     0.118 C 
ATOM     13  C   UNL A   1      46.028  19.226  41.874  1.00  0.00     0.026 C 
ATOM     14  C   UNL A   1      47.672  17.323  41.617  1.00  0.00     0.026 C 
BRANCH  10  15
ATOM     15  C   UNL A   1      44.483  16.261  42.234  1.00  0.00     0.215 A 
ATOM     16  C   UNL A   1      43.031  15.536  39.030  1.00  0.00     0.180 C 
ATOM     17  N   UNL A   1      43.180  15.553  40.473  1.00  0.00    -0.216 N 
ATOM     18  N   UNL A   1      44.236  16.270  40.955  1.00  0.00    -0.145 NA
ATOM     19  C   UNL A   1      42.246  14.877  41.251  1.00  0.00     0.346 A 
ATOM     20  N   UNL A   1      42.458  14.898  42.613  1.00  0.00    -0.259 N 
ATOM     21  O   UNL A   1      41.292  14.285  40.741  1.00  0.00    -0.246 OA
ATOM     22  C   UNL A   1      43.576  15.468  43.187  1.00  0.00     0.299 A 
ATOM     23  C   UNL A   1      41.502  14.264  43.498  1.00  0.00     0.159 C 
ATOM     24  O   UNL A   1      43.858  15.406  44.380  1.00  0.00    -0.265 OA
ENDBRANCH  10  15
ENDBRANCH   8   9
ENDBRANCH   6   8
ENDBRANCH   5   6
ENDBRANCH   4   5
ENDBRANCH   3   4
ENDBRANCH   2   3
ENDBRANCH   1   2
BRANCH   1  25
ATOM     25  C   UNL A   1      51.274  21.761  35.211  1.00  0.00     0.188 C 
BRANCH  25  26
ATOM     26  O   UNL A   1      50.469  22.735  35.857  1.00  0.00    -0.376 OA
BRANCH  26  27
ATOM     27  C   UNL A   1      49.221  23.047  35.229  1.00  0.00     0.202 C 
BRANCH  27  28
ATOM     28  C   UNL A   1      48.227  23.948  35.999  1.00  0.00     0.261 C 
BRANCH  28  29
ATOM     29  O   UNL A   1      48.442  25.374  35.910  1.00  0.00    -0.460 OA
BRANCH  29  30
ATOM     30  C   UNL A   1      47.659  26.189  36.654  1.00  0.00     0.338 C 
ATOM     31  O   UNL A   1      47.949  26.686  37.729  1.00  0.00    -0.246 OA
BRANCH  30  32
ATOM     32  C   UNL A   1      46.504  26.628  35.816  1.00  0.00     0.060 A 
ATOM     33  C   UNL A   1      46.694  27.727  34.963  1.00  0.00     0.016 A 
ATOM     34  C   UNL A   1      45.290  25.936  35.785  1.00  0.00     0.016 A 
ATOM     35  C   UNL A   1      45.671  28.151  34.109  1.00  0.00     0.010 A 
ATOM     36  C   UNL A   1      44.254  26.376  34.946  1.00  0.00     0.010 A 
ATOM     37  C   UNL A   1      44.429  27.505  34.125  1.00  0.00    -0.014 A 
BRANCH  37  38
ATOM     38  C   UNL A   1      43.258  28.152  33.473  1.00  0.00     0.031 A 
ATOM     39  C   UNL A   1      42.979  27.813  32.033  1.00  0.00     0.074 A 
ATOM     40  C   UNL A   1      42.418  28.969  34.136  1.00  0.00     0.049 A 
ATOM     41  N   UNL A   1      42.036  28.251  31.238  1.00  0.00    -0.248 NA
ATOM     42  C   UNL A   1      43.887  26.836  31.407  1.00  0.00     0.031 C 
ATOM     43  C   UNL A   1      42.518  29.328  35.547  1.00  0.00     0.029 A 
ATOM     44  N   UNL A   1      41.298  29.641  33.698  1.00  0.00    -0.354 N 
ATOM     45  C   UNL A   1      42.230  27.595  30.029  1.00  0.00     0.074 A 
ATOM     46  C   UNL A   1      43.402  26.762  30.177  1.00  0.00     0.031 C 
ATOM     47  C   UNL A   1      41.502  30.152  35.862  1.00  0.00     0.029 A 
ATOM     48  C   UNL A   1      40.695  30.407  34.667  1.00  0.00     0.049 A 
ATOM     49  H   UNL A   1      40.962  29.579  32.775  1.00  0.00     0.167 HD
ATOM     50  C   UNL A   1      41.488  27.664  28.898  1.00  0.00     0.037 A 
ATOM     51  C   UNL A   1      39.626  31.227  34.592  1.00  0.00     0.037 A 
ATOM     52  C   UNL A   1      40.329  28.497  28.733  1.00  0.00     0.049 A 
ATOM     53  C   UNL A   1      38.896  31.389  33.279  1.00  0.00     0.074 A 
ATOM     54  C   UNL A   1      39.532  28.648  27.612  1.00  0.00     0.029 A 
ATOM     55  N   UNL A   1      39.802  29.320  29.715  1.00  0.00    -0.354 N 
ATOM     56  N   UNL A   1      39.087  30.770  32.139  1.00  0.00    -0.248 NA
ATOM     57  C   UNL A   1      37.798  32.370  33.243  1.00  0.00     0.031 C 
ATOM     58  C   UNL A   1      38.551  29.601  27.900  1.00  0.00     0.029 A 
ATOM     59  C   UNL A   1      38.702  30.001  29.216  1.00  0.00     0.049 A 
ATOM     60  H   UNL A   1      40.156  29.410  30.629  1.00  0.00     0.167 HD
ATOM     61  C   UNL A   1      38.122  31.260  31.267  1.00  0.00     0.074 A 
ATOM     62  C   UNL A   1      37.334  32.220  32.009  1.00  0.00     0.031 C 
ATOM     63  C   UNL A   1      37.911  30.942  29.966  1.00  0.00     0.037 A 
BRANCH  50  64
ATOM     64  C   UNL A   1      41.915  26.816  27.738  1.00  0.00     0.064 A 
ATOM     65  C   UNL A   1      42.942  27.224  26.873  1.00  0.00     0.173 A 
ATOM     66  C   UNL A   1      41.337  25.556  27.523  1.00  0.00     0.173 A 
ATOM     67  F   UNL A   1      43.514  28.429  27.027  1.00  0.00    -0.203 F 
ATOM     68  C   UNL A   1      43.366  26.407  25.829  1.00  0.00     0.198 A 
ATOM     69  C   UNL A   1      41.783  24.730  26.497  1.00  0.00     0.198 A 
ATOM     70  F   UNL A   1      40.351  25.119  28.323  1.00  0.00    -0.203 F 
ATOM     71  F   UNL A   1      44.324  26.833  24.995  1.00  0.00    -0.200 F 
ATOM     72  C   UNL A   1      42.794  25.157  25.649  1.00  0.00     0.200 A 
ATOM     73  F   UNL A   1      41.238  23.516  26.332  1.00  0.00    -0.200 F 
ATOM     74  F   UNL A   1      43.215  24.364  24.655  1.00  0.00    -0.200 F 
ENDBRANCH  50  64
BRANCH  51  75
ATOM     75  C   UNL A   1      39.166  31.973  35.796  1.00  0.00     0.064 A 
ATOM     76  C   UNL A   1      38.275  31.389  36.709  1.00  0.00     0.173 A 
ATOM     77  C   UNL A   1      39.573  33.292  36.041  1.00  0.00     0.173 A 
ATOM     78  F   UNL A   1      37.825  30.143  36.501  1.00  0.00    -0.203 F 
ATOM     79  C   UNL A   1      37.803  32.098  37.812  1.00  0.00     0.198 A 
ATOM     80  C   UNL A   1      39.124  33.991  37.160  1.00  0.00     0.198 A 
ATOM     81  F   UNL A   1      40.410  33.906  35.191  1.00  0.00    -0.203 F 
ATOM     82  F   UNL A   1      36.915  31.532  38.640  1.00  0.00    -0.200 F 
ATOM     83  C   UNL A   1      38.234  33.396  38.042  1.00  0.00     0.200 A 
ATOM     84  F   UNL A   1      39.545  35.244  37.380  1.00  0.00    -0.200 F 
ATOM     85  F   UNL A   1      37.781  34.077  39.103  1.00  0.00    -0.200 F 
ENDBRANCH  51  75
BRANCH  63  86
ATOM     86  C   UNL A   1      36.766  31.603  29.251  1.00  0.00     0.064 A 
ATOM     87  C   UNL A   1      35.604  30.897  28.910  1.00  0.00     0.173 A 
ATOM     88  C   UNL A   1      36.794  32.983  28.987  1.00  0.00     0.173 A 
ATOM     89  F   UNL A   1      35.529  29.575  29.132  1.00  0.00    -0.203 F 
ATOM     90  C   UNL A   1      34.519  31.541  28.321  1.00  0.00     0.198 A 
ATOM     91  C   UNL A   1      35.696  33.631  28.427  1.00  0.00     0.198 A 
ATOM     92  F   UNL A   1      37.876  33.710  29.305  1.00  0.00    -0.203 F 
ATOM     93  F   UNL A   1      33.431  30.839  27.975  1.00  0.00    -0.200 F 
ATOM     94  C   UNL A   1      34.562  32.909  28.090  1.00  0.00     0.200 A 
ATOM     95  F   UNL A   1      35.732  34.955  28.224  1.00  0.00    -0.200 F 
ATOM     96  F   UNL A   1      33.508  33.531  27.544  1.00  0.00    -0.200 F 
ENDBRANCH  63  86
ENDBRANCH  37  38
ENDBRANCH  30  32
ENDBRANCH  29  30
ENDBRANCH  28  29
ENDBRANCH  27  28
ENDBRANCH  26  27
ENDBRANCH  25  26
ENDBRANCH   1  25
TORSDOF 19
ENDMDL
