MODEL 1
REMARK VINA RESULT:     -10.7      0.000      0.000
REMARK SMILES C[C@H]1[C@@H](C(=O)OCCOCCOCCOC(=O)c2ccc(-c3c4nc(c(-c5c(F)c(F)c(F)c(F)c5F)c5ccc([nH]5)c(-c5c(F)c(F)c(F)c(F)c5F)c5nc(c(-c6c(F)c(F)c(F)c(F)c6F)c6ccc3[nH]6)C=C5)C=C4)cc2)CC[N@@H+]1CC1(O)CCCC1
REMARK SMILES IDX 10 1 9 2 8 3 7 4 6 5 4 6 5 7 3 8 1 9 2 10 83 11 81 12 82 13
REMARK SMILES IDX 84 15 85 16 87 17 90 18 88 19 89 20 86 21 11 23 12 24 13 25
REMARK SMILES IDX 14 26 15 27 16 28 17 29 18 30 19 31 80 32 20 33 79 34 21 35
REMARK SMILES IDX 22 36 23 37 73 38 24 39 78 40 72 41 74 42 25 43 77 44 71 45
REMARK SMILES IDX 70 46 26 48 58 49 38 50 57 51 39 52 42 53 56 54 75 55 40 56
REMARK SMILES IDX 41 57 55 59 76 60 43 61 27 62 28 63 36 64 29 65 30 66 34 67
REMARK SMILES IDX 37 68 31 69 32 70 35 71 33 72 59 73 60 74 68 75 61 76 62 77
REMARK SMILES IDX 66 78 69 79 63 80 64 81 67 82 65 83 44 84 45 85 53 86 46 87
REMARK SMILES IDX 47 88 51 89 54 90 48 91 49 92 52 93 50 94
REMARK H PARENT 83 14 86 22 74 47 42 58
REMARK Flexibility Score: inf
ROOT
ATOM      1  C   UNL A   1      33.378  27.639  26.233  1.00  0.00     0.188 C 
ENDROOT
BRANCH   1   2
ATOM      2  O   UNL A   1      32.840  26.336  26.140  1.00  0.00    -0.376 OA
BRANCH   2   3
ATOM      3  C   UNL A   1      33.688  25.267  25.743  1.00  0.00     0.202 C 
BRANCH   3   4
ATOM      4  C   UNL A   1      34.140  25.168  24.282  1.00  0.00     0.261 C 
BRANCH   4   5
ATOM      5  O   UNL A   1      33.072  24.884  23.352  1.00  0.00    -0.463 OA
BRANCH   5   6
ATOM      6  C   UNL A   1      32.835  25.828  22.414  1.00  0.00     0.315 C 
ATOM      7  O   UNL A   1      33.635  26.116  21.525  1.00  0.00    -0.252 OA
BRANCH   6   8
ATOM      8  C   UNL A   1      31.457  26.468  22.428  1.00  0.00     0.162 C 
ATOM      9  C   UNL A   1      32.236  28.948  22.863  1.00  0.00     0.076 C 
ATOM     10  C   UNL A   1      31.132  27.970  22.477  1.00  0.00     0.195 C 
ATOM     11  N   UNL A   1      29.989  28.125  23.404  1.00  0.00    -0.330 N 
ATOM     12  C   UNL A   1      30.536  25.808  23.460  1.00  0.00     0.083 C 
ATOM     13  C   UNL A   1      29.922  26.945  24.254  1.00  0.00     0.263 C 
ATOM     14  H   UNL A   1      30.187  28.958  23.957  1.00  0.00     0.348 HD
BRANCH  11  15
ATOM     15  C   UNL A   1      28.687  28.502  22.822  1.00  0.00     0.297 C 
BRANCH  15  16
ATOM     16  C   UNL A   1      28.192  29.979  22.858  1.00  0.00     0.113 C 
ATOM     17  C   UNL A   1      28.150  30.671  21.498  1.00  0.00     0.041 C 
ATOM     18  C   UNL A   1      29.151  30.892  23.630  1.00  0.00     0.041 C 
ATOM     19  C   UNL A   1      28.157  32.164  21.799  1.00  0.00     0.003 C 
ATOM     20  C   UNL A   1      28.757  32.305  23.193  1.00  0.00     0.003 C 
BRANCH  16  21
ATOM     21  O   UNL A   1      26.917  30.054  23.512  1.00  0.00    -0.384 OA
ATOM     22  H   UNL A   1      26.223  29.756  22.902  1.00  0.00     0.211 HD
ENDBRANCH  16  21
ENDBRANCH  15  16
ENDBRANCH  11  15
ENDBRANCH   6   8
ENDBRANCH   5   6
ENDBRANCH   4   5
ENDBRANCH   3   4
ENDBRANCH   2   3
ENDBRANCH   1   2
BRANCH   1  23
ATOM     23  C   UNL A   1      32.819  28.635  27.261  1.00  0.00     0.188 C 
BRANCH  23  24
ATOM     24  O   UNL A   1      31.684  29.429  27.007  1.00  0.00    -0.376 OA
BRANCH  24  25
ATOM     25  C   UNL A   1      31.817  30.611  26.247  1.00  0.00     0.202 C 
BRANCH  25  26
ATOM     26  C   UNL A   1      31.784  31.978  26.939  1.00  0.00     0.261 C 
BRANCH  26  27
ATOM     27  O   UNL A   1      33.052  32.643  27.039  1.00  0.00    -0.460 OA
BRANCH  27  28
ATOM     28  C   UNL A   1      33.113  33.652  27.939  1.00  0.00     0.338 C 
ATOM     29  O   UNL A   1      32.288  34.540  28.125  1.00  0.00    -0.246 OA
BRANCH  28  30
ATOM     30  C   UNL A   1      34.282  33.457  28.809  1.00  0.00     0.060 A 
ATOM     31  C   UNL A   1      35.438  34.223  28.598  1.00  0.00     0.016 A 
ATOM     32  C   UNL A   1      34.253  32.472  29.794  1.00  0.00     0.016 A 
ATOM     33  C   UNL A   1      36.581  33.998  29.370  1.00  0.00     0.010 A 
ATOM     34  C   UNL A   1      35.403  32.230  30.545  1.00  0.00     0.010 A 
ATOM     35  C   UNL A   1      36.578  32.974  30.322  1.00  0.00    -0.014 A 
BRANCH  35  36
ATOM     36  C   UNL A   1      37.828  32.523  30.977  1.00  0.00     0.031 A 
ATOM     37  C   UNL A   1      38.609  31.421  30.323  1.00  0.00     0.074 A 
ATOM     38  C   UNL A   1      38.220  33.025  32.159  1.00  0.00     0.049 A 
ATOM     39  N   UNL A   1      39.568  30.677  30.807  1.00  0.00    -0.248 NA
ATOM     40  C   UNL A   1      38.244  31.109  28.932  1.00  0.00     0.031 C 
ATOM     41  C   UNL A   1      37.593  34.145  32.855  1.00  0.00     0.029 A 
ATOM     42  N   UNL A   1      39.228  32.622  33.002  1.00  0.00    -0.354 N 
ATOM     43  C   UNL A   1      39.898  29.786  29.793  1.00  0.00     0.074 A 
ATOM     44  C   UNL A   1      39.032  30.077  28.672  1.00  0.00     0.031 C 
ATOM     45  C   UNL A   1      38.206  34.319  34.039  1.00  0.00     0.029 A 
ATOM     46  C   UNL A   1      39.226  33.283  34.207  1.00  0.00     0.049 A 
ATOM     47  H   UNL A   1      39.885  31.929  32.768  1.00  0.00     0.167 HD
ATOM     48  C   UNL A   1      40.833  28.809  29.807  1.00  0.00     0.037 A 
ATOM     49  C   UNL A   1      39.928  33.039  35.332  1.00  0.00     0.037 A 
ATOM     50  C   UNL A   1      41.687  28.532  30.931  1.00  0.00     0.049 A 
ATOM     51  C   UNL A   1      40.898  31.882  35.360  1.00  0.00     0.074 A 
ATOM     52  C   UNL A   1      42.671  27.567  31.050  1.00  0.00     0.029 A 
ATOM     53  N   UNL A   1      41.649  29.218  32.137  1.00  0.00    -0.354 N 
ATOM     54  N   UNL A   1      41.202  31.031  34.410  1.00  0.00    -0.248 NA
ATOM     55  C   UNL A   1      41.618  31.646  36.621  1.00  0.00     0.031 C 
ATOM     56  C   UNL A   1      43.186  27.629  32.348  1.00  0.00     0.029 A 
ATOM     57  C   UNL A   1      42.576  28.681  33.013  1.00  0.00     0.049 A 
ATOM     58  H   UNL A   1      41.052  29.974  32.339  1.00  0.00     0.167 HD
ATOM     59  C   UNL A   1      42.174  30.191  34.941  1.00  0.00     0.074 A 
ATOM     60  C   UNL A   1      42.407  30.630  36.299  1.00  0.00     0.031 C 
ATOM     61  C   UNL A   1      42.819  29.154  34.353  1.00  0.00     0.037 A 
BRANCH  48  62
ATOM     62  C   UNL A   1      40.949  27.938  28.591  1.00  0.00     0.064 A 
ATOM     63  C   UNL A   1      41.811  28.253  27.530  1.00  0.00     0.173 A 
ATOM     64  C   UNL A   1      40.204  26.751  28.500  1.00  0.00     0.173 A 
ATOM     65  F   UNL A   1      42.535  29.382  27.561  1.00  0.00    -0.203 F 
ATOM     66  C   UNL A   1      41.900  27.428  26.411  1.00  0.00     0.198 A 
ATOM     67  C   UNL A   1      40.322  25.912  27.396  1.00  0.00     0.198 A 
ATOM     68  F   UNL A   1      39.368  26.400  29.489  1.00  0.00    -0.203 F 
ATOM     69  F   UNL A   1      42.690  27.776  25.386  1.00  0.00    -0.200 F 
ATOM     70  C   UNL A   1      41.162  26.256  26.349  1.00  0.00     0.200 A 
ATOM     71  F   UNL A   1      39.619  24.772  27.346  1.00  0.00    -0.200 F 
ATOM     72  F   UNL A   1      41.256  25.459  25.276  1.00  0.00    -0.200 F 
ENDBRANCH  48  62
BRANCH  49  73
ATOM     73  C   UNL A   1      39.717  33.880  36.541  1.00  0.00     0.064 A 
ATOM     74  C   UNL A   1      40.390  35.100  36.697  1.00  0.00     0.173 A 
ATOM     75  C   UNL A   1      38.861  33.473  37.575  1.00  0.00     0.173 A 
ATOM     76  F   UNL A   1      41.243  35.520  35.751  1.00  0.00    -0.203 F 
ATOM     77  C   UNL A   1      40.230  35.869  37.848  1.00  0.00     0.198 A 
ATOM     78  C   UNL A   1      38.676  34.260  38.711  1.00  0.00     0.198 A 
ATOM     79  F   UNL A   1      38.196  32.312  37.481  1.00  0.00    -0.203 F 
ATOM     80  F   UNL A   1      40.928  37.004  37.995  1.00  0.00    -0.200 F 
ATOM     81  C   UNL A   1      39.368  35.452  38.851  1.00  0.00     0.200 A 
ATOM     82  F   UNL A   1      37.833  33.857  39.672  1.00  0.00    -0.200 F 
ATOM     83  F   UNL A   1      39.214  36.193  39.957  1.00  0.00    -0.200 F 
ENDBRANCH  49  73
BRANCH  61  84
ATOM     84  C   UNL A   1      43.902  28.462  35.132  1.00  0.00     0.064 A 
ATOM     85  C   UNL A   1      45.240  28.876  35.075  1.00  0.00     0.173 A 
ATOM     86  C   UNL A   1      43.569  27.433  36.028  1.00  0.00     0.173 A 
ATOM     87  F   UNL A   1      45.612  29.847  34.227  1.00  0.00    -0.203 F 
ATOM     88  C   UNL A   1      46.206  28.279  35.881  1.00  0.00     0.198 A 
ATOM     89  C   UNL A   1      44.531  26.861  36.854  1.00  0.00     0.198 A 
ATOM     90  F   UNL A   1      42.301  27.006  36.126  1.00  0.00    -0.203 F 
ATOM     91  F   UNL A   1      47.485  28.671  35.793  1.00  0.00    -0.200 F 
ATOM     92  C   UNL A   1      45.849  27.284  36.779  1.00  0.00     0.200 A 
ATOM     93  F   UNL A   1      44.180  25.913  37.734  1.00  0.00    -0.200 F 
ATOM     94  F   UNL A   1      46.776  26.730  37.573  1.00  0.00    -0.200 F 
ENDBRANCH  61  84
ENDBRANCH  35  36
ENDBRANCH  28  30
ENDBRANCH  27  28
ENDBRANCH  26  27
ENDBRANCH  25  26
ENDBRANCH  24  25
ENDBRANCH  23  24
ENDBRANCH   1  23
TORSDOF 20
ENDMDL
MODEL 2
REMARK VINA RESULT:     -10.6      3.257      8.407
REMARK SMILES C[C@H]1[C@@H](C(=O)OCCOCCOCCOC(=O)c2ccc(-c3c4nc(c(-c5c(F)c(F)c(F)c(F)c5F)c5ccc([nH]5)c(-c5c(F)c(F)c(F)c(F)c5F)c5nc(c(-c6c(F)c(F)c(F)c(F)c6F)c6ccc3[nH]6)C=C5)C=C4)cc2)CC[N@@H+]1CC1(O)CCCC1
REMARK SMILES IDX 10 1 9 2 8 3 7 4 6 5 4 6 5 7 3 8 1 9 2 10 83 11 81 12 82 13
REMARK SMILES IDX 84 15 85 16 87 17 90 18 88 19 89 20 86 21 11 23 12 24 13 25
REMARK SMILES IDX 14 26 15 27 16 28 17 29 18 30 19 31 80 32 20 33 79 34 21 35
REMARK SMILES IDX 22 36 23 37 73 38 24 39 78 40 72 41 74 42 25 43 77 44 71 45
REMARK SMILES IDX 70 46 26 48 58 49 38 50 57 51 39 52 42 53 56 54 75 55 40 56
REMARK SMILES IDX 41 57 55 59 76 60 43 61 27 62 28 63 36 64 29 65 30 66 34 67
REMARK SMILES IDX 37 68 31 69 32 70 35 71 33 72 59 73 60 74 68 75 61 76 62 77
REMARK SMILES IDX 66 78 69 79 63 80 64 81 67 82 65 83 44 84 45 85 53 86 46 87
REMARK SMILES IDX 47 88 51 89 54 90 48 91 49 92 52 93 50 94
REMARK H PARENT 83 14 86 22 74 47 42 58
REMARK Flexibility Score: inf
ROOT
ATOM      1  C   UNL A   1      38.149  21.960  25.755  1.00  0.00     0.188 C 
ENDROOT
BRANCH   1   2
ATOM      2  O   UNL A   1      37.141  21.777  24.782  1.00  0.00    -0.376 OA
BRANCH   2   3
ATOM      3  C   UNL A   1      35.781  21.770  25.192  1.00  0.00     0.202 C 
BRANCH   3   4
ATOM      4  C   UNL A   1      34.825  22.838  24.648  1.00  0.00     0.261 C 
BRANCH   4   5
ATOM      5  O   UNL A   1      34.433  23.830  25.622  1.00  0.00    -0.463 OA
BRANCH   5   6
ATOM      6  C   UNL A   1      33.103  24.001  25.791  1.00  0.00     0.315 C 
ATOM      7  O   UNL A   1      32.360  23.131  26.244  1.00  0.00    -0.252 OA
BRANCH   6   8
ATOM      8  C   UNL A   1      32.553  25.386  25.498  1.00  0.00     0.162 C 
ATOM      9  C   UNL A   1      30.998  24.716  23.478  1.00  0.00     0.076 C 
ATOM     10  C   UNL A   1      31.430  25.750  24.514  1.00  0.00     0.195 C 
ATOM     11  N   UNL A   1      31.854  26.989  23.827  1.00  0.00    -0.330 N 
ATOM     12  C   UNL A   1      33.675  26.398  25.242  1.00  0.00     0.083 C 
ATOM     13  C   UNL A   1      33.297  27.121  23.962  1.00  0.00     0.263 C 
ATOM     14  H   UNL A   1      31.592  26.871  22.848  1.00  0.00     0.348 HD
BRANCH  11  15
ATOM     15  C   UNL A   1      31.120  28.229  24.145  1.00  0.00     0.297 C 
BRANCH  15  16
ATOM     16  C   UNL A   1      29.992  28.754  23.208  1.00  0.00     0.113 C 
ATOM     17  C   UNL A   1      29.522  30.176  23.509  1.00  0.00     0.041 C 
ATOM     18  C   UNL A   1      28.687  27.966  23.374  1.00  0.00     0.041 C 
ATOM     19  C   UNL A   1      28.143  30.294  22.876  1.00  0.00     0.003 C 
ATOM     20  C   UNL A   1      27.622  28.867  22.743  1.00  0.00     0.003 C 
BRANCH  16  21
ATOM     21  O   UNL A   1      30.392  28.625  21.837  1.00  0.00    -0.384 OA
ATOM     22  H   UNL A   1      29.685  28.959  21.261  1.00  0.00     0.211 HD
ENDBRANCH  16  21
ENDBRANCH  15  16
ENDBRANCH  11  15
ENDBRANCH   6   8
ENDBRANCH   5   6
ENDBRANCH   4   5
ENDBRANCH   3   4
ENDBRANCH   2   3
ENDBRANCH   1   2
BRANCH   1  23
ATOM     23  C   UNL A   1      39.370  21.028  25.788  1.00  0.00     0.188 C 
BRANCH  23  24
ATOM     24  O   UNL A   1      40.105  20.783  26.965  1.00  0.00    -0.376 OA
BRANCH  24  25
ATOM     25  C   UNL A   1      41.281  20.003  26.903  1.00  0.00     0.202 C 
BRANCH  25  26
ATOM     26  C   UNL A   1      42.492  20.503  26.108  1.00  0.00     0.261 C 
BRANCH  26  27
ATOM     27  O   UNL A   1      43.055  21.741  26.568  1.00  0.00    -0.460 OA
BRANCH  27  28
ATOM     28  C   UNL A   1      42.934  22.788  25.717  1.00  0.00     0.338 C 
ATOM     29  O   UNL A   1      43.039  22.776  24.496  1.00  0.00    -0.246 OA
BRANCH  28  30
ATOM     30  C   UNL A   1      42.493  23.974  26.468  1.00  0.00     0.060 A 
ATOM     31  C   UNL A   1      43.064  25.223  26.185  1.00  0.00     0.016 A 
ATOM     32  C   UNL A   1      41.560  23.835  27.493  1.00  0.00     0.016 A 
ATOM     33  C   UNL A   1      42.708  26.345  26.938  1.00  0.00     0.010 A 
ATOM     34  C   UNL A   1      41.225  24.949  28.261  1.00  0.00     0.010 A 
ATOM     35  C   UNL A   1      41.814  26.203  28.005  1.00  0.00    -0.014 A 
BRANCH  35  36
ATOM     36  C   UNL A   1      41.605  27.291  28.989  1.00  0.00     0.031 A 
ATOM     37  C   UNL A   1      42.464  27.302  30.219  1.00  0.00     0.074 A 
ATOM     38  C   UNL A   1      40.629  28.200  28.832  1.00  0.00     0.049 A 
ATOM     39  N   UNL A   1      42.315  27.966  31.335  1.00  0.00    -0.248 NA
ATOM     40  C   UNL A   1      43.649  26.430  30.188  1.00  0.00     0.031 C 
ATOM     41  C   UNL A   1      39.782  28.340  27.651  1.00  0.00     0.029 A 
ATOM     42  N   UNL A   1      40.163  29.157  29.701  1.00  0.00    -0.354 N 
ATOM     43  C   UNL A   1      43.366  27.567  32.151  1.00  0.00     0.074 A 
ATOM     44  C   UNL A   1      44.140  26.599  31.406  1.00  0.00     0.031 C 
ATOM     45  C   UNL A   1      38.873  29.303  27.881  1.00  0.00     0.029 A 
ATOM     46  C   UNL A   1      39.037  29.801  29.247  1.00  0.00     0.049 A 
ATOM     47  H   UNL A   1      40.592  29.361  30.562  1.00  0.00     0.167 HD
ATOM     48  C   UNL A   1      43.648  27.970  33.411  1.00  0.00     0.037 A 
ATOM     49  C   UNL A   1      38.206  30.650  29.885  1.00  0.00     0.037 A 
ATOM     50  C   UNL A   1      42.868  28.935  34.139  1.00  0.00     0.049 A 
ATOM     51  C   UNL A   1      38.484  31.012  31.324  1.00  0.00     0.074 A 
ATOM     52  C   UNL A   1      43.068  29.416  35.421  1.00  0.00     0.029 A 
ATOM     53  N   UNL A   1      41.730  29.558  33.648  1.00  0.00    -0.354 N 
ATOM     54  N   UNL A   1      39.467  30.627  32.102  1.00  0.00    -0.248 NA
ATOM     55  C   UNL A   1      37.530  31.921  31.979  1.00  0.00     0.031 C 
ATOM     56  C   UNL A   1      42.017  30.284  35.727  1.00  0.00     0.029 A 
ATOM     57  C   UNL A   1      41.203  30.402  34.612  1.00  0.00     0.049 A 
ATOM     58  H   UNL A   1      41.353  29.422  32.749  1.00  0.00     0.167 HD
ATOM     59  C   UNL A   1      39.276  31.277  33.316  1.00  0.00     0.074 A 
ATOM     60  C   UNL A   1      38.080  32.078  33.175  1.00  0.00     0.031 C 
ATOM     61  C   UNL A   1      40.028  31.220  34.441  1.00  0.00     0.037 A 
BRANCH  48  62
ATOM     62  C   UNL A   1      44.819  27.333  34.099  1.00  0.00     0.064 A 
ATOM     63  C   UNL A   1      44.720  26.088  34.738  1.00  0.00     0.173 A 
ATOM     64  C   UNL A   1      46.072  27.969  34.095  1.00  0.00     0.173 A 
ATOM     65  F   UNL A   1      43.544  25.444  34.783  1.00  0.00    -0.203 F 
ATOM     66  C   UNL A   1      45.823  25.517  35.370  1.00  0.00     0.198 A 
ATOM     67  C   UNL A   1      47.178  27.380  34.698  1.00  0.00     0.198 A 
ATOM     68  F   UNL A   1      46.223  29.160  33.495  1.00  0.00    -0.203 F 
ATOM     69  F   UNL A   1      45.691  24.352  36.019  1.00  0.00    -0.200 F 
ATOM     70  C   UNL A   1      47.051  26.160  35.343  1.00  0.00     0.200 A 
ATOM     71  F   UNL A   1      48.368  27.996  34.656  1.00  0.00    -0.200 F 
ATOM     72  F   UNL A   1      48.112  25.605  35.944  1.00  0.00    -0.200 F 
ENDBRANCH  48  62
BRANCH  49  73
ATOM     73  C   UNL A   1      37.009  31.190  29.185  1.00  0.00     0.064 A 
ATOM     74  C   UNL A   1      35.895  30.377  28.930  1.00  0.00     0.173 A 
ATOM     75  C   UNL A   1      36.962  32.517  28.734  1.00  0.00     0.173 A 
ATOM     76  F   UNL A   1      35.903  29.092  29.314  1.00  0.00    -0.203 F 
ATOM     77  C   UNL A   1      34.791  30.865  28.234  1.00  0.00     0.198 A 
ATOM     78  C   UNL A   1      35.843  33.014  28.068  1.00  0.00     0.198 A 
ATOM     79  F   UNL A   1      38.002  33.337  28.946  1.00  0.00    -0.203 F 
ATOM     80  F   UNL A   1      33.764  30.051  27.956  1.00  0.00    -0.200 F 
ATOM     81  C   UNL A   1      34.763  32.185  27.810  1.00  0.00     0.200 A 
ATOM     82  F   UNL A   1      35.816  34.294  27.669  1.00  0.00    -0.200 F 
ATOM     83  F   UNL A   1      33.700  32.654  27.142  1.00  0.00    -0.200 F 
ENDBRANCH  49  73
BRANCH  61  84
ATOM     84  C   UNL A   1      39.643  32.103  35.595  1.00  0.00     0.064 A 
ATOM     85  C   UNL A   1      40.195  33.379  35.771  1.00  0.00     0.173 A 
ATOM     86  C   UNL A   1      38.627  31.697  36.476  1.00  0.00     0.173 A 
ATOM     87  F   UNL A   1      41.177  33.809  34.965  1.00  0.00    -0.203 F 
ATOM     88  C   UNL A   1      39.749  34.214  36.793  1.00  0.00     0.198 A 
ATOM     89  C   UNL A   1      38.162  32.546  37.475  1.00  0.00     0.198 A 
ATOM     90  F   UNL A   1      38.061  30.488  36.344  1.00  0.00    -0.203 F 
ATOM     91  F   UNL A   1      40.308  35.420  36.963  1.00  0.00    -0.200 F 
ATOM     92  C   UNL A   1      38.724  33.803  37.634  1.00  0.00     0.200 A 
ATOM     93  F   UNL A   1      37.159  32.154  38.273  1.00  0.00    -0.200 F 
ATOM     94  F   UNL A   1      38.279  34.619  38.599  1.00  0.00    -0.200 F 
ENDBRANCH  61  84
ENDBRANCH  35  36
ENDBRANCH  28  30
ENDBRANCH  27  28
ENDBRANCH  26  27
ENDBRANCH  25  26
ENDBRANCH  24  25
ENDBRANCH  23  24
ENDBRANCH   1  23
TORSDOF 20
ENDMDL
MODEL 3
REMARK VINA RESULT:     -10.5      3.550      8.602
REMARK SMILES C[C@H]1[C@@H](C(=O)OCCOCCOCCOC(=O)c2ccc(-c3c4nc(c(-c5c(F)c(F)c(F)c(F)c5F)c5ccc([nH]5)c(-c5c(F)c(F)c(F)c(F)c5F)c5nc(c(-c6c(F)c(F)c(F)c(F)c6F)c6ccc3[nH]6)C=C5)C=C4)cc2)CC[N@@H+]1CC1(O)CCCC1
REMARK SMILES IDX 10 1 9 2 8 3 7 4 6 5 4 6 5 7 3 8 1 9 2 10 83 11 81 12 82 13
REMARK SMILES IDX 84 15 85 16 87 17 90 18 88 19 89 20 86 21 11 23 12 24 13 25
REMARK SMILES IDX 14 26 15 27 16 28 17 29 18 30 19 31 80 32 20 33 79 34 21 35
REMARK SMILES IDX 22 36 23 37 73 38 24 39 78 40 72 41 74 42 25 43 77 44 71 45
REMARK SMILES IDX 70 46 26 48 58 49 38 50 57 51 39 52 42 53 56 54 75 55 40 56
REMARK SMILES IDX 41 57 55 59 76 60 43 61 27 62 28 63 36 64 29 65 30 66 34 67
REMARK SMILES IDX 37 68 31 69 32 70 35 71 33 72 59 73 60 74 68 75 61 76 62 77
REMARK SMILES IDX 66 78 69 79 63 80 64 81 67 82 65 83 44 84 45 85 53 86 46 87
REMARK SMILES IDX 47 88 51 89 54 90 48 91 49 92 52 93 50 94
REMARK H PARENT 83 14 86 22 74 47 42 58
REMARK Flexibility Score: inf
ROOT
ATOM      1  C   UNL A   1      33.255  26.721  26.061  1.00  0.00     0.188 C 
ENDROOT
BRANCH   1   2
ATOM      2  O   UNL A   1      33.007  25.334  26.168  1.00  0.00    -0.376 OA
BRANCH   2   3
ATOM      3  C   UNL A   1      34.023  24.420  25.780  1.00  0.00     0.202 C 
BRANCH   3   4
ATOM      4  C   UNL A   1      33.917  23.706  24.428  1.00  0.00     0.261 C 
BRANCH   4   5
ATOM      5  O   UNL A   1      32.650  23.892  23.760  1.00  0.00    -0.463 OA
BRANCH   5   6
ATOM      6  C   UNL A   1      32.664  24.702  22.678  1.00  0.00     0.315 C 
ATOM      7  O   UNL A   1      33.504  24.623  21.783  1.00  0.00    -0.252 OA
BRANCH   6   8
ATOM      8  C   UNL A   1      31.504  25.674  22.542  1.00  0.00     0.162 C 
ATOM      9  C   UNL A   1      32.880  27.897  22.873  1.00  0.00     0.076 C 
ATOM     10  C   UNL A   1      31.582  27.207  22.467  1.00  0.00     0.195 C 
ATOM     11  N   UNL A   1      30.468  27.728  23.290  1.00  0.00    -0.330 N 
ATOM     12  C   UNL A   1      30.384  25.361  23.540  1.00  0.00     0.083 C 
ATOM     13  C   UNL A   1      30.044  26.681  24.209  1.00  0.00     0.263 C 
ATOM     14  H   UNL A   1      30.846  28.526  23.801  1.00  0.00     0.348 HD
BRANCH  11  15
ATOM     15  C   UNL A   1      29.347  28.378  22.585  1.00  0.00     0.297 C 
BRANCH  15  16
ATOM     16  C   UNL A   1      29.365  29.908  22.291  1.00  0.00     0.113 C 
ATOM     17  C   UNL A   1      29.187  30.795  23.521  1.00  0.00     0.041 C 
ATOM     18  C   UNL A   1      28.174  30.346  21.430  1.00  0.00     0.041 C 
ATOM     19  C   UNL A   1      28.723  32.144  22.989  1.00  0.00     0.003 C 
ATOM     20  C   UNL A   1      28.114  31.864  21.619  1.00  0.00     0.003 C 
BRANCH  16  21
ATOM     21  O   UNL A   1      30.557  30.257  21.575  1.00  0.00    -0.384 OA
ATOM     22  H   UNL A   1      30.381  31.026  21.010  1.00  0.00     0.211 HD
ENDBRANCH  16  21
ENDBRANCH  15  16
ENDBRANCH  11  15
ENDBRANCH   6   8
ENDBRANCH   5   6
ENDBRANCH   4   5
ENDBRANCH   3   4
ENDBRANCH   2   3
ENDBRANCH   1   2
BRANCH   1  23
ATOM     23  C   UNL A   1      32.367  27.726  26.811  1.00  0.00     0.188 C 
BRANCH  23  24
ATOM     24  O   UNL A   1      31.625  28.723  26.149  1.00  0.00    -0.376 OA
BRANCH  24  25
ATOM     25  C   UNL A   1      32.194  30.000  25.953  1.00  0.00     0.202 C 
BRANCH  25  26
ATOM     26  C   UNL A   1      32.888  30.718  27.115  1.00  0.00     0.261 C 
BRANCH  26  27
ATOM     27  O   UNL A   1      34.315  30.570  27.160  1.00  0.00    -0.460 OA
BRANCH  27  28
ATOM     28  C   UNL A   1      34.923  31.097  28.248  1.00  0.00     0.338 C 
ATOM     29  O   UNL A   1      34.501  31.980  28.987  1.00  0.00    -0.246 OA
BRANCH  28  30
ATOM     30  C   UNL A   1      36.151  30.339  28.534  1.00  0.00     0.060 A 
ATOM     31  C   UNL A   1      36.288  29.681  29.764  1.00  0.00     0.016 A 
ATOM     32  C   UNL A   1      37.190  30.333  27.605  1.00  0.00     0.016 A 
ATOM     33  C   UNL A   1      37.477  29.017  30.078  1.00  0.00     0.010 A 
ATOM     34  C   UNL A   1      38.386  29.693  27.930  1.00  0.00     0.010 A 
ATOM     35  C   UNL A   1      38.545  29.054  29.175  1.00  0.00    -0.014 A 
BRANCH  35  36
ATOM     36  C   UNL A   1      39.900  28.597  29.562  1.00  0.00     0.031 A 
ATOM     37  C   UNL A   1      40.757  29.534  30.362  1.00  0.00     0.074 A 
ATOM     38  C   UNL A   1      40.386  27.415  29.149  1.00  0.00     0.049 A 
ATOM     39  N   UNL A   1      42.042  29.493  30.599  1.00  0.00    -0.248 NA
ATOM     40  C   UNL A   1      40.066  30.683  30.968  1.00  0.00     0.031 C 
ATOM     41  C   UNL A   1      39.631  26.391  28.435  1.00  0.00     0.029 A 
ATOM     42  N   UNL A   1      41.656  26.899  29.243  1.00  0.00    -0.354 N 
ATOM     43  C   UNL A   1      42.319  30.628  31.351  1.00  0.00     0.074 A 
ATOM     44  C   UNL A   1      41.072  31.340  31.524  1.00  0.00     0.031 C 
ATOM     45  C   UNL A   1      40.459  25.380  28.121  1.00  0.00     0.029 A 
ATOM     46  C   UNL A   1      41.814  25.717  28.559  1.00  0.00     0.049 A 
ATOM     47  H   UNL A   1      42.380  27.331  29.749  1.00  0.00     0.167 HD
ATOM     48  C   UNL A   1      43.512  31.037  31.841  1.00  0.00     0.037 A 
ATOM     49  C   UNL A   1      42.934  25.023  28.274  1.00  0.00     0.037 A 
ATOM     50  C   UNL A   1      44.744  30.317  31.660  1.00  0.00     0.049 A 
ATOM     51  C   UNL A   1      44.269  25.548  28.747  1.00  0.00     0.074 A 
ATOM     52  C   UNL A   1      46.008  30.642  32.118  1.00  0.00     0.029 A 
ATOM     53  N   UNL A   1      44.865  29.130  30.954  1.00  0.00    -0.354 N 
ATOM     54  N   UNL A   1      44.536  26.625  29.445  1.00  0.00    -0.248 NA
ATOM     55  C   UNL A   1      45.460  24.765  28.385  1.00  0.00     0.031 C 
ATOM     56  C   UNL A   1      46.904  29.683  31.637  1.00  0.00     0.029 A 
ATOM     57  C   UNL A   1      46.188  28.721  30.943  1.00  0.00     0.049 A 
ATOM     58  H   UNL A   1      44.121  28.648  30.525  1.00  0.00     0.167 HD
ATOM     59  C   UNL A   1      45.912  26.626  29.642  1.00  0.00     0.074 A 
ATOM     60  C   UNL A   1      46.427  25.444  28.986  1.00  0.00     0.031 C 
ATOM     61  C   UNL A   1      46.678  27.520  30.313  1.00  0.00     0.037 A 
BRANCH  48  62
ATOM     62  C   UNL A   1      43.550  32.344  32.577  1.00  0.00     0.064 A 
ATOM     63  C   UNL A   1      43.443  32.415  33.974  1.00  0.00     0.173 A 
ATOM     64  C   UNL A   1      43.726  33.546  31.872  1.00  0.00     0.173 A 
ATOM     65  F   UNL A   1      43.260  31.298  34.694  1.00  0.00    -0.203 F 
ATOM     66  C   UNL A   1      43.482  33.641  34.634  1.00  0.00     0.198 A 
ATOM     67  C   UNL A   1      43.798  34.766  32.538  1.00  0.00     0.198 A 
ATOM     68  F   UNL A   1      43.839  33.536  30.535  1.00  0.00    -0.203 F 
ATOM     69  F   UNL A   1      43.324  33.689  35.965  1.00  0.00    -0.200 F 
ATOM     70  C   UNL A   1      43.666  34.813  33.917  1.00  0.00     0.200 A 
ATOM     71  F   UNL A   1      43.993  35.895  31.843  1.00  0.00    -0.200 F 
ATOM     72  F   UNL A   1      43.712  35.991  34.555  1.00  0.00    -0.200 F 
ENDBRANCH  48  62
BRANCH  49  73
ATOM     73  C   UNL A   1      42.854  23.775  27.468  1.00  0.00     0.064 A 
ATOM     74  C   UNL A   1      42.519  22.552  28.066  1.00  0.00     0.173 A 
ATOM     75  C   UNL A   1      43.133  23.772  26.094  1.00  0.00     0.173 A 
ATOM     76  F   UNL A   1      42.272  22.496  29.383  1.00  0.00    -0.203 F 
ATOM     77  C   UNL A   1      42.487  21.372  27.324  1.00  0.00     0.198 A 
ATOM     78  C   UNL A   1      43.068  22.597  25.346  1.00  0.00     0.198 A 
ATOM     79  F   UNL A   1      43.465  24.913  25.472  1.00  0.00    -0.203 F 
ATOM     80  F   UNL A   1      42.218  20.209  27.932  1.00  0.00    -0.200 F 
ATOM     81  C   UNL A   1      42.754  21.397  25.964  1.00  0.00     0.200 A 
ATOM     82  F   UNL A   1      43.317  22.628  24.029  1.00  0.00    -0.200 F 
ATOM     83  F   UNL A   1      42.722  20.262  25.251  1.00  0.00    -0.200 F 
ENDBRANCH  49  73
BRANCH  61  84
ATOM     84  C   UNL A   1      48.146  27.231  30.452  1.00  0.00     0.064 A 
ATOM     85  C   UNL A   1      48.644  26.369  31.438  1.00  0.00     0.173 A 
ATOM     86  C   UNL A   1      49.051  27.750  29.512  1.00  0.00     0.173 A 
ATOM     87  F   UNL A   1      47.822  25.858  32.368  1.00  0.00    -0.203 F 
ATOM     88  C   UNL A   1      49.997  26.043  31.484  1.00  0.00     0.198 A 
ATOM     89  C   UNL A   1      50.397  27.396  29.541  1.00  0.00     0.198 A 
ATOM     90  F   UNL A   1      48.623  28.573  28.543  1.00  0.00    -0.203 F 
ATOM     91  F   UNL A   1      50.459  25.238  32.451  1.00  0.00    -0.200 F 
ATOM     92  C   UNL A   1      50.869  26.544  30.528  1.00  0.00     0.200 A 
ATOM     93  F   UNL A   1      51.233  27.867  28.605  1.00  0.00    -0.200 F 
ATOM     94  F   UNL A   1      52.165  26.207  30.558  1.00  0.00    -0.200 F 
ENDBRANCH  61  84
ENDBRANCH  35  36
ENDBRANCH  28  30
ENDBRANCH  27  28
ENDBRANCH  26  27
ENDBRANCH  25  26
ENDBRANCH  24  25
ENDBRANCH  23  24
ENDBRANCH   1  23
TORSDOF 20
ENDMDL
