MODEL 1
REMARK VINA RESULT:     -12.8      0.000      0.000
REMARK SMILES Cc1ccccc1NC(=O)NC[C@@H]1CC[C@@H](C(=O)OCCOCCOCCOC(=O)c2ccc(-c3c4nc(c(-c5c(F)c(F)c(F)c(F)c5F)c5ccc([nH]5)c(-c5c(F)c(F)c(F)c(F)c5F)c5nc(c(-c6c(F)c(F)c(F)c(F)c6F)c6ccc3[nH]6)C=C5)C=C4)cc2)O1
REMARK SMILES IDX 23 1 22 2 21 3 20 4 19 5 17 6 18 7 16 8 13 9 14 10 94 11
REMARK SMILES IDX 15 12 12 13 11 14 8 15 9 16 10 18 7 20 1 21 2 22 3 23 4 24
REMARK SMILES IDX 6 25 5 26 24 27 25 28 26 29 27 30 28 31 29 32 30 33 31 34
REMARK SMILES IDX 32 35 93 36 33 37 92 38 34 39 35 40 36 41 86 42 37 43 91 44
REMARK SMILES IDX 85 45 87 46 38 47 90 48 84 49 83 50 39 52 71 53 51 54 70 55
REMARK SMILES IDX 52 56 55 57 69 58 88 59 53 60 54 61 68 63 89 64 56 65 40 66
REMARK SMILES IDX 41 67 49 68 42 69 43 70 47 71 50 72 44 73 45 74 48 75 46 76
REMARK SMILES IDX 72 77 73 78 81 79 74 80 75 81 79 82 82 83 76 84 77 85 80 86
REMARK SMILES IDX 78 87 57 88 58 89 66 90 59 91 60 92 64 93 67 94 61 95 62 96
REMARK SMILES IDX 65 97 63 98
REMARK H PARENT 8 17 11 19 87 51 55 62
REMARK Flexibility Score: inf
ROOT
ATOM      1  C   UNL A   1      33.807  32.574  27.997  1.00  0.00     0.188 C 
ENDROOT
BRANCH   1   2
ATOM      2  O   UNL A   1      32.806  31.758  27.352  1.00  0.00    -0.376 OA
BRANCH   2   3
ATOM      3  C   UNL A   1      32.994  30.365  27.048  1.00  0.00     0.202 C 
BRANCH   3   4
ATOM      4  C   UNL A   1      31.821  29.421  26.448  1.00  0.00     0.261 C 
BRANCH   4   5
ATOM      5  O   UNL A   1      31.076  29.062  24.890  1.00  0.00    -0.461 OA
BRANCH   5   6
ATOM      6  C   UNL A   1      31.369  28.658  23.533  1.00  0.00     0.335 C 
ATOM      7  O   UNL A   1      32.369  28.919  22.858  1.00  0.00    -0.249 OA
BRANCH   6   8
ATOM      8  C   UNL A   1      30.377  27.878  22.686  1.00  0.00     0.228 C 
ATOM      9  C   UNL A   1      30.475  25.821  23.802  1.00  0.00     0.138 C 
ATOM     10  C   UNL A   1      29.033  26.299  23.826  1.00  0.00     0.037 C 
ATOM     11  O   UNL A   1      30.876  26.470  22.571  1.00  0.00    -0.361 OA
ATOM     12  C   UNL A   1      29.029  27.718  23.290  1.00  0.00     0.047 C 
BRANCH   9  13
ATOM     13  C   UNL A   1      30.724  24.272  23.863  1.00  0.00     0.149 C 
BRANCH  13  14
ATOM     14  N   UNL A   1      30.433  23.677  25.199  1.00  0.00    -0.335 N 
ATOM     15  N   UNL A   1      32.403  23.309  26.556  1.00  0.00    -0.308 N 
ATOM     16  C   UNL A   1      31.076  23.432  26.354  1.00  0.00     0.319 C 
ATOM     17  H   UNL A   1      32.642  23.405  27.506  1.00  0.00     0.171 HD
ATOM     18  O   UNL A   1      30.362  23.324  27.362  1.00  0.00    -0.249 OA
ATOM     19  H   UNL A   1      29.497  23.377  25.250  1.00  0.00     0.165 HD
BRANCH  15  20
ATOM     20  C   UNL A   1      33.529  23.076  25.751  1.00  0.00     0.045 A 
ATOM     21  C   UNL A   1      33.090  20.556  25.473  1.00  0.00     0.046 C 
ATOM     22  C   UNL A   1      33.938  21.792  25.356  1.00  0.00    -0.027 A 
ATOM     23  C   UNL A   1      35.172  21.638  24.680  1.00  0.00     0.005 A 
ATOM     24  C   UNL A   1      35.960  22.734  24.351  1.00  0.00     0.000 A 
ATOM     25  C   UNL A   1      34.241  24.143  25.245  1.00  0.00     0.026 A 
ATOM     26  C   UNL A   1      35.468  23.998  24.596  1.00  0.00     0.002 A 
ENDBRANCH  15  20
ENDBRANCH  13  14
ENDBRANCH   9  13
ENDBRANCH   6   8
ENDBRANCH   5   6
ENDBRANCH   4   5
ENDBRANCH   3   4
ENDBRANCH   2   3
ENDBRANCH   1   2
BRANCH   1  27
ATOM     27  C   UNL A   1      33.664  34.092  28.070  1.00  0.00     0.188 C 
BRANCH  27  28
ATOM     28  O   UNL A   1      32.858  34.400  29.184  1.00  0.00    -0.376 OA
BRANCH  28  29
ATOM     29  C   UNL A   1      32.934  35.715  29.691  1.00  0.00     0.202 C 
BRANCH  29  30
ATOM     30  C   UNL A   1      33.127  35.662  31.207  1.00  0.00     0.261 C 
BRANCH  30  31
ATOM     31  O   UNL A   1      33.672  34.370  31.580  1.00  0.00    -0.460 OA
BRANCH  31  32
ATOM     32  C   UNL A   1      35.001  34.352  31.920  1.00  0.00     0.338 C 
ATOM     33  O   UNL A   1      35.539  35.170  32.655  1.00  0.00    -0.246 OA
BRANCH  32  34
ATOM     34  C   UNL A   1      35.743  33.380  31.055  1.00  0.00     0.060 A 
ATOM     35  C   UNL A   1      35.976  32.040  31.382  1.00  0.00     0.016 A 
ATOM     36  C   UNL A   1      36.518  33.893  30.066  1.00  0.00     0.016 A 
ATOM     37  C   UNL A   1      37.143  31.323  30.904  1.00  0.00     0.010 A 
ATOM     38  C   UNL A   1      37.713  33.229  29.777  1.00  0.00     0.010 A 
ATOM     39  C   UNL A   1      38.191  31.937  30.196  1.00  0.00    -0.014 A 
BRANCH  39  40
ATOM     40  C   UNL A   1      39.764  31.190  29.972  1.00  0.00     0.031 A 
ATOM     41  C   UNL A   1      40.286  29.669  29.258  1.00  0.00     0.074 A 
ATOM     42  C   UNL A   1      40.783  31.719  30.687  1.00  0.00     0.049 A 
ATOM     43  N   UNL A   1      40.869  28.671  29.911  1.00  0.00    -0.248 NA
ATOM     44  C   UNL A   1      40.095  29.143  27.841  1.00  0.00     0.031 C 
ATOM     45  C   UNL A   1      42.189  31.336  30.625  1.00  0.00     0.029 A 
ATOM     46  N   UNL A   1      40.729  32.650  31.736  1.00  0.00    -0.354 N 
ATOM     47  C   UNL A   1      41.084  27.611  28.999  1.00  0.00     0.074 A 
ATOM     48  C   UNL A   1      40.268  27.840  27.881  1.00  0.00     0.031 C 
ATOM     49  C   UNL A   1      42.800  31.780  31.736  1.00  0.00     0.029 A 
ATOM     50  C   UNL A   1      41.772  32.320  32.609  1.00  0.00     0.049 A 
ATOM     51  H   UNL A   1      40.084  33.387  31.837  1.00  0.00     0.167 HD
ATOM     52  C   UNL A   1      42.172  26.789  28.913  1.00  0.00     0.037 A 
ATOM     53  C   UNL A   1      41.555  31.978  33.912  1.00  0.00     0.037 A 
ATOM     54  C   UNL A   1      43.131  27.177  29.890  1.00  0.00     0.049 A 
ATOM     55  C   UNL A   1      42.200  30.673  34.304  1.00  0.00     0.074 A 
ATOM     56  C   UNL A   1      44.174  28.084  29.848  1.00  0.00     0.029 A 
ATOM     57  N   UNL A   1      42.819  26.958  31.208  1.00  0.00    -0.354 N 
ATOM     58  N   UNL A   1      42.605  29.785  33.441  1.00  0.00    -0.248 NA
ATOM     59  C   UNL A   1      42.417  30.242  35.683  1.00  0.00     0.031 C 
ATOM     60  C   UNL A   1      44.468  28.449  31.181  1.00  0.00     0.029 A 
ATOM     61  C   UNL A   1      43.632  27.723  32.009  1.00  0.00     0.049 A 
ATOM     62  H   UNL A   1      42.119  26.346  31.532  1.00  0.00     0.167 HD
ATOM     63  C   UNL A   1      43.081  28.688  34.104  1.00  0.00     0.074 A 
ATOM     64  C   UNL A   1      42.964  29.027  35.505  1.00  0.00     0.031 C 
ATOM     65  C   UNL A   1      43.503  27.582  33.436  1.00  0.00     0.037 A 
BRANCH  52  66
ATOM     66  C   UNL A   1      42.460  25.987  27.642  1.00  0.00     0.064 A 
ATOM     67  C   UNL A   1      41.954  24.688  27.453  1.00  0.00     0.173 A 
ATOM     68  C   UNL A   1      43.362  26.428  26.644  1.00  0.00     0.173 A 
ATOM     69  F   UNL A   1      41.046  24.168  28.287  1.00  0.00    -0.203 F 
ATOM     70  C   UNL A   1      42.400  23.853  26.420  1.00  0.00     0.198 A 
ATOM     71  C   UNL A   1      43.849  25.574  25.645  1.00  0.00     0.198 A 
ATOM     72  F   UNL A   1      43.864  27.674  26.684  1.00  0.00    -0.203 F 
ATOM     73  F   UNL A   1      41.910  22.610  26.310  1.00  0.00    -0.200 F 
ATOM     74  C   UNL A   1      43.376  24.280  25.541  1.00  0.00     0.200 A 
ATOM     75  F   UNL A   1      44.823  25.992  24.822  1.00  0.00    -0.200 F 
ATOM     76  F   UNL A   1      43.865  23.449  24.610  1.00  0.00    -0.200 F 
ENDBRANCH  52  66
BRANCH  53  77
ATOM     77  C   UNL A   1      40.322  32.557  34.520  1.00  0.00     0.064 A 
ATOM     78  C   UNL A   1      40.367  33.881  35.006  1.00  0.00     0.173 A 
ATOM     79  C   UNL A   1      39.054  31.977  34.371  1.00  0.00     0.173 A 
ATOM     80  F   UNL A   1      41.551  34.495  35.168  1.00  0.00    -0.203 F 
ATOM     81  C   UNL A   1      39.208  34.621  35.231  1.00  0.00     0.198 A 
ATOM     82  C   UNL A   1      37.890  32.718  34.612  1.00  0.00     0.198 A 
ATOM     83  F   UNL A   1      38.930  30.729  33.897  1.00  0.00    -0.203 F 
ATOM     84  F   UNL A   1      39.298  35.914  35.574  1.00  0.00    -0.200 F 
ATOM     85  C   UNL A   1      37.968  34.043  35.018  1.00  0.00     0.200 A 
ATOM     86  F   UNL A   1      36.689  32.181  34.351  1.00  0.00    -0.200 F 
ATOM     87  F   UNL A   1      36.858  34.785  35.137  1.00  0.00    -0.200 F 
ENDBRANCH  53  77
BRANCH  65  88
ATOM     88  C   UNL A   1      43.805  26.224  34.005  1.00  0.00     0.064 A 
ATOM     89  C   UNL A   1      42.828  25.396  34.565  1.00  0.00     0.173 A 
ATOM     90  C   UNL A   1      45.067  25.627  33.756  1.00  0.00     0.173 A 
ATOM     91  F   UNL A   1      41.576  25.831  34.760  1.00  0.00    -0.203 F 
ATOM     92  C   UNL A   1      43.098  24.060  34.870  1.00  0.00     0.198 A 
ATOM     93  C   UNL A   1      45.311  24.281  34.000  1.00  0.00     0.198 A 
ATOM     94  F   UNL A   1      46.079  26.325  33.216  1.00  0.00    -0.203 F 
ATOM     95  F   UNL A   1      42.141  23.302  35.422  1.00  0.00    -0.200 F 
ATOM     96  C   UNL A   1      44.328  23.498  34.568  1.00  0.00     0.200 A 
ATOM     97  F   UNL A   1      46.487  23.740  33.649  1.00  0.00    -0.200 F 
ATOM     98  F   UNL A   1      44.556  22.201  34.804  1.00  0.00    -0.200 F 
ENDBRANCH  65  88
ENDBRANCH  39  40
ENDBRANCH  32  34
ENDBRANCH  31  32
ENDBRANCH  30  31
ENDBRANCH  29  30
ENDBRANCH  28  29
ENDBRANCH  27  28
ENDBRANCH   1  27
TORSDOF 20
ENDMDL
MODEL 2
REMARK VINA RESULT:     -12.7      1.599      2.925
REMARK SMILES Cc1ccccc1NC(=O)NC[C@@H]1CC[C@@H](C(=O)OCCOCCOCCOC(=O)c2ccc(-c3c4nc(c(-c5c(F)c(F)c(F)c(F)c5F)c5ccc([nH]5)c(-c5c(F)c(F)c(F)c(F)c5F)c5nc(c(-c6c(F)c(F)c(F)c(F)c6F)c6ccc3[nH]6)C=C5)C=C4)cc2)O1
REMARK SMILES IDX 23 1 22 2 21 3 20 4 19 5 17 6 18 7 16 8 13 9 14 10 94 11
REMARK SMILES IDX 15 12 12 13 11 14 8 15 9 16 10 18 7 20 1 21 2 22 3 23 4 24
REMARK SMILES IDX 6 25 5 26 24 27 25 28 26 29 27 30 28 31 29 32 30 33 31 34
REMARK SMILES IDX 32 35 93 36 33 37 92 38 34 39 35 40 36 41 86 42 37 43 91 44
REMARK SMILES IDX 85 45 87 46 38 47 90 48 84 49 83 50 39 52 71 53 51 54 70 55
REMARK SMILES IDX 52 56 55 57 69 58 88 59 53 60 54 61 68 63 89 64 56 65 40 66
REMARK SMILES IDX 41 67 49 68 42 69 43 70 47 71 50 72 44 73 45 74 48 75 46 76
REMARK SMILES IDX 72 77 73 78 81 79 74 80 75 81 79 82 82 83 76 84 77 85 80 86
REMARK SMILES IDX 78 87 57 88 58 89 66 90 59 91 60 92 64 93 67 94 61 95 62 96
REMARK SMILES IDX 65 97 63 98
REMARK H PARENT 8 17 11 19 87 51 55 62
REMARK Flexibility Score: inf
ROOT
ATOM      1  C   UNL A   1      33.267  35.896  28.750  1.00  0.00     0.188 C 
ENDROOT
BRANCH   1   2
ATOM      2  O   UNL A   1      33.348  34.466  28.934  1.00  0.00    -0.376 OA
BRANCH   2   3
ATOM      3  C   UNL A   1      33.331  33.525  27.848  1.00  0.00     0.202 C 
BRANCH   3   4
ATOM      4  C   UNL A   1      33.659  31.948  28.033  1.00  0.00     0.261 C 
BRANCH   4   5
ATOM      5  O   UNL A   1      33.416  30.433  27.162  1.00  0.00    -0.461 OA
BRANCH   5   6
ATOM      6  C   UNL A   1      33.940  29.095  27.001  1.00  0.00     0.335 C 
ATOM      7  O   UNL A   1      35.100  28.705  27.155  1.00  0.00    -0.249 OA
BRANCH   6   8
ATOM      8  C   UNL A   1      33.081  27.942  26.508  1.00  0.00     0.228 C 
ATOM      9  C   UNL A   1      33.434  28.178  24.204  1.00  0.00     0.138 C 
ATOM     10  C   UNL A   1      33.872  26.780  24.604  1.00  0.00     0.037 C 
ATOM     11  O   UNL A   1      32.428  28.369  25.228  1.00  0.00    -0.361 OA
ATOM     12  C   UNL A   1      33.835  26.722  26.119  1.00  0.00     0.047 C 
BRANCH   9  13
ATOM     13  C   UNL A   1      32.943  28.387  22.726  1.00  0.00     0.149 C 
BRANCH  13  14
ATOM     14  N   UNL A   1      33.256  27.236  21.831  1.00  0.00    -0.335 N 
ATOM     15  N   UNL A   1      31.660  25.422  21.976  1.00  0.00    -0.308 N 
ATOM     16  C   UNL A   1      32.667  26.107  21.398  1.00  0.00     0.319 C 
ATOM     17  H   UNL A   1      31.227  24.802  21.346  1.00  0.00     0.171 HD
ATOM     18  O   UNL A   1      33.089  25.650  20.326  1.00  0.00    -0.249 OA
ATOM     19  H   UNL A   1      34.156  27.332  21.443  1.00  0.00     0.165 HD
BRANCH  15  20
ATOM     20  C   UNL A   1      31.075  25.371  23.251  1.00  0.00     0.045 A 
ATOM     21  C   UNL A   1      29.563  27.421  22.887  1.00  0.00     0.046 C 
ATOM     22  C   UNL A   1      30.209  26.363  23.738  1.00  0.00    -0.027 A 
ATOM     23  C   UNL A   1      29.793  26.314  25.090  1.00  0.00     0.005 A 
ATOM     24  C   UNL A   1      30.180  25.276  25.929  1.00  0.00     0.000 A 
ATOM     25  C   UNL A   1      31.281  24.270  24.055  1.00  0.00     0.026 A 
ATOM     26  C   UNL A   1      30.892  24.224  25.394  1.00  0.00     0.002 A 
ENDBRANCH  15  20
ENDBRANCH  13  14
ENDBRANCH   9  13
ENDBRANCH   6   8
ENDBRANCH   5   6
ENDBRANCH   4   5
ENDBRANCH   3   4
ENDBRANCH   2   3
ENDBRANCH   1   2
BRANCH   1  27
ATOM     27  C   UNL A   1      32.869  36.820  29.898  1.00  0.00     0.188 C 
BRANCH  27  28
ATOM     28  O   UNL A   1      32.912  36.074  31.092  1.00  0.00    -0.376 OA
BRANCH  28  29
ATOM     29  C   UNL A   1      33.529  36.679  32.208  1.00  0.00     0.202 C 
BRANCH  29  30
ATOM     30  C   UNL A   1      34.357  35.634  32.957  1.00  0.00     0.261 C 
BRANCH  30  31
ATOM     31  O   UNL A   1      35.047  34.789  32.001  1.00  0.00    -0.460 OA
BRANCH  31  32
ATOM     32  C   UNL A   1      34.689  33.465  31.998  1.00  0.00     0.338 C 
ATOM     33  O   UNL A   1      33.964  32.941  32.836  1.00  0.00    -0.246 OA
BRANCH  32  34
ATOM     34  C   UNL A   1      35.521  32.704  31.011  1.00  0.00     0.060 A 
ATOM     35  C   UNL A   1      35.813  31.339  31.101  1.00  0.00     0.016 A 
ATOM     36  C   UNL A   1      36.308  33.427  30.175  1.00  0.00     0.016 A 
ATOM     37  C   UNL A   1      37.038  30.778  30.562  1.00  0.00     0.010 A 
ATOM     38  C   UNL A   1      37.550  32.884  29.833  1.00  0.00     0.010 A 
ATOM     39  C   UNL A   1      38.079  31.561  30.034  1.00  0.00    -0.014 A 
BRANCH  39  40
ATOM     40  C   UNL A   1      39.700  30.942  29.761  1.00  0.00     0.031 A 
ATOM     41  C   UNL A   1      40.320  29.467  29.029  1.00  0.00     0.074 A 
ATOM     42  C   UNL A   1      40.695  31.552  30.444  1.00  0.00     0.049 A 
ATOM     43  N   UNL A   1      41.002  28.520  29.664  1.00  0.00    -0.248 NA
ATOM     44  C   UNL A   1      40.128  28.925  27.619  1.00  0.00     0.031 C 
ATOM     45  C   UNL A   1      42.125  31.283  30.339  1.00  0.00     0.029 A 
ATOM     46  N   UNL A   1      40.598  32.477  31.495  1.00  0.00    -0.354 N 
ATOM     47  C   UNL A   1      41.273  27.479  28.745  1.00  0.00     0.074 A 
ATOM     48  C   UNL A   1      40.406  27.640  27.653  1.00  0.00     0.031 C 
ATOM     49  C   UNL A   1      42.732  31.777  31.430  1.00  0.00     0.029 A 
ATOM     50  C   UNL A   1      41.691  32.234  32.336  1.00  0.00     0.049 A 
ATOM     51  H   UNL A   1      39.900  33.161  31.617  1.00  0.00     0.167 HD
ATOM     52  C   UNL A   1      42.420  26.747  28.625  1.00  0.00     0.037 A 
ATOM     53  C   UNL A   1      41.542  31.878  33.644  1.00  0.00     0.037 A 
ATOM     54  C   UNL A   1      43.375  27.212  29.571  1.00  0.00     0.049 A 
ATOM     55  C   UNL A   1      42.302  30.629  34.015  1.00  0.00     0.074 A 
ATOM     56  C   UNL A   1      44.339  28.200  29.498  1.00  0.00     0.029 A 
ATOM     57  N   UNL A   1      43.122  26.971  30.899  1.00  0.00    -0.354 N 
ATOM     58  N   UNL A   1      42.750  29.775  33.139  1.00  0.00    -0.248 NA
ATOM     59  C   UNL A   1      42.596  30.220  35.386  1.00  0.00     0.031 C 
ATOM     60  C   UNL A   1      44.644  28.589  30.821  1.00  0.00     0.029 A 
ATOM     61  C   UNL A   1      43.895  27.800  31.674  1.00  0.00     0.049 A 
ATOM     62  H   UNL A   1      42.484  26.306  31.243  1.00  0.00     0.167 HD
ATOM     63  C   UNL A   1      43.334  28.721  33.786  1.00  0.00     0.074 A 
ATOM     64  C   UNL A   1      43.233  29.052  35.191  1.00  0.00     0.031 C 
ATOM     65  C   UNL A   1      43.822  27.651  33.105  1.00  0.00     0.037 A 
BRANCH  52  66
ATOM     66  C   UNL A   1      42.732  25.969  27.345  1.00  0.00     0.064 A 
ATOM     67  C   UNL A   1      42.185  24.696  27.097  1.00  0.00     0.173 A 
ATOM     68  C   UNL A   1      43.693  26.400  26.399  1.00  0.00     0.173 A 
ATOM     69  F   UNL A   1      41.222  24.190  27.876  1.00  0.00    -0.203 F 
ATOM     70  C   UNL A   1      42.643  23.872  26.060  1.00  0.00     0.198 A 
ATOM     71  C   UNL A   1      44.190  25.555  25.397  1.00  0.00     0.198 A 
ATOM     72  F   UNL A   1      44.240  27.624  26.496  1.00  0.00    -0.203 F 
ATOM     73  F   UNL A   1      42.111  22.653  25.895  1.00  0.00    -0.200 F 
ATOM     74  C   UNL A   1      43.672  24.284  25.236  1.00  0.00     0.200 A 
ATOM     75  F   UNL A   1      45.214  25.956  24.628  1.00  0.00    -0.200 F 
ATOM     76  F   UNL A   1      44.169  23.459  24.304  1.00  0.00    -0.200 F 
ENDBRANCH  52  66
BRANCH  53  77
ATOM     77  C   UNL A   1      40.287  32.357  34.290  1.00  0.00     0.064 A 
ATOM     78  C   UNL A   1      40.272  33.646  34.864  1.00  0.00     0.173 A 
ATOM     79  C   UNL A   1      39.046  31.729  34.105  1.00  0.00     0.173 A 
ATOM     80  F   UNL A   1      41.426  34.302  35.065  1.00  0.00    -0.203 F 
ATOM     81  C   UNL A   1      39.081  34.315  35.139  1.00  0.00     0.198 A 
ATOM     82  C   UNL A   1      37.850  32.398  34.395  1.00  0.00     0.198 A 
ATOM     83  F   UNL A   1      38.979  30.512  33.549  1.00  0.00    -0.203 F 
ATOM     84  F   UNL A   1      39.112  35.585  35.567  1.00  0.00    -0.200 F 
ATOM     85  C   UNL A   1      37.869  33.695  34.889  1.00  0.00     0.200 A 
ATOM     86  F   UNL A   1      36.674  31.824  34.100  1.00  0.00    -0.200 F 
ATOM     87  F   UNL A   1      36.726  34.375  35.058  1.00  0.00    -0.200 F 
ENDBRANCH  53  77
BRANCH  65  88
ATOM     88  C   UNL A   1      44.249  26.324  33.663  1.00  0.00     0.064 A 
ATOM     89  C   UNL A   1      45.585  25.913  33.721  1.00  0.00     0.173 A 
ATOM     90  C   UNL A   1      43.319  25.540  34.394  1.00  0.00     0.173 A 
ATOM     91  F   UNL A   1      46.557  26.630  33.142  1.00  0.00    -0.203 F 
ATOM     92  C   UNL A   1      45.965  24.785  34.449  1.00  0.00     0.198 A 
ATOM     93  C   UNL A   1      43.712  24.456  35.170  1.00  0.00     0.198 A 
ATOM     94  F   UNL A   1      42.011  25.843  34.415  1.00  0.00    -0.203 F 
ATOM     95  F   UNL A   1      47.252  24.413  34.466  1.00  0.00    -0.200 F 
ATOM     96  C   UNL A   1      45.036  24.072  35.190  1.00  0.00     0.200 A 
ATOM     97  F   UNL A   1      42.810  23.813  35.925  1.00  0.00    -0.200 F 
ATOM     98  F   UNL A   1      45.421  23.030  35.937  1.00  0.00    -0.200 F 
ENDBRANCH  65  88
ENDBRANCH  39  40
ENDBRANCH  32  34
ENDBRANCH  31  32
ENDBRANCH  30  31
ENDBRANCH  29  30
ENDBRANCH  28  29
ENDBRANCH  27  28
ENDBRANCH   1  27
TORSDOF 20
ENDMDL
MODEL 3
REMARK VINA RESULT:     -12.7      1.554      2.339
REMARK SMILES Cc1ccccc1NC(=O)NC[C@@H]1CC[C@@H](C(=O)OCCOCCOCCOC(=O)c2ccc(-c3c4nc(c(-c5c(F)c(F)c(F)c(F)c5F)c5ccc([nH]5)c(-c5c(F)c(F)c(F)c(F)c5F)c5nc(c(-c6c(F)c(F)c(F)c(F)c6F)c6ccc3[nH]6)C=C5)C=C4)cc2)O1
REMARK SMILES IDX 23 1 22 2 21 3 20 4 19 5 17 6 18 7 16 8 13 9 14 10 94 11
REMARK SMILES IDX 15 12 12 13 11 14 8 15 9 16 10 18 7 20 1 21 2 22 3 23 4 24
REMARK SMILES IDX 6 25 5 26 24 27 25 28 26 29 27 30 28 31 29 32 30 33 31 34
REMARK SMILES IDX 32 35 93 36 33 37 92 38 34 39 35 40 36 41 86 42 37 43 91 44
REMARK SMILES IDX 85 45 87 46 38 47 90 48 84 49 83 50 39 52 71 53 51 54 70 55
REMARK SMILES IDX 52 56 55 57 69 58 88 59 53 60 54 61 68 63 89 64 56 65 40 66
REMARK SMILES IDX 41 67 49 68 42 69 43 70 47 71 50 72 44 73 45 74 48 75 46 76
REMARK SMILES IDX 72 77 73 78 81 79 74 80 75 81 79 82 82 83 76 84 77 85 80 86
REMARK SMILES IDX 78 87 57 88 58 89 66 90 59 91 60 92 64 93 67 94 61 95 62 96
REMARK SMILES IDX 65 97 63 98
REMARK H PARENT 8 17 11 19 87 51 55 62
REMARK Flexibility Score: inf
ROOT
ATOM      1  C   UNL A   1      33.476  31.612  27.494  1.00  0.00     0.188 C 
ENDROOT
BRANCH   1   2
ATOM      2  O   UNL A   1      32.551  30.523  27.281  1.00  0.00    -0.376 OA
BRANCH   2   3
ATOM      3  C   UNL A   1      32.955  29.146  27.191  1.00  0.00     0.202 C 
BRANCH   3   4
ATOM      4  C   UNL A   1      33.957  28.587  26.046  1.00  0.00     0.261 C 
BRANCH   4   5
ATOM      5  O   UNL A   1      33.860  27.829  24.456  1.00  0.00    -0.461 OA
BRANCH   5   6
ATOM      6  C   UNL A   1      33.269  27.965  23.144  1.00  0.00     0.335 C 
ATOM      7  O   UNL A   1      33.828  28.235  22.078  1.00  0.00    -0.249 OA
BRANCH   6   8
ATOM      8  C   UNL A   1      31.769  27.865  22.916  1.00  0.00     0.228 C 
ATOM      9  C   UNL A   1      31.387  25.764  23.879  1.00  0.00     0.138 C 
ATOM     10  C   UNL A   1      30.518  26.777  24.604  1.00  0.00     0.037 C 
ATOM     11  O   UNL A   1      31.445  26.437  22.598  1.00  0.00    -0.361 OA
ATOM     12  C   UNL A   1      30.934  28.150  24.112  1.00  0.00     0.047 C 
BRANCH   9  13
ATOM     13  C   UNL A   1      30.885  24.276  23.840  1.00  0.00     0.149 C 
BRANCH  13  14
ATOM     14  N   UNL A   1      30.301  23.815  25.132  1.00  0.00    -0.335 N 
ATOM     15  N   UNL A   1      31.944  23.026  26.724  1.00  0.00    -0.308 N 
ATOM     16  C   UNL A   1      30.721  23.460  26.358  1.00  0.00     0.319 C 
ATOM     17  H   UNL A   1      32.085  23.094  27.695  1.00  0.00     0.171 HD
ATOM     18  O   UNL A   1      29.888  23.562  27.270  1.00  0.00    -0.249 OA
ATOM     19  H   UNL A   1      29.320  23.752  25.067  1.00  0.00     0.165 HD
BRANCH  15  20
ATOM     20  C   UNL A   1      33.067  22.502  26.065  1.00  0.00     0.045 A 
ATOM     21  C   UNL A   1      34.288  24.759  25.870  1.00  0.00     0.046 C 
ATOM     22  C   UNL A   1      34.094  23.304  25.541  1.00  0.00    -0.027 A 
ATOM     23  C   UNL A   1      35.106  22.705  24.754  1.00  0.00     0.005 A 
ATOM     24  C   UNL A   1      35.134  21.333  24.533  1.00  0.00     0.000 A 
ATOM     25  C   UNL A   1      33.236  21.136  25.979  1.00  0.00     0.026 A 
ATOM     26  C   UNL A   1      34.218  20.540  25.189  1.00  0.00     0.002 A 
ENDBRANCH  15  20
ENDBRANCH  13  14
ENDBRANCH   9  13
ENDBRANCH   6   8
ENDBRANCH   5   6
ENDBRANCH   4   5
ENDBRANCH   3   4
ENDBRANCH   2   3
ENDBRANCH   1   2
BRANCH   1  27
ATOM     27  C   UNL A   1      32.981  33.044  27.685  1.00  0.00     0.188 C 
BRANCH  27  28
ATOM     28  O   UNL A   1      34.109  33.881  27.801  1.00  0.00    -0.376 OA
BRANCH  28  29
ATOM     29  C   UNL A   1      34.065  34.887  28.790  1.00  0.00     0.202 C 
BRANCH  29  30
ATOM     30  C   UNL A   1      34.149  34.239  30.173  1.00  0.00     0.261 C 
BRANCH  30  31
ATOM     31  O   UNL A   1      35.405  33.524  30.296  1.00  0.00    -0.460 OA
BRANCH  31  32
ATOM     32  C   UNL A   1      35.348  32.314  30.940  1.00  0.00     0.338 C 
ATOM     33  O   UNL A   1      34.966  32.159  32.092  1.00  0.00    -0.246 OA
BRANCH  32  34
ATOM     34  C   UNL A   1      36.073  31.270  30.146  1.00  0.00     0.060 A 
ATOM     35  C   UNL A   1      36.462  30.021  30.641  1.00  0.00     0.016 A 
ATOM     36  C   UNL A   1      36.682  31.672  29.001  1.00  0.00     0.016 A 
ATOM     37  C   UNL A   1      37.628  29.321  30.134  1.00  0.00     0.010 A 
ATOM     38  C   UNL A   1      37.892  31.056  28.668  1.00  0.00     0.010 A 
ATOM     39  C   UNL A   1      38.529  29.887  29.215  1.00  0.00    -0.014 A 
BRANCH  39  40
ATOM     40  C   UNL A   1      40.127  29.228  28.910  1.00  0.00     0.031 A 
ATOM     41  C   UNL A   1      40.704  27.641  28.418  1.00  0.00     0.074 A 
ATOM     42  C   UNL A   1      41.171  29.959  29.366  1.00  0.00     0.049 A 
ATOM     43  N   UNL A   1      41.460  26.834  29.153  1.00  0.00    -0.248 NA
ATOM     44  C   UNL A   1      40.391  26.838  27.162  1.00  0.00     0.031 C 
ATOM     45  C   UNL A   1      42.589  29.676  29.177  1.00  0.00     0.029 A 
ATOM     46  N   UNL A   1      41.156  31.068  30.226  1.00  0.00    -0.354 N 
ATOM     47  C   UNL A   1      41.664  25.636  28.428  1.00  0.00     0.074 A 
ATOM     48  C   UNL A   1      40.695  25.584  27.413  1.00  0.00     0.031 C 
ATOM     49  C   UNL A   1      43.287  30.370  30.091  1.00  0.00     0.029 A 
ATOM     50  C   UNL A   1      42.328  30.991  30.988  1.00  0.00     0.049 A 
ATOM     51  H   UNL A   1      40.459  31.762  30.281  1.00  0.00     0.167 HD
ATOM     52  C   UNL A   1      42.808  24.895  28.340  1.00  0.00     0.037 A 
ATOM     53  C   UNL A   1      42.309  30.893  32.349  1.00  0.00     0.037 A 
ATOM     54  C   UNL A   1      43.838  25.534  29.084  1.00  0.00     0.049 A 
ATOM     55  C   UNL A   1      43.124  29.739  32.877  1.00  0.00     0.074 A 
ATOM     56  C   UNL A   1      44.773  26.489  28.733  1.00  0.00     0.029 A 
ATOM     57  N   UNL A   1      43.716  25.552  30.452  1.00  0.00    -0.354 N 
ATOM     58  N   UNL A   1      43.504  28.733  32.141  1.00  0.00    -0.248 NA
ATOM     59  C   UNL A   1      43.553  29.600  34.266  1.00  0.00     0.031 C 
ATOM     60  C   UNL A   1      45.193  27.126  29.921  1.00  0.00     0.029 A 
ATOM     61  C   UNL A   1      44.543  26.515  30.977  1.00  0.00     0.049 A 
ATOM     62  H   UNL A   1      43.126  24.964  30.976  1.00  0.00     0.167 HD
ATOM     63  C   UNL A   1      44.165  27.823  32.918  1.00  0.00     0.074 A 
ATOM     64  C   UNL A   1      44.191  28.417  34.237  1.00  0.00     0.031 C 
ATOM     65  C   UNL A   1      44.607  26.643  32.410  1.00  0.00     0.037 A 
BRANCH  52  66
ATOM     66  C   UNL A   1      43.013  23.886  27.208  1.00  0.00     0.064 A 
ATOM     67  C   UNL A   1      42.689  22.524  27.359  1.00  0.00     0.173 A 
ATOM     68  C   UNL A   1      43.669  24.213  25.997  1.00  0.00     0.173 A 
ATOM     69  F   UNL A   1      42.015  22.085  28.427  1.00  0.00    -0.203 F 
ATOM     70  C   UNL A   1      43.091  21.552  26.434  1.00  0.00     0.198 A 
ATOM     71  C   UNL A   1      44.118  23.234  25.100  1.00  0.00     0.198 A 
ATOM     72  F   UNL A   1      43.972  25.491  25.713  1.00  0.00    -0.203 F 
ATOM     73  F   UNL A   1      42.787  20.264  26.648  1.00  0.00    -0.200 F 
ATOM     74  C   UNL A   1      43.840  21.900  25.326  1.00  0.00     0.200 A 
ATOM     75  F   UNL A   1      44.875  23.585  24.049  1.00  0.00    -0.200 F 
ATOM     76  F   UNL A   1      44.299  20.957  24.492  1.00  0.00    -0.200 F 
ENDBRANCH  52  66
BRANCH  53  77
ATOM     77  C   UNL A   1      41.111  31.486  33.009  1.00  0.00     0.064 A 
ATOM     78  C   UNL A   1      41.074  32.882  33.212  1.00  0.00     0.173 A 
ATOM     79  C   UNL A   1      39.905  30.787  33.171  1.00  0.00     0.173 A 
ATOM     80  F   UNL A   1      42.194  33.609  33.069  1.00  0.00    -0.203 F 
ATOM     81  C   UNL A   1      39.880  33.557  33.458  1.00  0.00     0.198 A 
ATOM     82  C   UNL A   1      38.709  31.467  33.433  1.00  0.00     0.198 A 
ATOM     83  F   UNL A   1      39.859  29.462  32.977  1.00  0.00    -0.203 F 
ATOM     84  F   UNL A   1      39.872  34.897  33.522  1.00  0.00    -0.200 F 
ATOM     85  C   UNL A   1      38.694  32.850  33.553  1.00  0.00     0.200 A 
ATOM     86  F   UNL A   1      37.550  30.792  33.468  1.00  0.00    -0.200 F 
ATOM     87  F   UNL A   1      37.534  33.509  33.689  1.00  0.00    -0.200 F 
ENDBRANCH  53  77
BRANCH  65  88
ATOM     88  C   UNL A   1      45.110  25.447  33.168  1.00  0.00     0.064 A 
ATOM     89  C   UNL A   1      46.457  25.071  33.196  1.00  0.00     0.173 A 
ATOM     90  C   UNL A   1      44.259  24.801  34.101  1.00  0.00     0.173 A 
ATOM     91  F   UNL A   1      47.364  25.680  32.420  1.00  0.00    -0.203 F 
ATOM     92  C   UNL A   1      46.921  24.102  34.087  1.00  0.00     0.198 A 
ATOM     93  C   UNL A   1      44.737  23.885  35.030  1.00  0.00     0.198 A 
ATOM     94  F   UNL A   1      42.949  25.086  34.168  1.00  0.00    -0.203 F 
ATOM     95  F   UNL A   1      48.215  23.756  34.072  1.00  0.00    -0.200 F 
ATOM     96  C   UNL A   1      46.069  23.527  35.016  1.00  0.00     0.200 A 
ATOM     97  F   UNL A   1      43.911  23.381  35.958  1.00  0.00    -0.200 F 
ATOM     98  F   UNL A   1      46.536  22.647  35.910  1.00  0.00    -0.200 F 
ENDBRANCH  65  88
ENDBRANCH  39  40
ENDBRANCH  32  34
ENDBRANCH  31  32
ENDBRANCH  30  31
ENDBRANCH  29  30
ENDBRANCH  28  29
ENDBRANCH  27  28
ENDBRANCH   1  27
TORSDOF 20
ENDMDL
