MODEL 1
REMARK VINA RESULT:     -10.6      0.000      0.000
REMARK SMILES CCNC(=O)c1ccc(SC[C@H](C)C(=O)OCCOCCOCCOC(=O)c2ccc(-c3c4nc(c(-c5c(F)c(F)c(F)c(F)c5F)c5ccc([nH]5)c(-c5c(F)c(F)c(F)c(F)c5F)c5nc(c(-c6c(F)c(F)c(F)c(F)c6F)c6ccc3[nH]6)C=C5)C=C4)cc2)nn1
REMARK SMILES IDX 19 1 18 2 17 3 16 4 14 5 15 6 12 7 13 8 11 9 10 10 9 11 6 12
REMARK SMILES IDX 7 13 92 14 8 15 91 16 4 17 3 18 5 20 2 21 1 22 20 23 21 24
REMARK SMILES IDX 22 25 23 26 24 27 25 28 26 29 27 30 28 31 29 32 90 33 30 34
REMARK SMILES IDX 89 35 31 36 32 37 33 38 83 39 34 40 88 41 82 42 84 43 35 44
REMARK SMILES IDX 87 45 81 46 80 47 36 49 68 50 48 51 67 52 49 53 52 54 66 55
REMARK SMILES IDX 85 56 50 57 51 58 65 60 86 61 53 62 37 63 38 64 46 65 39 66
REMARK SMILES IDX 40 67 44 68 47 69 41 70 42 71 45 72 43 73 69 74 70 75 78 76
REMARK SMILES IDX 71 77 72 78 76 79 79 80 73 81 74 82 77 83 75 84 54 85 55 86
REMARK SMILES IDX 63 87 56 88 57 89 61 90 64 91 58 92 59 93 62 94 60 95
REMARK H PARENT 3 19 84 48 52 59
REMARK Flexibility Score: inf
ROOT
ATOM      1  O   UNL A   1      39.704  21.461  26.500  1.00  0.00    -0.376 OA
ENDROOT
BRANCH   1   2
ATOM      2  C   UNL A   1      39.666  22.848  26.824  1.00  0.00     0.202 C 
BRANCH   2   3
ATOM      3  C   UNL A   1      38.413  23.660  26.453  1.00  0.00     0.261 C 
BRANCH   3   4
ATOM      4  O   UNL A   1      37.323  22.882  25.911  1.00  0.00    -0.463 OA
BRANCH   4   5
ATOM      5  C   UNL A   1      36.595  23.451  24.921  1.00  0.00     0.309 C 
ATOM      6  O   UNL A   1      36.826  23.300  23.725  1.00  0.00    -0.252 OA
BRANCH   5   7
ATOM      7  C   UNL A   1      35.377  24.251  25.396  1.00  0.00     0.106 C 
ATOM      8  C   UNL A   1      34.416  24.786  24.327  1.00  0.00     0.021 C 
BRANCH   7   9
ATOM      9  C   UNL A   1      34.696  23.382  26.465  1.00  0.00     0.091 C 
BRANCH   9  10
ATOM     10  S   UNL A   1      33.011  22.760  26.121  1.00  0.00    -0.104 SA
BRANCH  10  11
ATOM     11  C   UNL A   1      33.243  21.135  25.450  1.00  0.00     0.119 A 
ATOM     12  C   UNL A   1      33.283  18.669  24.262  1.00  0.00     0.150 A 
ATOM     13  C   UNL A   1      34.489  19.289  24.546  1.00  0.00     0.039 A 
ATOM     14  N   UNL A   1      32.105  19.245  24.562  1.00  0.00    -0.144 NA
ATOM     15  C   UNL A   1      34.464  20.550  25.153  1.00  0.00     0.040 A 
ATOM     16  N   UNL A   1      32.093  20.481  25.171  1.00  0.00    -0.143 NA
BRANCH  12  17
ATOM     17  C   UNL A   1      33.219  17.395  23.507  1.00  0.00     0.271 C 
ATOM     18  N   UNL A   1      33.730  16.236  24.043  1.00  0.00    -0.351 N 
ATOM     19  H   UNL A   1      33.789  15.478  23.419  1.00  0.00     0.163 HD
ATOM     20  O   UNL A   1      32.739  17.374  22.377  1.00  0.00    -0.267 OA
BRANCH  18  21
ATOM     21  C   UNL A   1      34.193  15.961  25.389  1.00  0.00     0.113 C 
ATOM     22  C   UNL A   1      35.706  15.834  25.424  1.00  0.00     0.027 C 
ENDBRANCH  18  21
ENDBRANCH  12  17
ENDBRANCH  10  11
ENDBRANCH   9  10
ENDBRANCH   7   9
ENDBRANCH   5   7
ENDBRANCH   4   5
ENDBRANCH   3   4
ENDBRANCH   2   3
ENDBRANCH   1   2
BRANCH   1  23
ATOM     23  C   UNL A   1      40.773  20.661  26.992  1.00  0.00     0.188 C 
BRANCH  23  24
ATOM     24  C   UNL A   1      41.369  19.568  26.090  1.00  0.00     0.188 C 
BRANCH  24  25
ATOM     25  O   UNL A   1      42.593  19.918  25.489  1.00  0.00    -0.376 OA
BRANCH  25  26
ATOM     26  C   UNL A   1      42.983  21.281  25.506  1.00  0.00     0.202 C 
BRANCH  26  27
ATOM     27  C   UNL A   1      44.479  21.637  25.609  1.00  0.00     0.261 C 
BRANCH  27  28
ATOM     28  O   UNL A   1      44.805  22.900  26.214  1.00  0.00    -0.460 OA
BRANCH  28  29
ATOM     29  C   UNL A   1      44.488  24.019  25.520  1.00  0.00     0.338 C 
ATOM     30  O   UNL A   1      44.563  24.185  24.319  1.00  0.00    -0.246 OA
BRANCH  29  31
ATOM     31  C   UNL A   1      43.796  24.938  26.454  1.00  0.00     0.060 A 
ATOM     32  C   UNL A   1      44.148  26.296  26.455  1.00  0.00     0.016 A 
ATOM     33  C   UNL A   1      42.796  24.469  27.308  1.00  0.00     0.016 A 
ATOM     34  C   UNL A   1      43.513  27.186  27.323  1.00  0.00     0.010 A 
ATOM     35  C   UNL A   1      42.177  25.357  28.194  1.00  0.00     0.010 A 
ATOM     36  C   UNL A   1      42.549  26.714  28.224  1.00  0.00    -0.014 A 
BRANCH  36  37
ATOM     37  C   UNL A   1      42.060  27.592  29.316  1.00  0.00     0.031 A 
ATOM     38  C   UNL A   1      42.782  27.567  30.634  1.00  0.00     0.074 A 
ATOM     39  C   UNL A   1      40.997  28.399  29.148  1.00  0.00     0.049 A 
ATOM     40  N   UNL A   1      42.501  28.186  31.752  1.00  0.00    -0.248 NA
ATOM     41  C   UNL A   1      43.988  26.725  30.697  1.00  0.00     0.031 C 
ATOM     42  C   UNL A   1      40.231  28.542  27.912  1.00  0.00     0.029 A 
ATOM     43  N   UNL A   1      40.367  29.237  30.035  1.00  0.00    -0.354 N 
ATOM     44  C   UNL A   1      43.483  27.798  32.654  1.00  0.00     0.074 A 
ATOM     45  C   UNL A   1      44.354  26.873  31.961  1.00  0.00     0.031 C 
ATOM     46  C   UNL A   1      39.219  29.402  28.126  1.00  0.00     0.029 A 
ATOM     47  C   UNL A   1      39.244  29.839  29.521  1.00  0.00     0.049 A 
ATOM     48  H   UNL A   1      40.689  29.391  30.952  1.00  0.00     0.167 HD
ATOM     49  C   UNL A   1      43.648  28.183  33.941  1.00  0.00     0.037 A 
ATOM     50  C   UNL A   1      38.328  30.626  30.120  1.00  0.00     0.037 A 
ATOM     51  C   UNL A   1      42.777  29.096  34.633  1.00  0.00     0.049 A 
ATOM     52  C   UNL A   1      38.489  30.979  31.578  1.00  0.00     0.074 A 
ATOM     53  C   UNL A   1      42.875  29.567  35.931  1.00  0.00     0.029 A 
ATOM     54  N   UNL A   1      41.636  29.667  34.087  1.00  0.00    -0.354 N 
ATOM     55  N   UNL A   1      39.440  30.638  32.415  1.00  0.00    -0.248 NA
ATOM     56  C   UNL A   1      37.448  31.830  32.174  1.00  0.00     0.031 C 
ATOM     57  C   UNL A   1      41.762  30.372  36.190  1.00  0.00     0.029 A 
ATOM     58  C   UNL A   1      41.006  30.460  35.032  1.00  0.00     0.049 A 
ATOM     59  H   UNL A   1      41.322  29.528  33.164  1.00  0.00     0.167 HD
ATOM     60  C   UNL A   1      39.129  31.255  33.622  1.00  0.00     0.074 A 
ATOM     61  C   UNL A   1      37.909  32.005  33.404  1.00  0.00     0.031 C 
ATOM     62  C   UNL A   1      39.794  31.209  34.803  1.00  0.00     0.037 A 
BRANCH  49  63
ATOM     63  C   UNL A   1      44.800  27.587  34.699  1.00  0.00     0.064 A 
ATOM     64  C   UNL A   1      46.088  28.139  34.641  1.00  0.00     0.173 A 
ATOM     65  C   UNL A   1      44.604  26.465  35.518  1.00  0.00     0.173 A 
ATOM     66  F   UNL A   1      46.333  29.202  33.859  1.00  0.00    -0.203 F 
ATOM     67  C   UNL A   1      47.144  27.571  35.350  1.00  0.00     0.198 A 
ATOM     68  C   UNL A   1      45.654  25.920  36.252  1.00  0.00     0.198 A 
ATOM     69  F   UNL A   1      43.391  25.900  35.612  1.00  0.00    -0.203 F 
ATOM     70  F   UNL A   1      48.377  28.083  35.237  1.00  0.00    -0.200 F 
ATOM     71  C   UNL A   1      46.924  26.467  36.161  1.00  0.00     0.200 A 
ATOM     72  F   UNL A   1      45.436  24.862  37.045  1.00  0.00    -0.200 F 
ATOM     73  F   UNL A   1      47.939  25.926  36.849  1.00  0.00    -0.200 F 
ENDBRANCH  49  63
BRANCH  50  74
ATOM     74  C   UNL A   1      37.159  31.128  29.348  1.00  0.00     0.064 A 
ATOM     75  C   UNL A   1      36.090  30.281  29.021  1.00  0.00     0.173 A 
ATOM     76  C   UNL A   1      37.099  32.455  28.899  1.00  0.00     0.173 A 
ATOM     77  F   UNL A   1      36.113  28.996  29.404  1.00  0.00    -0.203 F 
ATOM     78  C   UNL A   1      35.017  30.738  28.258  1.00  0.00     0.198 A 
ATOM     79  C   UNL A   1      36.010  32.918  28.163  1.00  0.00     0.198 A 
ATOM     80  F   UNL A   1      38.097  33.306  29.181  1.00  0.00    -0.203 F 
ATOM     81  F   UNL A   1      34.033  29.893  27.919  1.00  0.00    -0.200 F 
ATOM     82  C   UNL A   1      34.975  32.058  27.837  1.00  0.00     0.200 A 
ATOM     83  F   UNL A   1      35.967  34.198  27.768  1.00  0.00    -0.200 F 
ATOM     84  F   UNL A   1      33.939  32.496  27.107  1.00  0.00    -0.200 F 
ENDBRANCH  50  74
BRANCH  62  85
ATOM     85  C   UNL A   1      39.250  32.024  35.942  1.00  0.00     0.064 A 
ATOM     86  C   UNL A   1      38.340  31.492  36.868  1.00  0.00     0.173 A 
ATOM     87  C   UNL A   1      39.677  33.348  36.133  1.00  0.00     0.173 A 
ATOM     88  F   UNL A   1      37.890  30.236  36.725  1.00  0.00    -0.203 F 
ATOM     89  C   UNL A   1      37.857  32.263  37.923  1.00  0.00     0.198 A 
ATOM     90  C   UNL A   1      39.218  34.104  37.209  1.00  0.00     0.198 A 
ATOM     91  F   UNL A   1      40.554  33.905  35.284  1.00  0.00    -0.203 F 
ATOM     92  F   UNL A   1      36.947  31.749  38.763  1.00  0.00    -0.200 F 
ATOM     93  C   UNL A   1      38.302  33.564  38.097  1.00  0.00     0.200 A 
ATOM     94  F   UNL A   1      39.664  35.357  37.384  1.00  0.00    -0.200 F 
ATOM     95  F   UNL A   1      37.841  34.302  39.117  1.00  0.00    -0.200 F 
ENDBRANCH  62  85
ENDBRANCH  36  37
ENDBRANCH  29  31
ENDBRANCH  28  29
ENDBRANCH  27  28
ENDBRANCH  26  27
ENDBRANCH  25  26
ENDBRANCH  24  25
ENDBRANCH  23  24
ENDBRANCH   1  23
TORSDOF 22
ENDMDL
MODEL 2
REMARK VINA RESULT:     -10.1      3.821      8.960
REMARK SMILES CCNC(=O)c1ccc(SC[C@H](C)C(=O)OCCOCCOCCOC(=O)c2ccc(-c3c4nc(c(-c5c(F)c(F)c(F)c(F)c5F)c5ccc([nH]5)c(-c5c(F)c(F)c(F)c(F)c5F)c5nc(c(-c6c(F)c(F)c(F)c(F)c6F)c6ccc3[nH]6)C=C5)C=C4)cc2)nn1
REMARK SMILES IDX 19 1 18 2 17 3 16 4 14 5 15 6 12 7 13 8 11 9 10 10 9 11 6 12
REMARK SMILES IDX 7 13 92 14 8 15 91 16 4 17 3 18 5 20 2 21 1 22 20 23 21 24
REMARK SMILES IDX 22 25 23 26 24 27 25 28 26 29 27 30 28 31 29 32 90 33 30 34
REMARK SMILES IDX 89 35 31 36 32 37 33 38 83 39 34 40 88 41 82 42 84 43 35 44
REMARK SMILES IDX 87 45 81 46 80 47 36 49 68 50 48 51 67 52 49 53 52 54 66 55
REMARK SMILES IDX 85 56 50 57 51 58 65 60 86 61 53 62 37 63 38 64 46 65 39 66
REMARK SMILES IDX 40 67 44 68 47 69 41 70 42 71 45 72 43 73 69 74 70 75 78 76
REMARK SMILES IDX 71 77 72 78 76 79 79 80 73 81 74 82 77 83 75 84 54 85 55 86
REMARK SMILES IDX 63 87 56 88 57 89 61 90 64 91 58 92 59 93 62 94 60 95
REMARK H PARENT 3 19 84 48 52 59
REMARK Flexibility Score: inf
ROOT
ATOM      1  O   UNL A   1      32.535  27.800  27.289  1.00  0.00    -0.376 OA
ENDROOT
BRANCH   1   2
ATOM      2  C   UNL A   1      31.305  27.193  26.903  1.00  0.00     0.202 C 
BRANCH   2   3
ATOM      3  C   UNL A   1      31.347  25.876  26.109  1.00  0.00     0.261 C 
BRANCH   3   4
ATOM      4  O   UNL A   1      32.407  24.971  26.488  1.00  0.00    -0.463 OA
BRANCH   4   5
ATOM      5  C   UNL A   1      32.045  23.714  26.839  1.00  0.00     0.309 C 
ATOM      6  O   UNL A   1      30.935  23.412  27.266  1.00  0.00    -0.252 OA
BRANCH   5   7
ATOM      7  C   UNL A   1      33.112  22.643  26.583  1.00  0.00     0.106 C 
ATOM      8  C   UNL A   1      34.175  22.424  27.667  1.00  0.00     0.021 C 
BRANCH   7   9
ATOM      9  C   UNL A   1      32.343  21.368  26.200  1.00  0.00     0.091 C 
BRANCH   9  10
ATOM     10  S   UNL A   1      32.268  20.909  24.432  1.00  0.00    -0.104 SA
BRANCH  10  11
ATOM     11  C   UNL A   1      32.351  22.442  23.548  1.00  0.00     0.119 A 
ATOM     12  C   UNL A   1      32.714  24.651  21.970  1.00  0.00     0.150 A 
ATOM     13  C   UNL A   1      31.507  24.500  22.634  1.00  0.00     0.039 A 
ATOM     14  N   UNL A   1      33.704  23.748  22.091  1.00  0.00    -0.144 NA
ATOM     15  C   UNL A   1      31.325  23.369  23.438  1.00  0.00     0.040 A 
ATOM     16  N   UNL A   1      33.518  22.646  22.895  1.00  0.00    -0.143 NA
BRANCH  12  17
ATOM     17  C   UNL A   1      32.940  25.749  21.002  1.00  0.00     0.271 C 
ATOM     18  N   UNL A   1      33.097  27.046  21.435  1.00  0.00    -0.351 N 
ATOM     19  H   UNL A   1      33.084  27.727  20.725  1.00  0.00     0.163 HD
ATOM     20  O   UNL A   1      32.953  25.513  19.796  1.00  0.00    -0.267 OA
BRANCH  18  21
ATOM     21  C   UNL A   1      33.280  27.560  22.778  1.00  0.00     0.113 C 
ATOM     22  C   UNL A   1      33.910  28.941  22.746  1.00  0.00     0.027 C 
ENDBRANCH  18  21
ENDBRANCH  12  17
ENDBRANCH  10  11
ENDBRANCH   9  10
ENDBRANCH   7   9
ENDBRANCH   5   7
ENDBRANCH   4   5
ENDBRANCH   3   4
ENDBRANCH   2   3
ENDBRANCH   1   2
BRANCH   1  23
ATOM     23  C   UNL A   1      33.281  28.534  26.325  1.00  0.00     0.188 C 
BRANCH  23  24
ATOM     24  C   UNL A   1      33.182  30.069  26.309  1.00  0.00     0.188 C 
BRANCH  24  25
ATOM     25  O   UNL A   1      32.013  30.579  26.906  1.00  0.00    -0.376 OA
BRANCH  25  26
ATOM     26  C   UNL A   1      31.506  31.817  26.437  1.00  0.00     0.202 C 
BRANCH  26  27
ATOM     27  C   UNL A   1      31.898  33.118  27.164  1.00  0.00     0.261 C 
BRANCH  27  28
ATOM     28  O   UNL A   1      33.271  33.532  27.057  1.00  0.00    -0.460 OA
BRANCH  28  29
ATOM     29  C   UNL A   1      33.816  34.151  28.132  1.00  0.00     0.338 C 
ATOM     30  O   UNL A   1      33.363  35.098  28.744  1.00  0.00    -0.246 OA
BRANCH  29  31
ATOM     31  C   UNL A   1      34.952  33.318  28.594  1.00  0.00     0.060 A 
ATOM     32  C   UNL A   1      34.695  32.021  29.063  1.00  0.00     0.016 A 
ATOM     33  C   UNL A   1      36.260  33.803  28.545  1.00  0.00     0.016 A 
ATOM     34  C   UNL A   1      35.745  31.213  29.502  1.00  0.00     0.010 A 
ATOM     35  C   UNL A   1      37.308  33.001  29.008  1.00  0.00     0.010 A 
ATOM     36  C   UNL A   1      37.054  31.712  29.512  1.00  0.00    -0.014 A 
BRANCH  36  37
ATOM     37  C   UNL A   1      38.130  30.965  30.209  1.00  0.00     0.031 A 
ATOM     38  C   UNL A   1      38.401  31.282  31.654  1.00  0.00     0.074 A 
ATOM     39  C   UNL A   1      38.855  30.023  29.581  1.00  0.00     0.049 A 
ATOM     40  N   UNL A   1      39.329  30.817  32.450  1.00  0.00    -0.248 NA
ATOM     41  C   UNL A   1      37.499  32.259  32.285  1.00  0.00     0.031 C 
ATOM     42  C   UNL A   1      38.670  29.598  28.196  1.00  0.00     0.029 A 
ATOM     43  N   UNL A   1      39.910  29.266  30.029  1.00  0.00    -0.354 N 
ATOM     44  C   UNL A   1      39.133  31.454  33.669  1.00  0.00     0.074 A 
ATOM     45  C   UNL A   1      38.013  32.355  33.501  1.00  0.00     0.031 C 
ATOM     46  C   UNL A   1      39.597  28.670  27.899  1.00  0.00     0.029 A 
ATOM     47  C   UNL A   1      40.461  28.463  29.061  1.00  0.00     0.049 A 
ATOM     48  H   UNL A   1      40.240  29.297  30.956  1.00  0.00     0.167 HD
ATOM     49  C   UNL A   1      39.821  31.298  34.824  1.00  0.00     0.037 A 
ATOM     50  C   UNL A   1      41.556  27.678  29.101  1.00  0.00     0.037 A 
ATOM     51  C   UNL A   1      40.940  30.409  34.989  1.00  0.00     0.049 A 
ATOM     52  C   UNL A   1      42.355  27.579  30.378  1.00  0.00     0.074 A 
ATOM     53  C   UNL A   1      41.687  30.163  36.128  1.00  0.00     0.029 A 
ATOM     54  N   UNL A   1      41.485  29.630  33.979  1.00  0.00    -0.354 N 
ATOM     55  N   UNL A   1      42.142  28.157  31.537  1.00  0.00    -0.248 NA
ATOM     56  C   UNL A   1      43.545  26.716  30.353  1.00  0.00     0.031 C 
ATOM     57  C   UNL A   1      42.720  29.283  35.792  1.00  0.00     0.029 A 
ATOM     58  C   UNL A   1      42.577  28.926  34.461  1.00  0.00     0.049 A 
ATOM     59  H   UNL A   1      41.146  29.584  33.055  1.00  0.00     0.167 HD
ATOM     60  C   UNL A   1      43.149  27.704  32.382  1.00  0.00     0.074 A 
ATOM     61  C   UNL A   1      43.964  26.792  31.607  1.00  0.00     0.031 C 
ATOM     62  C   UNL A   1      43.378  28.014  33.683  1.00  0.00     0.037 A 
BRANCH  49  63
ATOM     63  C   UNL A   1      39.401  32.137  35.997  1.00  0.00     0.064 A 
ATOM     64  C   UNL A   1      38.440  31.693  36.918  1.00  0.00     0.173 A 
ATOM     65  C   UNL A   1      39.989  33.391  36.218  1.00  0.00     0.173 A 
ATOM     66  F   UNL A   1      37.834  30.508  36.744  1.00  0.00    -0.203 F 
ATOM     67  C   UNL A   1      38.063  32.485  38.000  1.00  0.00     0.198 A 
ATOM     68  C   UNL A   1      39.635  34.166  37.319  1.00  0.00     0.198 A 
ATOM     69  F   UNL A   1      40.916  33.862  35.370  1.00  0.00    -0.203 F 
ATOM     70  F   UNL A   1      37.104  32.063  38.836  1.00  0.00    -0.200 F 
ATOM     71  C   UNL A   1      38.666  33.718  38.203  1.00  0.00     0.200 A 
ATOM     72  F   UNL A   1      40.228  35.351  37.521  1.00  0.00    -0.200 F 
ATOM     73  F   UNL A   1      38.307  34.477  39.248  1.00  0.00    -0.200 F 
ENDBRANCH  49  63
BRANCH  50  74
ATOM     74  C   UNL A   1      41.980  26.927  27.889  1.00  0.00     0.064 A 
ATOM     75  C   UNL A   1      42.885  27.484  26.972  1.00  0.00     0.173 A 
ATOM     76  C   UNL A   1      41.471  25.651  27.607  1.00  0.00     0.173 A 
ATOM     77  F   UNL A   1      43.379  28.712  27.183  1.00  0.00    -0.203 F 
ATOM     78  C   UNL A   1      43.247  26.801  25.812  1.00  0.00     0.198 A 
ATOM     79  C   UNL A   1      41.857  24.957  26.463  1.00  0.00     0.198 A 
ATOM     80  F   UNL A   1      40.599  25.075  28.448  1.00  0.00    -0.203 F 
ATOM     81  F   UNL A   1      44.074  27.378  24.931  1.00  0.00    -0.200 F 
ATOM     82  C   UNL A   1      42.738  25.535  25.563  1.00  0.00     0.200 A 
ATOM     83  F   UNL A   1      41.373  23.729  26.231  1.00  0.00    -0.200 F 
ATOM     84  F   UNL A   1      43.091  24.878  24.449  1.00  0.00    -0.200 F 
ENDBRANCH  50  74
BRANCH  62  85
ATOM     85  C   UNL A   1      44.526  27.329  34.371  1.00  0.00     0.064 A 
ATOM     86  C   UNL A   1      44.389  26.064  34.962  1.00  0.00     0.173 A 
ATOM     87  C   UNL A   1      45.794  27.932  34.403  1.00  0.00     0.173 A 
ATOM     88  F   UNL A   1      43.197  25.448  34.970  1.00  0.00    -0.203 F 
ATOM     89  C   UNL A   1      45.470  25.443  35.584  1.00  0.00     0.198 A 
ATOM     90  C   UNL A   1      46.880  27.292  34.997  1.00  0.00     0.198 A 
ATOM     91  F   UNL A   1      45.984  29.137  33.845  1.00  0.00    -0.203 F 
ATOM     92  F   UNL A   1      45.301  24.258  36.189  1.00  0.00    -0.200 F 
ATOM     93  C   UNL A   1      46.715  26.053  35.594  1.00  0.00     0.200 A 
ATOM     94  F   UNL A   1      48.086  27.878  34.989  1.00  0.00    -0.200 F 
ATOM     95  F   UNL A   1      47.755  25.451  36.188  1.00  0.00    -0.200 F 
ENDBRANCH  62  85
ENDBRANCH  36  37
ENDBRANCH  29  31
ENDBRANCH  28  29
ENDBRANCH  27  28
ENDBRANCH  26  27
ENDBRANCH  25  26
ENDBRANCH  24  25
ENDBRANCH  23  24
ENDBRANCH   1  23
TORSDOF 22
ENDMDL
MODEL 3
REMARK VINA RESULT:     -10.0      5.901     11.719
REMARK SMILES CCNC(=O)c1ccc(SC[C@H](C)C(=O)OCCOCCOCCOC(=O)c2ccc(-c3c4nc(c(-c5c(F)c(F)c(F)c(F)c5F)c5ccc([nH]5)c(-c5c(F)c(F)c(F)c(F)c5F)c5nc(c(-c6c(F)c(F)c(F)c(F)c6F)c6ccc3[nH]6)C=C5)C=C4)cc2)nn1
REMARK SMILES IDX 19 1 18 2 17 3 16 4 14 5 15 6 12 7 13 8 11 9 10 10 9 11 6 12
REMARK SMILES IDX 7 13 92 14 8 15 91 16 4 17 3 18 5 20 2 21 1 22 20 23 21 24
REMARK SMILES IDX 22 25 23 26 24 27 25 28 26 29 27 30 28 31 29 32 90 33 30 34
REMARK SMILES IDX 89 35 31 36 32 37 33 38 83 39 34 40 88 41 82 42 84 43 35 44
REMARK SMILES IDX 87 45 81 46 80 47 36 49 68 50 48 51 67 52 49 53 52 54 66 55
REMARK SMILES IDX 85 56 50 57 51 58 65 60 86 61 53 62 37 63 38 64 46 65 39 66
REMARK SMILES IDX 40 67 44 68 47 69 41 70 42 71 45 72 43 73 69 74 70 75 78 76
REMARK SMILES IDX 71 77 72 78 76 79 79 80 73 81 74 82 77 83 75 84 54 85 55 86
REMARK SMILES IDX 63 87 56 88 57 89 61 90 64 91 58 92 59 93 62 94 60 95
REMARK H PARENT 3 19 84 48 52 59
REMARK Flexibility Score: inf
ROOT
ATOM      1  O   UNL A   1      32.650  36.805  31.708  1.00  0.00    -0.376 OA
ENDROOT
BRANCH   1   2
ATOM      2  C   UNL A   1      33.209  36.008  32.748  1.00  0.00     0.202 C 
BRANCH   2   3
ATOM      3  C   UNL A   1      34.721  36.093  33.015  1.00  0.00     0.261 C 
BRANCH   3   4
ATOM      4  O   UNL A   1      35.507  35.051  32.395  1.00  0.00    -0.463 OA
BRANCH   4   5
ATOM      5  C   UNL A   1      36.477  34.482  33.149  1.00  0.00     0.309 C 
ATOM      6  O   UNL A   1      37.085  35.066  34.041  1.00  0.00    -0.252 OA
BRANCH   5   7
ATOM      7  C   UNL A   1      36.718  32.994  32.870  1.00  0.00     0.106 C 
ATOM      8  C   UNL A   1      36.489  32.491  31.439  1.00  0.00     0.021 C 
BRANCH   7   9
ATOM      9  C   UNL A   1      38.120  32.686  33.420  1.00  0.00     0.091 C 
BRANCH   9  10
ATOM     10  S   UNL A   1      38.243  31.910  35.071  1.00  0.00    -0.104 SA
BRANCH  10  11
ATOM     11  C   UNL A   1      39.374  30.561  34.869  1.00  0.00     0.119 A 
ATOM     12  C   UNL A   1      41.016  28.369  34.878  1.00  0.00     0.150 A 
ATOM     13  C   UNL A   1      40.579  28.867  33.660  1.00  0.00     0.039 A 
ATOM     14  N   UNL A   1      40.659  28.940  36.043  1.00  0.00    -0.144 NA
ATOM     15  C   UNL A   1      39.739  29.986  33.660  1.00  0.00     0.040 A 
ATOM     16  N   UNL A   1      39.842  30.049  36.029  1.00  0.00    -0.143 NA
BRANCH  12  17
ATOM     17  C   UNL A   1      41.800  27.115  34.972  1.00  0.00     0.271 C 
ATOM     18  N   UNL A   1      43.168  27.131  34.825  1.00  0.00    -0.351 N 
ATOM     19  H   UNL A   1      43.589  26.245  34.744  1.00  0.00     0.163 HD
ATOM     20  O   UNL A   1      41.227  26.043  35.148  1.00  0.00    -0.267 OA
BRANCH  18  21
ATOM     21  C   UNL A   1      44.083  28.254  34.771  1.00  0.00     0.113 C 
ATOM     22  C   UNL A   1      44.517  28.664  36.167  1.00  0.00     0.027 C 
ENDBRANCH  18  21
ENDBRANCH  12  17
ENDBRANCH  10  11
ENDBRANCH   9  10
ENDBRANCH   7   9
ENDBRANCH   5   7
ENDBRANCH   4   5
ENDBRANCH   3   4
ENDBRANCH   2   3
ENDBRANCH   1   2
BRANCH   1  23
ATOM     23  C   UNL A   1      33.065  36.587  30.365  1.00  0.00     0.188 C 
BRANCH  23  24
ATOM     24  C   UNL A   1      33.297  35.148  29.875  1.00  0.00     0.188 C 
BRANCH  24  25
ATOM     25  O   UNL A   1      32.578  34.811  28.711  1.00  0.00    -0.376 OA
BRANCH  25  26
ATOM     26  C   UNL A   1      33.101  33.795  27.872  1.00  0.00     0.202 C 
BRANCH  26  27
ATOM     27  C   UNL A   1      33.901  32.635  28.498  1.00  0.00     0.261 C 
BRANCH  27  28
ATOM     28  O   UNL A   1      34.640  31.796  27.594  1.00  0.00    -0.460 OA
BRANCH  28  29
ATOM     29  C   UNL A   1      34.619  30.462  27.831  1.00  0.00     0.338 C 
ATOM     30  O   UNL A   1      33.691  29.699  27.655  1.00  0.00    -0.246 OA
BRANCH  29  31
ATOM     31  C   UNL A   1      36.011  30.042  28.117  1.00  0.00     0.060 A 
ATOM     32  C   UNL A   1      36.321  29.543  29.391  1.00  0.00     0.016 A 
ATOM     33  C   UNL A   1      36.997  30.120  27.132  1.00  0.00     0.016 A 
ATOM     34  C   UNL A   1      37.623  29.138  29.689  1.00  0.00     0.010 A 
ATOM     35  C   UNL A   1      38.307  29.737  27.440  1.00  0.00     0.010 A 
ATOM     36  C   UNL A   1      38.632  29.267  28.726  1.00  0.00    -0.014 A 
BRANCH  36  37
ATOM     37  C   UNL A   1      40.054  29.085  29.110  1.00  0.00     0.031 A 
ATOM     38  C   UNL A   1      40.761  27.833  28.668  1.00  0.00     0.074 A 
ATOM     39  C   UNL A   1      40.712  30.008  29.834  1.00  0.00     0.049 A 
ATOM     40  N   UNL A   1      41.971  27.419  28.939  1.00  0.00    -0.248 NA
ATOM     41  C   UNL A   1      39.992  26.925  27.803  1.00  0.00     0.031 C 
ATOM     42  C   UNL A   1      40.153  31.276  30.295  1.00  0.00     0.029 A 
ATOM     43  N   UNL A   1      41.994  30.005  30.326  1.00  0.00    -0.354 N 
ATOM     44  C   UNL A   1      42.105  26.198  28.291  1.00  0.00     0.074 A 
ATOM     45  C   UNL A   1      40.845  25.927  27.634  1.00  0.00     0.031 C 
ATOM     46  C   UNL A   1      41.083  31.922  31.022  1.00  0.00     0.029 A 
ATOM     47  C   UNL A   1      42.287  31.095  31.108  1.00  0.00     0.049 A 
ATOM     48  H   UNL A   1      42.642  29.288  30.136  1.00  0.00     0.167 HD
ATOM     49  C   UNL A   1      43.182  25.380  28.245  1.00  0.00     0.037 A 
ATOM     50  C   UNL A   1      43.387  31.375  31.834  1.00  0.00     0.037 A 
ATOM     51  C   UNL A   1      44.432  25.645  28.906  1.00  0.00     0.049 A 
ATOM     52  C   UNL A   1      44.547  30.409  31.830  1.00  0.00     0.074 A 
ATOM     53  C   UNL A   1      45.591  24.888  28.897  1.00  0.00     0.029 A 
ATOM     54  N   UNL A   1      44.683  26.748  29.709  1.00  0.00    -0.354 N 
ATOM     55  N   UNL A   1      44.680  29.274  31.186  1.00  0.00    -0.248 NA
ATOM     56  C   UNL A   1      45.712  30.767  32.652  1.00  0.00     0.031 C 
ATOM     57  C   UNL A   1      46.521  25.500  29.743  1.00  0.00     0.029 A 
ATOM     58  C   UNL A   1      45.967  26.675  30.225  1.00  0.00     0.049 A 
ATOM     59  H   UNL A   1      44.042  27.475  29.885  1.00  0.00     0.167 HD
ATOM     60  C   UNL A   1      45.949  28.801  31.500  1.00  0.00     0.074 A 
ATOM     61  C   UNL A   1      46.552  29.780  32.380  1.00  0.00     0.031 C 
ATOM     62  C   UNL A   1      46.561  27.660  31.095  1.00  0.00     0.037 A 
BRANCH  49  63
ATOM     63  C   UNL A   1      43.043  24.097  27.475  1.00  0.00     0.064 A 
ATOM     64  C   UNL A   1      43.364  24.013  26.113  1.00  0.00     0.173 A 
ATOM     65  C   UNL A   1      42.608  22.929  28.119  1.00  0.00     0.173 A 
ATOM     66  F   UNL A   1      43.768  25.105  25.445  1.00  0.00    -0.203 F 
ATOM     67  C   UNL A   1      43.228  22.814  25.416  1.00  0.00     0.198 A 
ATOM     68  C   UNL A   1      42.505  21.725  27.429  1.00  0.00     0.198 A 
ATOM     69  F   UNL A   1      42.291  22.953  29.423  1.00  0.00    -0.203 F 
ATOM     70  F   UNL A   1      43.489  22.771  24.102  1.00  0.00    -0.200 F 
ATOM     71  C   UNL A   1      42.805  21.670  26.076  1.00  0.00     0.200 A 
ATOM     72  F   UNL A   1      42.110  20.617  28.072  1.00  0.00    -0.200 F 
ATOM     73  F   UNL A   1      42.681  20.515  25.407  1.00  0.00    -0.200 F 
ENDBRANCH  49  63
BRANCH  50  74
ATOM     74  C   UNL A   1      43.448  32.621  32.645  1.00  0.00     0.064 A 
ATOM     75  C   UNL A   1      43.033  32.633  33.985  1.00  0.00     0.173 A 
ATOM     76  C   UNL A   1      43.895  33.829  32.091  1.00  0.00     0.173 A 
ATOM     77  F   UNL A   1      42.572  31.509  34.552  1.00  0.00    -0.203 F 
ATOM     78  C   UNL A   1      43.046  33.810  34.732  1.00  0.00     0.198 A 
ATOM     79  C   UNL A   1      43.936  34.998  32.848  1.00  0.00     0.198 A 
ATOM     80  F   UNL A   1      44.299  33.873  30.813  1.00  0.00    -0.203 F 
ATOM     81  F   UNL A   1      42.597  33.802  35.995  1.00  0.00    -0.200 F 
ATOM     82  C   UNL A   1      43.504  34.989  34.165  1.00  0.00     0.200 A 
ATOM     83  F   UNL A   1      44.392  36.133  32.300  1.00  0.00    -0.200 F 
ATOM     84  F   UNL A   1      43.520  36.118  34.886  1.00  0.00    -0.200 F 
ENDBRANCH  50  74
BRANCH  62  85
ATOM     85  C   UNL A   1      47.972  27.424  31.558  1.00  0.00     0.064 A 
ATOM     86  C   UNL A   1      49.076  27.964  30.880  1.00  0.00     0.173 A 
ATOM     87  C   UNL A   1      48.221  26.678  32.721  1.00  0.00     0.173 A 
ATOM     88  F   UNL A   1      48.895  28.674  29.756  1.00  0.00    -0.203 F 
ATOM     89  C   UNL A   1      50.374  27.742  31.333  1.00  0.00     0.198 A 
ATOM     90  C   UNL A   1      49.518  26.487  33.190  1.00  0.00     0.198 A 
ATOM     91  F   UNL A   1      47.202  26.146  33.414  1.00  0.00    -0.203 F 
ATOM     92  F   UNL A   1      51.415  28.223  30.639  1.00  0.00    -0.200 F 
ATOM     93  C   UNL A   1      50.594  27.011  32.490  1.00  0.00     0.200 A 
ATOM     94  F   UNL A   1      49.726  25.795  34.319  1.00  0.00    -0.200 F 
ATOM     95  F   UNL A   1      51.844  26.804  32.929  1.00  0.00    -0.200 F 
ENDBRANCH  62  85
ENDBRANCH  36  37
ENDBRANCH  29  31
ENDBRANCH  28  29
ENDBRANCH  27  28
ENDBRANCH  26  27
ENDBRANCH  25  26
ENDBRANCH  24  25
ENDBRANCH  23  24
ENDBRANCH   1  23
TORSDOF 22
ENDMDL
