MODEL 1
REMARK VINA RESULT:     -11.3      0.000      0.000
REMARK SMILES Cc1ccccc1C[C@H](C[C@@H]1Cc2ccccc21)C(=O)OCCOCCOCCOC(=O)c1ccc(-c2c3nc(c(-c4c(F)c(F)c(F)c(F)c4F)c4ccc([nH]4)c(-c4c(F)c(F)c(F)c(F)c4F)c4nc(c(-c5c(F)c(F)c(F)c(F)c5F)c5ccc2[nH]5)C=C4)C=C3)cc1
REMARK SMILES IDX 25 1 24 2 23 3 22 4 21 5 19 6 20 7 9 8 8 9 7 10 1 11 2 12
REMARK SMILES IDX 3 13 4 14 6 15 5 16 10 17 11 18 12 19 18 20 13 21 17 22
REMARK SMILES IDX 14 23 16 24 15 25 26 26 27 27 28 28 29 29 30 30 31 31 32 32
REMARK SMILES IDX 33 33 34 34 95 35 35 36 94 37 36 38 37 39 38 40 88 41 39 42
REMARK SMILES IDX 93 43 87 44 89 45 40 46 92 47 86 48 85 49 41 51 73 52 53 53
REMARK SMILES IDX 72 54 54 55 57 56 71 57 90 58 55 59 56 60 70 62 91 63 58 64
REMARK SMILES IDX 42 65 43 66 51 67 44 68 45 69 49 70 52 71 46 72 47 73 50 74
REMARK SMILES IDX 48 75 74 76 75 77 83 78 76 79 77 80 81 81 84 82 78 83 79 84
REMARK SMILES IDX 82 85 80 86 59 87 60 88 68 89 61 90 62 91 66 92 69 93 63 94
REMARK SMILES IDX 64 95 67 96 65 97
REMARK H PARENT 89 50 57 61
REMARK Flexibility Score: inf
ROOT
ATOM      1  C   UNL A   1      40.424  20.545  26.857  1.00  0.00     0.188 C 
ENDROOT
BRANCH   1   2
ATOM      2  O   UNL A   1      40.798  21.890  27.044  1.00  0.00    -0.376 OA
BRANCH   2   3
ATOM      3  C   UNL A   1      39.702  22.794  27.204  1.00  0.00     0.202 C 
BRANCH   3   4
ATOM      4  C   UNL A   1      38.555  22.890  26.125  1.00  0.00     0.261 C 
BRANCH   4   5
ATOM      5  O   UNL A   1      37.281  23.690  25.883  1.00  0.00    -0.463 OA
BRANCH   5   6
ATOM      6  C   UNL A   1      36.595  23.724  24.670  1.00  0.00     0.309 C 
ATOM      7  O   UNL A   1      37.116  23.101  23.751  1.00  0.00    -0.252 OA
BRANCH   6   8
ATOM      8  C   UNL A   1      35.047  24.398  24.487  1.00  0.00     0.104 C 
BRANCH   8   9
ATOM      9  C   UNL A   1      34.341  24.937  25.829  1.00  0.00     0.051 C 
BRANCH   9  10
ATOM     10  C   UNL A   1      32.944  24.546  26.227  1.00  0.00    -0.044 A 
ATOM     11  C   UNL A   1      33.530  22.412  27.558  1.00  0.00     0.044 C 
ATOM     12  C   UNL A   1      32.591  23.316  26.816  1.00  0.00    -0.048 A 
ATOM     13  C   UNL A   1      31.246  22.952  26.876  1.00  0.00     0.004 A 
ATOM     14  C   UNL A   1      30.275  23.854  26.502  1.00  0.00     0.000 A 
ATOM     15  C   UNL A   1      31.937  25.493  26.024  1.00  0.00     0.004 A 
ATOM     16  C   UNL A   1      30.605  25.140  26.126  1.00  0.00     0.000 A 
ENDBRANCH   9  10
ENDBRANCH   8   9
BRANCH   8  17
ATOM     17  C   UNL A   1      33.837  24.047  23.418  1.00  0.00     0.024 C 
BRANCH  17  18
ATOM     18  C   UNL A   1      33.455  22.559  23.114  1.00  0.00     0.025 C 
ATOM     19  C   UNL A   1      32.004  21.989  23.093  1.00  0.00     0.044 C 
ATOM     20  C   UNL A   1      33.785  21.330  23.973  1.00  0.00    -0.041 A 
ATOM     21  C   UNL A   1      32.571  20.754  23.675  1.00  0.00    -0.044 A 
ATOM     22  C   UNL A   1      34.731  20.560  24.612  1.00  0.00     0.004 A 
ATOM     23  C   UNL A   1      32.152  19.511  24.098  1.00  0.00     0.004 A 
ATOM     24  C   UNL A   1      34.366  19.252  25.015  1.00  0.00     0.000 A 
ATOM     25  C   UNL A   1      33.083  18.732  24.762  1.00  0.00     0.000 A 
ENDBRANCH  17  18
ENDBRANCH   8  17
ENDBRANCH   6   8
ENDBRANCH   5   6
ENDBRANCH   4   5
ENDBRANCH   3   4
ENDBRANCH   2   3
ENDBRANCH   1   2
BRANCH   1  26
ATOM     26  C   UNL A   1      41.613  19.569  26.971  1.00  0.00     0.188 C 
BRANCH  26  27
ATOM     27  O   UNL A   1      41.866  18.870  25.750  1.00  0.00    -0.376 OA
BRANCH  27  28
ATOM     28  C   UNL A   1      42.940  17.938  25.773  1.00  0.00     0.202 C 
BRANCH  28  29
ATOM     29  C   UNL A   1      44.290  18.619  25.514  1.00  0.00     0.261 C 
BRANCH  29  30
ATOM     30  O   UNL A   1      44.153  19.539  24.409  1.00  0.00    -0.460 OA
BRANCH  30  31
ATOM     31  C   UNL A   1      44.943  20.645  24.517  1.00  0.00     0.338 C 
ATOM     32  O   UNL A   1      46.112  20.703  24.213  1.00  0.00    -0.246 OA
BRANCH  31  33
ATOM     33  C   UNL A   1      44.213  21.651  25.364  1.00  0.00     0.060 A 
ATOM     34  C   UNL A   1      43.650  22.723  24.717  1.00  0.00     0.016 A 
ATOM     35  C   UNL A   1      44.272  21.722  26.760  1.00  0.00     0.016 A 
ATOM     36  C   UNL A   1      43.342  23.889  25.467  1.00  0.00     0.010 A 
ATOM     37  C   UNL A   1      44.000  22.938  27.468  1.00  0.00     0.010 A 
ATOM     38  C   UNL A   1      43.631  24.121  26.817  1.00  0.00    -0.014 A 
BRANCH  38  39
ATOM     39  C   UNL A   1      43.645  25.496  27.525  1.00  0.00     0.031 A 
ATOM     40  C   UNL A   1      42.336  26.249  27.780  1.00  0.00     0.074 A 
ATOM     41  C   UNL A   1      44.690  26.345  27.878  1.00  0.00     0.049 A 
ATOM     42  N   UNL A   1      42.278  27.398  28.396  1.00  0.00    -0.248 NA
ATOM     43  C   UNL A   1      41.044  25.906  27.198  1.00  0.00     0.031 C 
ATOM     44  C   UNL A   1      44.701  27.060  29.166  1.00  0.00     0.029 A 
ATOM     45  N   UNL A   1      45.887  26.836  27.307  1.00  0.00    -0.354 N 
ATOM     46  C   UNL A   1      41.013  27.899  28.340  1.00  0.00     0.074 A 
ATOM     47  C   UNL A   1      40.296  26.964  27.520  1.00  0.00     0.031 C 
ATOM     48  C   UNL A   1      45.669  27.983  29.206  1.00  0.00     0.029 A 
ATOM     49  C   UNL A   1      46.428  27.950  27.978  1.00  0.00     0.049 A 
ATOM     50  H   UNL A   1      46.305  26.435  26.511  1.00  0.00     0.167 HD
ATOM     51  C   UNL A   1      40.665  29.022  29.027  1.00  0.00     0.037 A 
ATOM     52  C   UNL A   1      47.340  28.882  27.558  1.00  0.00     0.037 A 
ATOM     53  C   UNL A   1      41.795  29.783  29.560  1.00  0.00     0.049 A 
ATOM     54  C   UNL A   1      46.984  30.305  27.933  1.00  0.00     0.074 A 
ATOM     55  C   UNL A   1      42.586  29.685  30.692  1.00  0.00     0.029 A 
ATOM     56  N   UNL A   1      42.408  30.743  28.771  1.00  0.00    -0.354 N 
ATOM     57  N   UNL A   1      46.028  30.641  28.754  1.00  0.00    -0.248 NA
ATOM     58  C   UNL A   1      47.550  31.465  27.243  1.00  0.00     0.031 C 
ATOM     59  C   UNL A   1      43.630  30.652  30.602  1.00  0.00     0.029 A 
ATOM     60  C   UNL A   1      43.500  31.339  29.405  1.00  0.00     0.049 A 
ATOM     61  H   UNL A   1      42.108  30.979  27.865  1.00  0.00     0.167 HD
ATOM     62  C   UNL A   1      45.625  31.927  28.457  1.00  0.00     0.074 A 
ATOM     63  C   UNL A   1      46.683  32.430  27.589  1.00  0.00     0.031 C 
ATOM     64  C   UNL A   1      44.335  32.350  28.716  1.00  0.00     0.037 A 
BRANCH  51  65
ATOM     65  C   UNL A   1      39.236  29.144  29.511  1.00  0.00     0.064 A 
ATOM     66  C   UNL A   1      38.296  29.822  28.714  1.00  0.00     0.173 A 
ATOM     67  C   UNL A   1      38.795  28.817  30.807  1.00  0.00     0.173 A 
ATOM     68  F   UNL A   1      38.543  30.089  27.425  1.00  0.00    -0.203 F 
ATOM     69  C   UNL A   1      37.083  30.285  29.230  1.00  0.00     0.198 A 
ATOM     70  C   UNL A   1      37.628  29.358  31.353  1.00  0.00     0.198 A 
ATOM     71  F   UNL A   1      39.469  27.947  31.571  1.00  0.00    -0.203 F 
ATOM     72  F   UNL A   1      36.231  30.942  28.433  1.00  0.00    -0.200 F 
ATOM     73  C   UNL A   1      36.779  30.110  30.566  1.00  0.00     0.200 A 
ATOM     74  F   UNL A   1      37.346  29.167  32.650  1.00  0.00    -0.200 F 
ATOM     75  F   UNL A   1      35.665  30.640  31.085  1.00  0.00    -0.200 F 
ENDBRANCH  51  65
BRANCH  52  76
ATOM     76  C   UNL A   1      48.332  28.514  26.502  1.00  0.00     0.064 A 
ATOM     77  C   UNL A   1      49.669  28.325  26.896  1.00  0.00     0.173 A 
ATOM     78  C   UNL A   1      48.020  28.162  25.184  1.00  0.00     0.173 A 
ATOM     79  F   UNL A   1      50.073  28.747  28.105  1.00  0.00    -0.203 F 
ATOM     80  C   UNL A   1      50.575  27.604  26.112  1.00  0.00     0.198 A 
ATOM     81  C   UNL A   1      48.930  27.448  24.391  1.00  0.00     0.198 A 
ATOM     82  F   UNL A   1      46.820  28.457  24.668  1.00  0.00    -0.203 F 
ATOM     83  F   UNL A   1      51.792  27.307  26.591  1.00  0.00    -0.200 F 
ATOM     84  C   UNL A   1      50.184  27.118  24.880  1.00  0.00     0.200 A 
ATOM     85  F   UNL A   1      48.571  27.025  23.169  1.00  0.00    -0.200 F 
ATOM     86  F   UNL A   1      51.007  26.327  24.175  1.00  0.00    -0.200 F 
ENDBRANCH  52  76
BRANCH  64  87
ATOM     87  C   UNL A   1      43.725  33.623  28.112  1.00  0.00     0.064 A 
ATOM     88  C   UNL A   1      43.300  34.735  28.863  1.00  0.00     0.173 A 
ATOM     89  C   UNL A   1      43.556  33.786  26.713  1.00  0.00     0.173 A 
ATOM     90  F   UNL A   1      43.151  34.657  30.190  1.00  0.00    -0.203 F 
ATOM     91  C   UNL A   1      42.946  35.959  28.272  1.00  0.00     0.198 A 
ATOM     92  C   UNL A   1      43.155  34.987  26.123  1.00  0.00     0.198 A 
ATOM     93  F   UNL A   1      43.765  32.790  25.847  1.00  0.00    -0.203 F 
ATOM     94  F   UNL A   1      42.653  37.012  29.048  1.00  0.00    -0.200 F 
ATOM     95  C   UNL A   1      42.891  36.090  26.900  1.00  0.00     0.200 A 
ATOM     96  F   UNL A   1      43.038  35.060  24.789  1.00  0.00    -0.200 F 
ATOM     97  F   UNL A   1      42.551  37.254  26.333  1.00  0.00    -0.200 F 
ENDBRANCH  64  87
ENDBRANCH  38  39
ENDBRANCH  31  33
ENDBRANCH  30  31
ENDBRANCH  29  30
ENDBRANCH  28  29
ENDBRANCH  27  28
ENDBRANCH  26  27
ENDBRANCH   1  26
TORSDOF 21
ENDMDL
MODEL 2
REMARK VINA RESULT:     -11.1      5.713     11.097
REMARK SMILES Cc1ccccc1C[C@H](C[C@@H]1Cc2ccccc21)C(=O)OCCOCCOCCOC(=O)c1ccc(-c2c3nc(c(-c4c(F)c(F)c(F)c(F)c4F)c4ccc([nH]4)c(-c4c(F)c(F)c(F)c(F)c4F)c4nc(c(-c5c(F)c(F)c(F)c(F)c5F)c5ccc2[nH]5)C=C4)C=C3)cc1
REMARK SMILES IDX 25 1 24 2 23 3 22 4 21 5 19 6 20 7 9 8 8 9 7 10 1 11 2 12
REMARK SMILES IDX 3 13 4 14 6 15 5 16 10 17 11 18 12 19 18 20 13 21 17 22
REMARK SMILES IDX 14 23 16 24 15 25 26 26 27 27 28 28 29 29 30 30 31 31 32 32
REMARK SMILES IDX 33 33 34 34 95 35 35 36 94 37 36 38 37 39 38 40 88 41 39 42
REMARK SMILES IDX 93 43 87 44 89 45 40 46 92 47 86 48 85 49 41 51 73 52 53 53
REMARK SMILES IDX 72 54 54 55 57 56 71 57 90 58 55 59 56 60 70 62 91 63 58 64
REMARK SMILES IDX 42 65 43 66 51 67 44 68 45 69 49 70 52 71 46 72 47 73 50 74
REMARK SMILES IDX 48 75 74 76 75 77 83 78 76 79 77 80 81 81 84 82 78 83 79 84
REMARK SMILES IDX 82 85 80 86 59 87 60 88 68 89 61 90 62 91 66 92 69 93 63 94
REMARK SMILES IDX 64 95 67 96 65 97
REMARK H PARENT 89 50 57 61
REMARK Flexibility Score: inf
ROOT
ATOM      1  C   UNL A   1      32.951  30.788  26.991  1.00  0.00     0.188 C 
ENDROOT
BRANCH   1   2
ATOM      2  O   UNL A   1      33.041  29.397  27.199  1.00  0.00    -0.376 OA
BRANCH   2   3
ATOM      3  C   UNL A   1      31.783  28.717  27.214  1.00  0.00     0.202 C 
BRANCH   3   4
ATOM      4  C   UNL A   1      31.633  27.258  26.633  1.00  0.00     0.261 C 
BRANCH   4   5
ATOM      5  O   UNL A   1      31.521  25.830  27.152  1.00  0.00    -0.463 OA
BRANCH   5   6
ATOM      6  C   UNL A   1      31.182  24.733  26.362  1.00  0.00     0.309 C 
ATOM      7  O   UNL A   1      30.258  24.045  26.783  1.00  0.00    -0.252 OA
BRANCH   6   8
ATOM      8  C   UNL A   1      31.838  24.447  24.822  1.00  0.00     0.104 C 
BRANCH   8   9
ATOM      9  C   UNL A   1      31.011  25.038  23.574  1.00  0.00     0.051 C 
BRANCH   9  10
ATOM     10  C   UNL A   1      30.848  26.514  23.332  1.00  0.00    -0.044 A 
ATOM     11  C   UNL A   1      28.356  26.715  23.979  1.00  0.00     0.044 C 
ATOM     12  C   UNL A   1      29.614  27.195  23.320  1.00  0.00    -0.048 A 
ATOM     13  C   UNL A   1      29.559  28.490  22.806  1.00  0.00     0.004 A 
ATOM     14  C   UNL A   1      30.722  29.141  22.459  1.00  0.00     0.000 A 
ATOM     15  C   UNL A   1      32.014  27.259  23.140  1.00  0.00     0.004 A 
ATOM     16  C   UNL A   1      31.954  28.557  22.671  1.00  0.00     0.000 A 
ENDBRANCH   9  10
ENDBRANCH   8   9
BRANCH   8  17
ATOM     17  C   UNL A   1      32.731  23.181  24.247  1.00  0.00     0.024 C 
BRANCH  17  18
ATOM     18  C   UNL A   1      32.383  21.712  24.664  1.00  0.00     0.025 C 
ATOM     19  C   UNL A   1      33.154  20.873  25.729  1.00  0.00     0.044 C 
ATOM     20  C   UNL A   1      32.491  20.456  23.788  1.00  0.00    -0.041 A 
ATOM     21  C   UNL A   1      32.907  19.702  24.861  1.00  0.00    -0.044 A 
ATOM     22  C   UNL A   1      32.159  19.801  22.623  1.00  0.00     0.004 A 
ATOM     23  C   UNL A   1      33.174  18.350  24.832  1.00  0.00     0.004 A 
ATOM     24  C   UNL A   1      32.360  18.400  22.564  1.00  0.00     0.000 A 
ATOM     25  C   UNL A   1      32.867  17.680  23.661  1.00  0.00     0.000 A 
ENDBRANCH  17  18
ENDBRANCH   8  17
ENDBRANCH   6   8
ENDBRANCH   5   6
ENDBRANCH   4   5
ENDBRANCH   3   4
ENDBRANCH   2   3
ENDBRANCH   1   2
BRANCH   1  26
ATOM     26  C   UNL A   1      33.990  31.584  27.807  1.00  0.00     0.188 C 
BRANCH  26  27
ATOM     27  O   UNL A   1      33.399  32.655  28.549  1.00  0.00    -0.376 OA
BRANCH  27  28
ATOM     28  C   UNL A   1      33.378  33.924  27.908  1.00  0.00     0.202 C 
BRANCH  28  29
ATOM     29  C   UNL A   1      33.565  35.070  28.910  1.00  0.00     0.261 C 
BRANCH  29  30
ATOM     30  O   UNL A   1      32.586  34.943  29.965  1.00  0.00    -0.460 OA
BRANCH  30  31
ATOM     31  C   UNL A   1      32.904  35.639  31.093  1.00  0.00     0.338 C 
ATOM     32  O   UNL A   1      32.601  36.789  31.315  1.00  0.00    -0.246 OA
BRANCH  31  33
ATOM     33  C   UNL A   1      33.947  34.854  31.839  1.00  0.00     0.060 A 
ATOM     34  C   UNL A   1      35.088  35.522  32.207  1.00  0.00     0.016 A 
ATOM     35  C   UNL A   1      33.967  33.461  31.968  1.00  0.00     0.016 A 
ATOM     36  C   UNL A   1      36.254  34.768  32.510  1.00  0.00     0.010 A 
ATOM     37  C   UNL A   1      35.180  32.742  32.225  1.00  0.00     0.010 A 
ATOM     38  C   UNL A   1      36.413  33.383  32.392  1.00  0.00    -0.014 A 
BRANCH  38  39
ATOM     39  C   UNL A   1      37.757  32.618  32.351  1.00  0.00     0.031 A 
ATOM     40  C   UNL A   1      37.904  31.356  31.497  1.00  0.00     0.074 A 
ATOM     41  C   UNL A   1      38.920  32.750  33.104  1.00  0.00     0.049 A 
ATOM     42  N   UNL A   1      39.016  30.681  31.398  1.00  0.00    -0.248 NA
ATOM     43  C   UNL A   1      36.802  30.633  30.872  1.00  0.00     0.031 C 
ATOM     44  C   UNL A   1      40.254  32.647  32.485  1.00  0.00     0.029 A 
ATOM     45  N   UNL A   1      39.284  32.939  34.457  1.00  0.00    -0.354 N 
ATOM     46  C   UNL A   1      38.810  29.529  30.701  1.00  0.00     0.074 A 
ATOM     47  C   UNL A   1      37.395  29.512  30.457  1.00  0.00     0.031 C 
ATOM     48  C   UNL A   1      41.218  32.578  33.411  1.00  0.00     0.029 A 
ATOM     49  C   UNL A   1      40.639  32.673  34.730  1.00  0.00     0.049 A 
ATOM     50  H   UNL A   1      38.645  33.232  35.147  1.00  0.00     0.167 HD
ATOM     51  C   UNL A   1      39.845  28.721  30.347  1.00  0.00     0.037 A 
ATOM     52  C   UNL A   1      41.271  32.416  35.918  1.00  0.00     0.037 A 
ATOM     53  C   UNL A   1      41.111  29.025  31.015  1.00  0.00     0.049 A 
ATOM     54  C   UNL A   1      42.276  31.285  35.851  1.00  0.00     0.074 A 
ATOM     55  C   UNL A   1      42.129  29.938  30.800  1.00  0.00     0.029 A 
ATOM     56  N   UNL A   1      41.394  28.449  32.243  1.00  0.00    -0.354 N 
ATOM     57  N   UNL A   1      42.687  30.721  34.748  1.00  0.00    -0.248 NA
ATOM     58  C   UNL A   1      42.732  30.566  37.041  1.00  0.00     0.031 C 
ATOM     59  C   UNL A   1      43.060  29.842  31.876  1.00  0.00     0.029 A 
ATOM     60  C   UNL A   1      42.612  28.883  32.770  1.00  0.00     0.049 A 
ATOM     61  H   UNL A   1      40.802  27.806  32.695  1.00  0.00     0.167 HD
ATOM     62  C   UNL A   1      43.126  29.446  35.045  1.00  0.00     0.074 A 
ATOM     63  C   UNL A   1      43.240  29.448  36.499  1.00  0.00     0.031 C 
ATOM     64  C   UNL A   1      43.078  28.437  34.103  1.00  0.00     0.037 A 
BRANCH  51  65
ATOM     65  C   UNL A   1      39.714  27.917  29.071  1.00  0.00     0.064 A 
ATOM     66  C   UNL A   1      39.249  26.591  29.139  1.00  0.00     0.173 A 
ATOM     67  C   UNL A   1      40.220  28.308  27.817  1.00  0.00     0.173 A 
ATOM     68  F   UNL A   1      38.637  26.125  30.236  1.00  0.00    -0.203 F 
ATOM     69  C   UNL A   1      39.436  25.685  28.092  1.00  0.00     0.198 A 
ATOM     70  C   UNL A   1      40.494  27.384  26.805  1.00  0.00     0.198 A 
ATOM     71  F   UNL A   1      40.441  29.598  27.530  1.00  0.00    -0.203 F 
ATOM     72  F   UNL A   1      38.992  24.428  28.215  1.00  0.00    -0.200 F 
ATOM     73  C   UNL A   1      40.117  26.065  26.952  1.00  0.00     0.200 A 
ATOM     74  F   UNL A   1      41.146  27.776  25.701  1.00  0.00    -0.200 F 
ATOM     75  F   UNL A   1      40.386  25.172  25.991  1.00  0.00    -0.200 F 
ENDBRANCH  51  65
BRANCH  52  76
ATOM     76  C   UNL A   1      40.692  32.951  37.187  1.00  0.00     0.064 A 
ATOM     77  C   UNL A   1      41.432  33.920  37.889  1.00  0.00     0.173 A 
ATOM     78  C   UNL A   1      39.394  32.708  37.652  1.00  0.00     0.173 A 
ATOM     79  F   UNL A   1      42.722  34.125  37.580  1.00  0.00    -0.203 F 
ATOM     80  C   UNL A   1      40.835  34.766  38.829  1.00  0.00     0.198 A 
ATOM     81  C   UNL A   1      38.796  33.549  38.602  1.00  0.00     0.198 A 
ATOM     82  F   UNL A   1      38.674  31.694  37.156  1.00  0.00    -0.203 F 
ATOM     83  F   UNL A   1      41.534  35.782  39.359  1.00  0.00    -0.200 F 
ATOM     84  C   UNL A   1      39.500  34.613  39.143  1.00  0.00     0.200 A 
ATOM     85  F   UNL A   1      37.514  33.365  38.953  1.00  0.00    -0.200 F 
ATOM     86  F   UNL A   1      38.893  35.493  39.954  1.00  0.00    -0.200 F 
ENDBRANCH  52  76
BRANCH  64  87
ATOM     87  C   UNL A   1      43.220  26.948  34.452  1.00  0.00     0.064 A 
ATOM     88  C   UNL A   1      42.260  26.203  35.163  1.00  0.00     0.173 A 
ATOM     89  C   UNL A   1      44.350  26.187  34.059  1.00  0.00     0.173 A 
ATOM     90  F   UNL A   1      41.265  26.807  35.823  1.00  0.00    -0.203 F 
ATOM     91  C   UNL A   1      42.321  24.805  35.282  1.00  0.00     0.198 A 
ATOM     92  C   UNL A   1      44.437  24.802  34.220  1.00  0.00     0.198 A 
ATOM     93  F   UNL A   1      45.429  26.746  33.503  1.00  0.00    -0.203 F 
ATOM     94  F   UNL A   1      41.320  24.144  35.880  1.00  0.00    -0.200 F 
ATOM     95  C   UNL A   1      43.403  24.102  34.793  1.00  0.00     0.200 A 
ATOM     96  F   UNL A   1      45.537  24.157  33.802  1.00  0.00    -0.200 F 
ATOM     97  F   UNL A   1      43.466  22.770  34.907  1.00  0.00    -0.200 F 
ENDBRANCH  64  87
ENDBRANCH  38  39
ENDBRANCH  31  33
ENDBRANCH  30  31
ENDBRANCH  29  30
ENDBRANCH  28  29
ENDBRANCH  27  28
ENDBRANCH  26  27
ENDBRANCH   1  26
TORSDOF 21
ENDMDL
MODEL 3
REMARK VINA RESULT:     -11.1      4.922     10.505
REMARK SMILES Cc1ccccc1C[C@H](C[C@@H]1Cc2ccccc21)C(=O)OCCOCCOCCOC(=O)c1ccc(-c2c3nc(c(-c4c(F)c(F)c(F)c(F)c4F)c4ccc([nH]4)c(-c4c(F)c(F)c(F)c(F)c4F)c4nc(c(-c5c(F)c(F)c(F)c(F)c5F)c5ccc2[nH]5)C=C4)C=C3)cc1
REMARK SMILES IDX 25 1 24 2 23 3 22 4 21 5 19 6 20 7 9 8 8 9 7 10 1 11 2 12
REMARK SMILES IDX 3 13 4 14 6 15 5 16 10 17 11 18 12 19 18 20 13 21 17 22
REMARK SMILES IDX 14 23 16 24 15 25 26 26 27 27 28 28 29 29 30 30 31 31 32 32
REMARK SMILES IDX 33 33 34 34 95 35 35 36 94 37 36 38 37 39 38 40 88 41 39 42
REMARK SMILES IDX 93 43 87 44 89 45 40 46 92 47 86 48 85 49 41 51 73 52 53 53
REMARK SMILES IDX 72 54 54 55 57 56 71 57 90 58 55 59 56 60 70 62 91 63 58 64
REMARK SMILES IDX 42 65 43 66 51 67 44 68 45 69 49 70 52 71 46 72 47 73 50 74
REMARK SMILES IDX 48 75 74 76 75 77 83 78 76 79 77 80 81 81 84 82 78 83 79 84
REMARK SMILES IDX 82 85 80 86 59 87 60 88 68 89 61 90 62 91 66 92 69 93 63 94
REMARK SMILES IDX 64 95 67 96 65 97
REMARK H PARENT 89 50 57 61
REMARK Flexibility Score: inf
ROOT
ATOM      1  C   UNL A   1      33.308  28.647  25.176  1.00  0.00     0.188 C 
ENDROOT
BRANCH   1   2
ATOM      2  O   UNL A   1      33.156  27.246  25.179  1.00  0.00    -0.376 OA
BRANCH   2   3
ATOM      3  C   UNL A   1      33.651  26.593  24.007  1.00  0.00     0.202 C 
BRANCH   3   4
ATOM      4  C   UNL A   1      32.670  25.962  22.944  1.00  0.00     0.261 C 
BRANCH   4   5
ATOM      5  O   UNL A   1      32.390  24.603  22.316  1.00  0.00    -0.463 OA
BRANCH   5   6
ATOM      6  C   UNL A   1      33.205  23.483  22.475  1.00  0.00     0.309 C 
ATOM      7  O   UNL A   1      34.054  23.321  21.604  1.00  0.00    -0.252 OA
BRANCH   6   8
ATOM      8  C   UNL A   1      33.192  22.503  23.861  1.00  0.00     0.104 C 
BRANCH   8   9
ATOM      9  C   UNL A   1      32.088  21.332  23.895  1.00  0.00     0.051 C 
BRANCH   9  10
ATOM     10  C   UNL A   1      32.439  19.878  23.739  1.00  0.00    -0.044 A 
ATOM     11  C   UNL A   1      32.905  19.348  26.223  1.00  0.00     0.044 C 
ATOM     12  C   UNL A   1      32.996  19.073  24.752  1.00  0.00    -0.048 A 
ATOM     13  C   UNL A   1      33.542  17.834  24.412  1.00  0.00     0.004 A 
ATOM     14  C   UNL A   1      33.396  17.349  23.132  1.00  0.00     0.000 A 
ATOM     15  C   UNL A   1      32.157  19.285  22.505  1.00  0.00     0.004 A 
ATOM     16  C   UNL A   1      32.663  18.039  22.188  1.00  0.00     0.000 A 
ENDBRANCH   9  10
ENDBRANCH   8   9
BRANCH   8  17
ATOM     17  C   UNL A   1      33.571  22.848  25.432  1.00  0.00     0.024 C 
BRANCH  17  18
ATOM     18  C   UNL A   1      34.978  22.472  26.008  1.00  0.00     0.025 C 
ATOM     19  C   UNL A   1      36.208  23.428  26.073  1.00  0.00     0.044 C 
ATOM     20  C   UNL A   1      35.968  21.452  25.426  1.00  0.00    -0.041 A 
ATOM     21  C   UNL A   1      37.039  22.242  25.776  1.00  0.00    -0.044 A 
ATOM     22  C   UNL A   1      36.219  20.168  24.999  1.00  0.00     0.004 A 
ATOM     23  C   UNL A   1      38.365  21.917  25.589  1.00  0.00     0.004 A 
ATOM     24  C   UNL A   1      37.569  19.766  24.848  1.00  0.00     0.000 A 
ATOM     25  C   UNL A   1      38.636  20.637  25.139  1.00  0.00     0.000 A 
ENDBRANCH  17  18
ENDBRANCH   8  17
ENDBRANCH   6   8
ENDBRANCH   5   6
ENDBRANCH   4   5
ENDBRANCH   3   4
ENDBRANCH   2   3
ENDBRANCH   1   2
BRANCH   1  26
ATOM     26  C   UNL A   1      33.602  29.221  26.576  1.00  0.00     0.188 C 
BRANCH  26  27
ATOM     27  O   UNL A   1      33.020  30.513  26.772  1.00  0.00    -0.376 OA
BRANCH  27  28
ATOM     28  C   UNL A   1      33.711  31.383  27.660  1.00  0.00     0.202 C 
BRANCH  28  29
ATOM     29  C   UNL A   1      33.301  32.847  27.453  1.00  0.00     0.261 C 
BRANCH  29  30
ATOM     30  O   UNL A   1      32.658  33.334  28.652  1.00  0.00    -0.460 OA
BRANCH  30  31
ATOM     31  C   UNL A   1      33.052  34.588  29.012  1.00  0.00     0.338 C 
ATOM     32  O   UNL A   1      32.520  35.616  28.662  1.00  0.00    -0.246 OA
BRANCH  31  33
ATOM     33  C   UNL A   1      34.419  34.482  29.630  1.00  0.00     0.060 A 
ATOM     34  C   UNL A   1      35.495  34.707  28.810  1.00  0.00     0.016 A 
ATOM     35  C   UNL A   1      34.692  33.935  30.888  1.00  0.00     0.016 A 
ATOM     36  C   UNL A   1      36.768  34.211  29.201  1.00  0.00     0.010 A 
ATOM     37  C   UNL A   1      35.982  33.401  31.217  1.00  0.00     0.010 A 
ATOM     38  C   UNL A   1      37.053  33.417  30.318  1.00  0.00    -0.014 A 
BRANCH  38  39
ATOM     39  C   UNL A   1      38.332  32.575  30.537  1.00  0.00     0.031 A 
ATOM     40  C   UNL A   1      38.459  31.183  29.910  1.00  0.00     0.074 A 
ATOM     41  C   UNL A   1      39.428  32.755  31.375  1.00  0.00     0.049 A 
ATOM     42  N   UNL A   1      39.520  30.434  30.034  1.00  0.00    -0.248 NA
ATOM     43  C   UNL A   1      37.366  30.437  29.297  1.00  0.00     0.031 C 
ATOM     44  C   UNL A   1      40.801  32.471  30.922  1.00  0.00     0.029 A 
ATOM     45  N   UNL A   1      39.679  33.141  32.713  1.00  0.00    -0.354 N 
ATOM     46  C   UNL A   1      39.290  29.199  29.509  1.00  0.00     0.074 A 
ATOM     47  C   UNL A   1      37.907  29.228  29.125  1.00  0.00     0.031 C 
ATOM     48  C   UNL A   1      41.668  32.495  31.942  1.00  0.00     0.029 A 
ATOM     49  C   UNL A   1      40.979  32.840  33.163  1.00  0.00     0.049 A 
ATOM     50  H   UNL A   1      39.005  33.582  33.279  1.00  0.00     0.167 HD
ATOM     51  C   UNL A   1      40.288  28.281  29.395  1.00  0.00     0.037 A 
ATOM     52  C   UNL A   1      41.477  32.743  34.435  1.00  0.00     0.037 A 
ATOM     53  C   UNL A   1      41.506  28.611  30.134  1.00  0.00     0.049 A 
ATOM     54  C   UNL A   1      42.393  31.556  34.650  1.00  0.00     0.074 A 
ATOM     55  C   UNL A   1      42.607  29.413  29.885  1.00  0.00     0.029 A 
ATOM     56  N   UNL A   1      41.629  28.228  31.460  1.00  0.00    -0.354 N 
ATOM     57  N   UNL A   1      42.859  30.794  33.698  1.00  0.00    -0.248 NA
ATOM     58  C   UNL A   1      42.681  31.015  35.979  1.00  0.00     0.031 C 
ATOM     59  C   UNL A   1      43.426  29.436  31.052  1.00  0.00     0.029 A 
ATOM     60  C   UNL A   1      42.824  28.665  32.035  1.00  0.00     0.049 A 
ATOM     61  H   UNL A   1      40.950  27.705  31.943  1.00  0.00     0.167 HD
ATOM     62  C   UNL A   1      43.169  29.561  34.235  1.00  0.00     0.074 A 
ATOM     63  C   UNL A   1      43.149  29.794  35.674  1.00  0.00     0.031 C 
ATOM     64  C   UNL A   1      43.129  28.416  33.462  1.00  0.00     0.037 A 
BRANCH  51  65
ATOM     65  C   UNL A   1      40.212  27.288  28.254  1.00  0.00     0.064 A 
ATOM     66  C   UNL A   1      39.653  26.018  28.484  1.00  0.00     0.173 A 
ATOM     67  C   UNL A   1      40.851  27.443  27.009  1.00  0.00     0.173 A 
ATOM     68  F   UNL A   1      38.917  25.770  29.576  1.00  0.00    -0.203 F 
ATOM     69  C   UNL A   1      39.867  24.946  27.614  1.00  0.00     0.198 A 
ATOM     70  C   UNL A   1      41.147  26.353  26.186  1.00  0.00     0.198 A 
ATOM     71  F   UNL A   1      41.184  28.655  26.546  1.00  0.00    -0.203 F 
ATOM     72  F   UNL A   1      39.327  23.751  27.889  1.00  0.00    -0.200 F 
ATOM     73  C   UNL A   1      40.668  25.098  26.500  1.00  0.00     0.200 A 
ATOM     74  F   UNL A   1      41.918  26.524  25.102  1.00  0.00    -0.200 F 
ATOM     75  F   UNL A   1      40.957  24.047  25.722  1.00  0.00    -0.200 F 
ENDBRANCH  51  65
BRANCH  52  76
ATOM     76  C   UNL A   1      40.827  33.513  35.538  1.00  0.00     0.064 A 
ATOM     77  C   UNL A   1      39.747  32.912  36.210  1.00  0.00     0.173 A 
ATOM     78  C   UNL A   1      41.309  34.707  36.086  1.00  0.00     0.173 A 
ATOM     79  F   UNL A   1      39.154  31.830  35.682  1.00  0.00    -0.203 F 
ATOM     80  C   UNL A   1      39.339  33.336  37.478  1.00  0.00     0.198 A 
ATOM     81  C   UNL A   1      40.893  35.141  37.354  1.00  0.00     0.198 A 
ATOM     82  F   UNL A   1      42.220  35.437  35.430  1.00  0.00    -0.203 F 
ATOM     83  F   UNL A   1      38.415  32.638  38.155  1.00  0.00    -0.200 F 
ATOM     84  C   UNL A   1      39.953  34.420  38.072  1.00  0.00     0.200 A 
ATOM     85  F   UNL A   1      41.449  36.230  37.908  1.00  0.00    -0.200 F 
ATOM     86  F   UNL A   1      39.649  34.760  39.334  1.00  0.00    -0.200 F 
ENDBRANCH  52  76
BRANCH  64  87
ATOM     87  C   UNL A   1      43.122  26.998  34.053  1.00  0.00     0.064 A 
ATOM     88  C   UNL A   1      42.097  26.480  34.867  1.00  0.00     0.173 A 
ATOM     89  C   UNL A   1      44.168  26.074  33.802  1.00  0.00     0.173 A 
ATOM     90  F   UNL A   1      41.172  27.282  35.407  1.00  0.00    -0.203 F 
ATOM     91  C   UNL A   1      42.017  25.123  35.214  1.00  0.00     0.198 A 
ATOM     92  C   UNL A   1      44.116  24.732  34.190  1.00  0.00     0.198 A 
ATOM     93  F   UNL A   1      45.295  26.422  33.174  1.00  0.00    -0.203 F 
ATOM     94  F   UNL A   1      40.958  24.673  35.903  1.00  0.00    -0.200 F 
ATOM     95  C   UNL A   1      43.020  24.244  34.860  1.00  0.00     0.200 A 
ATOM     96  F   UNL A   1      45.143  23.920  33.896  1.00  0.00    -0.200 F 
ATOM     97  F   UNL A   1      42.949  22.949  35.192  1.00  0.00    -0.200 F 
ENDBRANCH  64  87
ENDBRANCH  38  39
ENDBRANCH  31  33
ENDBRANCH  30  31
ENDBRANCH  29  30
ENDBRANCH  28  29
ENDBRANCH  27  28
ENDBRANCH  26  27
ENDBRANCH   1  26
TORSDOF 21
ENDMDL
