MODEL 1
REMARK VINA RESULT:     -11.7      0.000      0.000
REMARK SMILES O=C(CCn1c(SCc2ccccn2)nc2ccccc2c1=O)OCCOCCOCCOC(=O)c1ccc(-c2c3nc(c(-c4c(F)c(F)c(F)c(F)c4F)c4ccc([nH]4)c(-c4c(F)c(F)c(F)c(F)c4F)c4nc(c(-c5c(F)c(F)c(F)c(F)c5F)c5ccc2[nH]5)C=C4)C=C3)cc1
REMARK SMILES IDX 27 1 26 2 25 3 24 4 2 5 1 6 3 7 4 8 5 9 6 10 22 11 15 12
REMARK SMILES IDX 21 13 23 14 16 15 20 16 17 17 19 18 18 19 7 20 8 21 9 22
REMARK SMILES IDX 10 23 14 24 11 25 13 26 12 27 28 28 29 29 30 30 31 31 32 32
REMARK SMILES IDX 33 33 34 34 35 35 36 36 37 37 98 38 38 39 97 40 39 41 40 42
REMARK SMILES IDX 41 43 91 44 42 45 96 46 90 47 92 48 43 49 95 50 89 51 88 52
REMARK SMILES IDX 44 54 76 55 56 56 75 57 57 58 60 59 74 60 93 61 58 62 59 63
REMARK SMILES IDX 73 65 94 66 61 67 45 68 46 69 54 70 47 71 48 72 52 73 55 74
REMARK SMILES IDX 49 75 50 76 53 77 51 78 77 79 78 80 86 81 79 82 80 83 84 84
REMARK SMILES IDX 87 85 81 86 82 87 85 88 83 89 62 90 63 91 71 92 64 93 65 94
REMARK SMILES IDX 69 95 72 96 66 97 67 98 70 99 68 100
REMARK H PARENT 92 53 60 64
REMARK Flexibility Score: inf
ROOT
ATOM      1  O   UNL A   1      34.128  32.350  28.524  1.00  0.00    -0.376 OA
ENDROOT
BRANCH   1   2
ATOM      2  C   UNL A   1      34.567  31.281  27.701  1.00  0.00     0.202 C 
BRANCH   2   3
ATOM      3  C   UNL A   1      33.532  30.354  27.051  1.00  0.00     0.261 C 
BRANCH   3   4
ATOM      4  O   UNL A   1      33.279  29.094  27.687  1.00  0.00    -0.463 OA
BRANCH   4   5
ATOM      5  C   UNL A   1      32.277  28.264  27.328  1.00  0.00     0.307 C 
ATOM      6  O   UNL A   1      31.340  28.050  28.094  1.00  0.00    -0.252 OA
BRANCH   5   7
ATOM      7  C   UNL A   1      32.332  27.592  25.986  1.00  0.00     0.144 C 
BRANCH   7   8
ATOM      8  C   UNL A   1      31.048  26.819  25.735  1.00  0.00     0.140 C 
BRANCH   8   9
ATOM      9  N   UNL A   1      31.143  25.709  24.777  1.00  0.00    -0.286 N 
ATOM     10  C   UNL A   1      31.897  25.956  23.657  1.00  0.00     0.171 A 
ATOM     11  C   UNL A   1      31.355  24.449  25.310  1.00  0.00     0.262 A 
ATOM     12  N   UNL A   1      33.141  25.590  23.569  1.00  0.00    -0.224 NA
ATOM     13  C   UNL A   1      32.777  24.082  25.437  1.00  0.00     0.066 A 
ATOM     14  O   UNL A   1      30.472  23.701  25.702  1.00  0.00    -0.269 OA
ATOM     15  C   UNL A   1      33.647  24.802  24.621  1.00  0.00     0.079 A 
ATOM     16  C   UNL A   1      33.230  23.190  26.412  1.00  0.00     0.016 A 
ATOM     17  C   UNL A   1      35.016  24.685  24.853  1.00  0.00     0.029 A 
ATOM     18  C   UNL A   1      34.600  23.081  26.633  1.00  0.00     0.001 A 
ATOM     19  C   UNL A   1      35.488  23.843  25.871  1.00  0.00     0.002 A 
BRANCH  10  20
ATOM     20  S   UNL A   1      31.174  26.799  22.319  1.00  0.00    -0.081 SA
BRANCH  20  21
ATOM     21  C   UNL A   1      31.367  28.566  22.643  1.00  0.00     0.134 C 
BRANCH  21  22
ATOM     22  C   UNL A   1      30.138  29.448  22.656  1.00  0.00     0.051 A 
ATOM     23  C   UNL A   1      29.900  30.283  23.751  1.00  0.00     0.025 A 
ATOM     24  N   UNL A   1      29.354  29.485  21.553  1.00  0.00    -0.260 NA
ATOM     25  C   UNL A   1      28.799  31.133  23.747  1.00  0.00     0.003 A 
ATOM     26  C   UNL A   1      28.305  30.343  21.563  1.00  0.00     0.111 A 
ATOM     27  C   UNL A   1      27.985  31.171  22.625  1.00  0.00     0.020 A 
ENDBRANCH  21  22
ENDBRANCH  20  21
ENDBRANCH  10  20
ENDBRANCH   8   9
ENDBRANCH   7   8
ENDBRANCH   5   7
ENDBRANCH   4   5
ENDBRANCH   3   4
ENDBRANCH   2   3
ENDBRANCH   1   2
BRANCH   1  28
ATOM     28  C   UNL A   1      34.346  33.680  28.084  1.00  0.00     0.188 C 
BRANCH  28  29
ATOM     29  C   UNL A   1      33.750  34.848  28.880  1.00  0.00     0.188 C 
BRANCH  29  30
ATOM     30  O   UNL A   1      33.313  34.530  30.195  1.00  0.00    -0.376 OA
BRANCH  30  31
ATOM     31  C   UNL A   1      34.346  34.606  31.183  1.00  0.00     0.202 C 
BRANCH  31  32
ATOM     32  C   UNL A   1      34.318  33.460  32.209  1.00  0.00     0.261 C 
BRANCH  32  33
ATOM     33  O   UNL A   1      35.064  32.286  31.847  1.00  0.00    -0.460 OA
BRANCH  33  34
ATOM     34  C   UNL A   1      36.086  31.946  32.656  1.00  0.00     0.338 C 
ATOM     35  O   UNL A   1      36.176  32.157  33.855  1.00  0.00    -0.246 OA
BRANCH  34  36
ATOM     36  C   UNL A   1      37.070  31.156  31.892  1.00  0.00     0.060 A 
ATOM     37  C   UNL A   1      37.109  31.215  30.496  1.00  0.00     0.016 A 
ATOM     38  C   UNL A   1      38.021  30.409  32.597  1.00  0.00     0.016 A 
ATOM     39  C   UNL A   1      38.139  30.570  29.807  1.00  0.00     0.010 A 
ATOM     40  C   UNL A   1      39.037  29.746  31.907  1.00  0.00     0.010 A 
ATOM     41  C   UNL A   1      39.124  29.855  30.511  1.00  0.00    -0.014 A 
BRANCH  41  42
ATOM     42  C   UNL A   1      40.359  29.424  29.815  1.00  0.00     0.031 A 
ATOM     43  C   UNL A   1      40.526  28.045  29.264  1.00  0.00     0.074 A 
ATOM     44  C   UNL A   1      41.354  30.322  29.699  1.00  0.00     0.049 A 
ATOM     45  N   UNL A   1      41.494  27.574  28.519  1.00  0.00    -0.248 NA
ATOM     46  C   UNL A   1      39.485  27.064  29.598  1.00  0.00     0.031 C 
ATOM     47  C   UNL A   1      41.318  31.683  30.239  1.00  0.00     0.029 A 
ATOM     48  N   UNL A   1      42.581  30.233  29.094  1.00  0.00    -0.354 N 
ATOM     49  C   UNL A   1      41.167  26.251  28.264  1.00  0.00     0.074 A 
ATOM     50  C   UNL A   1      39.934  25.980  28.975  1.00  0.00     0.031 C 
ATOM     51  C   UNL A   1      42.463  32.307  29.929  1.00  0.00     0.029 A 
ATOM     52  C   UNL A   1      43.310  31.394  29.168  1.00  0.00     0.049 A 
ATOM     53  H   UNL A   1      42.907  29.416  28.652  1.00  0.00     0.167 HD
ATOM     54  C   UNL A   1      41.834  25.360  27.491  1.00  0.00     0.037 A 
ATOM     55  C   UNL A   1      44.517  31.698  28.659  1.00  0.00     0.037 A 
ATOM     56  C   UNL A   1      43.072  25.636  26.806  1.00  0.00     0.049 A 
ATOM     57  C   UNL A   1      45.248  30.681  27.834  1.00  0.00     0.074 A 
ATOM     58  C   UNL A   1      43.774  24.824  25.931  1.00  0.00     0.029 A 
ATOM     59  N   UNL A   1      43.806  26.806  26.935  1.00  0.00    -0.354 N 
ATOM     60  N   UNL A   1      44.873  29.473  27.494  1.00  0.00    -0.248 NA
ATOM     61  C   UNL A   1      46.564  31.073  27.311  1.00  0.00     0.031 C 
ATOM     62  C   UNL A   1      44.956  25.482  25.571  1.00  0.00     0.029 A 
ATOM     63  C   UNL A   1      44.972  26.722  26.190  1.00  0.00     0.049 A 
ATOM     64  H   UNL A   1      43.538  27.583  27.478  1.00  0.00     0.167 HD
ATOM     65  C   UNL A   1      45.893  28.965  26.705  1.00  0.00     0.074 A 
ATOM     66  C   UNL A   1      46.902  30.000  26.607  1.00  0.00     0.031 C 
ATOM     67  C   UNL A   1      45.978  27.750  26.113  1.00  0.00     0.037 A 
BRANCH  54  68
ATOM     68  C   UNL A   1      41.234  23.996  27.322  1.00  0.00     0.064 A 
ATOM     69  C   UNL A   1      40.076  23.804  26.554  1.00  0.00     0.173 A 
ATOM     70  C   UNL A   1      41.870  22.862  27.849  1.00  0.00     0.173 A 
ATOM     71  F   UNL A   1      39.433  24.859  26.029  1.00  0.00    -0.203 F 
ATOM     72  C   UNL A   1      39.567  22.528  26.331  1.00  0.00     0.198 A 
ATOM     73  C   UNL A   1      41.369  21.584  27.607  1.00  0.00     0.198 A 
ATOM     74  F   UNL A   1      42.986  22.991  28.581  1.00  0.00    -0.203 F 
ATOM     75  F   UNL A   1      38.448  22.369  25.612  1.00  0.00    -0.200 F 
ATOM     76  C   UNL A   1      40.219  21.418  26.851  1.00  0.00     0.200 A 
ATOM     77  F   UNL A   1      42.006  20.513  28.099  1.00  0.00    -0.200 F 
ATOM     78  F   UNL A   1      39.736  20.190  26.624  1.00  0.00    -0.200 F 
ENDBRANCH  54  68
BRANCH  55  79
ATOM     79  C   UNL A   1      45.062  33.060  28.866  1.00  0.00     0.064 A 
ATOM     80  C   UNL A   1      45.940  33.321  29.927  1.00  0.00     0.173 A 
ATOM     81  C   UNL A   1      44.776  34.104  27.975  1.00  0.00     0.173 A 
ATOM     82  F   UNL A   1      46.231  32.353  30.808  1.00  0.00    -0.203 F 
ATOM     83  C   UNL A   1      46.512  34.580  30.089  1.00  0.00     0.198 A 
ATOM     84  C   UNL A   1      45.363  35.357  28.129  1.00  0.00     0.198 A 
ATOM     85  F   UNL A   1      43.950  33.895  26.941  1.00  0.00    -0.203 F 
ATOM     86  F   UNL A   1      47.340  34.809  31.118  1.00  0.00    -0.200 F 
ATOM     87  C   UNL A   1      46.231  35.594  29.186  1.00  0.00     0.200 A 
ATOM     88  F   UNL A   1      45.101  36.331  27.246  1.00  0.00    -0.200 F 
ATOM     89  F   UNL A   1      46.796  36.800  29.332  1.00  0.00    -0.200 F 
ENDBRANCH  55  79
BRANCH  67  90
ATOM     90  C   UNL A   1      47.211  27.461  25.311  1.00  0.00     0.064 A 
ATOM     91  C   UNL A   1      48.321  26.827  25.887  1.00  0.00     0.173 A 
ATOM     92  C   UNL A   1      47.263  27.765  23.942  1.00  0.00     0.173 A 
ATOM     93  F   UNL A   1      48.325  26.533  27.196  1.00  0.00    -0.203 F 
ATOM     94  C   UNL A   1      49.443  26.515  25.124  1.00  0.00     0.198 A 
ATOM     95  C   UNL A   1      48.377  27.432  23.177  1.00  0.00     0.198 A 
ATOM     96  F   UNL A   1      46.225  28.369  23.345  1.00  0.00    -0.203 F 
ATOM     97  F   UNL A   1      50.504  25.934  25.701  1.00  0.00    -0.200 F 
ATOM     98  C   UNL A   1      49.466  26.810  23.768  1.00  0.00     0.200 A 
ATOM     99  F   UNL A   1      48.395  27.709  21.866  1.00  0.00    -0.200 F 
ATOM    100  F   UNL A   1      50.542  26.497  23.032  1.00  0.00    -0.200 F 
ENDBRANCH  67  90
ENDBRANCH  41  42
ENDBRANCH  34  36
ENDBRANCH  33  34
ENDBRANCH  32  33
ENDBRANCH  31  32
ENDBRANCH  30  31
ENDBRANCH  29  30
ENDBRANCH  28  29
ENDBRANCH   1  28
TORSDOF 22
ENDMDL
MODEL 2
REMARK VINA RESULT:     -11.4      1.486      3.759
REMARK SMILES O=C(CCn1c(SCc2ccccn2)nc2ccccc2c1=O)OCCOCCOCCOC(=O)c1ccc(-c2c3nc(c(-c4c(F)c(F)c(F)c(F)c4F)c4ccc([nH]4)c(-c4c(F)c(F)c(F)c(F)c4F)c4nc(c(-c5c(F)c(F)c(F)c(F)c5F)c5ccc2[nH]5)C=C4)C=C3)cc1
REMARK SMILES IDX 27 1 26 2 25 3 24 4 2 5 1 6 3 7 4 8 5 9 6 10 22 11 15 12
REMARK SMILES IDX 21 13 23 14 16 15 20 16 17 17 19 18 18 19 7 20 8 21 9 22
REMARK SMILES IDX 10 23 14 24 11 25 13 26 12 27 28 28 29 29 30 30 31 31 32 32
REMARK SMILES IDX 33 33 34 34 35 35 36 36 37 37 98 38 38 39 97 40 39 41 40 42
REMARK SMILES IDX 41 43 91 44 42 45 96 46 90 47 92 48 43 49 95 50 89 51 88 52
REMARK SMILES IDX 44 54 76 55 56 56 75 57 57 58 60 59 74 60 93 61 58 62 59 63
REMARK SMILES IDX 73 65 94 66 61 67 45 68 46 69 54 70 47 71 48 72 52 73 55 74
REMARK SMILES IDX 49 75 50 76 53 77 51 78 77 79 78 80 86 81 79 82 80 83 84 84
REMARK SMILES IDX 87 85 81 86 82 87 85 88 83 89 62 90 63 91 71 92 64 93 65 94
REMARK SMILES IDX 69 95 72 96 66 97 67 98 70 99 68 100
REMARK H PARENT 92 53 60 64
REMARK Flexibility Score: inf
ROOT
ATOM      1  O   UNL A   1      34.034  32.367  28.569  1.00  0.00    -0.376 OA
ENDROOT
BRANCH   1   2
ATOM      2  C   UNL A   1      34.366  31.285  27.712  1.00  0.00     0.202 C 
BRANCH   2   3
ATOM      3  C   UNL A   1      33.244  30.476  27.050  1.00  0.00     0.261 C 
BRANCH   3   4
ATOM      4  O   UNL A   1      33.133  29.089  27.400  1.00  0.00    -0.463 OA
BRANCH   4   5
ATOM      5  C   UNL A   1      32.579  28.158  26.595  1.00  0.00     0.307 C 
ATOM      6  O   UNL A   1      31.365  27.967  26.604  1.00  0.00    -0.252 OA
BRANCH   5   7
ATOM      7  C   UNL A   1      33.471  27.346  25.700  1.00  0.00     0.144 C 
BRANCH   7   8
ATOM      8  C   UNL A   1      33.104  25.874  25.792  1.00  0.00     0.140 C 
BRANCH   8   9
ATOM      9  N   UNL A   1      32.637  25.250  24.547  1.00  0.00    -0.286 N 
ATOM     10  C   UNL A   1      31.485  24.511  24.650  1.00  0.00     0.171 A 
ATOM     11  C   UNL A   1      32.681  26.035  23.407  1.00  0.00     0.262 A 
ATOM     12  N   UNL A   1      30.320  25.005  24.350  1.00  0.00    -0.224 NA
ATOM     13  C   UNL A   1      31.443  26.793  23.152  1.00  0.00     0.066 A 
ATOM     14  O   UNL A   1      33.657  26.156  22.683  1.00  0.00    -0.269 OA
ATOM     15  C   UNL A   1      30.304  26.292  23.779  1.00  0.00     0.079 A 
ATOM     16  C   UNL A   1      31.445  28.008  22.462  1.00  0.00     0.016 A 
ATOM     17  C   UNL A   1      29.155  27.079  23.784  1.00  0.00     0.029 A 
ATOM     18  C   UNL A   1      30.291  28.785  22.474  1.00  0.00     0.001 A 
ATOM     19  C   UNL A   1      29.156  28.331  23.152  1.00  0.00     0.002 A 
BRANCH  10  20
ATOM     20  S   UNL A   1      31.579  22.869  25.215  1.00  0.00    -0.081 SA
BRANCH  20  21
ATOM     21  C   UNL A   1      32.252  21.883  23.859  1.00  0.00     0.134 C 
BRANCH  21  22
ATOM     22  C   UNL A   1      33.051  20.640  24.183  1.00  0.00     0.051 A 
ATOM     23  C   UNL A   1      32.530  19.383  23.866  1.00  0.00     0.025 A 
ATOM     24  N   UNL A   1      34.304  20.784  24.675  1.00  0.00    -0.260 NA
ATOM     25  C   UNL A   1      33.281  18.239  24.115  1.00  0.00     0.003 A 
ATOM     26  C   UNL A   1      35.026  19.655  24.881  1.00  0.00     0.111 A 
ATOM     27  C   UNL A   1      34.561  18.375  24.627  1.00  0.00     0.020 A 
ENDBRANCH  21  22
ENDBRANCH  20  21
ENDBRANCH  10  20
ENDBRANCH   8   9
ENDBRANCH   7   8
ENDBRANCH   5   7
ENDBRANCH   4   5
ENDBRANCH   3   4
ENDBRANCH   2   3
ENDBRANCH   1   2
BRANCH   1  28
ATOM     28  C   UNL A   1      33.829  33.648  27.998  1.00  0.00     0.188 C 
BRANCH  28  29
ATOM     29  C   UNL A   1      33.634  34.863  28.913  1.00  0.00     0.188 C 
BRANCH  29  30
ATOM     30  O   UNL A   1      33.243  34.565  30.248  1.00  0.00    -0.376 OA
BRANCH  30  31
ATOM     31  C   UNL A   1      34.317  34.624  31.193  1.00  0.00     0.202 C 
BRANCH  31  32
ATOM     32  C   UNL A   1      34.380  33.418  32.146  1.00  0.00     0.261 C 
BRANCH  32  33
ATOM     33  O   UNL A   1      35.165  32.305  31.686  1.00  0.00    -0.460 OA
BRANCH  33  34
ATOM     34  C   UNL A   1      36.117  31.850  32.522  1.00  0.00     0.338 C 
ATOM     35  O   UNL A   1      36.152  31.979  33.737  1.00  0.00    -0.246 OA
BRANCH  34  36
ATOM     36  C   UNL A   1      37.093  31.049  31.760  1.00  0.00     0.060 A 
ATOM     37  C   UNL A   1      37.109  31.077  30.363  1.00  0.00     0.016 A 
ATOM     38  C   UNL A   1      38.059  30.322  32.466  1.00  0.00     0.016 A 
ATOM     39  C   UNL A   1      38.132  30.422  29.672  1.00  0.00     0.010 A 
ATOM     40  C   UNL A   1      39.067  29.648  31.775  1.00  0.00     0.010 A 
ATOM     41  C   UNL A   1      39.131  29.728  30.375  1.00  0.00    -0.014 A 
BRANCH  41  42
ATOM     42  C   UNL A   1      40.357  29.287  29.670  1.00  0.00     0.031 A 
ATOM     43  C   UNL A   1      40.510  27.907  29.118  1.00  0.00     0.074 A 
ATOM     44  C   UNL A   1      41.358  30.178  29.546  1.00  0.00     0.049 A 
ATOM     45  N   UNL A   1      41.468  27.429  28.365  1.00  0.00    -0.248 NA
ATOM     46  C   UNL A   1      39.465  26.934  29.460  1.00  0.00     0.031 C 
ATOM     47  C   UNL A   1      41.336  31.539  30.085  1.00  0.00     0.029 A 
ATOM     48  N   UNL A   1      42.580  30.080  28.931  1.00  0.00    -0.354 N 
ATOM     49  C   UNL A   1      41.130  26.108  28.113  1.00  0.00     0.074 A 
ATOM     50  C   UNL A   1      39.900  25.846  28.834  1.00  0.00     0.031 C 
ATOM     51  C   UNL A   1      42.484  32.155  29.766  1.00  0.00     0.029 A 
ATOM     52  C   UNL A   1      43.318  31.235  28.998  1.00  0.00     0.049 A 
ATOM     53  H   UNL A   1      42.896  29.261  28.485  1.00  0.00     0.167 HD
ATOM     54  C   UNL A   1      41.784  25.212  27.335  1.00  0.00     0.037 A 
ATOM     55  C   UNL A   1      44.523  31.530  28.479  1.00  0.00     0.037 A 
ATOM     56  C   UNL A   1      43.018  25.479  26.639  1.00  0.00     0.049 A 
ATOM     57  C   UNL A   1      45.240  30.508  27.649  1.00  0.00     0.074 A 
ATOM     58  C   UNL A   1      43.707  24.662  25.758  1.00  0.00     0.029 A 
ATOM     59  N   UNL A   1      43.761  26.644  26.762  1.00  0.00    -0.354 N 
ATOM     60  N   UNL A   1      44.853  29.303  27.312  1.00  0.00    -0.248 NA
ATOM     61  C   UNL A   1      46.554  30.891  27.115  1.00  0.00     0.031 C 
ATOM     62  C   UNL A   1      44.890  25.311  25.389  1.00  0.00     0.029 A 
ATOM     63  C   UNL A   1      44.920  26.551  26.007  1.00  0.00     0.049 A 
ATOM     64  H   UNL A   1      43.503  27.423  27.307  1.00  0.00     0.167 HD
ATOM     65  C   UNL A   1      45.862  28.787  26.515  1.00  0.00     0.074 A 
ATOM     66  C   UNL A   1      46.878  29.815  26.409  1.00  0.00     0.031 C 
ATOM     67  C   UNL A   1      45.934  27.571  25.922  1.00  0.00     0.037 A 
BRANCH  54  68
ATOM     68  C   UNL A   1      41.172  23.853  27.170  1.00  0.00     0.064 A 
ATOM     69  C   UNL A   1      40.025  23.664  26.384  1.00  0.00     0.173 A 
ATOM     70  C   UNL A   1      41.787  22.718  27.720  1.00  0.00     0.173 A 
ATOM     71  F   UNL A   1      39.403  24.719  25.837  1.00  0.00    -0.203 F 
ATOM     72  C   UNL A   1      39.507  22.391  26.167  1.00  0.00     0.198 A 
ATOM     73  C   UNL A   1      41.277  21.443  27.485  1.00  0.00     0.198 A 
ATOM     74  F   UNL A   1      42.892  22.844  28.470  1.00  0.00    -0.203 F 
ATOM     75  F   UNL A   1      38.398  22.235  25.431  1.00  0.00    -0.200 F 
ATOM     76  C   UNL A   1      40.138  21.281  26.710  1.00  0.00     0.200 A 
ATOM     77  F   UNL A   1      41.894  20.371  27.999  1.00  0.00    -0.200 F 
ATOM     78  F   UNL A   1      39.646  20.054  26.489  1.00  0.00    -0.200 F 
ENDBRANCH  54  68
BRANCH  55  79
ATOM     79  C   UNL A   1      45.080  32.889  28.682  1.00  0.00     0.064 A 
ATOM     80  C   UNL A   1      45.859  33.176  29.810  1.00  0.00     0.173 A 
ATOM     81  C   UNL A   1      44.904  33.899  27.726  1.00  0.00     0.173 A 
ATOM     82  F   UNL A   1      46.043  32.241  30.753  1.00  0.00    -0.203 F 
ATOM     83  C   UNL A   1      46.445  34.429  29.974  1.00  0.00     0.198 A 
ATOM     84  C   UNL A   1      45.505  35.145  27.884  1.00  0.00     0.198 A 
ATOM     85  F   UNL A   1      44.174  33.663  26.627  1.00  0.00    -0.203 F 
ATOM     86  F   UNL A   1      47.178  34.684  31.067  1.00  0.00    -0.200 F 
ATOM     87  C   UNL A   1      46.275  35.409  29.008  1.00  0.00     0.200 A 
ATOM     88  F   UNL A   1      45.352  36.086  26.941  1.00  0.00    -0.200 F 
ATOM     89  F   UNL A   1      46.854  36.608  29.159  1.00  0.00    -0.200 F 
ENDBRANCH  55  79
BRANCH  67  90
ATOM     90  C   UNL A   1      47.158  27.273  25.110  1.00  0.00     0.064 A 
ATOM     91  C   UNL A   1      47.264  27.688  23.775  1.00  0.00     0.173 A 
ATOM     92  C   UNL A   1      48.258  26.620  25.686  1.00  0.00     0.173 A 
ATOM     93  F   UNL A   1      46.232  28.301  23.176  1.00  0.00    -0.203 F 
ATOM     94  C   UNL A   1      48.424  27.454  23.042  1.00  0.00     0.198 A 
ATOM     95  C   UNL A   1      49.424  26.406  24.958  1.00  0.00     0.198 A 
ATOM     96  F   UNL A   1      48.206  26.205  26.960  1.00  0.00    -0.203 F 
ATOM     97  F   UNL A   1      48.494  27.835  21.760  1.00  0.00    -0.200 F 
ATOM     98  C   UNL A   1      49.506  26.820  23.637  1.00  0.00     0.200 A 
ATOM     99  F   UNL A   1      50.473  25.802  25.536  1.00  0.00    -0.200 F 
ATOM    100  F   UNL A   1      50.628  26.607  22.934  1.00  0.00    -0.200 F 
ENDBRANCH  67  90
ENDBRANCH  41  42
ENDBRANCH  34  36
ENDBRANCH  33  34
ENDBRANCH  32  33
ENDBRANCH  31  32
ENDBRANCH  30  31
ENDBRANCH  29  30
ENDBRANCH  28  29
ENDBRANCH   1  28
TORSDOF 22
ENDMDL
MODEL 3
REMARK VINA RESULT:     -11.2      1.315      2.589
REMARK SMILES O=C(CCn1c(SCc2ccccn2)nc2ccccc2c1=O)OCCOCCOCCOC(=O)c1ccc(-c2c3nc(c(-c4c(F)c(F)c(F)c(F)c4F)c4ccc([nH]4)c(-c4c(F)c(F)c(F)c(F)c4F)c4nc(c(-c5c(F)c(F)c(F)c(F)c5F)c5ccc2[nH]5)C=C4)C=C3)cc1
REMARK SMILES IDX 27 1 26 2 25 3 24 4 2 5 1 6 3 7 4 8 5 9 6 10 22 11 15 12
REMARK SMILES IDX 21 13 23 14 16 15 20 16 17 17 19 18 18 19 7 20 8 21 9 22
REMARK SMILES IDX 10 23 14 24 11 25 13 26 12 27 28 28 29 29 30 30 31 31 32 32
REMARK SMILES IDX 33 33 34 34 35 35 36 36 37 37 98 38 38 39 97 40 39 41 40 42
REMARK SMILES IDX 41 43 91 44 42 45 96 46 90 47 92 48 43 49 95 50 89 51 88 52
REMARK SMILES IDX 44 54 76 55 56 56 75 57 57 58 60 59 74 60 93 61 58 62 59 63
REMARK SMILES IDX 73 65 94 66 61 67 45 68 46 69 54 70 47 71 48 72 52 73 55 74
REMARK SMILES IDX 49 75 50 76 53 77 51 78 77 79 78 80 86 81 79 82 80 83 84 84
REMARK SMILES IDX 87 85 81 86 82 87 85 88 83 89 62 90 63 91 71 92 64 93 65 94
REMARK SMILES IDX 69 95 72 96 66 97 67 98 70 99 68 100
REMARK H PARENT 92 53 60 64
REMARK Flexibility Score: inf
ROOT
ATOM      1  O   UNL A   1      32.225  28.477  27.645  1.00  0.00    -0.376 OA
ENDROOT
BRANCH   1   2
ATOM      2  C   UNL A   1      31.356  27.650  26.887  1.00  0.00     0.202 C 
BRANCH   2   3
ATOM      3  C   UNL A   1      31.843  26.273  26.418  1.00  0.00     0.261 C 
BRANCH   3   4
ATOM      4  O   UNL A   1      30.870  25.223  26.325  1.00  0.00    -0.463 OA
BRANCH   4   5
ATOM      5  C   UNL A   1      31.161  23.917  26.504  1.00  0.00     0.307 C 
ATOM      6  O   UNL A   1      31.624  23.523  27.572  1.00  0.00    -0.252 OA
BRANCH   5   7
ATOM      7  C   UNL A   1      30.926  22.956  25.374  1.00  0.00     0.144 C 
BRANCH   7   8
ATOM      8  C   UNL A   1      30.756  23.717  24.069  1.00  0.00     0.140 C 
BRANCH   8   9
ATOM      9  N   UNL A   1      31.879  23.629  23.125  1.00  0.00    -0.286 N 
ATOM     10  C   UNL A   1      32.610  24.780  22.966  1.00  0.00     0.171 A 
ATOM     11  C   UNL A   1      32.663  22.491  23.201  1.00  0.00     0.262 A 
ATOM     12  N   UNL A   1      33.716  24.989  23.617  1.00  0.00    -0.224 NA
ATOM     13  C   UNL A   1      33.815  22.614  24.111  1.00  0.00     0.066 A 
ATOM     14  O   UNL A   1      32.425  21.442  22.621  1.00  0.00    -0.269 OA
ATOM     15  C   UNL A   1      34.209  23.921  24.391  1.00  0.00     0.079 A 
ATOM     16  C   UNL A   1      34.367  21.510  24.765  1.00  0.00     0.016 A 
ATOM     17  C   UNL A   1      35.125  24.127  25.420  1.00  0.00     0.029 A 
ATOM     18  C   UNL A   1      35.282  21.728  25.791  1.00  0.00     0.001 A 
ATOM     19  C   UNL A   1      35.643  23.034  26.131  1.00  0.00     0.002 A 
BRANCH  10  20
ATOM     20  S   UNL A   1      32.034  26.005  21.875  1.00  0.00    -0.081 SA
BRANCH  20  21
ATOM     21  C   UNL A   1      31.639  27.457  22.875  1.00  0.00     0.134 C 
BRANCH  21  22
ATOM     22  C   UNL A   1      30.199  27.908  22.975  1.00  0.00     0.051 A 
ATOM     23  C   UNL A   1      29.814  29.121  22.397  1.00  0.00     0.025 A 
ATOM     24  N   UNL A   1      29.293  27.071  23.532  1.00  0.00    -0.260 NA
ATOM     25  C   UNL A   1      28.482  29.518  22.442  1.00  0.00     0.003 A 
ATOM     26  C   UNL A   1      27.997  27.467  23.537  1.00  0.00     0.111 A 
ATOM     27  C   UNL A   1      27.548  28.670  23.018  1.00  0.00     0.020 A 
ENDBRANCH  21  22
ENDBRANCH  20  21
ENDBRANCH  10  20
ENDBRANCH   8   9
ENDBRANCH   7   8
ENDBRANCH   5   7
ENDBRANCH   4   5
ENDBRANCH   3   4
ENDBRANCH   2   3
ENDBRANCH   1   2
BRANCH   1  28
ATOM     28  C   UNL A   1      33.320  29.095  26.988  1.00  0.00     0.188 C 
BRANCH  28  29
ATOM     29  C   UNL A   1      33.399  30.625  26.923  1.00  0.00     0.188 C 
BRANCH  29  30
ATOM     30  O   UNL A   1      34.317  31.227  27.827  1.00  0.00    -0.376 OA
BRANCH  30  31
ATOM     31  C   UNL A   1      34.020  32.595  28.128  1.00  0.00     0.202 C 
BRANCH  31  32
ATOM     32  C   UNL A   1      34.475  33.041  29.528  1.00  0.00     0.261 C 
BRANCH  32  33
ATOM     33  O   UNL A   1      34.824  31.980  30.434  1.00  0.00    -0.460 OA
BRANCH  33  34
ATOM     34  C   UNL A   1      35.937  32.157  31.171  1.00  0.00     0.338 C 
ATOM     35  O   UNL A   1      36.062  32.873  32.154  1.00  0.00    -0.246 OA
BRANCH  34  36
ATOM     36  C   UNL A   1      36.995  31.254  30.681  1.00  0.00     0.060 A 
ATOM     37  C   UNL A   1      37.282  31.159  29.317  1.00  0.00     0.016 A 
ATOM     38  C   UNL A   1      37.764  30.554  31.619  1.00  0.00     0.016 A 
ATOM     39  C   UNL A   1      38.380  30.405  28.895  1.00  0.00     0.010 A 
ATOM     40  C   UNL A   1      38.847  29.783  31.194  1.00  0.00     0.010 A 
ATOM     41  C   UNL A   1      39.184  29.736  29.833  1.00  0.00    -0.014 A 
BRANCH  41  42
ATOM     42  C   UNL A   1      40.497  29.187  29.420  1.00  0.00     0.031 A 
ATOM     43  C   UNL A   1      40.665  27.772  28.968  1.00  0.00     0.074 A 
ATOM     44  C   UNL A   1      41.561  30.009  29.473  1.00  0.00     0.049 A 
ATOM     45  N   UNL A   1      41.724  27.199  28.454  1.00  0.00    -0.248 NA
ATOM     46  C   UNL A   1      39.507  26.882  29.122  1.00  0.00     0.031 C 
ATOM     47  C   UNL A   1      41.521  31.396  29.941  1.00  0.00     0.029 A 
ATOM     48  N   UNL A   1      42.873  29.806  29.133  1.00  0.00    -0.354 N 
ATOM     49  C   UNL A   1      41.354  25.889  28.189  1.00  0.00     0.074 A 
ATOM     50  C   UNL A   1      39.987  25.739  28.646  1.00  0.00     0.031 C 
ATOM     51  C   UNL A   1      42.750  31.925  29.846  1.00  0.00     0.029 A 
ATOM     52  C   UNL A   1      43.659  30.918  29.308  1.00  0.00     0.049 A 
ATOM     53  H   UNL A   1      43.218  28.947  28.798  1.00  0.00     0.167 HD
ATOM     54  C   UNL A   1      42.092  24.915  27.603  1.00  0.00     0.037 A 
ATOM     55  C   UNL A   1      44.963  31.113  29.042  1.00  0.00     0.037 A 
ATOM     56  C   UNL A   1      43.459  25.071  27.172  1.00  0.00     0.049 A 
ATOM     57  C   UNL A   1      45.764  30.008  28.423  1.00  0.00     0.074 A 
ATOM     58  C   UNL A   1      44.258  24.169  26.489  1.00  0.00     0.029 A 
ATOM     59  N   UNL A   1      44.239  26.195  27.402  1.00  0.00    -0.354 N 
ATOM     60  N   UNL A   1      45.373  28.811  28.062  1.00  0.00    -0.248 NA
ATOM     61  C   UNL A   1      47.184  30.283  28.163  1.00  0.00     0.031 C 
ATOM     62  C   UNL A   1      45.534  24.726  26.352  1.00  0.00     0.029 A 
ATOM     63  C   UNL A   1      45.520  25.994  26.912  1.00  0.00     0.049 A 
ATOM     64  H   UNL A   1      43.928  27.016  27.848  1.00  0.00     0.167 HD
ATOM     65  C   UNL A   1      46.489  28.194  27.515  1.00  0.00     0.074 A 
ATOM     66  C   UNL A   1      47.572  29.153  27.584  1.00  0.00     0.031 C 
ATOM     67  C   UNL A   1      46.597  26.946  27.001  1.00  0.00     0.037 A 
BRANCH  54  68
ATOM     68  C   UNL A   1      41.436  23.587  27.368  1.00  0.00     0.064 A 
ATOM     69  C   UNL A   1      40.343  23.463  26.497  1.00  0.00     0.173 A 
ATOM     70  C   UNL A   1      41.958  22.418  27.941  1.00  0.00     0.173 A 
ATOM     71  F   UNL A   1      39.810  24.553  25.925  1.00  0.00    -0.203 F 
ATOM     72  C   UNL A   1      39.787  22.218  26.218  1.00  0.00     0.198 A 
ATOM     73  C   UNL A   1      41.412  21.171  27.644  1.00  0.00     0.198 A 
ATOM     74  F   UNL A   1      43.009  22.483  28.771  1.00  0.00    -0.203 F 
ATOM     75  F   UNL A   1      38.730  22.123  25.400  1.00  0.00    -0.200 F 
ATOM     76  C   UNL A   1      40.327  21.072  26.785  1.00  0.00     0.200 A 
ATOM     77  F   UNL A   1      41.942  20.064  28.182  1.00  0.00    -0.200 F 
ATOM     78  F   UNL A   1      39.800  19.872  26.506  1.00  0.00    -0.200 F 
ENDBRANCH  54  68
BRANCH  55  79
ATOM     79  C   UNL A   1      45.558  32.445  29.303  1.00  0.00     0.064 A 
ATOM     80  C   UNL A   1      45.502  33.452  28.330  1.00  0.00     0.173 A 
ATOM     81  C   UNL A   1      46.126  32.759  30.546  1.00  0.00     0.173 A 
ATOM     82  F   UNL A   1      44.976  33.189  27.125  1.00  0.00    -0.203 F 
ATOM     83  C   UNL A   1      45.995  34.728  28.591  1.00  0.00     0.198 A 
ATOM     84  C   UNL A   1      46.602  34.041  30.811  1.00  0.00     0.198 A 
ATOM     85  F   UNL A   1      46.191  31.830  31.508  1.00  0.00    -0.203 F 
ATOM     86  F   UNL A   1      45.940  35.671  27.641  1.00  0.00    -0.200 F 
ATOM     87  C   UNL A   1      46.536  35.024  29.833  1.00  0.00     0.200 A 
ATOM     88  F   UNL A   1      47.112  34.329  32.017  1.00  0.00    -0.200 F 
ATOM     89  F   UNL A   1      46.994  36.257  30.089  1.00  0.00    -0.200 F 
ENDBRANCH  55  79
BRANCH  67  90
ATOM     90  C   UNL A   1      47.940  26.533  26.477  1.00  0.00     0.064 A 
ATOM     91  C   UNL A   1      48.309  26.781  25.147  1.00  0.00     0.173 A 
ATOM     92  C   UNL A   1      48.887  25.940  27.324  1.00  0.00     0.173 A 
ATOM     93  F   UNL A   1      47.431  27.330  24.295  1.00  0.00    -0.203 F 
ATOM     94  C   UNL A   1      49.576  26.441  24.681  1.00  0.00     0.198 A 
ATOM     95  C   UNL A   1      50.160  25.621  26.861  1.00  0.00     0.198 A 
ATOM     96  F   UNL A   1      48.582  25.684  28.605  1.00  0.00    -0.203 F 
ATOM     97  F   UNL A   1      49.899  26.662  23.400  1.00  0.00    -0.200 F 
ATOM     98  C   UNL A   1      50.503  25.870  25.541  1.00  0.00     0.200 A 
ATOM     99  F   UNL A   1      51.059  25.077  27.695  1.00  0.00    -0.200 F 
ATOM    100  F   UNL A   1      51.727  25.556  25.094  1.00  0.00    -0.200 F 
ENDBRANCH  67  90
ENDBRANCH  41  42
ENDBRANCH  34  36
ENDBRANCH  33  34
ENDBRANCH  32  33
ENDBRANCH  31  32
ENDBRANCH  30  31
ENDBRANCH  29  30
ENDBRANCH  28  29
ENDBRANCH   1  28
TORSDOF 22
ENDMDL
