MODEL 1
REMARK VINA RESULT:     -11.9      0.000      0.000
REMARK SMILES O=C(CC1(NC(=O)C2(c3ccccc3)CC2)CCC1)OCCOCCOCCOC(=O)c1ccc(-c2c3nc(c(-c4c(F)c(F)c(F)c(F)c4F)c4ccc([nH]4)c(-c4c(F)c(F)c(F)c(F)c4F)c4nc(c(-c5c(F)c(F)c(F)c(F)c5F)c5ccc2[nH]5)C=C4)C=C3)cc1
REMARK SMILES IDX 24 1 23 2 22 3 21 4 20 5 2 6 1 7 3 8 4 9 17 10 19 11 18 12
REMARK SMILES IDX 5 13 6 14 7 16 8 17 15 18 16 19 9 20 10 21 14 22 11 23 13 24
REMARK SMILES IDX 12 25 25 26 26 27 27 28 28 29 29 30 30 31 31 32 32 33 33 34
REMARK SMILES IDX 94 35 34 36 93 37 35 38 36 39 37 40 87 41 38 42 92 43 86 44
REMARK SMILES IDX 88 45 39 46 91 47 85 48 84 49 40 51 72 52 52 53 71 54 53 55
REMARK SMILES IDX 56 56 70 57 89 58 54 59 55 60 69 62 90 63 57 64 41 65 42 66
REMARK SMILES IDX 50 67 43 68 44 69 48 70 51 71 45 72 46 73 49 74 47 75 73 76
REMARK SMILES IDX 74 77 82 78 75 79 76 80 80 81 83 82 77 83 78 84 81 85 79 86
REMARK SMILES IDX 58 87 59 88 67 89 60 90 61 91 65 92 68 93 62 94 63 95 66 96
REMARK SMILES IDX 64 97
REMARK H PARENT 5 15 88 50 56 61
REMARK Flexibility Score: inf
ROOT
ATOM      1  C   UNL A   1      40.789  20.855  26.777  1.00  0.00     0.188 C 
ENDROOT
BRANCH   1   2
ATOM      2  O   UNL A   1      40.109  21.631  25.784  1.00  0.00    -0.376 OA
BRANCH   2   3
ATOM      3  C   UNL A   1      38.806  22.047  26.183  1.00  0.00     0.202 C 
BRANCH   3   4
ATOM      4  C   UNL A   1      37.713  21.459  25.283  1.00  0.00     0.261 C 
BRANCH   4   5
ATOM      5  O   UNL A   1      37.243  22.357  24.249  1.00  0.00    -0.463 OA
BRANCH   5   6
ATOM      6  C   UNL A   1      36.294  23.321  24.405  1.00  0.00     0.308 C 
ATOM      7  O   UNL A   1      36.448  24.157  25.293  1.00  0.00    -0.252 OA
BRANCH   6   8
ATOM      8  C   UNL A   1      34.932  23.253  23.418  1.00  0.00     0.151 C 
BRANCH   8   9
ATOM      9  C   UNL A   1      33.059  22.155  23.512  1.00  0.00     0.051 C 
ATOM     10  C   UNL A   1      32.452  20.623  22.644  1.00  0.00     0.029 C 
ATOM     11  C   UNL A   1      32.336  21.062  24.844  1.00  0.00     0.029 C 
ATOM     12  C   UNL A   1      32.438  19.821  23.951  1.00  0.00     0.005 C 
BRANCH   9  13
ATOM     13  N   UNL A   1      31.390  22.924  23.232  1.00  0.00    -0.349 N 
ATOM     14  C   UNL A   1      30.905  24.154  23.677  1.00  0.00     0.231 C 
ATOM     15  H   UNL A   1      30.762  22.389  22.696  1.00  0.00     0.164 HD
ATOM     16  O   UNL A   1      29.890  24.682  23.245  1.00  0.00    -0.274 OA
BRANCH  14  17
ATOM     17  C   UNL A   1      31.695  24.664  24.803  1.00  0.00     0.074 C 
ATOM     18  C   UNL A   1      31.584  24.182  26.217  1.00  0.00     0.023 C 
ATOM     19  C   UNL A   1      32.815  23.861  25.409  1.00  0.00     0.023 C 
BRANCH  17  20
ATOM     20  C   UNL A   1      31.884  26.075  24.433  1.00  0.00    -0.032 A 
ATOM     21  C   UNL A   1      33.451  26.560  23.670  1.00  0.00     0.005 A 
ATOM     22  C   UNL A   1      30.991  27.264  25.494  1.00  0.00     0.005 A 
ATOM     23  C   UNL A   1      34.032  28.252  23.839  1.00  0.00     0.000 A 
ATOM     24  C   UNL A   1      31.616  28.918  25.672  1.00  0.00     0.000 A 
ATOM     25  C   UNL A   1      33.151  29.408  24.872  1.00  0.00     0.000 A 
ENDBRANCH  17  20
ENDBRANCH  14  17
ENDBRANCH   9  13
ENDBRANCH   8   9
ENDBRANCH   6   8
ENDBRANCH   5   6
ENDBRANCH   4   5
ENDBRANCH   3   4
ENDBRANCH   2   3
ENDBRANCH   1   2
BRANCH   1  26
ATOM     26  C   UNL A   1      41.463  19.650  26.113  1.00  0.00     0.188 C 
BRANCH  26  27
ATOM     27  O   UNL A   1      42.586  19.984  25.291  1.00  0.00    -0.376 OA
BRANCH  27  28
ATOM     28  C   UNL A   1      43.785  20.418  25.934  1.00  0.00     0.202 C 
BRANCH  28  29
ATOM     29  C   UNL A   1      44.345  21.750  25.426  1.00  0.00     0.261 C 
BRANCH  29  30
ATOM     30  O   UNL A   1      43.645  22.862  26.026  1.00  0.00    -0.460 OA
BRANCH  30  31
ATOM     31  C   UNL A   1      43.673  24.023  25.334  1.00  0.00     0.338 C 
ATOM     32  O   UNL A   1      44.280  24.246  24.301  1.00  0.00    -0.246 OA
BRANCH  31  33
ATOM     33  C   UNL A   1      42.857  25.059  26.007  1.00  0.00     0.060 A 
ATOM     34  C   UNL A   1      43.395  26.349  26.115  1.00  0.00     0.016 A 
ATOM     35  C   UNL A   1      41.674  24.733  26.682  1.00  0.00     0.016 A 
ATOM     36  C   UNL A   1      42.797  27.288  26.956  1.00  0.00     0.010 A 
ATOM     37  C   UNL A   1      41.084  25.669  27.536  1.00  0.00     0.010 A 
ATOM     38  C   UNL A   1      41.676  26.930  27.717  1.00  0.00    -0.014 A 
BRANCH  38  39
ATOM     39  C   UNL A   1      41.275  27.773  28.868  1.00  0.00     0.031 A 
ATOM     40  C   UNL A   1      42.069  27.673  30.144  1.00  0.00     0.074 A 
ATOM     41  C   UNL A   1      40.235  28.620  28.788  1.00  0.00     0.049 A 
ATOM     42  N   UNL A   1      41.909  28.311  31.276  1.00  0.00    -0.248 NA
ATOM     43  C   UNL A   1      43.205  26.734  30.140  1.00  0.00     0.031 C 
ATOM     44  C   UNL A   1      39.409  28.841  27.604  1.00  0.00     0.029 A 
ATOM     45  N   UNL A   1      39.702  29.455  29.736  1.00  0.00    -0.354 N 
ATOM     46  C   UNL A   1      42.932  27.871  32.104  1.00  0.00     0.074 A 
ATOM     47  C   UNL A   1      43.699  26.897  31.358  1.00  0.00     0.031 C 
ATOM     48  C   UNL A   1      38.463  29.751  27.898  1.00  0.00     0.029 A 
ATOM     49  C   UNL A   1      38.610  30.158  29.296  1.00  0.00     0.049 A 
ATOM     50  H   UNL A   1      40.069  29.542  30.646  1.00  0.00     0.167 HD
ATOM     51  C   UNL A   1      43.219  28.251  33.371  1.00  0.00     0.037 A 
ATOM     52  C   UNL A   1      37.814  31.020  29.958  1.00  0.00     0.037 A 
ATOM     53  C   UNL A   1      42.462  29.203  34.133  1.00  0.00     0.049 A 
ATOM     54  C   UNL A   1      38.084  31.338  31.403  1.00  0.00     0.074 A 
ATOM     55  C   UNL A   1      42.693  29.668  35.415  1.00  0.00     0.029 A 
ATOM     56  N   UNL A   1      41.310  29.823  33.678  1.00  0.00    -0.354 N 
ATOM     57  N   UNL A   1      39.065  30.931  32.170  1.00  0.00    -0.248 NA
ATOM     58  C   UNL A   1      37.123  32.225  32.078  1.00  0.00     0.031 C 
ATOM     59  C   UNL A   1      41.661  30.556  35.747  1.00  0.00     0.029 A 
ATOM     60  C   UNL A   1      40.798  30.645  34.667  1.00  0.00     0.049 A 
ATOM     61  H   UNL A   1      40.915  29.698  32.785  1.00  0.00     0.167 HD
ATOM     62  C   UNL A   1      38.847  31.516  33.410  1.00  0.00     0.074 A 
ATOM     63  C   UNL A   1      37.639  32.306  33.298  1.00  0.00     0.031 C 
ATOM     64  C   UNL A   1      39.587  31.409  34.540  1.00  0.00     0.037 A 
BRANCH  51  65
ATOM     65  C   UNL A   1      44.415  27.621  34.007  1.00  0.00     0.064 A 
ATOM     66  C   UNL A   1      45.680  28.216  33.905  1.00  0.00     0.173 A 
ATOM     67  C   UNL A   1      44.297  26.419  34.716  1.00  0.00     0.173 A 
ATOM     68  F   UNL A   1      45.837  29.358  33.220  1.00  0.00    -0.203 F 
ATOM     69  C   UNL A   1      46.794  27.620  34.489  1.00  0.00     0.198 A 
ATOM     70  C   UNL A   1      45.414  25.828  35.302  1.00  0.00     0.198 A 
ATOM     71  F   UNL A   1      43.107  25.811  34.824  1.00  0.00    -0.203 F 
ATOM     72  F   UNL A   1      48.000  28.191  34.367  1.00  0.00    -0.200 F 
ATOM     73  C   UNL A   1      46.659  26.428  35.187  1.00  0.00     0.200 A 
ATOM     74  F   UNL A   1      45.285  24.673  35.968  1.00  0.00    -0.200 F 
ATOM     75  F   UNL A   1      47.735  25.851  35.741  1.00  0.00    -0.200 F 
ENDBRANCH  51  65
BRANCH  52  76
ATOM     76  C   UNL A   1      36.652  31.619  29.263  1.00  0.00     0.064 A 
ATOM     77  C   UNL A   1      36.624  32.983  28.949  1.00  0.00     0.173 A 
ATOM     78  C   UNL A   1      35.543  30.836  28.915  1.00  0.00     0.173 A 
ATOM     79  F   UNL A   1      37.650  33.772  29.297  1.00  0.00    -0.203 F 
ATOM     80  C   UNL A   1      35.522  33.545  28.309  1.00  0.00     0.198 A 
ATOM     81  C   UNL A   1      34.446  31.398  28.269  1.00  0.00     0.198 A 
ATOM     82  F   UNL A   1      35.523  29.529  29.216  1.00  0.00    -0.203 F 
ATOM     83  F   UNL A   1      35.499  34.859  28.045  1.00  0.00    -0.200 F 
ATOM     84  C   UNL A   1      34.435  32.751  27.967  1.00  0.00     0.200 A 
ATOM     85  F   UNL A   1      33.395  30.630  27.949  1.00  0.00    -0.200 F 
ATOM     86  F   UNL A   1      33.370  33.294  27.362  1.00  0.00    -0.200 F 
ENDBRANCH  52  76
BRANCH  64  87
ATOM     87  C   UNL A   1      39.107  32.149  35.747  1.00  0.00     0.064 A 
ATOM     88  C   UNL A   1      38.312  31.513  36.709  1.00  0.00     0.173 A 
ATOM     89  C   UNL A   1      39.489  33.479  35.971  1.00  0.00     0.173 A 
ATOM     90  F   UNL A   1      37.917  30.243  36.527  1.00  0.00    -0.203 F 
ATOM     91  C   UNL A   1      37.912  32.187  37.859  1.00  0.00     0.198 A 
ATOM     92  C   UNL A   1      39.094  34.147  37.126  1.00  0.00     0.198 A 
ATOM     93  F   UNL A   1      40.251  34.124  35.075  1.00  0.00    -0.203 F 
ATOM     94  F   UNL A   1      37.142  31.566  38.764  1.00  0.00    -0.200 F 
ATOM     95  C   UNL A   1      38.306  33.501  38.068  1.00  0.00     0.200 A 
ATOM     96  F   UNL A   1      39.474  35.416  37.328  1.00  0.00    -0.200 F 
ATOM     97  F   UNL A   1      37.923  34.147  39.178  1.00  0.00    -0.200 F 
ENDBRANCH  64  87
ENDBRANCH  38  39
ENDBRANCH  31  33
ENDBRANCH  30  31
ENDBRANCH  29  30
ENDBRANCH  28  29
ENDBRANCH  27  28
ENDBRANCH  26  27
ENDBRANCH   1  26
TORSDOF 21
ENDMDL
MODEL 2
REMARK VINA RESULT:     -11.8      3.117      4.817
REMARK SMILES O=C(CC1(NC(=O)C2(c3ccccc3)CC2)CCC1)OCCOCCOCCOC(=O)c1ccc(-c2c3nc(c(-c4c(F)c(F)c(F)c(F)c4F)c4ccc([nH]4)c(-c4c(F)c(F)c(F)c(F)c4F)c4nc(c(-c5c(F)c(F)c(F)c(F)c5F)c5ccc2[nH]5)C=C4)C=C3)cc1
REMARK SMILES IDX 24 1 23 2 22 3 21 4 20 5 2 6 1 7 3 8 4 9 17 10 19 11 18 12
REMARK SMILES IDX 5 13 6 14 7 16 8 17 15 18 16 19 9 20 10 21 14 22 11 23 13 24
REMARK SMILES IDX 12 25 25 26 26 27 27 28 28 29 29 30 30 31 31 32 32 33 33 34
REMARK SMILES IDX 94 35 34 36 93 37 35 38 36 39 37 40 87 41 38 42 92 43 86 44
REMARK SMILES IDX 88 45 39 46 91 47 85 48 84 49 40 51 72 52 52 53 71 54 53 55
REMARK SMILES IDX 56 56 70 57 89 58 54 59 55 60 69 62 90 63 57 64 41 65 42 66
REMARK SMILES IDX 50 67 43 68 44 69 48 70 51 71 45 72 46 73 49 74 47 75 73 76
REMARK SMILES IDX 74 77 82 78 75 79 76 80 80 81 83 82 77 83 78 84 81 85 79 86
REMARK SMILES IDX 58 87 59 88 67 89 60 90 61 91 65 92 68 93 62 94 63 95 66 96
REMARK SMILES IDX 64 97
REMARK H PARENT 5 15 88 50 56 61
REMARK Flexibility Score: inf
ROOT
ATOM      1  C   UNL A   1      34.098  21.042  25.304  1.00  0.00     0.188 C 
ENDROOT
BRANCH   1   2
ATOM      2  O   UNL A   1      34.173  21.012  26.733  1.00  0.00    -0.376 OA
BRANCH   2   3
ATOM      3  C   UNL A   1      34.029  22.295  27.336  1.00  0.00     0.202 C 
BRANCH   3   4
ATOM      4  C   UNL A   1      32.559  22.663  27.565  1.00  0.00     0.261 C 
BRANCH   4   5
ATOM      5  O   UNL A   1      31.979  23.484  26.524  1.00  0.00    -0.463 OA
BRANCH   5   6
ATOM      6  C   UNL A   1      30.808  24.173  26.614  1.00  0.00     0.308 C 
ATOM      7  O   UNL A   1      29.871  23.660  27.224  1.00  0.00    -0.252 OA
BRANCH   6   8
ATOM      8  C   UNL A   1      30.698  25.649  25.814  1.00  0.00     0.151 C 
BRANCH   8   9
ATOM      9  C   UNL A   1      31.957  27.420  25.741  1.00  0.00     0.051 C 
ATOM     10  C   UNL A   1      31.575  29.241  25.823  1.00  0.00     0.029 C 
ATOM     11  C   UNL A   1      33.147  28.138  26.989  1.00  0.00     0.029 C 
ATOM     12  C   UNL A   1      32.273  29.382  27.182  1.00  0.00     0.005 C 
BRANCH   9  13
ATOM     13  N   UNL A   1      33.167  27.777  24.376  1.00  0.00    -0.349 N 
ATOM     14  C   UNL A   1      32.955  27.792  22.997  1.00  0.00     0.231 C 
ATOM     15  H   UNL A   1      34.084  27.985  24.667  1.00  0.00     0.164 HD
ATOM     16  O   UNL A   1      33.742  28.272  22.193  1.00  0.00    -0.274 OA
BRANCH  14  17
ATOM     17  C   UNL A   1      31.740  27.055  22.636  1.00  0.00     0.074 C 
ATOM     18  C   UNL A   1      31.643  26.052  21.526  1.00  0.00     0.023 C 
ATOM     19  C   UNL A   1      31.576  25.594  22.961  1.00  0.00     0.023 C 
BRANCH  17  20
ATOM     20  C   UNL A   1      30.683  28.029  22.951  1.00  0.00    -0.032 A 
ATOM     21  C   UNL A   1      29.073  27.404  23.487  1.00  0.00     0.005 A 
ATOM     22  C   UNL A   1      30.777  29.585  21.999  1.00  0.00     0.005 A 
ATOM     23  C   UNL A   1      27.601  28.398  23.210  1.00  0.00     0.000 A 
ATOM     24  C   UNL A   1      29.295  30.522  21.709  1.00  0.00     0.000 A 
ATOM     25  C   UNL A   1      27.702  29.919  22.286  1.00  0.00     0.000 A 
ENDBRANCH  17  20
ENDBRANCH  14  17
ENDBRANCH   9  13
ENDBRANCH   8   9
ENDBRANCH   6   8
ENDBRANCH   5   6
ENDBRANCH   4   5
ENDBRANCH   3   4
ENDBRANCH   2   3
ENDBRANCH   1   2
BRANCH   1  26
ATOM     26  C   UNL A   1      35.435  21.522  24.730  1.00  0.00     0.188 C 
BRANCH  26  27
ATOM     27  O   UNL A   1      36.569  21.221  25.551  1.00  0.00    -0.376 OA
BRANCH  27  28
ATOM     28  C   UNL A   1      37.741  20.709  24.917  1.00  0.00     0.202 C 
BRANCH  28  29
ATOM     29  C   UNL A   1      39.053  21.000  25.653  1.00  0.00     0.261 C 
BRANCH  29  30
ATOM     30  O   UNL A   1      38.997  22.285  26.311  1.00  0.00    -0.460 OA
BRANCH  30  31
ATOM     31  C   UNL A   1      40.164  22.962  26.390  1.00  0.00     0.338 C 
ATOM     32  O   UNL A   1      41.274  22.544  26.108  1.00  0.00    -0.246 OA
BRANCH  31  33
ATOM     33  C   UNL A   1      39.945  24.335  26.899  1.00  0.00     0.060 A 
ATOM     34  C   UNL A   1      40.544  25.395  26.204  1.00  0.00     0.016 A 
ATOM     35  C   UNL A   1      39.323  24.567  28.132  1.00  0.00     0.016 A 
ATOM     36  C   UNL A   1      40.591  26.667  26.775  1.00  0.00     0.010 A 
ATOM     37  C   UNL A   1      39.384  25.838  28.710  1.00  0.00     0.010 A 
ATOM     38  C   UNL A   1      40.068  26.877  28.057  1.00  0.00    -0.014 A 
BRANCH  38  39
ATOM     39  C   UNL A   1      40.444  28.098  28.809  1.00  0.00     0.031 A 
ATOM     40  C   UNL A   1      41.856  28.221  29.318  1.00  0.00     0.074 A 
ATOM     41  C   UNL A   1      39.560  29.084  29.031  1.00  0.00     0.049 A 
ATOM     42  N   UNL A   1      42.415  29.192  29.995  1.00  0.00    -0.248 NA
ATOM     43  C   UNL A   1      42.766  27.102  29.014  1.00  0.00     0.031 C 
ATOM     44  C   UNL A   1      38.177  29.108  28.562  1.00  0.00     0.029 A 
ATOM     45  N   UNL A   1      39.709  30.264  29.715  1.00  0.00    -0.354 N 
ATOM     46  C   UNL A   1      43.738  28.815  30.174  1.00  0.00     0.074 A 
ATOM     47  C   UNL A   1      43.900  27.516  29.556  1.00  0.00     0.031 C 
ATOM     48  C   UNL A   1      37.597  30.248  28.979  1.00  0.00     0.029 A 
ATOM     49  C   UNL A   1      38.565  31.020  29.759  1.00  0.00     0.049 A 
ATOM     50  H   UNL A   1      40.556  30.543  30.132  1.00  0.00     0.167 HD
ATOM     51  C   UNL A   1      44.736  29.491  30.788  1.00  0.00     0.037 A 
ATOM     52  C   UNL A   1      38.329  32.194  30.375  1.00  0.00     0.037 A 
ATOM     53  C   UNL A   1      44.591  30.770  31.421  1.00  0.00     0.049 A 
ATOM     54  C   UNL A   1      39.425  32.871  31.152  1.00  0.00     0.074 A 
ATOM     55  C   UNL A   1      45.554  31.543  32.047  1.00  0.00     0.029 A 
ATOM     56  N   UNL A   1      43.393  31.458  31.521  1.00  0.00    -0.354 N 
ATOM     57  N   UNL A   1      40.677  32.515  31.298  1.00  0.00    -0.248 NA
ATOM     58  C   UNL A   1      39.067  34.108  31.863  1.00  0.00     0.031 C 
ATOM     59  C   UNL A   1      44.929  32.692  32.549  1.00  0.00     0.029 A 
ATOM     60  C   UNL A   1      43.583  32.634  32.226  1.00  0.00     0.049 A 
ATOM     61  H   UNL A   1      42.535  31.156  31.145  1.00  0.00     0.167 HD
ATOM     62  C   UNL A   1      41.257  33.483  32.106  1.00  0.00     0.074 A 
ATOM     63  C   UNL A   1      40.222  34.444  32.423  1.00  0.00     0.031 C 
ATOM     64  C   UNL A   1      42.537  33.567  32.544  1.00  0.00     0.037 A 
BRANCH  51  65
ATOM     65  C   UNL A   1      46.081  28.840  30.801  1.00  0.00     0.064 A 
ATOM     66  C   UNL A   1      46.470  28.016  31.866  1.00  0.00     0.173 A 
ATOM     67  C   UNL A   1      46.983  29.044  29.750  1.00  0.00     0.173 A 
ATOM     68  F   UNL A   1      45.641  27.809  32.899  1.00  0.00    -0.203 F 
ATOM     69  C   UNL A   1      47.728  27.420  31.880  1.00  0.00     0.198 A 
ATOM     70  C   UNL A   1      48.240  28.444  29.766  1.00  0.00     0.198 A 
ATOM     71  F   UNL A   1      46.655  29.838  28.720  1.00  0.00    -0.203 F 
ATOM     72  F   UNL A   1      48.093  26.650  32.914  1.00  0.00    -0.200 F 
ATOM     73  C   UNL A   1      48.611  27.635  30.830  1.00  0.00     0.200 A 
ATOM     74  F   UNL A   1      49.095  28.658  28.757  1.00  0.00    -0.200 F 
ATOM     75  F   UNL A   1      49.825  27.068  30.849  1.00  0.00    -0.200 F 
ENDBRANCH  51  65
BRANCH  52  76
ATOM     76  C   UNL A   1      36.975  32.791  30.312  1.00  0.00     0.064 A 
ATOM     77  C   UNL A   1      36.610  33.642  29.263  1.00  0.00     0.173 A 
ATOM     78  C   UNL A   1      36.030  32.530  31.313  1.00  0.00     0.173 A 
ATOM     79  F   UNL A   1      37.498  33.945  28.304  1.00  0.00    -0.203 F 
ATOM     80  C   UNL A   1      35.340  34.214  29.216  1.00  0.00     0.198 A 
ATOM     81  C   UNL A   1      34.760  33.095  31.261  1.00  0.00     0.198 A 
ATOM     82  F   UNL A   1      36.348  31.735  32.346  1.00  0.00    -0.203 F 
ATOM     83  F   UNL A   1      35.019  35.051  28.221  1.00  0.00    -0.200 F 
ATOM     84  C   UNL A   1      34.416  33.937  30.215  1.00  0.00     0.200 A 
ATOM     85  F   UNL A   1      33.873  32.833  32.232  1.00  0.00    -0.200 F 
ATOM     86  F   UNL A   1      33.198  34.496  30.177  1.00  0.00    -0.200 F 
ENDBRANCH  52  76
BRANCH  64  87
ATOM     87  C   UNL A   1      42.887  34.725  33.420  1.00  0.00     0.064 A 
ATOM     88  C   UNL A   1      43.249  35.960  32.867  1.00  0.00     0.173 A 
ATOM     89  C   UNL A   1      42.808  34.618  34.816  1.00  0.00     0.173 A 
ATOM     90  F   UNL A   1      43.346  36.102  31.536  1.00  0.00    -0.203 F 
ATOM     91  C   UNL A   1      43.522  37.053  33.684  1.00  0.00     0.198 A 
ATOM     92  C   UNL A   1      43.074  35.715  35.630  1.00  0.00     0.198 A 
ATOM     93  F   UNL A   1      42.465  33.454  35.386  1.00  0.00    -0.203 F 
ATOM     94  F   UNL A   1      43.877  38.224  33.138  1.00  0.00    -0.200 F 
ATOM     95  C   UNL A   1      43.430  36.931  35.063  1.00  0.00     0.200 A 
ATOM     96  F   UNL A   1      42.985  35.597  36.961  1.00  0.00    -0.200 F 
ATOM     97  F   UNL A   1      43.690  37.986  35.849  1.00  0.00    -0.200 F 
ENDBRANCH  64  87
ENDBRANCH  38  39
ENDBRANCH  31  33
ENDBRANCH  30  31
ENDBRANCH  29  30
ENDBRANCH  28  29
ENDBRANCH  27  28
ENDBRANCH  26  27
ENDBRANCH   1  26
TORSDOF 21
ENDMDL
MODEL 3
REMARK VINA RESULT:     -11.7      4.818      7.059
REMARK SMILES O=C(CC1(NC(=O)C2(c3ccccc3)CC2)CCC1)OCCOCCOCCOC(=O)c1ccc(-c2c3nc(c(-c4c(F)c(F)c(F)c(F)c4F)c4ccc([nH]4)c(-c4c(F)c(F)c(F)c(F)c4F)c4nc(c(-c5c(F)c(F)c(F)c(F)c5F)c5ccc2[nH]5)C=C4)C=C3)cc1
REMARK SMILES IDX 24 1 23 2 22 3 21 4 20 5 2 6 1 7 3 8 4 9 17 10 19 11 18 12
REMARK SMILES IDX 5 13 6 14 7 16 8 17 15 18 16 19 9 20 10 21 14 22 11 23 13 24
REMARK SMILES IDX 12 25 25 26 26 27 27 28 28 29 29 30 30 31 31 32 32 33 33 34
REMARK SMILES IDX 94 35 34 36 93 37 35 38 36 39 37 40 87 41 38 42 92 43 86 44
REMARK SMILES IDX 88 45 39 46 91 47 85 48 84 49 40 51 72 52 52 53 71 54 53 55
REMARK SMILES IDX 56 56 70 57 89 58 54 59 55 60 69 62 90 63 57 64 41 65 42 66
REMARK SMILES IDX 50 67 43 68 44 69 48 70 51 71 45 72 46 73 49 74 47 75 73 76
REMARK SMILES IDX 74 77 82 78 75 79 76 80 80 81 83 82 77 83 78 84 81 85 79 86
REMARK SMILES IDX 58 87 59 88 67 89 60 90 61 91 65 92 68 93 62 94 63 95 66 96
REMARK SMILES IDX 64 97
REMARK H PARENT 5 15 88 50 56 61
REMARK Flexibility Score: inf
ROOT
ATOM      1  C   UNL A   1      40.339  20.310  26.633  1.00  0.00     0.188 C 
ENDROOT
BRANCH   1   2
ATOM      2  O   UNL A   1      39.412  21.050  25.831  1.00  0.00    -0.376 OA
BRANCH   2   3
ATOM      3  C   UNL A   1      38.484  20.226  25.131  1.00  0.00     0.202 C 
BRANCH   3   4
ATOM      4  C   UNL A   1      37.110  20.893  24.995  1.00  0.00     0.261 C 
BRANCH   4   5
ATOM      5  O   UNL A   1      37.154  22.264  24.532  1.00  0.00    -0.463 OA
BRANCH   5   6
ATOM      6  C   UNL A   1      36.427  22.779  23.502  1.00  0.00     0.308 C 
ATOM      7  O   UNL A   1      37.025  23.349  22.591  1.00  0.00    -0.252 OA
BRANCH   6   8
ATOM      8  C   UNL A   1      34.750  22.672  23.590  1.00  0.00     0.151 C 
BRANCH   8   9
ATOM      9  C   UNL A   1      33.374  21.159  24.327  1.00  0.00     0.051 C 
ATOM     10  C   UNL A   1      32.196  20.002  23.466  1.00  0.00     0.029 C 
ATOM     11  C   UNL A   1      33.680  19.471  25.065  1.00  0.00     0.029 C 
ATOM     12  C   UNL A   1      33.018  18.773  23.873  1.00  0.00     0.005 C 
BRANCH   9  13
ATOM     13  N   UNL A   1      32.061  21.483  25.601  1.00  0.00    -0.349 N 
ATOM     14  C   UNL A   1      31.054  22.448  25.598  1.00  0.00     0.231 C 
ATOM     15  H   UNL A   1      32.079  20.891  26.387  1.00  0.00     0.164 HD
ATOM     16  O   UNL A   1      30.093  22.432  26.354  1.00  0.00    -0.274 OA
BRANCH  14  17
ATOM     17  C   UNL A   1      31.361  23.537  24.664  1.00  0.00     0.074 C 
ATOM     18  C   UNL A   1      31.851  23.349  23.260  1.00  0.00     0.023 C 
ATOM     19  C   UNL A   1      30.455  23.862  23.506  1.00  0.00     0.023 C 
BRANCH  17  20
ATOM     20  C   UNL A   1      31.850  24.590  25.567  1.00  0.00    -0.032 A 
ATOM     21  C   UNL A   1      30.679  25.845  26.135  1.00  0.00     0.005 A 
ATOM     22  C   UNL A   1      33.607  25.034  25.332  1.00  0.00     0.005 A 
ATOM     23  C   UNL A   1      31.284  27.470  26.609  1.00  0.00     0.000 A 
ATOM     24  C   UNL A   1      34.163  26.663  25.773  1.00  0.00     0.000 A 
ATOM     25  C   UNL A   1      33.001  27.893  26.383  1.00  0.00     0.000 A 
ENDBRANCH  17  20
ENDBRANCH  14  17
ENDBRANCH   9  13
ENDBRANCH   8   9
ENDBRANCH   6   8
ENDBRANCH   5   6
ENDBRANCH   4   5
ENDBRANCH   3   4
ENDBRANCH   2   3
ENDBRANCH   1   2
BRANCH   1  26
ATOM     26  C   UNL A   1      41.748  20.450  26.048  1.00  0.00     0.188 C 
BRANCH  26  27
ATOM     27  O   UNL A   1      42.177  19.325  25.274  1.00  0.00    -0.376 OA
BRANCH  27  28
ATOM     28  C   UNL A   1      42.894  18.285  25.939  1.00  0.00     0.202 C 
BRANCH  28  29
ATOM     29  C   UNL A   1      44.402  18.263  25.667  1.00  0.00     0.261 C 
BRANCH  29  30
ATOM     30  O   UNL A   1      44.696  18.828  24.370  1.00  0.00    -0.460 OA
BRANCH  30  31
ATOM     31  C   UNL A   1      45.660  19.774  24.341  1.00  0.00     0.338 C 
ATOM     32  O   UNL A   1      46.810  19.638  23.960  1.00  0.00    -0.246 OA
BRANCH  31  33
ATOM     33  C   UNL A   1      45.152  21.063  24.863  1.00  0.00     0.060 A 
ATOM     34  C   UNL A   1      44.947  22.106  23.950  1.00  0.00     0.016 A 
ATOM     35  C   UNL A   1      45.053  21.305  26.239  1.00  0.00     0.016 A 
ATOM     36  C   UNL A   1      44.723  23.404  24.409  1.00  0.00     0.010 A 
ATOM     37  C   UNL A   1      44.844  22.609  26.699  1.00  0.00     0.010 A 
ATOM     38  C   UNL A   1      44.734  23.670  25.785  1.00  0.00    -0.014 A 
BRANCH  38  39
ATOM     39  C   UNL A   1      44.875  25.067  26.258  1.00  0.00     0.031 A 
ATOM     40  C   UNL A   1      46.238  25.706  26.213  1.00  0.00     0.074 A 
ATOM     41  C   UNL A   1      43.820  25.764  26.711  1.00  0.00     0.049 A 
ATOM     42  N   UNL A   1      46.604  26.911  26.569  1.00  0.00    -0.248 NA
ATOM     43  C   UNL A   1      47.337  24.878  25.685  1.00  0.00     0.031 C 
ATOM     44  C   UNL A   1      42.444  25.278  26.771  1.00  0.00     0.029 A 
ATOM     45  N   UNL A   1      43.753  27.041  27.205  1.00  0.00    -0.354 N 
ATOM     46  C   UNL A   1      47.960  26.993  26.286  1.00  0.00     0.074 A 
ATOM     47  C   UNL A   1      48.364  25.712  25.749  1.00  0.00     0.031 C 
ATOM     48  C   UNL A   1      41.664  26.247  27.284  1.00  0.00     0.029 A 
ATOM     49  C   UNL A   1      42.494  27.410  27.603  1.00  0.00     0.049 A 
ATOM     50  H   UNL A   1      44.534  27.637  27.268  1.00  0.00     0.167 HD
ATOM     51  C   UNL A   1      48.797  28.044  26.448  1.00  0.00     0.037 A 
ATOM     52  C   UNL A   1      42.068  28.553  28.174  1.00  0.00     0.037 A 
ATOM     53  C   UNL A   1      48.421  29.316  26.994  1.00  0.00     0.049 A 
ATOM     54  C   UNL A   1      43.042  29.665  28.451  1.00  0.00     0.074 A 
ATOM     55  C   UNL A   1      49.197  30.448  27.172  1.00  0.00     0.029 A 
ATOM     56  N   UNL A   1      47.155  29.615  27.468  1.00  0.00    -0.354 N 
ATOM     57  N   UNL A   1      44.318  29.738  28.162  1.00  0.00    -0.248 NA
ATOM     58  C   UNL A   1      42.517  30.848  29.150  1.00  0.00     0.031 C 
ATOM     59  C   UNL A   1      48.401  31.428  27.779  1.00  0.00     0.029 A 
ATOM     60  C   UNL A   1      47.132  30.905  27.968  1.00  0.00     0.049 A 
ATOM     61  H   UNL A   1      46.384  29.001  27.450  1.00  0.00     0.167 HD
ATOM     62  C   UNL A   1      44.745  30.972  28.633  1.00  0.00     0.074 A 
ATOM     63  C   UNL A   1      43.595  31.618  29.230  1.00  0.00     0.031 C 
ATOM     64  C   UNL A   1      45.982  31.522  28.572  1.00  0.00     0.037 A 
BRANCH  51  65
ATOM     65  C   UNL A   1      50.216  27.845  26.022  1.00  0.00     0.064 A 
ATOM     66  C   UNL A   1      50.570  27.877  24.665  1.00  0.00     0.173 A 
ATOM     67  C   UNL A   1      51.221  27.617  26.969  1.00  0.00     0.173 A 
ATOM     68  F   UNL A   1      49.633  28.075  23.727  1.00  0.00    -0.203 F 
ATOM     69  C   UNL A   1      51.890  27.679  24.271  1.00  0.00     0.198 A 
ATOM     70  C   UNL A   1      52.542  27.424  26.571  1.00  0.00     0.198 A 
ATOM     71  F   UNL A   1      50.921  27.565  28.275  1.00  0.00    -0.203 F 
ATOM     72  F   UNL A   1      52.209  27.694  22.970  1.00  0.00    -0.200 F 
ATOM     73  C   UNL A   1      52.873  27.453  25.224  1.00  0.00     0.200 A 
ATOM     74  F   UNL A   1      53.489  27.197  27.490  1.00  0.00    -0.200 F 
ATOM     75  F   UNL A   1      54.143  27.255  24.842  1.00  0.00    -0.200 F 
ENDBRANCH  51  65
BRANCH  52  76
ATOM     76  C   UNL A   1      40.645  28.689  28.560  1.00  0.00     0.064 A 
ATOM     77  C   UNL A   1      39.688  29.138  27.642  1.00  0.00     0.173 A 
ATOM     78  C   UNL A   1      40.223  28.386  29.862  1.00  0.00     0.173 A 
ATOM     79  F   UNL A   1      40.058  29.472  26.397  1.00  0.00    -0.203 F 
ATOM     80  C   UNL A   1      38.353  29.280  28.014  1.00  0.00     0.198 A 
ATOM     81  C   UNL A   1      38.888  28.521  30.230  1.00  0.00     0.198 A 
ATOM     82  F   UNL A   1      41.113  27.972  30.776  1.00  0.00    -0.203 F 
ATOM     83  F   UNL A   1      37.457  29.741  27.131  1.00  0.00    -0.200 F 
ATOM     84  C   UNL A   1      37.954  28.968  29.307  1.00  0.00     0.200 A 
ATOM     85  F   UNL A   1      38.508  28.228  31.481  1.00  0.00    -0.200 F 
ATOM     86  F   UNL A   1      36.672  29.116  29.669  1.00  0.00    -0.200 F 
ENDBRANCH  52  76
BRANCH  64  87
ATOM     87  C   UNL A   1      46.162  32.877  29.175  1.00  0.00     0.064 A 
ATOM     88  C   UNL A   1      46.581  33.021  30.504  1.00  0.00     0.173 A 
ATOM     89  C   UNL A   1      45.970  34.034  28.407  1.00  0.00     0.173 A 
ATOM     90  F   UNL A   1      46.767  31.939  31.275  1.00  0.00    -0.203 F 
ATOM     91  C   UNL A   1      46.801  34.284  31.047  1.00  0.00     0.198 A 
ATOM     92  C   UNL A   1      46.198  35.295  28.951  1.00  0.00     0.198 A 
ATOM     93  F   UNL A   1      45.569  33.940  27.130  1.00  0.00    -0.203 F 
ATOM     94  F   UNL A   1      47.191  34.404  32.323  1.00  0.00    -0.200 F 
ATOM     95  C   UNL A   1      46.613  35.418  30.269  1.00  0.00     0.200 A 
ATOM     96  F   UNL A   1      46.017  36.390  28.201  1.00  0.00    -0.200 F 
ATOM     97  F   UNL A   1      46.829  36.633  30.794  1.00  0.00    -0.200 F 
ENDBRANCH  64  87
ENDBRANCH  38  39
ENDBRANCH  31  33
ENDBRANCH  30  31
ENDBRANCH  29  30
ENDBRANCH  28  29
ENDBRANCH  27  28
ENDBRANCH  26  27
ENDBRANCH   1  26
TORSDOF 21
ENDMDL
