MODEL 1
REMARK VINA RESULT:     -11.6      0.000      0.000
REMARK SMILES COc1ccc(/C=C(\CCC(=O)OCCOCCOCCOC(=O)c2ccc(-c3c4nc(c(-c5c(F)c(F)c(F)c(F)c5F)c5ccc([nH]5)c(-c5c(F)c(F)c(F)c(F)c5F)c5nc(c(-c6c(F)c(F)c(F)c(F)c6F)c6ccc3[nH]6)C=C5)C=C4)cc2)c2nc3ccccc3s2)cc1F
REMARK SMILES IDX 17 1 16 2 15 3 14 4 13 5 11 6 12 7 10 8 9 9 8 10 7 11 6 12
REMARK SMILES IDX 3 13 4 14 98 15 5 16 97 17 99 18 2 19 1 20 88 21 89 22 96 23
REMARK SMILES IDX 90 24 95 25 91 26 94 27 92 28 93 29 18 30 19 31 20 32 21 33
REMARK SMILES IDX 22 34 23 35 24 36 25 37 26 38 87 39 27 40 86 41 28 42 29 43
REMARK SMILES IDX 30 44 80 45 31 46 85 47 79 48 81 49 32 50 84 51 78 52 77 53
REMARK SMILES IDX 33 55 65 56 45 57 64 58 46 59 49 60 63 61 82 62 47 63 48 64
REMARK SMILES IDX 62 66 83 67 50 68 34 69 35 70 43 71 36 72 37 73 41 74 44 75
REMARK SMILES IDX 38 76 39 77 42 78 40 79 66 80 67 81 75 82 68 83 69 84 73 85
REMARK SMILES IDX 76 86 70 87 71 88 74 89 72 90 51 91 52 92 60 93 53 94 54 95
REMARK SMILES IDX 58 96 61 97 55 98 56 99 59 100 57 101
REMARK H PARENT 81 54 49 65
REMARK Flexibility Score: inf
ROOT
ATOM      1  C   UNL A   1      40.413  21.582  27.307  1.00  0.00     0.188 C 
ENDROOT
BRANCH   1   2
ATOM      2  O   UNL A   1      40.109  22.502  26.263  1.00  0.00    -0.376 OA
BRANCH   2   3
ATOM      3  C   UNL A   1      39.019  23.357  26.607  1.00  0.00     0.202 C 
BRANCH   3   4
ATOM      4  C   UNL A   1      37.829  23.236  25.640  1.00  0.00     0.261 C 
BRANCH   4   5
ATOM      5  O   UNL A   1      36.560  23.353  26.312  1.00  0.00    -0.463 OA
BRANCH   5   6
ATOM      6  C   UNL A   1      35.636  22.390  26.097  1.00  0.00     0.306 C 
ATOM      7  O   UNL A   1      34.775  22.047  26.898  1.00  0.00    -0.252 OA
BRANCH   6   8
ATOM      8  C   UNL A   1      35.766  21.789  24.716  1.00  0.00     0.127 C 
BRANCH   8   9
ATOM      9  C   UNL A   1      34.869  22.383  23.623  1.00  0.00     0.050 C 
BRANCH   9  10
ATOM     10  C   UNL A   1      33.443  22.900  23.926  1.00  0.00    -0.011 C 
ATOM     11  C   UNL A   1      32.428  22.022  24.165  1.00  0.00     0.015 C 
BRANCH  11  12
ATOM     12  C   UNL A   1      32.460  20.544  24.174  1.00  0.00    -0.022 A 
ATOM     13  C   UNL A   1      32.755  17.747  24.041  1.00  0.00     0.154 A 
ATOM     14  C   UNL A   1      32.851  18.402  25.266  1.00  0.00     0.050 A 
ATOM     15  C   UNL A   1      32.383  18.480  22.914  1.00  0.00     0.165 A 
ATOM     16  C   UNL A   1      32.667  19.788  25.337  1.00  0.00     0.012 A 
ATOM     17  C   UNL A   1      32.244  19.866  22.973  1.00  0.00     0.051 A 
ATOM     18  F   UNL A   1      32.155  17.875  21.739  1.00  0.00    -0.203 F 
BRANCH  13  19
ATOM     19  O   UNL A   1      33.005  16.402  24.064  1.00  0.00    -0.494 OA
ATOM     20  C   UNL A   1      32.984  15.834  25.373  1.00  0.00     0.278 C 
ENDBRANCH  13  19
ENDBRANCH  11  12
BRANCH  10  21
ATOM     21  C   UNL A   1      33.132  24.322  24.090  1.00  0.00     0.120 A 
ATOM     22  N   UNL A   1      33.350  25.052  25.169  1.00  0.00    -0.236 NA
ATOM     23  S   UNL A   1      32.326  25.234  22.829  1.00  0.00    -0.114 S 
ATOM     24  C   UNL A   1      32.704  26.284  25.100  1.00  0.00     0.082 A 
ATOM     25  C   UNL A   1      32.056  26.549  23.899  1.00  0.00     0.055 A 
ATOM     26  C   UNL A   1      32.587  27.233  26.143  1.00  0.00     0.030 A 
ATOM     27  C   UNL A   1      31.288  27.714  23.705  1.00  0.00     0.021 A 
ATOM     28  C   UNL A   1      31.740  28.339  26.000  1.00  0.00     0.002 A 
ATOM     29  C   UNL A   1      31.097  28.575  24.792  1.00  0.00     0.002 A 
ENDBRANCH  10  21
ENDBRANCH   9  10
ENDBRANCH   8   9
ENDBRANCH   6   8
ENDBRANCH   5   6
ENDBRANCH   4   5
ENDBRANCH   3   4
ENDBRANCH   2   3
ENDBRANCH   1   2
BRANCH   1  30
ATOM     30  C   UNL A   1      41.540  20.644  26.939  1.00  0.00     0.188 C 
BRANCH  30  31
ATOM     31  O   UNL A   1      42.123  20.921  25.666  1.00  0.00    -0.376 OA
BRANCH  31  32
ATOM     32  C   UNL A   1      43.539  21.088  25.690  1.00  0.00     0.202 C 
BRANCH  32  33
ATOM     33  C   UNL A   1      44.115  22.368  25.063  1.00  0.00     0.261 C 
BRANCH  33  34
ATOM     34  O   UNL A   1      44.537  23.324  26.045  1.00  0.00    -0.460 OA
BRANCH  34  35
ATOM     35  C   UNL A   1      44.563  24.610  25.615  1.00  0.00     0.338 C 
ATOM     36  O   UNL A   1      45.086  25.034  24.596  1.00  0.00    -0.246 OA
BRANCH  35  37
ATOM     37  C   UNL A   1      43.634  25.422  26.439  1.00  0.00     0.060 A 
ATOM     38  C   UNL A   1      43.917  26.792  26.565  1.00  0.00     0.016 A 
ATOM     39  C   UNL A   1      42.481  24.885  27.019  1.00  0.00     0.016 A 
ATOM     40  C   UNL A   1      43.093  27.612  27.323  1.00  0.00     0.010 A 
ATOM     41  C   UNL A   1      41.665  25.703  27.806  1.00  0.00     0.010 A 
ATOM     42  C   UNL A   1      42.006  27.052  28.004  1.00  0.00    -0.014 A 
BRANCH  42  43
ATOM     43  C   UNL A   1      41.452  27.799  29.154  1.00  0.00     0.031 A 
ATOM     44  C   UNL A   1      42.198  27.700  30.456  1.00  0.00     0.074 A 
ATOM     45  C   UNL A   1      40.384  28.603  29.033  1.00  0.00     0.049 A 
ATOM     46  N   UNL A   1      41.958  28.280  31.603  1.00  0.00    -0.248 NA
ATOM     47  C   UNL A   1      43.386  26.828  30.463  1.00  0.00     0.031 C 
ATOM     48  C   UNL A   1      39.624  28.819  27.805  1.00  0.00     0.029 A 
ATOM     49  N   UNL A   1      39.765  29.397  29.963  1.00  0.00    -0.354 N 
ATOM     50  C   UNL A   1      42.960  27.842  32.459  1.00  0.00     0.074 A 
ATOM     51  C   UNL A   1      43.789  26.920  31.719  1.00  0.00     0.031 C 
ATOM     52  C   UNL A   1      38.636  29.696  28.058  1.00  0.00     0.029 A 
ATOM     53  C   UNL A   1      38.684  30.081  29.469  1.00  0.00     0.049 A 
ATOM     54  H   UNL A   1      40.068  29.470  30.898  1.00  0.00     0.167 HD
ATOM     55  C   UNL A   1      43.178  28.191  33.747  1.00  0.00     0.037 A 
ATOM     56  C   UNL A   1      37.831  30.917  30.093  1.00  0.00     0.037 A 
ATOM     57  C   UNL A   1      42.349  29.109  34.476  1.00  0.00     0.049 A 
ATOM     58  C   UNL A   1      38.051  31.240  31.550  1.00  0.00     0.074 A 
ATOM     59  C   UNL A   1      42.478  29.531  35.785  1.00  0.00     0.029 A 
ATOM     60  N   UNL A   1      41.227  29.740  33.956  1.00  0.00    -0.354 N 
ATOM     61  N   UNL A   1      39.001  30.828  32.355  1.00  0.00    -0.248 NA
ATOM     62  C   UNL A   1      37.086  32.151  32.180  1.00  0.00     0.031 C 
ATOM     63  C   UNL A   1      41.401  30.373  36.077  1.00  0.00     0.029 A 
ATOM     64  C   UNL A   1      40.641  30.533  34.928  1.00  0.00     0.049 A 
ATOM     65  H   UNL A   1      40.900  29.641  33.033  1.00  0.00     0.167 HD
ATOM     66  C   UNL A   1      38.768  31.449  33.576  1.00  0.00     0.074 A 
ATOM     67  C   UNL A   1      37.590  32.274  33.402  1.00  0.00     0.031 C 
ATOM     68  C   UNL A   1      39.469  31.351  34.733  1.00  0.00     0.037 A 
BRANCH  55  69
ATOM     69  C   UNL A   1      44.339  27.553  34.451  1.00  0.00     0.064 A 
ATOM     70  C   UNL A   1      44.177  26.326  35.112  1.00  0.00     0.173 A 
ATOM     71  C   UNL A   1      45.604  28.160  34.496  1.00  0.00     0.173 A 
ATOM     72  F   UNL A   1      42.991  25.701  35.094  1.00  0.00    -0.203 F 
ATOM     73  C   UNL A   1      45.232  25.739  35.803  1.00  0.00     0.198 A 
ATOM     74  C   UNL A   1      46.667  27.553  35.160  1.00  0.00     0.198 A 
ATOM     75  F   UNL A   1      45.820  29.321  33.859  1.00  0.00    -0.203 F 
ATOM     76  F   UNL A   1      45.045  24.580  36.450  1.00  0.00    -0.200 F 
ATOM     77  C   UNL A   1      46.478  26.349  35.821  1.00  0.00     0.200 A 
ATOM     78  F   UNL A   1      47.878  28.127  35.149  1.00  0.00    -0.200 F 
ATOM     79  F   UNL A   1      47.498  25.772  36.471  1.00  0.00    -0.200 F 
ENDBRANCH  55  69
BRANCH  56  80
ATOM     80  C   UNL A   1      36.710  31.521  29.326  1.00  0.00     0.064 A 
ATOM     81  C   UNL A   1      36.697  32.889  29.014  1.00  0.00     0.173 A 
ATOM     82  C   UNL A   1      35.612  30.750  28.923  1.00  0.00     0.173 A 
ATOM     83  F   UNL A   1      37.728  33.668  29.371  1.00  0.00    -0.203 F 
ATOM     84  C   UNL A   1      35.614  33.467  28.356  1.00  0.00     0.198 A 
ATOM     85  C   UNL A   1      34.540  31.325  28.241  1.00  0.00     0.198 A 
ATOM     86  F   UNL A   1      35.590  29.432  29.172  1.00  0.00    -0.203 F 
ATOM     87  F   UNL A   1      35.611  34.783  28.102  1.00  0.00    -0.200 F 
ATOM     88  C   UNL A   1      34.537  32.684  27.969  1.00  0.00     0.200 A 
ATOM     89  F   UNL A   1      33.514  30.561  27.845  1.00  0.00    -0.200 F 
ATOM     90  F   UNL A   1      33.498  33.240  27.330  1.00  0.00    -0.200 F 
ENDBRANCH  56  80
BRANCH  68  91
ATOM     91  C   UNL A   1      39.014  32.177  35.902  1.00  0.00     0.064 A 
ATOM     92  C   UNL A   1      39.457  33.502  36.046  1.00  0.00     0.173 A 
ATOM     93  C   UNL A   1      38.211  31.640  36.918  1.00  0.00     0.173 A 
ATOM     94  F   UNL A   1      40.241  34.060  35.110  1.00  0.00    -0.203 F 
ATOM     95  C   UNL A   1      39.126  34.252  37.171  1.00  0.00     0.198 A 
ATOM     96  C   UNL A   1      37.852  32.405  38.025  1.00  0.00     0.198 A 
ATOM     97  F   UNL A   1      37.755  30.383  36.826  1.00  0.00    -0.203 F 
ATOM     98  F   UNL A   1      39.596  35.500  37.305  1.00  0.00    -0.200 F 
ATOM     99  C   UNL A   1      38.318  33.705  38.156  1.00  0.00     0.200 A 
ATOM    100  F   UNL A   1      37.051  31.885  38.966  1.00  0.00    -0.200 F 
ATOM    101  F   UNL A   1      37.986  34.433  39.232  1.00  0.00    -0.200 F 
ENDBRANCH  68  91
ENDBRANCH  42  43
ENDBRANCH  35  37
ENDBRANCH  34  35
ENDBRANCH  33  34
ENDBRANCH  32  33
ENDBRANCH  31  32
ENDBRANCH  30  31
ENDBRANCH   1  30
TORSDOF 22
ENDMDL
MODEL 2
REMARK VINA RESULT:     -11.2      4.381      7.550
REMARK SMILES COc1ccc(/C=C(\CCC(=O)OCCOCCOCCOC(=O)c2ccc(-c3c4nc(c(-c5c(F)c(F)c(F)c(F)c5F)c5ccc([nH]5)c(-c5c(F)c(F)c(F)c(F)c5F)c5nc(c(-c6c(F)c(F)c(F)c(F)c6F)c6ccc3[nH]6)C=C5)C=C4)cc2)c2nc3ccccc3s2)cc1F
REMARK SMILES IDX 17 1 16 2 15 3 14 4 13 5 11 6 12 7 10 8 9 9 8 10 7 11 6 12
REMARK SMILES IDX 3 13 4 14 98 15 5 16 97 17 99 18 2 19 1 20 88 21 89 22 96 23
REMARK SMILES IDX 90 24 95 25 91 26 94 27 92 28 93 29 18 30 19 31 20 32 21 33
REMARK SMILES IDX 22 34 23 35 24 36 25 37 26 38 87 39 27 40 86 41 28 42 29 43
REMARK SMILES IDX 30 44 80 45 31 46 85 47 79 48 81 49 32 50 84 51 78 52 77 53
REMARK SMILES IDX 33 55 65 56 45 57 64 58 46 59 49 60 63 61 82 62 47 63 48 64
REMARK SMILES IDX 62 66 83 67 50 68 34 69 35 70 43 71 36 72 37 73 41 74 44 75
REMARK SMILES IDX 38 76 39 77 42 78 40 79 66 80 67 81 75 82 68 83 69 84 73 85
REMARK SMILES IDX 76 86 70 87 71 88 74 89 72 90 51 91 52 92 60 93 53 94 54 95
REMARK SMILES IDX 58 96 61 97 55 98 56 99 59 100 57 101
REMARK H PARENT 81 54 49 65
REMARK Flexibility Score: inf
ROOT
ATOM      1  C   UNL A   1      38.765  23.438  26.113  1.00  0.00     0.188 C 
ENDROOT
BRANCH   1   2
ATOM      2  O   UNL A   1      37.416  23.826  26.350  1.00  0.00    -0.376 OA
BRANCH   2   3
ATOM      3  C   UNL A   1      36.622  23.745  25.167  1.00  0.00     0.202 C 
BRANCH   3   4
ATOM      4  C   UNL A   1      35.230  23.138  25.415  1.00  0.00     0.261 C 
BRANCH   4   5
ATOM      5  O   UNL A   1      34.910  23.053  26.818  1.00  0.00    -0.463 OA
BRANCH   5   6
ATOM      6  C   UNL A   1      33.757  22.441  27.170  1.00  0.00     0.306 C 
ATOM      7  O   UNL A   1      33.678  21.343  27.707  1.00  0.00    -0.252 OA
BRANCH   6   8
ATOM      8  C   UNL A   1      32.550  23.292  26.846  1.00  0.00     0.127 C 
BRANCH   8   9
ATOM      9  C   UNL A   1      31.475  22.648  25.962  1.00  0.00     0.050 C 
BRANCH   9  10
ATOM     10  C   UNL A   1      31.816  22.007  24.596  1.00  0.00    -0.011 C 
ATOM     11  C   UNL A   1      32.005  22.789  23.496  1.00  0.00     0.015 C 
BRANCH  11  12
ATOM     12  C   UNL A   1      31.924  24.260  23.376  1.00  0.00    -0.022 A 
ATOM     13  C   UNL A   1      31.699  27.066  23.417  1.00  0.00     0.154 A 
ATOM     14  C   UNL A   1      32.934  26.468  23.181  1.00  0.00     0.050 A 
ATOM     15  C   UNL A   1      30.566  26.259  23.501  1.00  0.00     0.165 A 
ATOM     16  C   UNL A   1      33.038  25.073  23.123  1.00  0.00     0.012 A 
ATOM     17  C   UNL A   1      30.672  24.869  23.488  1.00  0.00     0.051 A 
ATOM     18  F   UNL A   1      29.340  26.795  23.601  1.00  0.00    -0.203 F 
BRANCH  13  19
ATOM     19  O   UNL A   1      31.709  28.432  23.511  1.00  0.00    -0.494 OA
ATOM     20  C   UNL A   1      33.007  29.010  23.381  1.00  0.00     0.278 C 
ENDBRANCH  13  19
ENDBRANCH  11  12
BRANCH  10  21
ATOM     21  C   UNL A   1      32.069  20.573  24.432  1.00  0.00     0.120 A 
ATOM     22  N   UNL A   1      32.084  19.666  25.392  1.00  0.00    -0.236 NA
ATOM     23  S   UNL A   1      32.474  19.888  22.871  1.00  0.00    -0.114 S 
ATOM     24  C   UNL A   1      32.614  18.455  24.952  1.00  0.00     0.082 A 
ATOM     25  C   UNL A   1      32.921  18.398  23.597  1.00  0.00     0.055 A 
ATOM     26  C   UNL A   1      32.930  17.334  25.754  1.00  0.00     0.030 A 
ATOM     27  C   UNL A   1      33.541  17.273  23.019  1.00  0.00     0.021 A 
ATOM     28  C   UNL A   1      33.643  16.256  25.213  1.00  0.00     0.002 A 
ATOM     29  C   UNL A   1      33.945  16.229  23.858  1.00  0.00     0.002 A 
ENDBRANCH  10  21
ENDBRANCH   9  10
ENDBRANCH   8   9
ENDBRANCH   6   8
ENDBRANCH   5   6
ENDBRANCH   4   5
ENDBRANCH   3   4
ENDBRANCH   2   3
ENDBRANCH   1   2
BRANCH   1  30
ATOM     30  C   UNL A   1      38.999  21.968  26.383  1.00  0.00     0.188 C 
BRANCH  30  31
ATOM     31  O   UNL A   1      38.706  21.128  25.267  1.00  0.00    -0.376 OA
BRANCH  31  32
ATOM     32  C   UNL A   1      39.112  19.770  25.428  1.00  0.00     0.202 C 
BRANCH  32  33
ATOM     33  C   UNL A   1      40.407  19.505  26.213  1.00  0.00     0.261 C 
BRANCH  33  34
ATOM     34  O   UNL A   1      41.545  19.328  25.357  1.00  0.00    -0.460 OA
BRANCH  34  35
ATOM     35  C   UNL A   1      42.726  19.732  25.889  1.00  0.00     0.338 C 
ATOM     36  O   UNL A   1      43.800  19.156  25.816  1.00  0.00    -0.246 OA
BRANCH  35  37
ATOM     37  C   UNL A   1      42.594  21.127  26.375  1.00  0.00     0.060 A 
ATOM     38  C   UNL A   1      42.478  22.137  25.405  1.00  0.00     0.016 A 
ATOM     39  C   UNL A   1      42.516  21.444  27.735  1.00  0.00     0.016 A 
ATOM     40  C   UNL A   1      42.355  23.466  25.788  1.00  0.00     0.010 A 
ATOM     41  C   UNL A   1      42.420  22.783  28.122  1.00  0.00     0.010 A 
ATOM     42  C   UNL A   1      42.399  23.797  27.147  1.00  0.00    -0.014 A 
BRANCH  42  43
ATOM     43  C   UNL A   1      42.753  25.186  27.509  1.00  0.00     0.031 A 
ATOM     44  C   UNL A   1      44.122  25.667  27.116  1.00  0.00     0.074 A 
ATOM     45  C   UNL A   1      41.870  26.018  28.084  1.00  0.00     0.049 A 
ATOM     46  N   UNL A   1      44.672  26.843  27.273  1.00  0.00    -0.248 NA
ATOM     47  C   UNL A   1      44.992  24.684  26.446  1.00  0.00     0.031 C 
ATOM     48  C   UNL A   1      40.500  25.675  28.452  1.00  0.00     0.029 A 
ATOM     49  N   UNL A   1      42.002  27.334  28.446  1.00  0.00    -0.354 N 
ATOM     50  C   UNL A   1      45.943  26.736  26.724  1.00  0.00     0.074 A 
ATOM     51  C   UNL A   1      46.103  25.376  26.265  1.00  0.00     0.031 C 
ATOM     52  C   UNL A   1      39.912  26.759  28.988  1.00  0.00     0.029 A 
ATOM     53  C   UNL A   1      40.874  27.861  29.020  1.00  0.00     0.049 A 
ATOM     54  H   UNL A   1      42.828  27.852  28.306  1.00  0.00     0.167 HD
ATOM     55  C   UNL A   1      46.889  27.693  26.599  1.00  0.00     0.037 A 
ATOM     56  C   UNL A   1      40.652  29.094  29.517  1.00  0.00     0.037 A 
ATOM     57  C   UNL A   1      46.722  29.044  27.059  1.00  0.00     0.049 A 
ATOM     58  C   UNL A   1      41.745  30.129  29.432  1.00  0.00     0.074 A 
ATOM     59  C   UNL A   1      47.616  30.095  26.985  1.00  0.00     0.029 A 
ATOM     60  N   UNL A   1      45.582  29.526  27.687  1.00  0.00    -0.354 N 
ATOM     61  N   UNL A   1      42.944  30.027  28.909  1.00  0.00    -0.248 NA
ATOM     62  C   UNL A   1      41.451  31.453  29.997  1.00  0.00     0.031 C 
ATOM     63  C   UNL A   1      47.041  31.198  27.622  1.00  0.00     0.029 A 
ATOM     64  C   UNL A   1      45.760  30.857  28.028  1.00  0.00     0.049 A 
ATOM     65  H   UNL A   1      44.768  29.002  27.862  1.00  0.00     0.167 HD
ATOM     66  C   UNL A   1      43.536  31.276  29.054  1.00  0.00     0.074 A 
ATOM     67  C   UNL A   1      42.559  32.123  29.708  1.00  0.00     0.031 C 
ATOM     68  C   UNL A   1      44.773  31.684  28.675  1.00  0.00     0.037 A 
BRANCH  55  69
ATOM     69  C   UNL A   1      48.193  27.302  25.971  1.00  0.00     0.064 A 
ATOM     70  C   UNL A   1      49.280  26.925  26.774  1.00  0.00     0.173 A 
ATOM     71  C   UNL A   1      48.382  27.322  24.580  1.00  0.00     0.173 A 
ATOM     72  F   UNL A   1      49.151  26.883  28.109  1.00  0.00    -0.203 F 
ATOM     73  C   UNL A   1      50.509  26.597  26.211  1.00  0.00     0.198 A 
ATOM     74  C   UNL A   1      49.603  26.960  24.017  1.00  0.00     0.198 A 
ATOM     75  F   UNL A   1      47.368  27.651  23.765  1.00  0.00    -0.203 F 
ATOM     76  F   UNL A   1      51.540  26.266  27.000  1.00  0.00    -0.200 F 
ATOM     77  C   UNL A   1      50.668  26.609  24.833  1.00  0.00     0.200 A 
ATOM     78  F   UNL A   1      49.746  26.940  22.684  1.00  0.00    -0.200 F 
ATOM     79  F   UNL A   1      51.847  26.273  24.291  1.00  0.00    -0.200 F 
ENDBRANCH  55  69
BRANCH  56  80
ATOM     80  C   UNL A   1      39.329  29.411  30.115  1.00  0.00     0.064 A 
ATOM     81  C   UNL A   1      38.329  30.051  29.367  1.00  0.00     0.173 A 
ATOM     82  C   UNL A   1      39.051  29.116  31.456  1.00  0.00     0.173 A 
ATOM     83  F   UNL A   1      38.542  30.348  28.077  1.00  0.00    -0.203 F 
ATOM     84  C   UNL A   1      37.114  30.410  29.947  1.00  0.00     0.198 A 
ATOM     85  C   UNL A   1      37.826  29.453  32.029  1.00  0.00     0.198 A 
ATOM     86  F   UNL A   1      39.964  28.479  32.205  1.00  0.00    -0.203 F 
ATOM     87  F   UNL A   1      36.190  31.053  29.219  1.00  0.00    -0.200 F 
ATOM     88  C   UNL A   1      36.863  30.110  31.277  1.00  0.00     0.200 A 
ATOM     89  F   UNL A   1      37.576  29.137  33.306  1.00  0.00    -0.200 F 
ATOM     90  F   UNL A   1      35.692  30.450  31.833  1.00  0.00    -0.200 F 
ENDBRANCH  56  80
BRANCH  68  91
ATOM     91  C   UNL A   1      45.142  33.120  28.919  1.00  0.00     0.064 A 
ATOM     92  C   UNL A   1      44.858  34.097  27.950  1.00  0.00     0.173 A 
ATOM     93  C   UNL A   1      45.846  33.518  30.064  1.00  0.00     0.173 A 
ATOM     94  F   UNL A   1      44.200  33.767  26.828  1.00  0.00    -0.203 F 
ATOM     95  C   UNL A   1      45.279  35.414  28.114  1.00  0.00     0.198 A 
ATOM     96  C   UNL A   1      46.234  34.843  30.241  1.00  0.00     0.198 A 
ATOM     97  F   UNL A   1      46.137  32.625  31.022  1.00  0.00    -0.203 F 
ATOM     98  F   UNL A   1      45.032  36.319  27.156  1.00  0.00    -0.200 F 
ATOM     99  C   UNL A   1      45.960  35.787  29.262  1.00  0.00     0.200 A 
ATOM    100  F   UNL A   1      46.872  35.209  31.361  1.00  0.00    -0.200 F 
ATOM    101  F   UNL A   1      46.351  37.058  29.426  1.00  0.00    -0.200 F 
ENDBRANCH  68  91
ENDBRANCH  42  43
ENDBRANCH  35  37
ENDBRANCH  34  35
ENDBRANCH  33  34
ENDBRANCH  32  33
ENDBRANCH  31  32
ENDBRANCH  30  31
ENDBRANCH   1  30
TORSDOF 22
ENDMDL
MODEL 3
REMARK VINA RESULT:     -11.1      1.674      4.046
REMARK SMILES COc1ccc(/C=C(\CCC(=O)OCCOCCOCCOC(=O)c2ccc(-c3c4nc(c(-c5c(F)c(F)c(F)c(F)c5F)c5ccc([nH]5)c(-c5c(F)c(F)c(F)c(F)c5F)c5nc(c(-c6c(F)c(F)c(F)c(F)c6F)c6ccc3[nH]6)C=C5)C=C4)cc2)c2nc3ccccc3s2)cc1F
REMARK SMILES IDX 17 1 16 2 15 3 14 4 13 5 11 6 12 7 10 8 9 9 8 10 7 11 6 12
REMARK SMILES IDX 3 13 4 14 98 15 5 16 97 17 99 18 2 19 1 20 88 21 89 22 96 23
REMARK SMILES IDX 90 24 95 25 91 26 94 27 92 28 93 29 18 30 19 31 20 32 21 33
REMARK SMILES IDX 22 34 23 35 24 36 25 37 26 38 87 39 27 40 86 41 28 42 29 43
REMARK SMILES IDX 30 44 80 45 31 46 85 47 79 48 81 49 32 50 84 51 78 52 77 53
REMARK SMILES IDX 33 55 65 56 45 57 64 58 46 59 49 60 63 61 82 62 47 63 48 64
REMARK SMILES IDX 62 66 83 67 50 68 34 69 35 70 43 71 36 72 37 73 41 74 44 75
REMARK SMILES IDX 38 76 39 77 42 78 40 79 66 80 67 81 75 82 68 83 69 84 73 85
REMARK SMILES IDX 76 86 70 87 71 88 74 89 72 90 51 91 52 92 60 93 53 94 54 95
REMARK SMILES IDX 58 96 61 97 55 98 56 99 59 100 57 101
REMARK H PARENT 81 54 49 65
REMARK Flexibility Score: inf
ROOT
ATOM      1  C   UNL A   1      40.131  21.244  26.907  1.00  0.00     0.188 C 
ENDROOT
BRANCH   1   2
ATOM      2  O   UNL A   1      39.929  22.309  25.983  1.00  0.00    -0.376 OA
BRANCH   2   3
ATOM      3  C   UNL A   1      39.229  23.402  26.574  1.00  0.00     0.202 C 
BRANCH   3   4
ATOM      4  C   UNL A   1      37.795  23.559  26.040  1.00  0.00     0.261 C 
BRANCH   4   5
ATOM      5  O   UNL A   1      37.607  22.908  24.768  1.00  0.00    -0.463 OA
BRANCH   5   6
ATOM      6  C   UNL A   1      36.532  23.259  24.027  1.00  0.00     0.306 C 
ATOM      7  O   UNL A   1      36.345  22.938  22.861  1.00  0.00    -0.252 OA
BRANCH   6   8
ATOM      8  C   UNL A   1      35.550  24.086  24.825  1.00  0.00     0.127 C 
BRANCH   8   9
ATOM      9  C   UNL A   1      34.309  23.355  25.354  1.00  0.00     0.050 C 
BRANCH   9  10
ATOM     10  C   UNL A   1      33.394  22.522  24.426  1.00  0.00    -0.011 C 
ATOM     11  C   UNL A   1      32.602  23.139  23.505  1.00  0.00     0.015 C 
BRANCH  11  12
ATOM     12  C   UNL A   1      32.451  24.583  23.226  1.00  0.00    -0.022 A 
ATOM     13  C   UNL A   1      32.307  27.380  22.931  1.00  0.00     0.154 A 
ATOM     14  C   UNL A   1      33.014  26.615  22.006  1.00  0.00     0.050 A 
ATOM     15  C   UNL A   1      31.571  26.728  23.921  1.00  0.00     0.165 A 
ATOM     16  C   UNL A   1      33.053  25.222  22.133  1.00  0.00     0.012 A 
ATOM     17  C   UNL A   1      31.645  25.345  24.076  1.00  0.00     0.051 A 
ATOM     18  F   UNL A   1      30.776  27.413  24.755  1.00  0.00    -0.203 F 
BRANCH  13  19
ATOM     19  O   UNL A   1      32.373  28.736  22.756  1.00  0.00    -0.494 OA
ATOM     20  C   UNL A   1      33.144  29.408  23.751  1.00  0.00     0.278 C 
ENDBRANCH  13  19
ENDBRANCH  11  12
BRANCH  10  21
ATOM     21  C   UNL A   1      33.411  21.058  24.400  1.00  0.00     0.120 A 
ATOM     22  N   UNL A   1      34.307  20.274  24.972  1.00  0.00    -0.236 NA
ATOM     23  S   UNL A   1      32.221  20.145  23.493  1.00  0.00    -0.114 S 
ATOM     24  C   UNL A   1      34.194  18.955  24.539  1.00  0.00     0.082 A 
ATOM     25  C   UNL A   1      33.123  18.698  23.692  1.00  0.00     0.055 A 
ATOM     26  C   UNL A   1      35.092  17.898  24.818  1.00  0.00     0.030 A 
ATOM     27  C   UNL A   1      32.923  17.434  23.104  1.00  0.00     0.021 A 
ATOM     28  C   UNL A   1      34.966  16.671  24.156  1.00  0.00     0.002 A 
ATOM     29  C   UNL A   1      33.891  16.443  23.306  1.00  0.00     0.002 A 
ENDBRANCH  10  21
ENDBRANCH   9  10
ENDBRANCH   8   9
ENDBRANCH   6   8
ENDBRANCH   5   6
ENDBRANCH   4   5
ENDBRANCH   3   4
ENDBRANCH   2   3
ENDBRANCH   1   2
BRANCH   1  30
ATOM     30  C   UNL A   1      41.447  20.532  26.690  1.00  0.00     0.188 C 
BRANCH  30  31
ATOM     31  O   UNL A   1      42.117  20.923  25.492  1.00  0.00    -0.376 OA
BRANCH  31  32
ATOM     32  C   UNL A   1      43.510  21.181  25.654  1.00  0.00     0.202 C 
BRANCH  32  33
ATOM     33  C   UNL A   1      44.075  22.460  25.014  1.00  0.00     0.261 C 
BRANCH  33  34
ATOM     34  O   UNL A   1      44.630  23.362  25.980  1.00  0.00    -0.460 OA
BRANCH  34  35
ATOM     35  C   UNL A   1      44.683  24.659  25.584  1.00  0.00     0.338 C 
ATOM     36  O   UNL A   1      45.234  25.101  24.588  1.00  0.00    -0.246 OA
BRANCH  35  37
ATOM     37  C   UNL A   1      43.750  25.463  26.409  1.00  0.00     0.060 A 
ATOM     38  C   UNL A   1      44.048  26.826  26.574  1.00  0.00     0.016 A 
ATOM     39  C   UNL A   1      42.579  24.929  26.955  1.00  0.00     0.016 A 
ATOM     40  C   UNL A   1      43.220  27.639  27.337  1.00  0.00     0.010 A 
ATOM     41  C   UNL A   1      41.758  25.738  27.745  1.00  0.00     0.010 A 
ATOM     42  C   UNL A   1      42.113  27.077  27.983  1.00  0.00    -0.014 A 
BRANCH  42  43
ATOM     43  C   UNL A   1      41.547  27.803  29.140  1.00  0.00     0.031 A 
ATOM     44  C   UNL A   1      42.286  27.693  30.445  1.00  0.00     0.074 A 
ATOM     45  C   UNL A   1      40.472  28.599  29.023  1.00  0.00     0.049 A 
ATOM     46  N   UNL A   1      42.035  28.255  31.598  1.00  0.00    -0.248 NA
ATOM     47  C   UNL A   1      43.481  26.831  30.446  1.00  0.00     0.031 C 
ATOM     48  C   UNL A   1      39.717  28.826  27.795  1.00  0.00     0.029 A 
ATOM     49  N   UNL A   1      39.841  29.376  29.962  1.00  0.00    -0.354 N 
ATOM     50  C   UNL A   1      43.036  27.813  32.453  1.00  0.00     0.074 A 
ATOM     51  C   UNL A   1      43.876  26.909  31.705  1.00  0.00     0.031 C 
ATOM     52  C   UNL A   1      38.720  29.691  28.055  1.00  0.00     0.029 A 
ATOM     53  C   UNL A   1      38.757  30.057  29.471  1.00  0.00     0.049 A 
ATOM     54  H   UNL A   1      40.138  29.438  30.899  1.00  0.00     0.167 HD
ATOM     55  C   UNL A   1      43.244  28.147  33.747  1.00  0.00     0.037 A 
ATOM     56  C   UNL A   1      37.894  30.878  30.102  1.00  0.00     0.037 A 
ATOM     57  C   UNL A   1      42.403  29.047  34.484  1.00  0.00     0.049 A 
ATOM     58  C   UNL A   1      38.103  31.182  31.564  1.00  0.00     0.074 A 
ATOM     59  C   UNL A   1      42.521  29.453  35.799  1.00  0.00     0.029 A 
ATOM     60  N   UNL A   1      41.279  29.677  33.966  1.00  0.00    -0.354 N 
ATOM     61  N   UNL A   1      39.052  30.767  32.369  1.00  0.00    -0.248 NA
ATOM     62  C   UNL A   1      37.127  32.077  32.201  1.00  0.00     0.031 C 
ATOM     63  C   UNL A   1      41.436  30.281  36.097  1.00  0.00     0.029 A 
ATOM     64  C   UNL A   1      40.680  30.451  34.946  1.00  0.00     0.049 A 
ATOM     65  H   UNL A   1      40.957  29.587  33.041  1.00  0.00     0.167 HD
ATOM     66  C   UNL A   1      38.807  31.370  33.597  1.00  0.00     0.074 A 
ATOM     67  C   UNL A   1      37.623  32.187  33.427  1.00  0.00     0.031 C 
ATOM     68  C   UNL A   1      39.503  31.261  34.756  1.00  0.00     0.037 A 
BRANCH  55  69
ATOM     69  C   UNL A   1      44.406  27.509  34.448  1.00  0.00     0.064 A 
ATOM     70  C   UNL A   1      45.660  28.138  34.454  1.00  0.00     0.173 A 
ATOM     71  C   UNL A   1      44.293  26.268  35.094  1.00  0.00     0.173 A 
ATOM     72  F   UNL A   1      45.822  29.329  33.857  1.00  0.00    -0.203 F 
ATOM     73  C   UNL A   1      46.760  27.544  35.066  1.00  0.00     0.198 A 
ATOM     74  C   UNL A   1      45.387  25.691  35.735  1.00  0.00     0.198 A 
ATOM     75  F   UNL A   1      43.111  25.635  35.140  1.00  0.00    -0.203 F 
ATOM     76  F   UNL A   1      47.953  28.152  35.034  1.00  0.00    -0.200 F 
ATOM     77  C   UNL A   1      46.620  26.324  35.712  1.00  0.00     0.200 A 
ATOM     78  F   UNL A   1      45.243  24.528  36.387  1.00  0.00    -0.200 F 
ATOM     79  F   UNL A   1      47.676  25.762  36.318  1.00  0.00    -0.200 F 
ENDBRANCH  55  69
BRANCH  56  80
ATOM     80  C   UNL A   1      36.772  31.482  29.337  1.00  0.00     0.064 A 
ATOM     81  C   UNL A   1      36.762  32.848  29.019  1.00  0.00     0.173 A 
ATOM     82  C   UNL A   1      35.669  30.714  28.942  1.00  0.00     0.173 A 
ATOM     83  F   UNL A   1      37.798  33.625  29.368  1.00  0.00    -0.203 F 
ATOM     84  C   UNL A   1      35.679  33.428  28.363  1.00  0.00     0.198 A 
ATOM     85  C   UNL A   1      34.596  31.289  28.262  1.00  0.00     0.198 A 
ATOM     86  F   UNL A   1      35.643  29.397  29.196  1.00  0.00    -0.203 F 
ATOM     87  F   UNL A   1      35.680  34.743  28.103  1.00  0.00    -0.200 F 
ATOM     88  C   UNL A   1      34.598  32.648  27.984  1.00  0.00     0.200 A 
ATOM     89  F   UNL A   1      33.566  30.528  27.873  1.00  0.00    -0.200 F 
ATOM     90  F   UNL A   1      33.558  33.204  27.347  1.00  0.00    -0.200 F 
ENDBRANCH  56  80
BRANCH  68  91
ATOM     91  C   UNL A   1      39.034  32.068  35.933  1.00  0.00     0.064 A 
ATOM     92  C   UNL A   1      39.510  33.375  36.130  1.00  0.00     0.173 A 
ATOM     93  C   UNL A   1      38.184  31.526  36.909  1.00  0.00     0.173 A 
ATOM     94  F   UNL A   1      40.339  33.935  35.235  1.00  0.00    -0.203 F 
ATOM     95  C   UNL A   1      39.165  34.102  37.265  1.00  0.00     0.198 A 
ATOM     96  C   UNL A   1      37.812  32.270  38.026  1.00  0.00     0.198 A 
ATOM     97  F   UNL A   1      37.697  30.285  36.766  1.00  0.00    -0.203 F 
ATOM     98  F   UNL A   1      39.666  35.332  37.449  1.00  0.00    -0.200 F 
ATOM     99  C   UNL A   1      38.311  33.552  38.208  1.00  0.00     0.200 A 
ATOM    100  F   UNL A   1      36.968  31.748  38.926  1.00  0.00    -0.200 F 
ATOM    101  F   UNL A   1      37.966  34.258  39.294  1.00  0.00    -0.200 F 
ENDBRANCH  68  91
ENDBRANCH  42  43
ENDBRANCH  35  37
ENDBRANCH  34  35
ENDBRANCH  33  34
ENDBRANCH  32  33
ENDBRANCH  31  32
ENDBRANCH  30  31
ENDBRANCH   1  30
TORSDOF 22
ENDMDL
