MODEL 1
REMARK VINA RESULT:     -10.5      0.000      0.000
REMARK SMILES CN(C)c1cccc2c(S(=O)(=O)N[C@H](CO)C(=O)OCCOCCOCCOC(=O)c3ccc(-c4c5nc(c(-c6c(F)c(F)c(F)c(F)c6F)c6ccc([nH]6)c(-c6c(F)c(F)c(F)c(F)c6F)c6nc(c(-c7c(F)c(F)c(F)c(F)c7F)c7ccc4[nH]7)C=C6)C=C5)cc3)cccc12
REMARK SMILES IDX 23 1 22 2 21 3 20 4 19 5 17 6 18 7 14 8 13 9 10 11 11 12
REMARK SMILES IDX 12 13 9 14 4 15 5 16 97 17 6 18 8 19 96 20 7 21 95 22 94 23
REMARK SMILES IDX 2 24 1 25 3 26 15 27 16 28 24 30 25 31 26 32 27 33 28 34
REMARK SMILES IDX 29 35 30 36 31 37 32 38 93 39 33 40 92 41 34 42 35 43 36 44
REMARK SMILES IDX 86 45 37 46 91 47 85 48 87 49 38 50 90 51 84 52 83 53 39 55
REMARK SMILES IDX 71 56 51 57 70 58 52 59 55 60 69 61 88 62 53 63 54 64 68 66
REMARK SMILES IDX 89 67 56 68 40 69 41 70 49 71 42 72 43 73 47 74 50 75 44 76
REMARK SMILES IDX 45 77 48 78 46 79 72 80 73 81 81 82 74 83 75 84 79 85 82 86
REMARK SMILES IDX 76 87 77 88 80 89 78 90 57 91 58 92 66 93 59 94 60 95 64 96
REMARK SMILES IDX 67 97 61 98 62 99 65 100 63 101
REMARK H PARENT 13 10 16 29 87 54 55 65
REMARK Flexibility Score: inf
ROOT
ATOM      1  C   UNL A   1      34.261  34.036  28.337  1.00  0.00     0.188 C 
ENDROOT
BRANCH   1   2
ATOM      2  O   UNL A   1      33.914  32.764  27.817  1.00  0.00    -0.376 OA
BRANCH   2   3
ATOM      3  C   UNL A   1      34.583  31.585  28.251  1.00  0.00     0.202 C 
BRANCH   3   4
ATOM      4  C   UNL A   1      34.460  30.260  27.477  1.00  0.00     0.261 C 
BRANCH   4   5
ATOM      5  O   UNL A   1      33.126  29.832  27.161  1.00  0.00    -0.462 OA
BRANCH   5   6
ATOM      6  C   UNL A   1      33.031  28.809  26.271  1.00  0.00     0.326 C 
ATOM      7  O   UNL A   1      33.757  27.821  26.298  1.00  0.00    -0.250 OA
BRANCH   6   8
ATOM      8  C   UNL A   1      31.813  28.896  25.362  1.00  0.00     0.205 C 
BRANCH   8   9
ATOM      9  N   UNL A   1      31.854  28.103  24.137  1.00  0.00    -0.194 NA
ATOM     10  H   UNL A   1      31.793  28.785  23.381  1.00  0.00     0.142 HD
BRANCH   9  11
ATOM     11  S   UNL A   1      30.829  26.897  23.696  1.00  0.00     0.242 S 
ATOM     12  O   UNL A   1      30.973  26.704  22.280  1.00  0.00    -0.207 OA
ATOM     13  O   UNL A   1      29.540  27.281  24.252  1.00  0.00    -0.207 OA
BRANCH  11  14
ATOM     14  C   UNL A   1      31.292  25.389  24.539  1.00  0.00     0.090 A 
ATOM     15  C   UNL A   1      33.816  22.579  24.794  1.00  0.00     0.044 A 
ATOM     16  C   UNL A   1      34.561  22.797  23.623  1.00  0.00     0.026 A 
ATOM     17  C   UNL A   1      32.711  23.451  25.076  1.00  0.00     0.006 A 
ATOM     18  C   UNL A   1      34.335  23.903  22.823  1.00  0.00     0.003 A 
ATOM     19  C   UNL A   1      32.430  24.575  24.232  1.00  0.00     0.004 A 
ATOM     20  C   UNL A   1      31.897  23.267  26.216  1.00  0.00     0.011 A 
ATOM     21  C   UNL A   1      33.331  24.803  23.164  1.00  0.00     0.010 A 
ATOM     22  C   UNL A   1      30.771  24.041  26.475  1.00  0.00     0.002 A 
ATOM     23  C   UNL A   1      30.456  25.085  25.627  1.00  0.00     0.022 A 
BRANCH  15  24
ATOM     24  N   UNL A   1      34.196  21.529  25.652  1.00  0.00    -0.377 N 
ATOM     25  C   UNL A   1      35.619  21.217  25.757  1.00  0.00     0.143 C 
ATOM     26  C   UNL A   1      33.281  20.403  25.779  1.00  0.00     0.143 C 
ENDBRANCH  15  24
ENDBRANCH  11  14
ENDBRANCH   9  11
ENDBRANCH   8   9
BRANCH   8  27
ATOM     27  C   UNL A   1      31.326  30.314  24.943  1.00  0.00     0.188 C 
BRANCH  27  28
ATOM     28  O   UNL A   1      30.301  30.246  23.935  1.00  0.00    -0.394 OA
ATOM     29  H   UNL A   1      30.135  31.135  23.583  1.00  0.00     0.210 HD
ENDBRANCH  27  28
ENDBRANCH   8  27
ENDBRANCH   6   8
ENDBRANCH   5   6
ENDBRANCH   4   5
ENDBRANCH   3   4
ENDBRANCH   2   3
ENDBRANCH   1   2
BRANCH   1  30
ATOM     30  C   UNL A   1      33.258  34.819  29.198  1.00  0.00     0.188 C 
BRANCH  30  31
ATOM     31  O   UNL A   1      33.350  34.589  30.581  1.00  0.00    -0.376 OA
BRANCH  31  32
ATOM     32  C   UNL A   1      34.546  34.015  31.091  1.00  0.00     0.202 C 
BRANCH  32  33
ATOM     33  C   UNL A   1      34.551  32.990  32.248  1.00  0.00     0.261 C 
BRANCH  33  34
ATOM     34  O   UNL A   1      35.339  31.801  32.091  1.00  0.00    -0.460 OA
BRANCH  34  35
ATOM     35  C   UNL A   1      36.484  31.717  32.807  1.00  0.00     0.338 C 
ATOM     36  O   UNL A   1      36.632  31.978  33.988  1.00  0.00    -0.246 OA
BRANCH  35  37
ATOM     37  C   UNL A   1      37.493  31.019  31.977  1.00  0.00     0.060 A 
ATOM     38  C   UNL A   1      38.601  30.435  32.608  1.00  0.00     0.016 A 
ATOM     39  C   UNL A   1      37.358  30.954  30.588  1.00  0.00     0.016 A 
ATOM     40  C   UNL A   1      39.604  29.828  31.851  1.00  0.00     0.010 A 
ATOM     41  C   UNL A   1      38.376  30.370  29.827  1.00  0.00     0.010 A 
ATOM     42  C   UNL A   1      39.524  29.848  30.453  1.00  0.00    -0.014 A 
BRANCH  42  43
ATOM     43  C   UNL A   1      40.742  29.567  29.651  1.00  0.00     0.031 A 
ATOM     44  C   UNL A   1      40.883  28.197  29.043  1.00  0.00     0.074 A 
ATOM     45  C   UNL A   1      41.692  30.494  29.450  1.00  0.00     0.049 A 
ATOM     46  N   UNL A   1      41.851  27.698  28.318  1.00  0.00    -0.248 NA
ATOM     47  C   UNL A   1      39.782  27.258  29.308  1.00  0.00     0.031 C 
ATOM     48  C   UNL A   1      41.666  31.855  29.972  1.00  0.00     0.029 A 
ATOM     49  N   UNL A   1      42.867  30.422  28.740  1.00  0.00    -0.354 N 
ATOM     50  C   UNL A   1      41.488  26.380  28.064  1.00  0.00     0.074 A 
ATOM     51  C   UNL A   1      40.228  26.151  28.737  1.00  0.00     0.031 C 
ATOM     52  C   UNL A   1      42.772  32.500  29.555  1.00  0.00     0.029 A 
ATOM     53  C   UNL A   1      43.586  31.591  28.748  1.00  0.00     0.049 A 
ATOM     54  H   UNL A   1      43.163  29.609  28.271  1.00  0.00     0.167 HD
ATOM     55  C   UNL A   1      42.144  25.444  27.336  1.00  0.00     0.037 A 
ATOM     56  C   UNL A   1      44.762  31.887  28.161  1.00  0.00     0.037 A 
ATOM     57  C   UNL A   1      43.404  25.671  26.680  1.00  0.00     0.049 A 
ATOM     58  C   UNL A   1      45.490  30.823  27.376  1.00  0.00     0.074 A 
ATOM     59  C   UNL A   1      44.151  24.792  25.916  1.00  0.00     0.029 A 
ATOM     60  N   UNL A   1      44.110  26.865  26.721  1.00  0.00    -0.354 N 
ATOM     61  N   UNL A   1      45.130  29.588  27.117  1.00  0.00    -0.248 NA
ATOM     62  C   UNL A   1      46.794  31.196  26.809  1.00  0.00     0.031 C 
ATOM     63  C   UNL A   1      45.337  25.435  25.545  1.00  0.00     0.029 A 
ATOM     64  C   UNL A   1      45.296  26.739  26.014  1.00  0.00     0.049 A 
ATOM     65  H   UNL A   1      43.813  27.681  27.184  1.00  0.00     0.167 HD
ATOM     66  C   UNL A   1      46.148  29.046  26.339  1.00  0.00     0.074 A 
ATOM     67  C   UNL A   1      47.128  30.096  26.150  1.00  0.00     0.031 C 
ATOM     68  C   UNL A   1      46.261  27.795  25.827  1.00  0.00     0.037 A 
BRANCH  55  69
ATOM     69  C   UNL A   1      41.522  24.077  27.266  1.00  0.00     0.064 A 
ATOM     70  C   UNL A   1      42.079  22.971  27.932  1.00  0.00     0.173 A 
ATOM     71  C   UNL A   1      40.366  23.862  26.501  1.00  0.00     0.173 A 
ATOM     72  F   UNL A   1      43.194  23.116  28.664  1.00  0.00    -0.203 F 
ATOM     73  C   UNL A   1      41.533  21.699  27.789  1.00  0.00     0.198 A 
ATOM     74  C   UNL A   1      39.800  22.595  26.393  1.00  0.00     0.198 A 
ATOM     75  F   UNL A   1      39.789  24.882  25.847  1.00  0.00    -0.203 F 
ATOM     76  F   UNL A   1      42.131  20.647  28.367  1.00  0.00    -0.200 F 
ATOM     77  C   UNL A   1      40.392  21.512  27.023  1.00  0.00     0.200 A 
ATOM     78  F   UNL A   1      38.689  22.420  25.664  1.00  0.00    -0.200 F 
ATOM     79  F   UNL A   1      39.872  20.285  26.882  1.00  0.00    -0.200 F 
ENDBRANCH  55  69
BRANCH  56  80
ATOM     80  C   UNL A   1      45.313  33.267  28.255  1.00  0.00     0.064 A 
ATOM     81  C   UNL A   1      44.915  34.258  27.346  1.00  0.00     0.173 A 
ATOM     82  C   UNL A   1      46.239  33.626  29.243  1.00  0.00     0.173 A 
ATOM     83  F   UNL A   1      44.045  33.960  26.369  1.00  0.00    -0.203 F 
ATOM     84  C   UNL A   1      45.434  35.550  27.412  1.00  0.00     0.198 A 
ATOM     85  C   UNL A   1      46.733  34.927  29.330  1.00  0.00     0.198 A 
ATOM     86  F   UNL A   1      46.654  32.715  30.136  1.00  0.00    -0.203 F 
ATOM     87  F   UNL A   1      45.068  36.464  26.502  1.00  0.00    -0.200 F 
ATOM     88  C   UNL A   1      46.335  35.886  28.410  1.00  0.00     0.200 A 
ATOM     89  F   UNL A   1      47.593  35.250  30.304  1.00  0.00    -0.200 F 
ATOM     90  F   UNL A   1      46.826  37.130  28.482  1.00  0.00    -0.200 F 
ENDBRANCH  56  80
BRANCH  68  91
ATOM     91  C   UNL A   1      47.463  27.498  24.971  1.00  0.00     0.064 A 
ATOM     92  C   UNL A   1      47.477  27.754  23.591  1.00  0.00     0.173 A 
ATOM     93  C   UNL A   1      48.632  26.980  25.550  1.00  0.00     0.173 A 
ATOM     94  F   UNL A   1      46.385  28.241  22.983  1.00  0.00    -0.203 F 
ATOM     95  C   UNL A   1      48.602  27.468  22.820  1.00  0.00     0.198 A 
ATOM     96  C   UNL A   1      49.766  26.730  24.783  1.00  0.00     0.198 A 
ATOM     97  F   UNL A   1      48.679  26.725  26.867  1.00  0.00    -0.203 F 
ATOM     98  F   UNL A   1      48.571  27.667  21.495  1.00  0.00    -0.200 F 
ATOM     99  C   UNL A   1      49.748  26.965  23.417  1.00  0.00     0.200 A 
ATOM    100  F   UNL A   1      50.878  26.260  25.366  1.00  0.00    -0.200 F 
ATOM    101  F   UNL A   1      50.830  26.696  22.675  1.00  0.00    -0.200 F 
ENDBRANCH  68  91
ENDBRANCH  42  43
ENDBRANCH  35  37
ENDBRANCH  34  35
ENDBRANCH  33  34
ENDBRANCH  32  33
ENDBRANCH  31  32
ENDBRANCH  30  31
ENDBRANCH   1  30
TORSDOF 23
ENDMDL
MODEL 2
REMARK VINA RESULT:     -10.4      4.608      8.329
REMARK SMILES CN(C)c1cccc2c(S(=O)(=O)N[C@H](CO)C(=O)OCCOCCOCCOC(=O)c3ccc(-c4c5nc(c(-c6c(F)c(F)c(F)c(F)c6F)c6ccc([nH]6)c(-c6c(F)c(F)c(F)c(F)c6F)c6nc(c(-c7c(F)c(F)c(F)c(F)c7F)c7ccc4[nH]7)C=C6)C=C5)cc3)cccc12
REMARK SMILES IDX 23 1 22 2 21 3 20 4 19 5 17 6 18 7 14 8 13 9 10 11 11 12
REMARK SMILES IDX 12 13 9 14 4 15 5 16 97 17 6 18 8 19 96 20 7 21 95 22 94 23
REMARK SMILES IDX 2 24 1 25 3 26 15 27 16 28 24 30 25 31 26 32 27 33 28 34
REMARK SMILES IDX 29 35 30 36 31 37 32 38 93 39 33 40 92 41 34 42 35 43 36 44
REMARK SMILES IDX 86 45 37 46 91 47 85 48 87 49 38 50 90 51 84 52 83 53 39 55
REMARK SMILES IDX 71 56 51 57 70 58 52 59 55 60 69 61 88 62 53 63 54 64 68 66
REMARK SMILES IDX 89 67 56 68 40 69 41 70 49 71 42 72 43 73 47 74 50 75 44 76
REMARK SMILES IDX 45 77 48 78 46 79 72 80 73 81 81 82 74 83 75 84 79 85 82 86
REMARK SMILES IDX 76 87 77 88 80 89 78 90 57 91 58 92 66 93 59 94 60 95 64 96
REMARK SMILES IDX 67 97 61 98 62 99 65 100 63 101
REMARK H PARENT 13 10 16 29 87 54 55 65
REMARK Flexibility Score: inf
ROOT
ATOM      1  C   UNL A   1      31.297  32.367  26.441  1.00  0.00     0.188 C 
ENDROOT
BRANCH   1   2
ATOM      2  O   UNL A   1      32.404  33.051  27.002  1.00  0.00    -0.376 OA
BRANCH   2   3
ATOM      3  C   UNL A   1      32.221  34.218  27.795  1.00  0.00     0.202 C 
BRANCH   3   4
ATOM      4  C   UNL A   1      33.273  34.660  28.830  1.00  0.00     0.261 C 
BRANCH   4   5
ATOM      5  O   UNL A   1      32.776  34.978  30.140  1.00  0.00    -0.462 OA
BRANCH   5   6
ATOM      6  C   UNL A   1      33.215  36.151  30.667  1.00  0.00     0.326 C 
ATOM      7  O   UNL A   1      32.871  37.251  30.247  1.00  0.00    -0.250 OA
BRANCH   6   8
ATOM      8  C   UNL A   1      34.010  35.988  31.955  1.00  0.00     0.205 C 
BRANCH   8   9
ATOM      9  N   UNL A   1      33.684  34.830  32.783  1.00  0.00    -0.194 NA
ATOM     10  H   UNL A   1      33.595  35.201  33.729  1.00  0.00     0.142 HD
BRANCH   9  11
ATOM     11  S   UNL A   1      34.558  33.449  32.955  1.00  0.00     0.242 S 
ATOM     12  O   UNL A   1      34.100  32.521  31.958  1.00  0.00    -0.207 OA
ATOM     13  O   UNL A   1      34.450  33.113  34.367  1.00  0.00    -0.207 OA
BRANCH  11  14
ATOM     14  C   UNL A   1      36.287  33.803  32.670  1.00  0.00     0.090 A 
ATOM     15  C   UNL A   1      39.029  34.207  30.090  1.00  0.00     0.044 A 
ATOM     16  C   UNL A   1      38.381  33.705  28.948  1.00  0.00     0.026 A 
ATOM     17  C   UNL A   1      38.313  34.217  31.335  1.00  0.00     0.006 A 
ATOM     18  C   UNL A   1      37.044  33.354  28.977  1.00  0.00     0.003 A 
ATOM     19  C   UNL A   1      36.940  33.811  31.394  1.00  0.00     0.004 A 
ATOM     20  C   UNL A   1      38.915  34.673  32.528  1.00  0.00     0.011 A 
ATOM     21  C   UNL A   1      36.329  33.470  30.164  1.00  0.00     0.010 A 
ATOM     22  C   UNL A   1      38.280  34.619  33.765  1.00  0.00     0.002 A 
ATOM     23  C   UNL A   1      36.977  34.165  33.839  1.00  0.00     0.022 A 
BRANCH  15  24
ATOM     24  N   UNL A   1      40.342  34.699  29.963  1.00  0.00    -0.377 N 
ATOM     25  C   UNL A   1      40.652  35.518  28.793  1.00  0.00     0.143 C 
ATOM     26  C   UNL A   1      41.422  33.861  30.463  1.00  0.00     0.143 C 
ENDBRANCH  15  24
ENDBRANCH  11  14
ENDBRANCH   9  11
ENDBRANCH   8   9
BRANCH   8  27
ATOM     27  C   UNL A   1      34.076  37.206  32.922  1.00  0.00     0.188 C 
BRANCH  27  28
ATOM     28  O   UNL A   1      34.358  38.428  32.217  1.00  0.00    -0.394 OA
ATOM     29  H   UNL A   1      34.053  39.183  32.744  1.00  0.00     0.210 HD
ENDBRANCH  27  28
ENDBRANCH   8  27
ENDBRANCH   6   8
ENDBRANCH   5   6
ENDBRANCH   4   5
ENDBRANCH   3   4
ENDBRANCH   2   3
ENDBRANCH   1   2
BRANCH   1  30
ATOM     30  C   UNL A   1      31.203  30.837  26.540  1.00  0.00     0.188 C 
BRANCH  30  31
ATOM     31  O   UNL A   1      31.811  30.132  25.487  1.00  0.00    -0.376 OA
BRANCH  31  32
ATOM     32  C   UNL A   1      32.513  28.934  25.794  1.00  0.00     0.202 C 
BRANCH  32  33
ATOM     33  C   UNL A   1      33.922  28.935  26.427  1.00  0.00     0.261 C 
BRANCH  33  34
ATOM     34  O   UNL A   1      34.600  30.193  26.562  1.00  0.00    -0.460 OA
BRANCH  34  35
ATOM     35  C   UNL A   1      34.831  30.641  27.818  1.00  0.00     0.338 C 
ATOM     36  O   UNL A   1      34.063  31.268  28.526  1.00  0.00    -0.246 OA
BRANCH  35  37
ATOM     37  C   UNL A   1      36.096  30.035  28.295  1.00  0.00     0.060 A 
ATOM     38  C   UNL A   1      36.138  29.485  29.585  1.00  0.00     0.016 A 
ATOM     39  C   UNL A   1      37.234  30.022  27.486  1.00  0.00     0.016 A 
ATOM     40  C   UNL A   1      37.331  28.966  30.090  1.00  0.00     0.010 A 
ATOM     41  C   UNL A   1      38.436  29.527  28.002  1.00  0.00     0.010 A 
ATOM     42  C   UNL A   1      38.500  29.041  29.322  1.00  0.00    -0.014 A 
BRANCH  42  43
ATOM     43  C   UNL A   1      39.816  28.861  29.984  1.00  0.00     0.031 A 
ATOM     44  C   UNL A   1      40.735  27.797  29.444  1.00  0.00     0.074 A 
ATOM     45  C   UNL A   1      40.203  29.621  31.022  1.00  0.00     0.049 A 
ATOM     46  N   UNL A   1      41.924  27.432  29.850  1.00  0.00    -0.248 NA
ATOM     47  C   UNL A   1      40.227  27.029  28.296  1.00  0.00     0.031 C 
ATOM     48  C   UNL A   1      39.413  30.688  31.626  1.00  0.00     0.029 A 
ATOM     49  N   UNL A   1      41.370  29.607  31.746  1.00  0.00    -0.354 N 
ATOM     50  C   UNL A   1      42.294  26.377  29.025  1.00  0.00     0.074 A 
ATOM     51  C   UNL A   1      41.192  26.142  28.118  1.00  0.00     0.031 C 
ATOM     52  C   UNL A   1      40.124  31.239  32.627  1.00  0.00     0.029 A 
ATOM     53  C   UNL A   1      41.411  30.553  32.739  1.00  0.00     0.049 A 
ATOM     54  H   UNL A   1      42.106  28.978  31.569  1.00  0.00     0.167 HD
ATOM     55  C   UNL A   1      43.447  25.665  29.022  1.00  0.00     0.037 A 
ATOM     56  C   UNL A   1      42.385  30.833  33.628  1.00  0.00     0.037 A 
ATOM     57  C   UNL A   1      44.536  25.892  29.935  1.00  0.00     0.049 A 
ATOM     58  C   UNL A   1      43.652  30.012  33.625  1.00  0.00     0.074 A 
ATOM     59  C   UNL A   1      45.748  25.230  30.015  1.00  0.00     0.029 A 
ATOM     60  N   UNL A   1      44.537  26.852  30.937  1.00  0.00    -0.354 N 
ATOM     61  N   UNL A   1      44.008  29.034  32.827  1.00  0.00    -0.248 NA
ATOM     62  C   UNL A   1      44.649  30.334  34.657  1.00  0.00     0.031 C 
ATOM     63  C   UNL A   1      46.459  25.750  31.104  1.00  0.00     0.029 A 
ATOM     64  C   UNL A   1      45.721  26.786  31.656  1.00  0.00     0.049 A 
ATOM     65  H   UNL A   1      43.805  27.486  31.113  1.00  0.00     0.167 HD
ATOM     66  C   UNL A   1      45.276  28.641  33.242  1.00  0.00     0.074 A 
ATOM     67  C   UNL A   1      45.635  29.503  34.349  1.00  0.00     0.031 C 
ATOM     68  C   UNL A   1      46.070  27.656  32.752  1.00  0.00     0.037 A 
BRANCH  55  69
ATOM     69  C   UNL A   1      43.553  24.543  28.028  1.00  0.00     0.064 A 
ATOM     70  C   UNL A   1      44.152  24.717  26.769  1.00  0.00     0.173 A 
ATOM     71  C   UNL A   1      43.023  23.278  28.328  1.00  0.00     0.173 A 
ATOM     72  F   UNL A   1      44.660  25.910  26.423  1.00  0.00    -0.203 F 
ATOM     73  C   UNL A   1      44.168  23.686  25.833  1.00  0.00     0.198 A 
ATOM     74  C   UNL A   1      43.077  22.238  27.404  1.00  0.00     0.198 A 
ATOM     75  F   UNL A   1      42.442  23.053  29.516  1.00  0.00    -0.203 F 
ATOM     76  F   UNL A   1      44.672  23.903  24.610  1.00  0.00    -0.200 F 
ATOM     77  C   UNL A   1      43.634  22.447  26.152  1.00  0.00     0.200 A 
ATOM     78  F   UNL A   1      42.573  21.037  27.720  1.00  0.00    -0.200 F 
ATOM     79  F   UNL A   1      43.645  21.458  25.248  1.00  0.00    -0.200 F 
ENDBRANCH  55  69
BRANCH  56  80
ATOM     80  C   UNL A   1      42.224  31.972  34.573  1.00  0.00     0.064 A 
ATOM     81  C   UNL A   1      42.712  33.246  34.248  1.00  0.00     0.173 A 
ATOM     82  C   UNL A   1      41.585  31.817  35.811  1.00  0.00     0.173 A 
ATOM     83  F   UNL A   1      43.347  33.441  33.083  1.00  0.00    -0.203 F 
ATOM     84  C   UNL A   1      42.581  34.317  35.130  1.00  0.00     0.198 A 
ATOM     85  C   UNL A   1      41.425  32.896  36.680  1.00  0.00     0.198 A 
ATOM     86  F   UNL A   1      41.102  30.619  36.172  1.00  0.00    -0.203 F 
ATOM     87  F   UNL A   1      43.097  35.512  34.810  1.00  0.00    -0.200 F 
ATOM     88  C   UNL A   1      41.930  34.143  36.341  1.00  0.00     0.200 A 
ATOM     89  F   UNL A   1      40.782  32.727  37.842  1.00  0.00    -0.200 F 
ATOM     90  F   UNL A   1      41.793  35.175  37.185  1.00  0.00    -0.200 F 
ENDBRANCH  56  80
BRANCH  68  91
ATOM     91  C   UNL A   1      47.430  27.483  33.374  1.00  0.00     0.064 A 
ATOM     92  C   UNL A   1      48.557  28.177  32.906  1.00  0.00     0.173 A 
ATOM     93  C   UNL A   1      47.598  26.635  34.479  1.00  0.00     0.173 A 
ATOM     94  F   UNL A   1      48.456  28.994  31.847  1.00  0.00    -0.203 F 
ATOM     95  C   UNL A   1      49.806  27.998  33.498  1.00  0.00     0.198 A 
ATOM     96  C   UNL A   1      48.840  26.487  35.092  1.00  0.00     0.198 A 
ATOM     97  F   UNL A   1      46.554  25.955  34.976  1.00  0.00    -0.203 F 
ATOM     98  F   UNL A   1      50.879  28.625  32.996  1.00  0.00    -0.200 F 
ATOM     99  C   UNL A   1      49.945  27.160  34.594  1.00  0.00     0.200 A 
ATOM    100  F   UNL A   1      48.967  25.690  36.162  1.00  0.00    -0.200 F 
ATOM    101  F   UNL A   1      51.146  26.994  35.166  1.00  0.00    -0.200 F 
ENDBRANCH  68  91
ENDBRANCH  42  43
ENDBRANCH  35  37
ENDBRANCH  34  35
ENDBRANCH  33  34
ENDBRANCH  32  33
ENDBRANCH  31  32
ENDBRANCH  30  31
ENDBRANCH   1  30
TORSDOF 23
ENDMDL
MODEL 3
REMARK VINA RESULT:     -10.3      4.738      9.098
REMARK SMILES CN(C)c1cccc2c(S(=O)(=O)N[C@H](CO)C(=O)OCCOCCOCCOC(=O)c3ccc(-c4c5nc(c(-c6c(F)c(F)c(F)c(F)c6F)c6ccc([nH]6)c(-c6c(F)c(F)c(F)c(F)c6F)c6nc(c(-c7c(F)c(F)c(F)c(F)c7F)c7ccc4[nH]7)C=C6)C=C5)cc3)cccc12
REMARK SMILES IDX 23 1 22 2 21 3 20 4 19 5 17 6 18 7 14 8 13 9 10 11 11 12
REMARK SMILES IDX 12 13 9 14 4 15 5 16 97 17 6 18 8 19 96 20 7 21 95 22 94 23
REMARK SMILES IDX 2 24 1 25 3 26 15 27 16 28 24 30 25 31 26 32 27 33 28 34
REMARK SMILES IDX 29 35 30 36 31 37 32 38 93 39 33 40 92 41 34 42 35 43 36 44
REMARK SMILES IDX 86 45 37 46 91 47 85 48 87 49 38 50 90 51 84 52 83 53 39 55
REMARK SMILES IDX 71 56 51 57 70 58 52 59 55 60 69 61 88 62 53 63 54 64 68 66
REMARK SMILES IDX 89 67 56 68 40 69 41 70 49 71 42 72 43 73 47 74 50 75 44 76
REMARK SMILES IDX 45 77 48 78 46 79 72 80 73 81 81 82 74 83 75 84 79 85 82 86
REMARK SMILES IDX 76 87 77 88 80 89 78 90 57 91 58 92 66 93 59 94 60 95 64 96
REMARK SMILES IDX 67 97 61 98 62 99 65 100 63 101
REMARK H PARENT 13 10 16 29 87 54 55 65
REMARK Flexibility Score: inf
ROOT
ATOM      1  C   UNL A   1      34.592  32.058  28.009  1.00  0.00     0.188 C 
ENDROOT
BRANCH   1   2
ATOM      2  O   UNL A   1      33.917  30.813  27.945  1.00  0.00    -0.376 OA
BRANCH   2   3
ATOM      3  C   UNL A   1      33.520  30.256  26.697  1.00  0.00     0.202 C 
BRANCH   3   4
ATOM      4  C   UNL A   1      32.035  30.113  26.317  1.00  0.00     0.261 C 
BRANCH   4   5
ATOM      5  O   UNL A   1      31.582  28.781  26.024  1.00  0.00    -0.462 OA
BRANCH   5   6
ATOM      6  C   UNL A   1      31.193  28.560  24.740  1.00  0.00     0.326 C 
ATOM      7  O   UNL A   1      30.643  29.409  24.045  1.00  0.00    -0.250 OA
BRANCH   6   8
ATOM      8  C   UNL A   1      31.681  27.236  24.170  1.00  0.00     0.205 C 
BRANCH   8   9
ATOM      9  N   UNL A   1      32.142  26.240  25.133  1.00  0.00    -0.194 NA
ATOM     10  H   UNL A   1      33.100  26.027  24.852  1.00  0.00     0.142 HD
BRANCH   9  11
ATOM     11  S   UNL A   1      31.465  24.777  25.454  1.00  0.00     0.242 S 
ATOM     12  O   UNL A   1      30.814  24.330  24.254  1.00  0.00    -0.207 OA
ATOM     13  O   UNL A   1      30.691  24.984  26.669  1.00  0.00    -0.207 OA
BRANCH  11  14
ATOM     14  C   UNL A   1      32.750  23.612  25.889  1.00  0.00     0.090 A 
ATOM     15  C   UNL A   1      36.087  22.108  24.921  1.00  0.00     0.044 A 
ATOM     16  C   UNL A   1      36.217  22.597  23.610  1.00  0.00     0.026 A 
ATOM     17  C   UNL A   1      34.907  22.448  25.665  1.00  0.00     0.006 A 
ATOM     18  C   UNL A   1      35.306  23.495  23.084  1.00  0.00     0.003 A 
ATOM     19  C   UNL A   1      33.927  23.339  25.119  1.00  0.00     0.004 A 
ATOM     20  C   UNL A   1      34.694  21.962  26.974  1.00  0.00     0.011 A 
ATOM     21  C   UNL A   1      34.222  23.903  23.854  1.00  0.00     0.010 A 
ATOM     22  C   UNL A   1      33.527  22.203  27.691  1.00  0.00     0.002 A 
ATOM     23  C   UNL A   1      32.547  23.008  27.141  1.00  0.00     0.022 A 
BRANCH  15  24
ATOM     24  N   UNL A   1      37.127  21.326  25.458  1.00  0.00    -0.377 N 
ATOM     25  C   UNL A   1      38.381  21.998  25.792  1.00  0.00     0.143 C 
ATOM     26  C   UNL A   1      37.240  19.951  24.993  1.00  0.00     0.143 C 
ENDBRANCH  15  24
ENDBRANCH  11  14
ENDBRANCH   9  11
ENDBRANCH   8   9
BRANCH   8  27
ATOM     27  C   UNL A   1      32.762  27.288  23.050  1.00  0.00     0.188 C 
BRANCH  27  28
ATOM     28  O   UNL A   1      33.379  28.585  22.969  1.00  0.00    -0.394 OA
ATOM     29  H   UNL A   1      32.990  29.171  23.636  1.00  0.00     0.210 HD
ENDBRANCH  27  28
ENDBRANCH   8  27
ENDBRANCH   6   8
ENDBRANCH   5   6
ENDBRANCH   4   5
ENDBRANCH   3   4
ENDBRANCH   2   3
ENDBRANCH   1   2
BRANCH   1  30
ATOM     30  C   UNL A   1      33.846  33.318  28.471  1.00  0.00     0.188 C 
BRANCH  30  31
ATOM     31  O   UNL A   1      34.271  34.517  27.873  1.00  0.00    -0.376 OA
BRANCH  31  32
ATOM     32  C   UNL A   1      33.925  35.744  28.503  1.00  0.00     0.202 C 
BRANCH  32  33
ATOM     33  C   UNL A   1      32.730  35.873  29.474  1.00  0.00     0.261 C 
BRANCH  33  34
ATOM     34  O   UNL A   1      32.978  36.421  30.778  1.00  0.00    -0.460 OA
BRANCH  34  35
ATOM     35  C   UNL A   1      32.936  35.568  31.827  1.00  0.00     0.338 C 
ATOM     36  O   UNL A   1      32.007  35.393  32.594  1.00  0.00    -0.246 OA
BRANCH  35  37
ATOM     37  C   UNL A   1      34.129  34.693  31.753  1.00  0.00     0.060 A 
ATOM     38  C   UNL A   1      33.991  33.333  32.070  1.00  0.00     0.016 A 
ATOM     39  C   UNL A   1      35.376  35.208  31.391  1.00  0.00     0.016 A 
ATOM     40  C   UNL A   1      35.107  32.495  32.075  1.00  0.00     0.010 A 
ATOM     41  C   UNL A   1      36.498  34.375  31.423  1.00  0.00     0.010 A 
ATOM     42  C   UNL A   1      36.375  33.027  31.811  1.00  0.00    -0.014 A 
BRANCH  42  43
ATOM     43  C   UNL A   1      37.583  32.253  32.192  1.00  0.00     0.031 A 
ATOM     44  C   UNL A   1      38.202  32.532  33.536  1.00  0.00     0.074 A 
ATOM     45  C   UNL A   1      38.114  31.318  31.388  1.00  0.00     0.049 A 
ATOM     46  N   UNL A   1      39.261  32.006  34.096  1.00  0.00    -0.248 NA
ATOM     47  C   UNL A   1      37.538  33.562  34.350  1.00  0.00     0.031 C 
ATOM     48  C   UNL A   1      37.603  30.948  30.073  1.00  0.00     0.029 A 
ATOM     49  N   UNL A   1      39.207  30.506  31.570  1.00  0.00    -0.354 N 
ATOM     50  C   UNL A   1      39.405  32.660  35.314  1.00  0.00     0.074 A 
ATOM     51  C   UNL A   1      38.342  33.639  35.397  1.00  0.00     0.031 C 
ATOM     52  C   UNL A   1      38.375  29.968  29.568  1.00  0.00     0.029 A 
ATOM     53  C   UNL A   1      39.441  29.654  30.520  1.00  0.00     0.049 A 
ATOM     54  H   UNL A   1      39.768  30.532  32.379  1.00  0.00     0.167 HD
ATOM     55  C   UNL A   1      40.336  32.464  36.279  1.00  0.00     0.037 A 
ATOM     56  C   UNL A   1      40.403  28.725  30.357  1.00  0.00     0.037 A 
ATOM     57  C   UNL A   1      41.399  31.499  36.187  1.00  0.00     0.049 A 
ATOM     58  C   UNL A   1      41.447  28.540  31.432  1.00  0.00     0.074 A 
ATOM     59  C   UNL A   1      42.393  31.219  37.108  1.00  0.00     0.029 A 
ATOM     60  N   UNL A   1      41.613  30.662  35.101  1.00  0.00    -0.354 N 
ATOM     61  N   UNL A   1      41.563  29.141  32.592  1.00  0.00    -0.248 NA
ATOM     62  C   UNL A   1      42.500  27.549  31.165  1.00  0.00     0.031 C 
ATOM     63  C   UNL A   1      43.243  30.254  36.554  1.00  0.00     0.029 A 
ATOM     64  C   UNL A   1      42.736  29.880  35.319  1.00  0.00     0.049 A 
ATOM     65  H   UNL A   1      41.050  30.629  34.294  1.00  0.00     0.167 HD
ATOM     66  C   UNL A   1      42.682  28.586  33.203  1.00  0.00     0.074 A 
ATOM     67  C   UNL A   1      43.196  27.583  32.293  1.00  0.00     0.031 C 
ATOM     68  C   UNL A   1      43.234  28.879  34.407  1.00  0.00     0.037 A 
BRANCH  55  69
ATOM     69  C   UNL A   1      40.264  33.356  37.486  1.00  0.00     0.064 A 
ATOM     70  C   UNL A   1      41.082  34.490  37.624  1.00  0.00     0.173 A 
ATOM     71  C   UNL A   1      39.382  33.058  38.536  1.00  0.00     0.173 A 
ATOM     72  F   UNL A   1      41.956  34.812  36.658  1.00  0.00    -0.203 F 
ATOM     73  C   UNL A   1      41.056  35.257  38.786  1.00  0.00     0.198 A 
ATOM     74  C   UNL A   1      39.330  33.850  39.680  1.00  0.00     0.198 A 
ATOM     75  F   UNL A   1      38.574  31.989  38.459  1.00  0.00    -0.203 F 
ATOM     76  F   UNL A   1      41.905  36.286  38.926  1.00  0.00    -0.200 F 
ATOM     77  C   UNL A   1      40.178  34.940  39.811  1.00  0.00     0.200 A 
ATOM     78  F   UNL A   1      38.471  33.550  40.663  1.00  0.00    -0.200 F 
ATOM     79  F   UNL A   1      40.159  35.675  40.931  1.00  0.00    -0.200 F 
ENDBRANCH  55  69
BRANCH  56  80
ATOM     80  C   UNL A   1      40.405  27.862  29.144  1.00  0.00     0.064 A 
ATOM     81  C   UNL A   1      39.651  26.681  29.106  1.00  0.00     0.173 A 
ATOM     82  C   UNL A   1      41.152  28.193  28.005  1.00  0.00     0.173 A 
ATOM     83  F   UNL A   1      38.934  26.310  30.178  1.00  0.00    -0.203 F 
ATOM     84  C   UNL A   1      39.656  25.856  27.983  1.00  0.00     0.198 A 
ATOM     85  C   UNL A   1      41.131  27.384  26.870  1.00  0.00     0.198 A 
ATOM     86  F   UNL A   1      41.892  29.311  27.990  1.00  0.00    -0.203 F 
ATOM     87  F   UNL A   1      38.960  24.710  27.993  1.00  0.00    -0.200 F 
ATOM     88  C   UNL A   1      40.388  26.213  26.862  1.00  0.00     0.200 A 
ATOM     89  F   UNL A   1      41.829  27.742  25.784  1.00  0.00    -0.200 F 
ATOM     90  F   UNL A   1      40.385  25.427  25.778  1.00  0.00    -0.200 F 
ENDBRANCH  56  80
BRANCH  68  91
ATOM     91  C   UNL A   1      44.431  28.075  34.840  1.00  0.00     0.064 A 
ATOM     92  C   UNL A   1      45.744  28.499  34.588  1.00  0.00     0.173 A 
ATOM     93  C   UNL A   1      44.257  26.875  35.549  1.00  0.00     0.173 A 
ATOM     94  F   UNL A   1      45.970  29.632  33.907  1.00  0.00    -0.203 F 
ATOM     95  C   UNL A   1      46.836  27.734  34.997  1.00  0.00     0.198 A 
ATOM     96  C   UNL A   1      45.350  26.133  35.988  1.00  0.00     0.198 A 
ATOM     97  F   UNL A   1      43.023  26.427  35.827  1.00  0.00    -0.203 F 
ATOM     98  F   UNL A   1      48.080  28.130  34.693  1.00  0.00    -0.200 F 
ATOM     99  C   UNL A   1      46.638  26.558  35.703  1.00  0.00     0.200 A 
ATOM    100  F   UNL A   1      45.155  25.006  36.686  1.00  0.00    -0.200 F 
ATOM    101  F   UNL A   1      47.689  25.827  36.100  1.00  0.00    -0.200 F 
ENDBRANCH  68  91
ENDBRANCH  42  43
ENDBRANCH  35  37
ENDBRANCH  34  35
ENDBRANCH  33  34
ENDBRANCH  32  33
ENDBRANCH  31  32
ENDBRANCH  30  31
ENDBRANCH   1  30
TORSDOF 23
ENDMDL
