MODEL 1
REMARK VINA RESULT:     -10.6      0.000      0.000
REMARK SMILES CS(=O)(=O)N1CCC[C@@H]1C(=O)N1CCC[C@@H]1C(=O)OCCOCCOCCOC(=O)c1ccc(-c2c3nc(c(-c4c(F)c(F)c(F)c(F)c4F)c4ccc([nH]4)c(-c4c(F)c(F)c(F)c(F)c4F)c4nc(c(-c5c(F)c(F)c(F)c(F)c5F)c5ccc2[nH]5)C=C4)C=C3)cc1
REMARK SMILES IDX 23 1 22 2 21 3 20 4 19 5 17 6 18 7 16 8 12 9 13 10 14 11
REMARK SMILES IDX 15 12 10 13 11 14 9 15 5 16 6 17 7 18 8 19 2 20 1 21 3 22
REMARK SMILES IDX 4 23 24 24 25 25 26 26 27 27 28 28 29 29 30 30 31 31 32 32
REMARK SMILES IDX 93 33 33 34 92 35 34 36 35 37 36 38 86 39 37 40 91 41 85 42
REMARK SMILES IDX 87 43 38 44 90 45 84 46 83 47 39 49 71 50 51 51 70 52 52 53
REMARK SMILES IDX 55 54 69 55 88 56 53 57 54 58 68 60 89 61 56 62 40 63 41 64
REMARK SMILES IDX 49 65 42 66 43 67 47 68 50 69 44 70 45 71 48 72 46 73 72 74
REMARK SMILES IDX 73 75 81 76 74 77 75 78 79 79 82 80 76 81 77 82 80 83 78 84
REMARK SMILES IDX 57 85 58 86 66 87 59 88 60 89 64 90 67 91 61 92 62 93 65 94
REMARK SMILES IDX 63 95
REMARK H PARENT 87 48 55 59
REMARK Flexibility Score: inf
ROOT
ATOM      1  C   UNL A   1      35.509  33.354  28.154  1.00  0.00     0.188 C 
ENDROOT
BRANCH   1   2
ATOM      2  O   UNL A   1      35.388  31.975  27.857  1.00  0.00    -0.376 OA
BRANCH   2   3
ATOM      3  C   UNL A   1      34.029  31.506  27.880  1.00  0.00     0.202 C 
BRANCH   3   4
ATOM      4  C   UNL A   1      33.603  30.138  27.253  1.00  0.00     0.261 C 
BRANCH   4   5
ATOM      5  O   UNL A   1      32.222  29.894  26.906  1.00  0.00    -0.462 OA
BRANCH   5   6
ATOM      6  C   UNL A   1      31.714  28.629  26.845  1.00  0.00     0.328 C 
ATOM      7  O   UNL A   1      31.443  27.955  27.834  1.00  0.00    -0.250 OA
BRANCH   6   8
ATOM      8  C   UNL A   1      31.360  28.187  25.379  1.00  0.00     0.195 C 
ATOM      9  N   UNL A   1      32.463  27.627  24.615  1.00  0.00    -0.327 N 
ATOM     10  C   UNL A   1      32.165  27.674  23.204  1.00  0.00     0.120 C 
ATOM     11  C   UNL A   1      31.447  28.994  23.034  1.00  0.00     0.024 C 
ATOM     12  C   UNL A   1      30.952  29.339  24.446  1.00  0.00     0.039 C 
BRANCH   9  13
ATOM     13  C   UNL A   1      33.232  26.674  25.201  1.00  0.00     0.241 C 
ATOM     14  O   UNL A   1      34.026  26.973  26.098  1.00  0.00    -0.273 OA
BRANCH  13  15
ATOM     15  C   UNL A   1      33.122  25.267  24.693  1.00  0.00     0.162 C 
ATOM     16  N   UNL A   1      32.312  24.114  25.157  1.00  0.00    -0.190 NA
ATOM     17  C   UNL A   1      32.881  22.932  24.494  1.00  0.00     0.103 C 
ATOM     18  C   UNL A   1      34.368  23.181  24.674  1.00  0.00     0.019 C 
ATOM     19  C   UNL A   1      34.515  24.677  24.425  1.00  0.00     0.032 C 
BRANCH  16  20
ATOM     20  S   UNL A   1      31.394  23.891  26.527  1.00  0.00     0.211 S 
ATOM     21  C   UNL A   1      30.409  22.455  26.170  1.00  0.00     0.176 C 
ATOM     22  O   UNL A   1      30.470  25.014  26.589  1.00  0.00    -0.212 OA
ATOM     23  O   UNL A   1      32.195  23.550  27.663  1.00  0.00    -0.212 OA
ENDBRANCH  16  20
ENDBRANCH  13  15
ENDBRANCH   9  13
ENDBRANCH   6   8
ENDBRANCH   5   6
ENDBRANCH   4   5
ENDBRANCH   3   4
ENDBRANCH   2   3
ENDBRANCH   1   2
BRANCH   1  24
ATOM     24  C   UNL A   1      34.309  34.288  28.219  1.00  0.00     0.188 C 
BRANCH  24  25
ATOM     25  O   UNL A   1      34.551  35.676  28.180  1.00  0.00    -0.376 OA
BRANCH  25  26
ATOM     26  C   UNL A   1      33.442  36.475  28.570  1.00  0.00     0.202 C 
BRANCH  26  27
ATOM     27  C   UNL A   1      32.612  35.967  29.768  1.00  0.00     0.261 C 
BRANCH  27  28
ATOM     28  O   UNL A   1      32.585  36.857  30.916  1.00  0.00    -0.460 OA
BRANCH  28  29
ATOM     29  C   UNL A   1      32.597  36.264  32.144  1.00  0.00     0.338 C 
ATOM     30  O   UNL A   1      31.755  36.374  33.021  1.00  0.00    -0.246 OA
BRANCH  29  31
ATOM     31  C   UNL A   1      33.668  35.237  32.215  1.00  0.00     0.060 A 
ATOM     32  C   UNL A   1      33.434  34.021  32.887  1.00  0.00     0.016 A 
ATOM     33  C   UNL A   1      34.937  35.521  31.722  1.00  0.00     0.016 A 
ATOM     34  C   UNL A   1      34.459  33.087  33.059  1.00  0.00     0.010 A 
ATOM     35  C   UNL A   1      35.975  34.604  31.933  1.00  0.00     0.010 A 
ATOM     36  C   UNL A   1      35.749  33.395  32.622  1.00  0.00    -0.014 A 
BRANCH  36  37
ATOM     37  C   UNL A   1      36.906  32.576  33.065  1.00  0.00     0.031 A 
ATOM     38  C   UNL A   1      37.551  32.910  34.381  1.00  0.00     0.074 A 
ATOM     39  C   UNL A   1      37.398  31.576  32.313  1.00  0.00     0.049 A 
ATOM     40  N   UNL A   1      38.657  32.454  34.912  1.00  0.00    -0.248 NA
ATOM     41  C   UNL A   1      36.853  33.907  35.207  1.00  0.00     0.031 C 
ATOM     42  C   UNL A   1      36.833  31.111  31.049  1.00  0.00     0.029 A 
ATOM     43  N   UNL A   1      38.511  30.791  32.498  1.00  0.00    -0.354 N 
ATOM     44  C   UNL A   1      38.805  33.133  36.114  1.00  0.00     0.074 A 
ATOM     45  C   UNL A   1      37.683  34.040  36.228  1.00  0.00     0.031 C 
ATOM     46  C   UNL A   1      37.627  30.148  30.550  1.00  0.00     0.029 A 
ATOM     47  C   UNL A   1      38.775  29.961  31.436  1.00  0.00     0.049 A 
ATOM     48  H   UNL A   1      39.066  30.822  33.311  1.00  0.00     0.167 HD
ATOM     49  C   UNL A   1      39.790  33.013  37.036  1.00  0.00     0.037 A 
ATOM     50  C   UNL A   1      39.844  29.176  31.191  1.00  0.00     0.037 A 
ATOM     51  C   UNL A   1      40.903  32.108  36.918  1.00  0.00     0.049 A 
ATOM     52  C   UNL A   1      40.965  29.105  32.198  1.00  0.00     0.074 A 
ATOM     53  C   UNL A   1      41.931  31.883  37.814  1.00  0.00     0.029 A 
ATOM     54  N   UNL A   1      41.142  31.288  35.823  1.00  0.00    -0.354 N 
ATOM     55  N   UNL A   1      41.091  29.728  33.345  1.00  0.00    -0.248 NA
ATOM     56  C   UNL A   1      42.093  28.219  31.876  1.00  0.00     0.031 C 
ATOM     57  C   UNL A   1      42.832  30.986  37.231  1.00  0.00     0.029 A 
ATOM     58  C   UNL A   1      42.324  30.588  36.005  1.00  0.00     0.049 A 
ATOM     59  H   UNL A   1      40.557  31.216  35.033  1.00  0.00     0.167 HD
ATOM     60  C   UNL A   1      42.292  29.289  33.892  1.00  0.00     0.074 A 
ATOM     61  C   UNL A   1      42.851  28.337  32.957  1.00  0.00     0.031 C 
ATOM     62  C   UNL A   1      42.874  29.641  35.067  1.00  0.00     0.037 A 
BRANCH  49  63
ATOM     63  C   UNL A   1      39.737  33.927  38.228  1.00  0.00     0.064 A 
ATOM     64  C   UNL A   1      39.079  33.572  39.416  1.00  0.00     0.173 A 
ATOM     65  C   UNL A   1      40.368  35.180  38.181  1.00  0.00     0.173 A 
ATOM     66  F   UNL A   1      38.448  32.391  39.512  1.00  0.00    -0.203 F 
ATOM     67  C   UNL A   1      39.022  34.451  40.494  1.00  0.00     0.198 A 
ATOM     68  C   UNL A   1      40.341  36.041  39.274  1.00  0.00     0.198 A 
ATOM     69  F   UNL A   1      41.018  35.570  37.074  1.00  0.00    -0.203 F 
ATOM     70  F   UNL A   1      38.333  34.115  41.595  1.00  0.00    -0.200 F 
ATOM     71  C   UNL A   1      39.658  35.681  40.426  1.00  0.00     0.200 A 
ATOM     72  F   UNL A   1      40.973  37.222  39.212  1.00  0.00    -0.200 F 
ATOM     73  F   UNL A   1      39.606  36.525  41.466  1.00  0.00    -0.200 F 
ENDBRANCH  49  63
BRANCH  50  74
ATOM     74  C   UNL A   1      39.919  28.415  29.914  1.00  0.00     0.064 A 
ATOM     75  C   UNL A   1      39.342  27.144  29.790  1.00  0.00     0.173 A 
ATOM     76  C   UNL A   1      40.577  28.943  28.793  1.00  0.00     0.173 A 
ATOM     77  F   UNL A   1      38.732  26.579  30.843  1.00  0.00    -0.203 F 
ATOM     78  C   UNL A   1      39.429  26.425  28.598  1.00  0.00     0.198 A 
ATOM     79  C   UNL A   1      40.636  28.239  27.592  1.00  0.00     0.198 A 
ATOM     80  F   UNL A   1      41.157  30.150  28.860  1.00  0.00    -0.203 F 
ATOM     81  F   UNL A   1      38.911  25.193  28.522  1.00  0.00    -0.200 F 
ATOM     82  C   UNL A   1      40.067  26.977  27.497  1.00  0.00     0.200 A 
ATOM     83  F   UNL A   1      41.247  28.779  26.529  1.00  0.00    -0.200 F 
ATOM     84  F   UNL A   1      40.144  26.290  26.349  1.00  0.00    -0.200 F 
ENDBRANCH  50  74
BRANCH  62  85
ATOM     85  C   UNL A   1      44.168  28.964  35.435  1.00  0.00     0.064 A 
ATOM     86  C   UNL A   1      45.415  29.508  35.097  1.00  0.00     0.173 A 
ATOM     87  C   UNL A   1      44.155  27.775  36.182  1.00  0.00     0.173 A 
ATOM     88  F   UNL A   1      45.487  30.637  34.375  1.00  0.00    -0.203 F 
ATOM     89  C   UNL A   1      46.599  28.874  35.467  1.00  0.00     0.198 A 
ATOM     90  C   UNL A   1      45.340  27.163  36.581  1.00  0.00     0.198 A 
ATOM     91  F   UNL A   1      42.991  27.213  36.543  1.00  0.00    -0.203 F 
ATOM     92  F   UNL A   1      47.778  29.385  35.088  1.00  0.00    -0.200 F 
ATOM     93  C   UNL A   1      46.561  27.707  36.216  1.00  0.00     0.200 A 
ATOM     94  F   UNL A   1      45.300  26.046  37.323  1.00  0.00    -0.200 F 
ATOM     95  F   UNL A   1      47.702  27.104  36.580  1.00  0.00    -0.200 F 
ENDBRANCH  62  85
ENDBRANCH  36  37
ENDBRANCH  29  31
ENDBRANCH  28  29
ENDBRANCH  27  28
ENDBRANCH  26  27
ENDBRANCH  25  26
ENDBRANCH  24  25
ENDBRANCH   1  24
TORSDOF 20
ENDMDL
MODEL 2
REMARK VINA RESULT:     -10.6      3.844      9.633
REMARK SMILES CS(=O)(=O)N1CCC[C@@H]1C(=O)N1CCC[C@@H]1C(=O)OCCOCCOCCOC(=O)c1ccc(-c2c3nc(c(-c4c(F)c(F)c(F)c(F)c4F)c4ccc([nH]4)c(-c4c(F)c(F)c(F)c(F)c4F)c4nc(c(-c5c(F)c(F)c(F)c(F)c5F)c5ccc2[nH]5)C=C4)C=C3)cc1
REMARK SMILES IDX 23 1 22 2 21 3 20 4 19 5 17 6 18 7 16 8 12 9 13 10 14 11
REMARK SMILES IDX 15 12 10 13 11 14 9 15 5 16 6 17 7 18 8 19 2 20 1 21 3 22
REMARK SMILES IDX 4 23 24 24 25 25 26 26 27 27 28 28 29 29 30 30 31 31 32 32
REMARK SMILES IDX 93 33 33 34 92 35 34 36 35 37 36 38 86 39 37 40 91 41 85 42
REMARK SMILES IDX 87 43 38 44 90 45 84 46 83 47 39 49 71 50 51 51 70 52 52 53
REMARK SMILES IDX 55 54 69 55 88 56 53 57 54 58 68 60 89 61 56 62 40 63 41 64
REMARK SMILES IDX 49 65 42 66 43 67 47 68 50 69 44 70 45 71 48 72 46 73 72 74
REMARK SMILES IDX 73 75 81 76 74 77 75 78 79 79 82 80 76 81 77 82 80 83 78 84
REMARK SMILES IDX 57 85 58 86 66 87 59 88 60 89 64 90 67 91 61 92 62 93 65 94
REMARK SMILES IDX 63 95
REMARK H PARENT 87 48 55 59
REMARK Flexibility Score: inf
ROOT
ATOM      1  C   UNL A   1      40.972  19.924  26.279  1.00  0.00     0.188 C 
ENDROOT
BRANCH   1   2
ATOM      2  O   UNL A   1      39.926  19.616  25.376  1.00  0.00    -0.376 OA
BRANCH   2   3
ATOM      3  C   UNL A   1      38.680  20.251  25.711  1.00  0.00     0.202 C 
BRANCH   3   4
ATOM      4  C   UNL A   1      38.399  21.758  25.406  1.00  0.00     0.261 C 
BRANCH   4   5
ATOM      5  O   UNL A   1      37.052  22.278  25.476  1.00  0.00    -0.462 OA
BRANCH   5   6
ATOM      6  C   UNL A   1      36.362  22.627  24.353  1.00  0.00     0.328 C 
ATOM      7  O   UNL A   1      36.750  23.470  23.549  1.00  0.00    -0.250 OA
BRANCH   6   8
ATOM      8  C   UNL A   1      35.100  21.724  24.109  1.00  0.00     0.195 C 
ATOM      9  N   UNL A   1      33.820  22.407  24.199  1.00  0.00    -0.327 N 
ATOM     10  C   UNL A   1      32.759  21.451  24.405  1.00  0.00     0.120 C 
ATOM     11  C   UNL A   1      33.374  20.430  25.335  1.00  0.00     0.024 C 
ATOM     12  C   UNL A   1      34.887  20.627  25.165  1.00  0.00     0.039 C 
BRANCH   9  13
ATOM     13  C   UNL A   1      33.670  23.581  23.534  1.00  0.00     0.241 C 
ATOM     14  O   UNL A   1      33.984  23.672  22.344  1.00  0.00    -0.273 OA
BRANCH  13  15
ATOM     15  C   UNL A   1      33.162  24.767  24.300  1.00  0.00     0.162 C 
ATOM     16  N   UNL A   1      32.731  26.115  23.854  1.00  0.00    -0.190 NA
ATOM     17  C   UNL A   1      32.675  26.940  25.069  1.00  0.00     0.103 C 
ATOM     18  C   UNL A   1      33.965  26.535  25.760  1.00  0.00     0.019 C 
ATOM     19  C   UNL A   1      34.039  25.030  25.534  1.00  0.00     0.032 C 
BRANCH  16  20
ATOM     20  S   UNL A   1      32.850  26.879  22.380  1.00  0.00     0.211 S 
ATOM     21  C   UNL A   1      33.174  28.578  22.789  1.00  0.00     0.176 C 
ATOM     22  O   UNL A   1      31.518  26.847  21.793  1.00  0.00    -0.212 OA
ATOM     23  O   UNL A   1      33.982  26.429  21.629  1.00  0.00    -0.212 OA
ENDBRANCH  16  20
ENDBRANCH  13  15
ENDBRANCH   9  13
ENDBRANCH   6   8
ENDBRANCH   5   6
ENDBRANCH   4   5
ENDBRANCH   3   4
ENDBRANCH   2   3
ENDBRANCH   1   2
BRANCH   1  24
ATOM     24  C   UNL A   1      42.392  19.405  26.098  1.00  0.00     0.188 C 
BRANCH  24  25
ATOM     25  O   UNL A   1      43.174  19.969  25.070  1.00  0.00    -0.376 OA
BRANCH  25  26
ATOM     26  C   UNL A   1      44.535  20.182  25.419  1.00  0.00     0.202 C 
BRANCH  26  27
ATOM     27  C   UNL A   1      44.976  21.648  25.621  1.00  0.00     0.261 C 
BRANCH  27  28
ATOM     28  O   UNL A   1      43.980  22.506  26.241  1.00  0.00    -0.460 OA
BRANCH  28  29
ATOM     29  C   UNL A   1      43.316  23.361  25.412  1.00  0.00     0.338 C 
ATOM     30  O   UNL A   1      43.059  23.189  24.231  1.00  0.00    -0.246 OA
BRANCH  29  31
ATOM     31  C   UNL A   1      42.702  24.468  26.190  1.00  0.00     0.060 A 
ATOM     32  C   UNL A   1      43.256  25.762  26.129  1.00  0.00     0.016 A 
ATOM     33  C   UNL A   1      41.656  24.205  27.067  1.00  0.00     0.016 A 
ATOM     34  C   UNL A   1      42.762  26.792  26.934  1.00  0.00     0.010 A 
ATOM     35  C   UNL A   1      41.190  25.226  27.905  1.00  0.00     0.010 A 
ATOM     36  C   UNL A   1      41.755  26.516  27.861  1.00  0.00    -0.014 A 
BRANCH  36  37
ATOM     37  C   UNL A   1      41.434  27.494  28.932  1.00  0.00     0.031 A 
ATOM     38  C   UNL A   1      42.230  27.440  30.206  1.00  0.00     0.074 A 
ATOM     39  C   UNL A   1      40.445  28.394  28.800  1.00  0.00     0.049 A 
ATOM     40  N   UNL A   1      42.046  28.070  31.338  1.00  0.00    -0.248 NA
ATOM     41  C   UNL A   1      43.392  26.537  30.202  1.00  0.00     0.031 C 
ATOM     42  C   UNL A   1      39.636  28.592  27.600  1.00  0.00     0.029 A 
ATOM     43  N   UNL A   1      39.933  29.291  29.708  1.00  0.00    -0.354 N 
ATOM     44  C   UNL A   1      43.044  27.615  32.189  1.00  0.00     0.074 A 
ATOM     45  C   UNL A   1      43.823  26.647  31.448  1.00  0.00     0.031 C 
ATOM     46  C   UNL A   1      38.702  29.524  27.859  1.00  0.00     0.029 A 
ATOM     47  C   UNL A   1      38.820  29.954  29.252  1.00  0.00     0.049 A 
ATOM     48  H   UNL A   1      40.325  29.443  30.598  1.00  0.00     0.167 HD
ATOM     49  C   UNL A   1      43.285  27.970  33.473  1.00  0.00     0.037 A 
ATOM     50  C   UNL A   1      37.970  30.776  29.900  1.00  0.00     0.037 A 
ATOM     51  C   UNL A   1      42.507  28.935  34.206  1.00  0.00     0.049 A 
ATOM     52  C   UNL A   1      38.215  31.108  31.352  1.00  0.00     0.074 A 
ATOM     53  C   UNL A   1      42.694  29.393  35.498  1.00  0.00     0.029 A 
ATOM     54  N   UNL A   1      41.380  29.579  33.713  1.00  0.00    -0.354 N 
ATOM     55  N   UNL A   1      39.173  30.697  32.147  1.00  0.00    -0.248 NA
ATOM     56  C   UNL A   1      37.259  32.022  31.994  1.00  0.00     0.031 C 
ATOM     57  C   UNL A   1      41.638  30.254  35.813  1.00  0.00     0.029 A 
ATOM     58  C   UNL A   1      40.838  30.398  34.691  1.00  0.00     0.049 A 
ATOM     59  H   UNL A   1      41.019  29.469  32.803  1.00  0.00     0.167 HD
ATOM     60  C   UNL A   1      38.953  31.322  33.370  1.00  0.00     0.074 A 
ATOM     61  C   UNL A   1      37.778  32.150  33.208  1.00  0.00     0.031 C 
ATOM     62  C   UNL A   1      39.666  31.221  34.521  1.00  0.00     0.037 A 
BRANCH  49  63
ATOM     63  C   UNL A   1      44.404  27.264  34.188  1.00  0.00     0.064 A 
ATOM     64  C   UNL A   1      44.215  26.045  34.856  1.00  0.00     0.173 A 
ATOM     65  C   UNL A   1      45.694  27.818  34.193  1.00  0.00     0.173 A 
ATOM     66  F   UNL A   1      42.999  25.476  34.894  1.00  0.00    -0.203 F 
ATOM     67  C   UNL A   1      45.263  25.428  35.535  1.00  0.00     0.198 A 
ATOM     68  C   UNL A   1      46.748  27.180  34.840  1.00  0.00     0.198 A 
ATOM     69  F   UNL A   1      45.935  28.978  33.565  1.00  0.00    -0.203 F 
ATOM     70  F   UNL A   1      45.042  24.297  36.219  1.00  0.00    -0.200 F 
ATOM     71  C   UNL A   1      46.530  25.992  35.520  1.00  0.00     0.200 A 
ATOM     72  F   UNL A   1      47.976  27.718  34.809  1.00  0.00    -0.200 F 
ATOM     73  F   UNL A   1      47.539  25.395  36.169  1.00  0.00    -0.200 F 
ENDBRANCH  49  63
BRANCH  50  74
ATOM     74  C   UNL A   1      36.783  31.318  29.186  1.00  0.00     0.064 A 
ATOM     75  C   UNL A   1      36.716  32.665  28.804  1.00  0.00     0.173 A 
ATOM     76  C   UNL A   1      35.686  30.499  28.876  1.00  0.00     0.173 A 
ATOM     77  F   UNL A   1      37.724  33.498  29.107  1.00  0.00    -0.203 F 
ATOM     78  C   UNL A   1      35.596  33.175  28.150  1.00  0.00     0.198 A 
ATOM     79  C   UNL A   1      34.580  31.002  28.194  1.00  0.00     0.198 A 
ATOM     80  F   UNL A   1      35.691  29.206  29.229  1.00  0.00    -0.203 F 
ATOM     81  F   UNL A   1      35.538  34.476  27.839  1.00  0.00    -0.200 F 
ATOM     82  C   UNL A   1      34.533  32.341  27.836  1.00  0.00     0.200 A 
ATOM     83  F   UNL A   1      33.558  30.190  27.887  1.00  0.00    -0.200 F 
ATOM     84  F   UNL A   1      33.458  32.830  27.201  1.00  0.00    -0.200 F 
ENDBRANCH  50  74
BRANCH  62  85
ATOM     85  C   UNL A   1      39.224  32.058  35.691  1.00  0.00     0.064 A 
ATOM     86  C   UNL A   1      38.342  31.568  36.666  1.00  0.00     0.173 A 
ATOM     87  C   UNL A   1      39.732  33.355  35.865  1.00  0.00     0.173 A 
ATOM     88  F   UNL A   1      37.818  30.338  36.546  1.00  0.00    -0.203 F 
ATOM     89  C   UNL A   1      37.963  32.354  37.752  1.00  0.00     0.198 A 
ATOM     90  C   UNL A   1      39.379  34.125  36.970  1.00  0.00     0.198 A 
ATOM     91  F   UNL A   1      40.587  33.874  34.969  1.00  0.00    -0.203 F 
ATOM     92  F   UNL A   1      37.079  31.883  38.642  1.00  0.00    -0.200 F 
ATOM     93  C   UNL A   1      38.489  33.628  37.908  1.00  0.00     0.200 A 
ATOM     94  F   UNL A   1      39.905  35.349  37.128  1.00  0.00    -0.200 F 
ATOM     95  F   UNL A   1      38.131  34.379  38.959  1.00  0.00    -0.200 F 
ENDBRANCH  62  85
ENDBRANCH  36  37
ENDBRANCH  29  31
ENDBRANCH  28  29
ENDBRANCH  27  28
ENDBRANCH  26  27
ENDBRANCH  25  26
ENDBRANCH  24  25
ENDBRANCH   1  24
TORSDOF 20
ENDMDL
MODEL 3
REMARK VINA RESULT:     -10.5      1.276      2.285
REMARK SMILES CS(=O)(=O)N1CCC[C@@H]1C(=O)N1CCC[C@@H]1C(=O)OCCOCCOCCOC(=O)c1ccc(-c2c3nc(c(-c4c(F)c(F)c(F)c(F)c4F)c4ccc([nH]4)c(-c4c(F)c(F)c(F)c(F)c4F)c4nc(c(-c5c(F)c(F)c(F)c(F)c5F)c5ccc2[nH]5)C=C4)C=C3)cc1
REMARK SMILES IDX 23 1 22 2 21 3 20 4 19 5 17 6 18 7 16 8 12 9 13 10 14 11
REMARK SMILES IDX 15 12 10 13 11 14 9 15 5 16 6 17 7 18 8 19 2 20 1 21 3 22
REMARK SMILES IDX 4 23 24 24 25 25 26 26 27 27 28 28 29 29 30 30 31 31 32 32
REMARK SMILES IDX 93 33 33 34 92 35 34 36 35 37 36 38 86 39 37 40 91 41 85 42
REMARK SMILES IDX 87 43 38 44 90 45 84 46 83 47 39 49 71 50 51 51 70 52 52 53
REMARK SMILES IDX 55 54 69 55 88 56 53 57 54 58 68 60 89 61 56 62 40 63 41 64
REMARK SMILES IDX 49 65 42 66 43 67 47 68 50 69 44 70 45 71 48 72 46 73 72 74
REMARK SMILES IDX 73 75 81 76 74 77 75 78 79 79 82 80 76 81 77 82 80 83 78 84
REMARK SMILES IDX 57 85 58 86 66 87 59 88 60 89 64 90 67 91 61 92 62 93 65 94
REMARK SMILES IDX 63 95
REMARK H PARENT 87 48 55 59
REMARK Flexibility Score: inf
ROOT
ATOM      1  C   UNL A   1      35.578  31.533  27.627  1.00  0.00     0.188 C 
ENDROOT
BRANCH   1   2
ATOM      2  O   UNL A   1      34.405  30.741  27.633  1.00  0.00    -0.376 OA
BRANCH   2   3
ATOM      3  C   UNL A   1      34.672  29.330  27.554  1.00  0.00     0.202 C 
BRANCH   3   4
ATOM      4  C   UNL A   1      34.029  28.415  26.462  1.00  0.00     0.261 C 
BRANCH   4   5
ATOM      5  O   UNL A   1      32.657  28.620  26.055  1.00  0.00    -0.462 OA
BRANCH   5   6
ATOM      6  C   UNL A   1      31.667  27.758  26.427  1.00  0.00     0.328 C 
ATOM      7  O   UNL A   1      31.391  27.499  27.595  1.00  0.00    -0.250 OA
BRANCH   6   8
ATOM      8  C   UNL A   1      30.809  27.256  25.210  1.00  0.00     0.195 C 
ATOM      9  N   UNL A   1      31.305  26.059  24.552  1.00  0.00    -0.327 N 
ATOM     10  C   UNL A   1      30.736  25.946  23.230  1.00  0.00     0.120 C 
ATOM     11  C   UNL A   1      30.699  27.373  22.734  1.00  0.00     0.024 C 
ATOM     12  C   UNL A   1      30.775  28.220  24.013  1.00  0.00     0.039 C 
BRANCH   9  13
ATOM     13  C   UNL A   1      31.656  24.999  25.324  1.00  0.00     0.241 C 
ATOM     14  O   UNL A   1      30.790  24.301  25.861  1.00  0.00    -0.273 OA
BRANCH  13  15
ATOM     15  C   UNL A   1      33.117  24.736  25.543  1.00  0.00     0.162 C 
ATOM     16  N   UNL A   1      34.202  24.370  24.599  1.00  0.00    -0.190 NA
ATOM     17  C   UNL A   1      35.321  23.912  25.435  1.00  0.00     0.103 C 
ATOM     18  C   UNL A   1      34.598  23.031  26.438  1.00  0.00     0.019 C 
ATOM     19  C   UNL A   1      33.326  23.809  26.750  1.00  0.00     0.032 C 
BRANCH  16  20
ATOM     20  S   UNL A   1      34.165  23.912  23.000  1.00  0.00     0.211 S 
ATOM     21  C   UNL A   1      32.859  22.708  22.916  1.00  0.00     0.176 C 
ATOM     22  O   UNL A   1      35.402  23.189  22.751  1.00  0.00    -0.212 OA
ATOM     23  O   UNL A   1      33.768  24.986  22.141  1.00  0.00    -0.212 OA
ENDBRANCH  16  20
ENDBRANCH  13  15
ENDBRANCH   9  13
ENDBRANCH   6   8
ENDBRANCH   5   6
ENDBRANCH   4   5
ENDBRANCH   3   4
ENDBRANCH   2   3
ENDBRANCH   1   2
BRANCH   1  24
ATOM     24  C   UNL A   1      35.660  32.886  28.322  1.00  0.00     0.188 C 
BRANCH  24  25
ATOM     25  O   UNL A   1      34.957  33.964  27.750  1.00  0.00    -0.376 OA
BRANCH  25  26
ATOM     26  C   UNL A   1      33.615  34.094  28.202  1.00  0.00     0.202 C 
BRANCH  26  27
ATOM     27  C   UNL A   1      33.304  35.309  29.102  1.00  0.00     0.261 C 
BRANCH  27  28
ATOM     28  O   UNL A   1      32.507  35.011  30.279  1.00  0.00    -0.460 OA
BRANCH  28  29
ATOM     29  C   UNL A   1      32.817  35.702  31.413  1.00  0.00     0.338 C 
ATOM     30  O   UNL A   1      32.193  36.631  31.902  1.00  0.00    -0.246 OA
BRANCH  29  31
ATOM     31  C   UNL A   1      33.910  35.022  32.155  1.00  0.00     0.060 A 
ATOM     32  C   UNL A   1      35.199  35.588  32.184  1.00  0.00     0.016 A 
ATOM     33  C   UNL A   1      33.692  33.770  32.720  1.00  0.00     0.016 A 
ATOM     34  C   UNL A   1      36.266  34.913  32.783  1.00  0.00     0.010 A 
ATOM     35  C   UNL A   1      34.771  33.074  33.282  1.00  0.00     0.010 A 
ATOM     36  C   UNL A   1      36.066  33.629  33.295  1.00  0.00    -0.014 A 
BRANCH  36  37
ATOM     37  C   UNL A   1      37.227  32.772  33.646  1.00  0.00     0.031 A 
ATOM     38  C   UNL A   1      37.937  33.034  34.945  1.00  0.00     0.074 A 
ATOM     39  C   UNL A   1      37.667  31.801  32.828  1.00  0.00     0.049 A 
ATOM     40  N   UNL A   1      39.057  32.537  35.403  1.00  0.00    -0.248 NA
ATOM     41  C   UNL A   1      37.294  34.002  35.847  1.00  0.00     0.031 C 
ATOM     42  C   UNL A   1      37.038  31.405  31.571  1.00  0.00     0.029 A 
ATOM     43  N   UNL A   1      38.774  30.991  32.924  1.00  0.00    -0.354 N 
ATOM     44  C   UNL A   1      39.271  33.156  36.628  1.00  0.00     0.074 A 
ATOM     45  C   UNL A   1      38.172  34.074  36.835  1.00  0.00     0.031 C 
ATOM     46  C   UNL A   1      37.792  30.454  30.992  1.00  0.00     0.029 A 
ATOM     47  C   UNL A   1      38.975  30.207  31.815  1.00  0.00     0.049 A 
ATOM     48  H   UNL A   1      39.365  30.976  33.712  1.00  0.00     0.167 HD
ATOM     49  C   UNL A   1      40.294  32.978  37.497  1.00  0.00     0.037 A 
ATOM     50  C   UNL A   1      40.017  29.418  31.485  1.00  0.00     0.037 A 
ATOM     51  C   UNL A   1      41.384  32.062  37.286  1.00  0.00     0.049 A 
ATOM     52  C   UNL A   1      41.182  29.283  32.435  1.00  0.00     0.074 A 
ATOM     53  C   UNL A   1      42.448  31.780  38.123  1.00  0.00     0.029 A 
ATOM     54  N   UNL A   1      41.560  31.291  36.145  1.00  0.00    -0.354 N 
ATOM     55  N   UNL A   1      41.370  29.850  33.603  1.00  0.00    -0.248 NA
ATOM     56  C   UNL A   1      42.278  28.396  32.021  1.00  0.00     0.031 C 
ATOM     57  C   UNL A   1      43.306  30.897  37.459  1.00  0.00     0.029 A 
ATOM     58  C   UNL A   1      42.736  30.565  36.240  1.00  0.00     0.049 A 
ATOM     59  H   UNL A   1      40.939  31.265  35.380  1.00  0.00     0.167 HD
ATOM     60  C   UNL A   1      42.587  29.367  34.074  1.00  0.00     0.074 A 
ATOM     61  C   UNL A   1      43.086  28.451  33.071  1.00  0.00     0.031 C 
ATOM     62  C   UNL A   1      43.227  29.655  35.235  1.00  0.00     0.037 A 
BRANCH  49  63
ATOM     63  C   UNL A   1      40.311  33.836  38.731  1.00  0.00     0.064 A 
ATOM     64  C   UNL A   1      39.636  33.472  39.906  1.00  0.00     0.173 A 
ATOM     65  C   UNL A   1      41.028  35.043  38.738  1.00  0.00     0.173 A 
ATOM     66  F   UNL A   1      38.924  32.334  39.952  1.00  0.00    -0.203 F 
ATOM     67  C   UNL A   1      39.645  34.301  41.025  1.00  0.00     0.198 A 
ATOM     68  C   UNL A   1      41.067  35.850  39.871  1.00  0.00     0.198 A 
ATOM     69  F   UNL A   1      41.698  35.438  37.645  1.00  0.00    -0.203 F 
ATOM     70  F   UNL A   1      38.940  33.961  42.114  1.00  0.00    -0.200 F 
ATOM     71  C   UNL A   1      40.366  35.485  41.009  1.00  0.00     0.200 A 
ATOM     72  F   UNL A   1      41.779  36.986  39.858  1.00  0.00    -0.200 F 
ATOM     73  F   UNL A   1      40.378  36.280  42.088  1.00  0.00    -0.200 F 
ENDBRANCH  49  63
BRANCH  50  74
ATOM     74  C   UNL A   1      40.022  28.717  30.172  1.00  0.00     0.064 A 
ATOM     75  C   UNL A   1      40.609  29.298  29.040  1.00  0.00     0.173 A 
ATOM     76  C   UNL A   1      39.433  27.452  30.023  1.00  0.00     0.173 A 
ATOM     77  F   UNL A   1      41.155  30.521  29.120  1.00  0.00    -0.203 F 
ATOM     78  C   UNL A   1      40.597  28.647  27.807  1.00  0.00     0.198 A 
ATOM     79  C   UNL A   1      39.449  26.788  28.799  1.00  0.00     0.198 A 
ATOM     80  F   UNL A   1      38.847  26.856  31.071  1.00  0.00    -0.203 F 
ATOM     81  F   UNL A   1      41.121  29.246  26.730  1.00  0.00    -0.200 F 
ATOM     82  C   UNL A   1      40.026  27.388  27.689  1.00  0.00     0.200 A 
ATOM     83  F   UNL A   1      38.903  25.569  28.692  1.00  0.00    -0.200 F 
ATOM     84  F   UNL A   1      40.021  26.759  26.506  1.00  0.00    -0.200 F 
ENDBRANCH  50  74
BRANCH  62  85
ATOM     85  C   UNL A   1      44.524  28.941  35.512  1.00  0.00     0.064 A 
ATOM     86  C   UNL A   1      44.566  27.702  36.167  1.00  0.00     0.173 A 
ATOM     87  C   UNL A   1      45.739  29.487  35.069  1.00  0.00     0.173 A 
ATOM     88  F   UNL A   1      43.436  27.138  36.622  1.00  0.00    -0.203 F 
ATOM     89  C   UNL A   1      45.777  27.051  36.394  1.00  0.00     0.198 A 
ATOM     90  C   UNL A   1      46.944  28.817  35.265  1.00  0.00     0.198 A 
ATOM     91  F   UNL A   1      45.759  30.666  34.427  1.00  0.00    -0.203 F 
ATOM     92  F   UNL A   1      45.798  25.893  37.069  1.00  0.00    -0.200 F 
ATOM     93  C   UNL A   1      46.963  27.604  35.935  1.00  0.00     0.200 A 
ATOM     94  F   UNL A   1      48.086  29.344  34.802  1.00  0.00    -0.200 F 
ATOM     95  F   UNL A   1      48.125  26.971  36.145  1.00  0.00    -0.200 F 
ENDBRANCH  62  85
ENDBRANCH  36  37
ENDBRANCH  29  31
ENDBRANCH  28  29
ENDBRANCH  27  28
ENDBRANCH  26  27
ENDBRANCH  25  26
ENDBRANCH  24  25
ENDBRANCH   1  24
TORSDOF 20
ENDMDL
