MODEL 1
REMARK VINA RESULT:     -11.0      0.000      0.000
REMARK SMILES Cc1cc(O[C@@H](C)C(=O)NCCC(=O)OCCOCCOCCOC(=O)c2ccc(-c3c4nc(c(-c5c(F)c(F)c(F)c(F)c5F)c5ccc([nH]5)c(-c5c(F)c(F)c(F)c(F)c5F)c5nc(c(-c6c(F)c(F)c(F)c(F)c6F)c6ccc3[nH]6)C=C5)C=C4)cc2)c2c3c(c(=O)oc2c1)CCCC3
REMARK SMILES IDX 18 1 17 2 16 3 15 4 13 5 14 6 12 7 11 8 10 9 8 10 9 11 6 13
REMARK SMILES IDX 7 14 5 15 4 16 1 17 2 18 3 19 97 20 96 21 90 22 95 23 91 24
REMARK SMILES IDX 93 25 92 26 101 27 94 28 98 29 100 30 99 31 19 32 20 33
REMARK SMILES IDX 21 34 22 35 23 36 24 37 25 38 26 39 27 40 28 41 89 42 29 43
REMARK SMILES IDX 88 44 30 45 31 46 32 47 82 48 33 49 87 50 81 51 83 52 34 53
REMARK SMILES IDX 86 54 80 55 79 56 35 58 67 59 47 60 66 61 48 62 51 63 65 64
REMARK SMILES IDX 84 65 49 66 50 67 64 69 85 70 52 71 36 72 37 73 45 74 38 75
REMARK SMILES IDX 39 76 43 77 46 78 40 79 41 80 44 81 42 82 68 83 69 84 77 85
REMARK SMILES IDX 70 86 71 87 75 88 78 89 72 90 73 91 76 92 74 93 53 94 54 95
REMARK SMILES IDX 62 96 55 97 56 98 60 99 63 100 57 101 58 102 61 103 59 104
REMARK H PARENT 10 12 83 57 51 68
REMARK Flexibility Score: inf
ROOT
ATOM      1  O   UNL A   1      32.876  27.943  27.302  1.00  0.00    -0.376 OA
ENDROOT
BRANCH   1   2
ATOM      2  C   UNL A   1      33.558  27.519  26.121  1.00  0.00     0.202 C 
BRANCH   2   3
ATOM      3  C   UNL A   1      33.196  26.123  25.594  1.00  0.00     0.261 C 
BRANCH   3   4
ATOM      4  O   UNL A   1      32.119  26.136  24.641  1.00  0.00    -0.463 OA
BRANCH   4   5
ATOM      5  C   UNL A   1      30.864  26.027  25.148  1.00  0.00     0.307 C 
ATOM      6  O   UNL A   1      29.851  26.461  24.612  1.00  0.00    -0.252 OA
BRANCH   5   7
ATOM      7  C   UNL A   1      30.801  25.200  26.414  1.00  0.00     0.144 C 
BRANCH   7   8
ATOM      8  C   UNL A   1      30.721  23.686  26.240  1.00  0.00     0.127 C 
BRANCH   8   9
ATOM      9  N   UNL A   1      30.576  23.292  24.860  1.00  0.00    -0.352 N 
ATOM     10  C   UNL A   1      31.479  22.857  23.945  1.00  0.00     0.260 C 
ATOM     11  O   UNL A   1      31.008  22.530  22.846  1.00  0.00    -0.271 OA
ATOM     12  H   UNL A   1      29.653  23.348  24.520  1.00  0.00     0.163 HD
BRANCH  10  13
ATOM     13  C   UNL A   1      33.002  22.660  24.217  1.00  0.00     0.258 C 
ATOM     14  C   UNL A   1      33.837  23.068  23.003  1.00  0.00     0.064 C 
BRANCH  13  15
ATOM     15  O   UNL A   1      33.530  21.638  25.052  1.00  0.00    -0.480 OA
BRANCH  15  16
ATOM     16  C   UNL A   1      34.050  20.435  24.696  1.00  0.00     0.132 A 
ATOM     17  C   UNL A   1      32.858  17.007  23.593  1.00  0.00     0.044 C 
ATOM     18  C   UNL A   1      33.770  18.107  24.021  1.00  0.00    -0.044 A 
ATOM     19  C   UNL A   1      33.286  19.415  24.125  1.00  0.00     0.050 A 
ATOM     20  C   UNL A   1      35.090  17.848  24.349  1.00  0.00     0.051 A 
ATOM     21  C   UNL A   1      35.902  18.903  24.758  1.00  0.00     0.142 A 
ATOM     22  C   UNL A   1      35.431  20.213  24.919  1.00  0.00     0.063 A 
ATOM     23  O   UNL A   1      37.232  18.539  25.012  1.00  0.00    -0.422 OA
ATOM     24  C   UNL A   1      36.445  21.247  25.259  1.00  0.00    -0.023 A 
ATOM     25  C   UNL A   1      38.192  19.480  25.314  1.00  0.00     0.339 A 
ATOM     26  C   UNL A   1      37.737  20.887  25.411  1.00  0.00     0.042 A 
ATOM     27  C   UNL A   1      36.042  22.705  25.324  1.00  0.00     0.037 C 
ATOM     28  O   UNL A   1      39.364  19.158  25.478  1.00  0.00    -0.246 OA
ATOM     29  C   UNL A   1      38.856  21.869  25.661  1.00  0.00     0.043 C 
ATOM     30  C   UNL A   1      37.205  23.693  25.214  1.00  0.00     0.005 C 
ATOM     31  C   UNL A   1      38.378  23.257  26.072  1.00  0.00     0.005 C 
ENDBRANCH  15  16
ENDBRANCH  13  15
ENDBRANCH  10  13
ENDBRANCH   8   9
ENDBRANCH   7   8
ENDBRANCH   5   7
ENDBRANCH   4   5
ENDBRANCH   3   4
ENDBRANCH   2   3
ENDBRANCH   1   2
BRANCH   1  32
ATOM     32  C   UNL A   1      31.815  28.882  27.140  1.00  0.00     0.188 C 
BRANCH  32  33
ATOM     33  C   UNL A   1      32.235  30.334  26.922  1.00  0.00     0.188 C 
BRANCH  33  34
ATOM     34  O   UNL A   1      33.381  30.728  27.660  1.00  0.00    -0.376 OA
BRANCH  34  35
ATOM     35  C   UNL A   1      33.768  32.100  27.588  1.00  0.00     0.202 C 
BRANCH  35  36
ATOM     36  C   UNL A   1      32.711  33.222  27.731  1.00  0.00     0.261 C 
BRANCH  36  37
ATOM     37  O   UNL A   1      33.187  34.582  27.768  1.00  0.00    -0.460 OA
BRANCH  37  38
ATOM     38  C   UNL A   1      33.277  35.192  28.971  1.00  0.00     0.338 C 
ATOM     39  O   UNL A   1      32.436  35.929  29.467  1.00  0.00    -0.246 OA
BRANCH  38  40
ATOM     40  C   UNL A   1      34.415  34.587  29.727  1.00  0.00     0.060 A 
ATOM     41  C   UNL A   1      34.282  34.046  31.010  1.00  0.00     0.016 A 
ATOM     42  C   UNL A   1      35.688  34.652  29.147  1.00  0.00     0.016 A 
ATOM     43  C   UNL A   1      35.414  33.569  31.692  1.00  0.00     0.010 A 
ATOM     44  C   UNL A   1      36.819  34.198  29.835  1.00  0.00     0.010 A 
ATOM     45  C   UNL A   1      36.695  33.639  31.112  1.00  0.00    -0.014 A 
BRANCH  45  46
ATOM     46  C   UNL A   1      37.857  32.932  31.720  1.00  0.00     0.031 A 
ATOM     47  C   UNL A   1      38.468  33.319  33.037  1.00  0.00     0.074 A 
ATOM     48  C   UNL A   1      38.420  31.939  31.005  1.00  0.00     0.049 A 
ATOM     49  N   UNL A   1      39.411  32.708  33.715  1.00  0.00    -0.248 NA
ATOM     50  C   UNL A   1      37.985  34.556  33.665  1.00  0.00     0.031 C 
ATOM     51  C   UNL A   1      37.991  31.532  29.667  1.00  0.00     0.029 A 
ATOM     52  N   UNL A   1      39.465  31.097  31.293  1.00  0.00    -0.354 N 
ATOM     53  C   UNL A   1      39.609  33.458  34.867  1.00  0.00     0.074 A 
ATOM     54  C   UNL A   1      38.735  34.611  34.762  1.00  0.00     0.031 C 
ATOM     55  C   UNL A   1      38.739  30.494  29.265  1.00  0.00     0.029 A 
ATOM     56  C   UNL A   1      39.703  30.166  30.312  1.00  0.00     0.049 A 
ATOM     57  H   UNL A   1      39.992  31.155  32.122  1.00  0.00     0.167 HD
ATOM     58  C   UNL A   1      40.423  33.192  35.921  1.00  0.00     0.037 A 
ATOM     59  C   UNL A   1      40.579  29.145  30.264  1.00  0.00     0.037 A 
ATOM     60  C   UNL A   1      41.313  32.057  36.007  1.00  0.00     0.049 A 
ATOM     61  C   UNL A   1      41.474  28.875  31.440  1.00  0.00     0.074 A 
ATOM     62  C   UNL A   1      42.120  31.671  37.066  1.00  0.00     0.029 A 
ATOM     63  N   UNL A   1      41.532  31.137  34.991  1.00  0.00    -0.354 N 
ATOM     64  N   UNL A   1      41.547  29.507  32.585  1.00  0.00    -0.248 NA
ATOM     65  C   UNL A   1      42.399  27.738  31.322  1.00  0.00     0.031 C 
ATOM     66  C   UNL A   1      42.867  30.555  36.672  1.00  0.00     0.029 A 
ATOM     67  C   UNL A   1      42.483  30.206  35.389  1.00  0.00     0.049 A 
ATOM     68  H   UNL A   1      41.080  31.143  34.117  1.00  0.00     0.167 HD
ATOM     69  C   UNL A   1      42.503  28.831  33.333  1.00  0.00     0.074 A 
ATOM     70  C   UNL A   1      42.968  27.728  32.519  1.00  0.00     0.031 C 
ATOM     71  C   UNL A   1      42.951  29.108  34.582  1.00  0.00     0.037 A 
BRANCH  58  72
ATOM     72  C   UNL A   1      40.370  34.111  37.112  1.00  0.00     0.064 A 
ATOM     73  C   UNL A   1      41.168  35.265  37.167  1.00  0.00     0.173 A 
ATOM     74  C   UNL A   1      39.425  33.924  38.134  1.00  0.00     0.173 A 
ATOM     75  F   UNL A   1      42.079  35.501  36.212  1.00  0.00    -0.203 F 
ATOM     76  C   UNL A   1      41.032  36.187  38.203  1.00  0.00     0.198 A 
ATOM     77  C   UNL A   1      39.271  34.862  39.153  1.00  0.00     0.198 A 
ATOM     78  F   UNL A   1      38.618  32.853  38.119  1.00  0.00    -0.203 F 
ATOM     79  F   UNL A   1      41.817  37.272  38.239  1.00  0.00    -0.200 F 
ATOM     80  C   UNL A   1      40.075  35.991  39.188  1.00  0.00     0.200 A 
ATOM     81  F   UNL A   1      38.326  34.686  40.087  1.00  0.00    -0.200 F 
ATOM     82  F   UNL A   1      39.924  36.895  40.166  1.00  0.00    -0.200 F 
ENDBRANCH  58  72
BRANCH  59  83
ATOM     83  C   UNL A   1      40.581  28.247  29.082  1.00  0.00     0.064 A 
ATOM     84  C   UNL A   1      39.795  27.086  29.069  1.00  0.00     0.173 A 
ATOM     85  C   UNL A   1      41.330  28.545  27.934  1.00  0.00     0.173 A 
ATOM     86  F   UNL A   1      39.072  26.754  30.148  1.00  0.00    -0.203 F 
ATOM     87  C   UNL A   1      39.768  26.250  27.956  1.00  0.00     0.198 A 
ATOM     88  C   UNL A   1      41.279  27.723  26.811  1.00  0.00     0.198 A 
ATOM     89  F   UNL A   1      42.086  29.651  27.894  1.00  0.00    -0.203 F 
ATOM     90  F   UNL A   1      39.035  25.128  27.982  1.00  0.00    -0.200 F 
ATOM     91  C   UNL A   1      40.503  26.573  26.825  1.00  0.00     0.200 A 
ATOM     92  F   UNL A   1      41.972  28.050  25.712  1.00  0.00    -0.200 F 
ATOM     93  F   UNL A   1      40.464  25.776  25.749  1.00  0.00    -0.200 F 
ENDBRANCH  59  83
BRANCH  71  94
ATOM     94  C   UNL A   1      43.997  28.198  35.166  1.00  0.00     0.064 A 
ATOM     95  C   UNL A   1      43.649  27.040  35.878  1.00  0.00     0.173 A 
ATOM     96  C   UNL A   1      45.362  28.454  34.960  1.00  0.00     0.173 A 
ATOM     97  F   UNL A   1      42.360  26.757  36.118  1.00  0.00    -0.203 F 
ATOM     98  C   UNL A   1      44.628  26.183  36.376  1.00  0.00     0.198 A 
ATOM     99  C   UNL A   1      46.336  27.577  35.432  1.00  0.00     0.198 A 
ATOM    100  F   UNL A   1      45.752  29.544  34.283  1.00  0.00    -0.203 F 
ATOM    101  F   UNL A   1      44.271  25.105  37.089  1.00  0.00    -0.200 F 
ATOM    102  C   UNL A   1      45.969  26.445  36.144  1.00  0.00     0.200 A 
ATOM    103  F   UNL A   1      47.632  27.826  35.194  1.00  0.00    -0.200 F 
ATOM    104  F   UNL A   1      46.908  25.611  36.611  1.00  0.00    -0.200 F 
ENDBRANCH  71  94
ENDBRANCH  45  46
ENDBRANCH  38  40
ENDBRANCH  37  38
ENDBRANCH  36  37
ENDBRANCH  35  36
ENDBRANCH  34  35
ENDBRANCH  33  34
ENDBRANCH  32  33
ENDBRANCH   1  32
TORSDOF 22
ENDMDL
MODEL 2
REMARK VINA RESULT:     -10.8      3.697      5.401
REMARK SMILES Cc1cc(O[C@@H](C)C(=O)NCCC(=O)OCCOCCOCCOC(=O)c2ccc(-c3c4nc(c(-c5c(F)c(F)c(F)c(F)c5F)c5ccc([nH]5)c(-c5c(F)c(F)c(F)c(F)c5F)c5nc(c(-c6c(F)c(F)c(F)c(F)c6F)c6ccc3[nH]6)C=C5)C=C4)cc2)c2c3c(c(=O)oc2c1)CCCC3
REMARK SMILES IDX 18 1 17 2 16 3 15 4 13 5 14 6 12 7 11 8 10 9 8 10 9 11 6 13
REMARK SMILES IDX 7 14 5 15 4 16 1 17 2 18 3 19 97 20 96 21 90 22 95 23 91 24
REMARK SMILES IDX 93 25 92 26 101 27 94 28 98 29 100 30 99 31 19 32 20 33
REMARK SMILES IDX 21 34 22 35 23 36 24 37 25 38 26 39 27 40 28 41 89 42 29 43
REMARK SMILES IDX 88 44 30 45 31 46 32 47 82 48 33 49 87 50 81 51 83 52 34 53
REMARK SMILES IDX 86 54 80 55 79 56 35 58 67 59 47 60 66 61 48 62 51 63 65 64
REMARK SMILES IDX 84 65 49 66 50 67 64 69 85 70 52 71 36 72 37 73 45 74 38 75
REMARK SMILES IDX 39 76 43 77 46 78 40 79 41 80 44 81 42 82 68 83 69 84 77 85
REMARK SMILES IDX 70 86 71 87 75 88 78 89 72 90 73 91 76 92 74 93 53 94 54 95
REMARK SMILES IDX 62 96 55 97 56 98 60 99 63 100 57 101 58 102 61 103 59 104
REMARK H PARENT 10 12 83 57 51 68
REMARK Flexibility Score: inf
ROOT
ATOM      1  O   UNL A   1      33.520  28.338  23.593  1.00  0.00    -0.376 OA
ENDROOT
BRANCH   1   2
ATOM      2  C   UNL A   1      33.791  27.030  23.089  1.00  0.00     0.202 C 
BRANCH   2   3
ATOM      3  C   UNL A   1      33.460  26.793  21.607  1.00  0.00     0.261 C 
BRANCH   3   4
ATOM      4  O   UNL A   1      32.350  25.901  21.408  1.00  0.00    -0.463 OA
BRANCH   4   5
ATOM      5  C   UNL A   1      31.413  25.874  22.391  1.00  0.00     0.307 C 
ATOM      6  O   UNL A   1      30.567  26.741  22.577  1.00  0.00    -0.252 OA
BRANCH   5   7
ATOM      7  C   UNL A   1      31.428  24.592  23.195  1.00  0.00     0.144 C 
BRANCH   7   8
ATOM      8  C   UNL A   1      31.316  24.732  24.710  1.00  0.00     0.127 C 
BRANCH   8   9
ATOM      9  N   UNL A   1      30.518  23.689  25.307  1.00  0.00    -0.352 N 
ATOM     10  C   UNL A   1      30.863  22.557  25.973  1.00  0.00     0.260 C 
ATOM     11  O   UNL A   1      29.917  21.897  26.426  1.00  0.00    -0.271 OA
ATOM     12  H   UNL A   1      29.547  23.822  25.216  1.00  0.00     0.163 HD
BRANCH  10  13
ATOM     13  C   UNL A   1      32.327  22.109  26.273  1.00  0.00     0.258 C 
ATOM     14  C   UNL A   1      32.821  22.686  27.599  1.00  0.00     0.064 C 
BRANCH  13  15
ATOM     15  O   UNL A   1      33.303  21.874  25.266  1.00  0.00    -0.480 OA
BRANCH  15  16
ATOM     16  C   UNL A   1      33.797  20.689  24.822  1.00  0.00     0.132 A 
ATOM     17  C   UNL A   1      32.530  17.338  23.578  1.00  0.00     0.044 C 
ATOM     18  C   UNL A   1      33.468  18.405  24.030  1.00  0.00    -0.044 A 
ATOM     19  C   UNL A   1      33.001  19.709  24.226  1.00  0.00     0.050 A 
ATOM     20  C   UNL A   1      34.797  18.119  24.289  1.00  0.00     0.051 A 
ATOM     21  C   UNL A   1      35.635  19.143  24.724  1.00  0.00     0.142 A 
ATOM     22  C   UNL A   1      35.184  20.445  24.977  1.00  0.00     0.063 A 
ATOM     23  O   UNL A   1      36.971  18.756  24.904  1.00  0.00    -0.422 OA
ATOM     24  C   UNL A   1      36.219  21.452  25.333  1.00  0.00    -0.023 A 
ATOM     25  C   UNL A   1      37.951  19.671  25.219  1.00  0.00     0.339 A 
ATOM     26  C   UNL A   1      37.514  21.074  25.412  1.00  0.00     0.042 A 
ATOM     27  C   UNL A   1      35.833  22.906  25.496  1.00  0.00     0.037 C 
ATOM     28  O   UNL A   1      39.126  19.333  25.317  1.00  0.00    -0.246 OA
ATOM     29  C   UNL A   1      38.650  22.032  25.672  1.00  0.00     0.043 C 
ATOM     30  C   UNL A   1      37.000  23.890  25.395  1.00  0.00     0.005 C 
ATOM     31  C   UNL A   1      38.203  23.398  26.178  1.00  0.00     0.005 C 
ENDBRANCH  15  16
ENDBRANCH  13  15
ENDBRANCH  10  13
ENDBRANCH   8   9
ENDBRANCH   7   8
ENDBRANCH   5   7
ENDBRANCH   4   5
ENDBRANCH   3   4
ENDBRANCH   2   3
ENDBRANCH   1   2
BRANCH   1  32
ATOM     32  C   UNL A   1      32.782  28.427  24.810  1.00  0.00     0.188 C 
BRANCH  32  33
ATOM     33  C   UNL A   1      31.948  29.693  24.995  1.00  0.00     0.188 C 
BRANCH  33  34
ATOM     34  O   UNL A   1      31.609  29.977  26.342  1.00  0.00    -0.376 OA
BRANCH  34  35
ATOM     35  C   UNL A   1      32.130  31.179  26.910  1.00  0.00     0.202 C 
BRANCH  35  36
ATOM     36  C   UNL A   1      33.655  31.447  26.916  1.00  0.00     0.261 C 
BRANCH  36  37
ATOM     37  O   UNL A   1      34.405  30.988  28.059  1.00  0.00    -0.460 OA
BRANCH  37  38
ATOM     38  C   UNL A   1      34.679  29.668  28.152  1.00  0.00     0.338 C 
ATOM     39  O   UNL A   1      33.946  28.756  27.794  1.00  0.00    -0.246 OA
BRANCH  38  40
ATOM     40  C   UNL A   1      36.129  29.503  28.471  1.00  0.00     0.060 A 
ATOM     41  C   UNL A   1      36.607  29.266  29.763  1.00  0.00     0.016 A 
ATOM     42  C   UNL A   1      37.047  29.685  27.429  1.00  0.00     0.016 A 
ATOM     43  C   UNL A   1      37.992  29.203  29.999  1.00  0.00     0.010 A 
ATOM     44  C   UNL A   1      38.426  29.645  27.668  1.00  0.00     0.010 A 
ATOM     45  C   UNL A   1      38.916  29.391  28.954  1.00  0.00    -0.014 A 
BRANCH  45  46
ATOM     46  C   UNL A   1      40.365  29.099  29.143  1.00  0.00     0.031 A 
ATOM     47  C   UNL A   1      41.322  30.045  29.811  1.00  0.00     0.074 A 
ATOM     48  C   UNL A   1      40.837  27.951  28.621  1.00  0.00     0.049 A 
ATOM     49  N   UNL A   1      42.581  29.850  30.128  1.00  0.00    -0.248 NA
ATOM     50  C   UNL A   1      40.822  31.385  30.144  1.00  0.00     0.031 C 
ATOM     51  C   UNL A   1      40.037  26.993  27.858  1.00  0.00     0.029 A 
ATOM     52  N   UNL A   1      42.091  27.394  28.647  1.00  0.00    -0.354 N 
ATOM     53  C   UNL A   1      43.015  31.022  30.734  1.00  0.00     0.074 A 
ATOM     54  C   UNL A   1      41.902  31.951  30.676  1.00  0.00     0.031 C 
ATOM     55  C   UNL A   1      40.807  25.949  27.521  1.00  0.00     0.029 A 
ATOM     56  C   UNL A   1      42.157  26.165  28.037  1.00  0.00     0.049 A 
ATOM     57  H   UNL A   1      42.869  27.833  29.062  1.00  0.00     0.167 HD
ATOM     58  C   UNL A   1      44.218  31.284  31.306  1.00  0.00     0.037 A 
ATOM     59  C   UNL A   1      43.175  25.293  27.926  1.00  0.00     0.037 A 
ATOM     60  C   UNL A   1      45.332  30.365  31.335  1.00  0.00     0.049 A 
ATOM     61  C   UNL A   1      44.500  25.609  28.562  1.00  0.00     0.074 A 
ATOM     62  C   UNL A   1      46.563  30.520  31.954  1.00  0.00     0.029 A 
ATOM     63  N   UNL A   1      45.365  29.130  30.703  1.00  0.00    -0.354 N 
ATOM     64  N   UNL A   1      44.852  26.660  29.259  1.00  0.00    -0.248 NA
ATOM     65  C   UNL A   1      45.565  24.607  28.408  1.00  0.00     0.031 C 
ATOM     66  C   UNL A   1      47.356  29.409  31.651  1.00  0.00     0.029 A 
ATOM     67  C   UNL A   1      46.602  28.530  30.892  1.00  0.00     0.049 A 
ATOM     68  H   UNL A   1      44.619  28.737  30.195  1.00  0.00     0.167 HD
ATOM     69  C   UNL A   1      46.166  26.436  29.649  1.00  0.00     0.074 A 
ATOM     70  C   UNL A   1      46.542  25.139  29.128  1.00  0.00     0.031 C 
ATOM     71  C   UNL A   1      46.982  27.240  30.373  1.00  0.00     0.037 A 
BRANCH  58  72
ATOM     72  C   UNL A   1      44.402  32.605  32.005  1.00  0.00     0.064 A 
ATOM     73  C   UNL A   1      44.151  32.733  33.379  1.00  0.00     0.173 A 
ATOM     74  C   UNL A   1      44.963  33.708  31.339  1.00  0.00     0.173 A 
ATOM     75  F   UNL A   1      43.627  31.708  34.068  1.00  0.00    -0.203 F 
ATOM     76  C   UNL A   1      44.441  33.916  34.058  1.00  0.00     0.198 A 
ATOM     77  C   UNL A   1      45.279  34.879  32.026  1.00  0.00     0.198 A 
ATOM     78  F   UNL A   1      45.247  33.634  30.030  1.00  0.00    -0.203 F 
ATOM     79  F   UNL A   1      44.177  34.015  35.368  1.00  0.00    -0.200 F 
ATOM     80  C   UNL A   1      45.015  34.982  33.383  1.00  0.00     0.200 A 
ATOM     81  F   UNL A   1      45.860  35.898  31.379  1.00  0.00    -0.200 F 
ATOM     82  F   UNL A   1      45.323  36.107  34.044  1.00  0.00    -0.200 F 
ENDBRANCH  58  72
BRANCH  59  83
ATOM     83  C   UNL A   1      42.945  23.991  27.251  1.00  0.00     0.064 A 
ATOM     84  C   UNL A   1      43.371  23.787  25.932  1.00  0.00     0.173 A 
ATOM     85  C   UNL A   1      42.335  22.918  27.917  1.00  0.00     0.173 A 
ATOM     86  F   UNL A   1      43.948  24.788  25.252  1.00  0.00    -0.203 F 
ATOM     87  C   UNL A   1      43.185  22.562  25.297  1.00  0.00     0.198 A 
ATOM     88  C   UNL A   1      42.176  21.683  27.291  1.00  0.00     0.198 A 
ATOM     89  F   UNL A   1      41.922  23.060  29.184  1.00  0.00    -0.203 F 
ATOM     90  F   UNL A   1      43.571  22.404  24.024  1.00  0.00    -0.200 F 
ATOM     91  C   UNL A   1      42.595  21.508  25.980  1.00  0.00     0.200 A 
ATOM     92  F   UNL A   1      41.626  20.661  27.960  1.00  0.00    -0.200 F 
ATOM     93  F   UNL A   1      42.430  20.325  25.375  1.00  0.00    -0.200 F 
ENDBRANCH  59  83
BRANCH  71  94
ATOM     94  C   UNL A   1      48.373  26.744  30.664  1.00  0.00     0.064 A 
ATOM     95  C   UNL A   1      49.465  27.108  29.863  1.00  0.00     0.173 A 
ATOM     96  C   UNL A   1      48.625  25.945  31.791  1.00  0.00     0.173 A 
ATOM     97  F   UNL A   1      49.278  27.857  28.765  1.00  0.00    -0.203 F 
ATOM     98  C   UNL A   1      50.754  26.678  30.169  1.00  0.00     0.198 A 
ATOM     99  C   UNL A   1      49.920  25.543  32.111  1.00  0.00     0.198 A 
ATOM    100  F   UNL A   1      47.619  25.571  32.594  1.00  0.00    -0.203 F 
ATOM    101  F   UNL A   1      51.775  27.005  29.364  1.00  0.00    -0.200 F 
ATOM    102  C   UNL A   1      50.982  25.906  31.297  1.00  0.00     0.200 A 
ATOM    103  F   UNL A   1      50.140  24.809  33.211  1.00  0.00    -0.200 F 
ATOM    104  F   UNL A   1      52.226  25.505  31.597  1.00  0.00    -0.200 F 
ENDBRANCH  71  94
ENDBRANCH  45  46
ENDBRANCH  38  40
ENDBRANCH  37  38
ENDBRANCH  36  37
ENDBRANCH  35  36
ENDBRANCH  34  35
ENDBRANCH  33  34
ENDBRANCH  32  33
ENDBRANCH   1  32
TORSDOF 22
ENDMDL
MODEL 3
REMARK VINA RESULT:     -10.6      4.200     10.680
REMARK SMILES Cc1cc(O[C@@H](C)C(=O)NCCC(=O)OCCOCCOCCOC(=O)c2ccc(-c3c4nc(c(-c5c(F)c(F)c(F)c(F)c5F)c5ccc([nH]5)c(-c5c(F)c(F)c(F)c(F)c5F)c5nc(c(-c6c(F)c(F)c(F)c(F)c6F)c6ccc3[nH]6)C=C5)C=C4)cc2)c2c3c(c(=O)oc2c1)CCCC3
REMARK SMILES IDX 18 1 17 2 16 3 15 4 13 5 14 6 12 7 11 8 10 9 8 10 9 11 6 13
REMARK SMILES IDX 7 14 5 15 4 16 1 17 2 18 3 19 97 20 96 21 90 22 95 23 91 24
REMARK SMILES IDX 93 25 92 26 101 27 94 28 98 29 100 30 99 31 19 32 20 33
REMARK SMILES IDX 21 34 22 35 23 36 24 37 25 38 26 39 27 40 28 41 89 42 29 43
REMARK SMILES IDX 88 44 30 45 31 46 32 47 82 48 33 49 87 50 81 51 83 52 34 53
REMARK SMILES IDX 86 54 80 55 79 56 35 58 67 59 47 60 66 61 48 62 51 63 65 64
REMARK SMILES IDX 84 65 49 66 50 67 64 69 85 70 52 71 36 72 37 73 45 74 38 75
REMARK SMILES IDX 39 76 43 77 46 78 40 79 41 80 44 81 42 82 68 83 69 84 77 85
REMARK SMILES IDX 70 86 71 87 75 88 78 89 72 90 73 91 76 92 74 93 53 94 54 95
REMARK SMILES IDX 62 96 55 97 56 98 60 99 63 100 57 101 58 102 61 103 59 104
REMARK H PARENT 10 12 83 57 51 68
REMARK Flexibility Score: inf
ROOT
ATOM      1  O   UNL A   1      42.235  20.157  25.438  1.00  0.00    -0.376 OA
ENDROOT
BRANCH   1   2
ATOM      2  C   UNL A   1      41.309  20.192  26.524  1.00  0.00     0.202 C 
BRANCH   2   3
ATOM      3  C   UNL A   1      40.421  21.441  26.618  1.00  0.00     0.261 C 
BRANCH   3   4
ATOM      4  O   UNL A   1      41.122  22.661  26.322  1.00  0.00    -0.463 OA
BRANCH   4   5
ATOM      5  C   UNL A   1      41.066  23.634  27.268  1.00  0.00     0.307 C 
ATOM      6  O   UNL A   1      42.038  24.214  27.737  1.00  0.00    -0.252 OA
BRANCH   5   7
ATOM      7  C   UNL A   1      39.652  24.036  27.628  1.00  0.00     0.144 C 
BRANCH   7   8
ATOM      8  C   UNL A   1      39.325  25.525  27.563  1.00  0.00     0.127 C 
BRANCH   8   9
ATOM      9  N   UNL A   1      39.883  26.265  28.669  1.00  0.00    -0.352 N 
ATOM     10  C   UNL A   1      39.703  27.545  29.082  1.00  0.00     0.260 C 
ATOM     11  O   UNL A   1      40.290  27.855  30.128  1.00  0.00    -0.271 OA
ATOM     12  H   UNL A   1      40.508  25.746  29.226  1.00  0.00     0.163 HD
BRANCH  10  13
ATOM     13  C   UNL A   1      38.759  28.580  28.394  1.00  0.00     0.258 C 
ATOM     14  C   UNL A   1      39.416  29.190  27.156  1.00  0.00     0.064 C 
BRANCH  13  15
ATOM     15  O   UNL A   1      37.830  29.392  29.100  1.00  0.00    -0.480 OA
BRANCH  15  16
ATOM     16  C   UNL A   1      37.775  30.747  29.180  1.00  0.00     0.132 A 
ATOM     17  C   UNL A   1      39.835  33.627  30.541  1.00  0.00     0.044 C 
ATOM     18  C   UNL A   1      38.703  32.878  29.922  1.00  0.00    -0.044 A 
ATOM     19  C   UNL A   1      38.858  31.529  29.586  1.00  0.00     0.050 A 
ATOM     20  C   UNL A   1      37.483  33.492  29.701  1.00  0.00     0.051 A 
ATOM     21  C   UNL A   1      36.448  32.751  29.135  1.00  0.00     0.142 A 
ATOM     22  C   UNL A   1      36.560  31.387  28.835  1.00  0.00     0.063 A 
ATOM     23  O   UNL A   1      35.275  33.484  28.904  1.00  0.00    -0.422 OA
ATOM     24  C   UNL A   1      35.405  30.762  28.135  1.00  0.00    -0.023 A 
ATOM     25  C   UNL A   1      34.198  32.933  28.245  1.00  0.00     0.339 A 
ATOM     26  C   UNL A   1      34.320  31.512  27.843  1.00  0.00     0.042 A 
ATOM     27  C   UNL A   1      35.496  29.328  27.662  1.00  0.00     0.037 C 
ATOM     28  O   UNL A   1      33.199  33.600  27.997  1.00  0.00    -0.246 OA
ATOM     29  C   UNL A   1      33.138  31.002  27.055  1.00  0.00     0.043 C 
ATOM     30  C   UNL A   1      34.483  28.948  26.580  1.00  0.00     0.005 C 
ATOM     31  C   UNL A   1      33.103  29.486  26.908  1.00  0.00     0.005 C 
ENDBRANCH  15  16
ENDBRANCH  13  15
ENDBRANCH  10  13
ENDBRANCH   8   9
ENDBRANCH   7   8
ENDBRANCH   5   7
ENDBRANCH   4   5
ENDBRANCH   3   4
ENDBRANCH   2   3
ENDBRANCH   1   2
BRANCH   1  32
ATOM     32  C   UNL A   1      43.619  20.277  25.758  1.00  0.00     0.188 C 
BRANCH  32  33
ATOM     33  C   UNL A   1      44.588  20.183  24.581  1.00  0.00     0.188 C 
BRANCH  33  34
ATOM     34  O   UNL A   1      44.538  21.289  23.694  1.00  0.00    -0.376 OA
BRANCH  34  35
ATOM     35  C   UNL A   1      44.234  22.566  24.256  1.00  0.00     0.202 C 
BRANCH  35  36
ATOM     36  C   UNL A   1      45.369  23.543  24.646  1.00  0.00     0.261 C 
BRANCH  36  37
ATOM     37  O   UNL A   1      45.065  24.952  24.639  1.00  0.00    -0.460 OA
BRANCH  37  38
ATOM     38  C   UNL A   1      46.047  25.817  24.975  1.00  0.00     0.338 C 
ATOM     39  O   UNL A   1      47.100  25.977  24.372  1.00  0.00    -0.246 OA
BRANCH  38  40
ATOM     40  C   UNL A   1      45.521  26.759  26.008  1.00  0.00     0.060 A 
ATOM     41  C   UNL A   1      44.178  27.139  26.087  1.00  0.00     0.016 A 
ATOM     42  C   UNL A   1      46.446  27.350  26.878  1.00  0.00     0.016 A 
ATOM     43  C   UNL A   1      43.772  28.093  27.036  1.00  0.00     0.010 A 
ATOM     44  C   UNL A   1      46.046  28.317  27.808  1.00  0.00     0.010 A 
ATOM     45  C   UNL A   1      44.701  28.692  27.907  1.00  0.00    -0.014 A 
BRANCH  45  46
ATOM     46  C   UNL A   1      44.254  29.522  29.061  1.00  0.00     0.031 A 
ATOM     47  C   UNL A   1      43.891  28.952  30.402  1.00  0.00     0.074 A 
ATOM     48  C   UNL A   1      44.108  30.845  28.851  1.00  0.00     0.049 A 
ATOM     49  N   UNL A   1      43.594  29.589  31.511  1.00  0.00    -0.248 NA
ATOM     50  C   UNL A   1      43.825  27.489  30.516  1.00  0.00     0.031 C 
ATOM     51  C   UNL A   1      44.326  31.512  27.568  1.00  0.00     0.029 A 
ATOM     52  N   UNL A   1      43.744  31.860  29.699  1.00  0.00    -0.354 N 
ATOM     53  C   UNL A   1      43.346  28.610  32.466  1.00  0.00     0.074 A 
ATOM     54  C   UNL A   1      43.460  27.335  31.785  1.00  0.00     0.031 C 
ATOM     55  C   UNL A   1      44.130  32.830  27.721  1.00  0.00     0.029 A 
ATOM     56  C   UNL A   1      43.766  33.100  29.109  1.00  0.00     0.049 A 
ATOM     57  H   UNL A   1      43.491  31.714  30.640  1.00  0.00     0.167 HD
ATOM     58  C   UNL A   1      43.078  28.767  33.788  1.00  0.00     0.037 A 
ATOM     59  C   UNL A   1      43.546  34.323  29.627  1.00  0.00     0.037 A 
ATOM     60  C   UNL A   1      42.938  30.042  34.453  1.00  0.00     0.049 A 
ATOM     61  C   UNL A   1      43.244  34.469  31.091  1.00  0.00     0.074 A 
ATOM     62  C   UNL A   1      42.737  30.294  35.802  1.00  0.00     0.029 A 
ATOM     63  N   UNL A   1      42.962  31.278  33.823  1.00  0.00    -0.354 N 
ATOM     64  N   UNL A   1      43.158  33.544  32.014  1.00  0.00    -0.248 NA
ATOM     65  C   UNL A   1      43.024  35.835  31.590  1.00  0.00     0.031 C 
ATOM     66  C   UNL A   1      42.583  31.673  35.978  1.00  0.00     0.029 A 
ATOM     67  C   UNL A   1      42.749  32.289  34.750  1.00  0.00     0.049 A 
ATOM     68  H   UNL A   1      43.109  31.417  32.860  1.00  0.00     0.167 HD
ATOM     69  C   UNL A   1      42.900  34.214  33.203  1.00  0.00     0.074 A 
ATOM     70  C   UNL A   1      42.865  35.626  32.889  1.00  0.00     0.031 C 
ATOM     71  C   UNL A   1      42.710  33.697  34.441  1.00  0.00     0.037 A 
BRANCH  58  72
ATOM     72  C   UNL A   1      42.961  27.533  34.642  1.00  0.00     0.064 A 
ATOM     73  C   UNL A   1      44.032  27.109  35.444  1.00  0.00     0.173 A 
ATOM     74  C   UNL A   1      41.740  26.850  34.771  1.00  0.00     0.173 A 
ATOM     75  F   UNL A   1      45.217  27.732  35.370  1.00  0.00    -0.203 F 
ATOM     76  C   UNL A   1      43.890  26.045  36.333  1.00  0.00     0.198 A 
ATOM     77  C   UNL A   1      41.593  25.805  35.682  1.00  0.00     0.198 A 
ATOM     78  F   UNL A   1      40.676  27.228  34.048  1.00  0.00    -0.203 F 
ATOM     79  F   UNL A   1      44.933  25.652  37.077  1.00  0.00    -0.200 F 
ATOM     80  C   UNL A   1      42.668  25.403  36.459  1.00  0.00     0.200 A 
ATOM     81  F   UNL A   1      40.404  25.205  35.824  1.00  0.00    -0.200 F 
ATOM     82  F   UNL A   1      42.524  24.400  37.338  1.00  0.00    -0.200 F 
ENDBRANCH  58  72
BRANCH  59  83
ATOM     83  C   UNL A   1      43.696  35.516  28.756  1.00  0.00     0.064 A 
ATOM     84  C   UNL A   1      42.575  36.102  28.153  1.00  0.00     0.173 A 
ATOM     85  C   UNL A   1      44.945  36.116  28.541  1.00  0.00     0.173 A 
ATOM     86  F   UNL A   1      41.362  35.557  28.320  1.00  0.00    -0.203 F 
ATOM     87  C   UNL A   1      42.699  37.237  27.356  1.00  0.00     0.198 A 
ATOM     88  C   UNL A   1      45.064  37.269  27.768  1.00  0.00     0.198 A 
ATOM     89  F   UNL A   1      46.045  35.600  29.108  1.00  0.00    -0.203 F 
ATOM     90  F   UNL A   1      41.616  37.758  26.763  1.00  0.00    -0.200 F 
ATOM     91  C   UNL A   1      43.942  37.824  27.171  1.00  0.00     0.200 A 
ATOM     92  F   UNL A   1      46.262  37.846  27.610  1.00  0.00    -0.200 F 
ATOM     93  F   UNL A   1      44.059  38.926  26.417  1.00  0.00    -0.200 F 
ENDBRANCH  59  83
BRANCH  71  94
ATOM     94  C   UNL A   1      42.455  34.660  35.569  1.00  0.00     0.064 A 
ATOM     95  C   UNL A   1      43.507  35.219  36.309  1.00  0.00     0.173 A 
ATOM     96  C   UNL A   1      41.148  35.074  35.872  1.00  0.00     0.173 A 
ATOM     97  F   UNL A   1      44.773  34.846  36.071  1.00  0.00    -0.203 F 
ATOM     98  C   UNL A   1      43.259  36.144  37.322  1.00  0.00     0.198 A 
ATOM     99  C   UNL A   1      40.907  36.022  36.864  1.00  0.00     0.198 A 
ATOM    100  F   UNL A   1      40.105  34.575  35.194  1.00  0.00    -0.203 F 
ATOM    101  F   UNL A   1      44.278  36.632  38.043  1.00  0.00    -0.200 F 
ATOM    102  C   UNL A   1      41.962  36.552  37.591  1.00  0.00     0.200 A 
ATOM    103  F   UNL A   1      39.654  36.427  37.113  1.00  0.00    -0.200 F 
ATOM    104  F   UNL A   1      41.728  37.453  38.556  1.00  0.00    -0.200 F 
ENDBRANCH  71  94
ENDBRANCH  45  46
ENDBRANCH  38  40
ENDBRANCH  37  38
ENDBRANCH  36  37
ENDBRANCH  35  36
ENDBRANCH  34  35
ENDBRANCH  33  34
ENDBRANCH  32  33
ENDBRANCH   1  32
TORSDOF 22
ENDMDL
