MODEL 1
REMARK VINA RESULT:      -9.3      0.000      0.000
REMARK SMILES CC[C@@H](C(=O)OCCOCCOCCOC(=O)c1ccc(-c2c3nc(c(-c4c(F)c(F)c(F)c(F)c4F)c4ccc([nH]4)c(-c4c(F)c(F)c(F)c(F)c4F)c4nc(c(-c5c(F)c(F)c(F)c(F)c5F)c5ccc2[nH]5)C=C4)C=C3)cc1)c1cc(Br)ccc1F
REMARK SMILES IDX 11 1 10 2 9 3 8 4 7 5 6 6 4 7 5 8 3 9 2 10 1 11 81 12 82 13
REMARK SMILES IDX 87 14 83 15 86 16 88 17 84 18 85 19 12 20 13 21 14 22 15 23
REMARK SMILES IDX 16 24 17 25 18 26 19 27 80 28 20 29 79 30 21 31 22 32 23 33
REMARK SMILES IDX 73 34 24 35 78 36 72 37 74 38 25 39 77 40 71 41 70 42 26 44
REMARK SMILES IDX 58 45 38 46 57 47 39 48 42 49 56 50 75 51 40 52 41 53 55 55
REMARK SMILES IDX 76 56 43 57 27 58 28 59 36 60 29 61 30 62 34 63 37 64 31 65
REMARK SMILES IDX 32 66 35 67 33 68 59 69 60 70 68 71 61 72 62 73 66 74 69 75
REMARK SMILES IDX 63 76 64 77 67 78 65 79 44 80 45 81 53 82 46 83 47 84 51 85
REMARK SMILES IDX 54 86 48 87 49 88 52 89 50 90
REMARK H PARENT 74 43 42 54
REMARK Flexibility Score: inf
ROOT
ATOM      1  C   UNL A   1      42.215  19.139  26.244  1.00  0.00     0.188 C 
ENDROOT
BRANCH   1   2
ATOM      2  C   UNL A   1      43.335  18.089  26.175  1.00  0.00     0.188 C 
BRANCH   2   3
ATOM      3  O   UNL A   1      44.561  18.409  25.540  1.00  0.00    -0.376 OA
BRANCH   3   4
ATOM      4  C   UNL A   1      44.516  19.082  24.287  1.00  0.00     0.202 C 
BRANCH   4   5
ATOM      5  C   UNL A   1      44.947  20.554  24.229  1.00  0.00     0.261 C 
BRANCH   5   6
ATOM      6  O   UNL A   1      44.786  21.219  25.495  1.00  0.00    -0.463 OA
BRANCH   6   7
ATOM      7  C   UNL A   1      43.960  22.296  25.508  1.00  0.00     0.313 C 
ATOM      8  O   UNL A   1      43.107  22.506  24.650  1.00  0.00    -0.252 OA
BRANCH   7   9
ATOM      9  C   UNL A   1      44.140  23.204  26.737  1.00  0.00     0.132 C 
BRANCH   9  10
ATOM     10  C   UNL A   1      42.865  23.699  27.473  1.00  0.00     0.017 C 
ATOM     11  C   UNL A   1      42.653  23.248  28.909  1.00  0.00     0.005 C 
ENDBRANCH   9  10
BRANCH   9  12
ATOM     12  C   UNL A   1      45.127  24.371  26.545  1.00  0.00     0.003 A 
ATOM     13  C   UNL A   1      46.408  24.291  27.136  1.00  0.00     0.023 A 
ATOM     14  C   UNL A   1      44.848  25.525  25.802  1.00  0.00     0.127 A 
ATOM     15  C   UNL A   1      47.335  25.332  27.014  1.00  0.00     0.018 A 
ATOM     16  C   UNL A   1      45.778  26.561  25.669  1.00  0.00     0.041 A 
ATOM     17  F   UNL A   1      43.669  25.684  25.190  1.00  0.00    -0.207 F 
ATOM     18  Br  UNL A   1      49.023  25.184  27.850  1.00  0.00    -0.051 Br
ATOM     19  C   UNL A   1      47.023  26.472  26.284  1.00  0.00     0.019 A 
ENDBRANCH   9  12
ENDBRANCH   7   9
ENDBRANCH   6   7
ENDBRANCH   5   6
ENDBRANCH   4   5
ENDBRANCH   3   4
ENDBRANCH   2   3
ENDBRANCH   1   2
BRANCH   1  20
ATOM     20  O   UNL A   1      40.922  18.886  25.755  1.00  0.00    -0.376 OA
BRANCH  20  21
ATOM     21  C   UNL A   1      39.922  19.885  25.768  1.00  0.00     0.202 C 
BRANCH  21  22
ATOM     22  C   UNL A   1      40.011  21.188  26.581  1.00  0.00     0.261 C 
BRANCH  22  23
ATOM     23  O   UNL A   1      39.955  22.420  25.860  1.00  0.00    -0.460 OA
BRANCH  23  24
ATOM     24  C   UNL A   1      38.890  23.214  26.130  1.00  0.00     0.338 C 
ATOM     25  O   UNL A   1      37.706  22.932  26.041  1.00  0.00    -0.246 OA
BRANCH  24  26
ATOM     26  C   UNL A   1      39.401  24.450  26.753  1.00  0.00     0.060 A 
ATOM     27  C   UNL A   1      39.160  24.678  28.115  1.00  0.00     0.016 A 
ATOM     28  C   UNL A   1      40.138  25.361  25.997  1.00  0.00     0.016 A 
ATOM     29  C   UNL A   1      39.671  25.821  28.731  1.00  0.00     0.010 A 
ATOM     30  C   UNL A   1      40.620  26.518  26.607  1.00  0.00     0.010 A 
ATOM     31  C   UNL A   1      40.382  26.759  27.972  1.00  0.00    -0.014 A 
BRANCH  31  32
ATOM     32  C   UNL A   1      40.766  28.065  28.550  1.00  0.00     0.031 A 
ATOM     33  C   UNL A   1      42.197  28.286  28.939  1.00  0.00     0.074 A 
ATOM     34  C   UNL A   1      39.849  29.024  28.763  1.00  0.00     0.049 A 
ATOM     35  N   UNL A   1      42.736  29.279  29.598  1.00  0.00    -0.248 NA
ATOM     36  C   UNL A   1      43.146  27.237  28.539  1.00  0.00     0.031 C 
ATOM     37  C   UNL A   1      38.441  28.943  28.387  1.00  0.00     0.029 A 
ATOM     38  N   UNL A   1      39.969  30.250  29.368  1.00  0.00    -0.354 N 
ATOM     39  C   UNL A   1      44.084  28.967  29.705  1.00  0.00     0.074 A 
ATOM     40  C   UNL A   1      44.278  27.687  29.057  1.00  0.00     0.031 C 
ATOM     41  C   UNL A   1      37.823  30.072  28.774  1.00  0.00     0.029 A 
ATOM     42  C   UNL A   1      38.780  30.928  29.475  1.00  0.00     0.049 A 
ATOM     43  H   UNL A   1      40.826  30.610  29.693  1.00  0.00     0.167 HD
ATOM     44  C   UNL A   1      45.069  29.683  30.297  1.00  0.00     0.037 A 
ATOM     45  C   UNL A   1      38.495  32.085  30.104  1.00  0.00     0.037 A 
ATOM     46  C   UNL A   1      44.866  30.945  30.958  1.00  0.00     0.049 A 
ATOM     47  C   UNL A   1      39.588  32.811  30.849  1.00  0.00     0.074 A 
ATOM     48  C   UNL A   1      45.798  31.750  31.588  1.00  0.00     0.029 A 
ATOM     49  N   UNL A   1      43.638  31.579  31.086  1.00  0.00    -0.354 N 
ATOM     50  N   UNL A   1      40.863  32.518  30.946  1.00  0.00    -0.248 NA
ATOM     51  C   UNL A   1      39.196  34.018  31.592  1.00  0.00     0.031 C 
ATOM     52  C   UNL A   1      45.127  32.842  32.146  1.00  0.00     0.029 A 
ATOM     53  C   UNL A   1      43.785  32.749  31.815  1.00  0.00     0.049 A 
ATOM     54  H   UNL A   1      42.789  31.248  30.715  1.00  0.00     0.167 HD
ATOM     55  C   UNL A   1      41.426  33.513  31.738  1.00  0.00     0.074 A 
ATOM     56  C   UNL A   1      40.358  34.426  32.083  1.00  0.00     0.031 C 
ATOM     57  C   UNL A   1      42.712  33.654  32.145  1.00  0.00     0.037 A 
BRANCH  44  58
ATOM     58  C   UNL A   1      46.445  29.089  30.293  1.00  0.00     0.064 A 
ATOM     59  C   UNL A   1      47.315  29.247  29.203  1.00  0.00     0.173 A 
ATOM     60  C   UNL A   1      46.905  28.358  31.399  1.00  0.00     0.173 A 
ATOM     61  F   UNL A   1      46.916  29.923  28.114  1.00  0.00    -0.203 F 
ATOM     62  C   UNL A   1      48.580  28.667  29.208  1.00  0.00     0.198 A 
ATOM     63  C   UNL A   1      48.182  27.806  31.413  1.00  0.00     0.198 A 
ATOM     64  F   UNL A   1      46.114  28.179  32.467  1.00  0.00    -0.203 F 
ATOM     65  F   UNL A   1      49.373  28.783  28.133  1.00  0.00    -0.200 F 
ATOM     66  C   UNL A   1      49.015  27.953  30.314  1.00  0.00     0.200 A 
ATOM     67  F   UNL A   1      48.605  27.126  32.488  1.00  0.00    -0.200 F 
ATOM     68  F   UNL A   1      50.234  27.396  30.317  1.00  0.00    -0.200 F 
ENDBRANCH  44  58
BRANCH  45  69
ATOM     69  C   UNL A   1      37.110  32.624  30.087  1.00  0.00     0.064 A 
ATOM     70  C   UNL A   1      36.671  33.438  29.033  1.00  0.00     0.173 A 
ATOM     71  C   UNL A   1      36.206  32.364  31.128  1.00  0.00     0.173 A 
ATOM     72  F   UNL A   1      37.507  33.741  28.030  1.00  0.00    -0.203 F 
ATOM     73  C   UNL A   1      35.388  33.981  29.028  1.00  0.00     0.198 A 
ATOM     74  C   UNL A   1      34.913  32.883  31.107  1.00  0.00     0.198 A 
ATOM     75  F   UNL A   1      36.578  31.599  32.165  1.00  0.00    -0.203 F 
ATOM     76  F   UNL A   1      35.012  34.795  28.032  1.00  0.00    -0.200 F 
ATOM     77  C   UNL A   1      34.507  33.698  30.061  1.00  0.00     0.200 A 
ATOM     78  F   UNL A   1      34.064  32.599  32.103  1.00  0.00    -0.200 F 
ATOM     79  F   UNL A   1      33.272  34.218  30.054  1.00  0.00    -0.200 F 
ENDBRANCH  45  69
BRANCH  57  80
ATOM     80  C   UNL A   1      43.049  34.853  32.986  1.00  0.00     0.064 A 
ATOM     81  C   UNL A   1      43.405  36.081  32.409  1.00  0.00     0.173 A 
ATOM     82  C   UNL A   1      42.950  34.790  34.384  1.00  0.00     0.173 A 
ATOM     83  F   UNL A   1      43.529  36.190  31.076  1.00  0.00    -0.203 F 
ATOM     84  C   UNL A   1      43.664  37.196  33.201  1.00  0.00     0.198 A 
ATOM     85  C   UNL A   1      43.181  35.914  35.171  1.00  0.00     0.198 A 
ATOM     86  F   UNL A   1      42.607  33.641  34.986  1.00  0.00    -0.203 F 
ATOM     87  F   UNL A   1      44.039  38.349  32.629  1.00  0.00    -0.200 F 
ATOM     88  C   UNL A   1      43.542  37.115  34.580  1.00  0.00     0.200 A 
ATOM     89  F   UNL A   1      43.048  35.837  36.503  1.00  0.00    -0.200 F 
ATOM     90  F   UNL A   1      43.776  38.193  35.340  1.00  0.00    -0.200 F 
ENDBRANCH  57  80
ENDBRANCH  31  32
ENDBRANCH  24  26
ENDBRANCH  23  24
ENDBRANCH  22  23
ENDBRANCH  21  22
ENDBRANCH  20  21
ENDBRANCH   1  20
TORSDOF 19
ENDMDL
MODEL 2
REMARK VINA RESULT:      -8.8      3.600      6.403
REMARK SMILES CC[C@@H](C(=O)OCCOCCOCCOC(=O)c1ccc(-c2c3nc(c(-c4c(F)c(F)c(F)c(F)c4F)c4ccc([nH]4)c(-c4c(F)c(F)c(F)c(F)c4F)c4nc(c(-c5c(F)c(F)c(F)c(F)c5F)c5ccc2[nH]5)C=C4)C=C3)cc1)c1cc(Br)ccc1F
REMARK SMILES IDX 11 1 10 2 9 3 8 4 7 5 6 6 4 7 5 8 3 9 2 10 1 11 81 12 82 13
REMARK SMILES IDX 87 14 83 15 86 16 88 17 84 18 85 19 12 20 13 21 14 22 15 23
REMARK SMILES IDX 16 24 17 25 18 26 19 27 80 28 20 29 79 30 21 31 22 32 23 33
REMARK SMILES IDX 73 34 24 35 78 36 72 37 74 38 25 39 77 40 71 41 70 42 26 44
REMARK SMILES IDX 58 45 38 46 57 47 39 48 42 49 56 50 75 51 40 52 41 53 55 55
REMARK SMILES IDX 76 56 43 57 27 58 28 59 36 60 29 61 30 62 34 63 37 64 31 65
REMARK SMILES IDX 32 66 35 67 33 68 59 69 60 70 68 71 61 72 62 73 66 74 69 75
REMARK SMILES IDX 63 76 64 77 67 78 65 79 44 80 45 81 53 82 46 83 47 84 51 85
REMARK SMILES IDX 54 86 48 87 49 88 52 89 50 90
REMARK H PARENT 74 43 42 54
REMARK Flexibility Score: inf
ROOT
ATOM      1  C   UNL A   1      34.221  20.019  25.015  1.00  0.00     0.188 C 
ENDROOT
BRANCH   1   2
ATOM      2  C   UNL A   1      33.327  20.901  25.901  1.00  0.00     0.188 C 
BRANCH   2   3
ATOM      3  O   UNL A   1      32.763  22.087  25.369  1.00  0.00    -0.376 OA
BRANCH   3   4
ATOM      4  C   UNL A   1      31.364  22.296  25.522  1.00  0.00     0.202 C 
BRANCH   4   5
ATOM      5  C   UNL A   1      30.852  22.903  26.836  1.00  0.00     0.261 C 
BRANCH   5   6
ATOM      6  O   UNL A   1      31.503  24.146  27.152  1.00  0.00    -0.463 OA
BRANCH   6   7
ATOM      7  C   UNL A   1      31.090  25.235  26.457  1.00  0.00     0.313 C 
ATOM      8  O   UNL A   1      29.942  25.671  26.500  1.00  0.00    -0.252 OA
BRANCH   7   9
ATOM      9  C   UNL A   1      32.208  25.925  25.656  1.00  0.00     0.132 C 
BRANCH   9  10
ATOM     10  C   UNL A   1      33.672  25.469  25.904  1.00  0.00     0.017 C 
ATOM     11  C   UNL A   1      34.490  25.020  24.704  1.00  0.00     0.005 C 
ENDBRANCH   9  10
BRANCH   9  12
ATOM     12  C   UNL A   1      32.131  27.463  25.622  1.00  0.00     0.003 A 
ATOM     13  C   UNL A   1      33.020  28.213  26.425  1.00  0.00     0.023 A 
ATOM     14  C   UNL A   1      31.236  28.189  24.827  1.00  0.00     0.127 A 
ATOM     15  C   UNL A   1      32.976  29.612  26.451  1.00  0.00     0.018 A 
ATOM     16  C   UNL A   1      31.200  29.587  24.843  1.00  0.00     0.041 A 
ATOM     17  F   UNL A   1      30.368  27.568  24.020  1.00  0.00    -0.207 F 
ATOM     18  Br  UNL A   1      34.169  30.563  27.566  1.00  0.00    -0.051 Br
ATOM     19  C   UNL A   1      32.065  30.305  25.664  1.00  0.00     0.019 A 
ENDBRANCH   9  12
ENDBRANCH   7   9
ENDBRANCH   6   7
ENDBRANCH   5   6
ENDBRANCH   4   5
ENDBRANCH   3   4
ENDBRANCH   2   3
ENDBRANCH   1   2
BRANCH   1  20
ATOM     20  O   UNL A   1      35.580  20.306  24.804  1.00  0.00    -0.376 OA
BRANCH  20  21
ATOM     21  C   UNL A   1      36.244  21.308  25.547  1.00  0.00     0.202 C 
BRANCH  21  22
ATOM     22  C   UNL A   1      37.666  21.811  25.247  1.00  0.00     0.261 C 
BRANCH  22  23
ATOM     23  O   UNL A   1      38.095  23.005  25.903  1.00  0.00    -0.460 OA
BRANCH  23  24
ATOM     24  C   UNL A   1      39.358  22.985  26.395  1.00  0.00     0.338 C 
ATOM     25  O   UNL A   1      40.198  22.110  26.266  1.00  0.00    -0.246 OA
BRANCH  24  26
ATOM     26  C   UNL A   1      39.634  24.316  26.970  1.00  0.00     0.060 A 
ATOM     27  C   UNL A   1      40.269  25.284  26.178  1.00  0.00     0.016 A 
ATOM     28  C   UNL A   1      39.239  24.611  28.274  1.00  0.00     0.016 A 
ATOM     29  C   UNL A   1      40.501  26.560  26.689  1.00  0.00     0.010 A 
ATOM     30  C   UNL A   1      39.500  25.878  28.795  1.00  0.00     0.010 A 
ATOM     31  C   UNL A   1      40.139  26.854  28.010  1.00  0.00    -0.014 A 
BRANCH  31  32
ATOM     32  C   UNL A   1      40.546  28.130  28.639  1.00  0.00     0.031 A 
ATOM     33  C   UNL A   1      41.972  28.294  29.073  1.00  0.00     0.074 A 
ATOM     34  C   UNL A   1      39.653  29.110  28.858  1.00  0.00     0.049 A 
ATOM     35  N   UNL A   1      42.522  29.250  29.777  1.00  0.00    -0.248 NA
ATOM     36  C   UNL A   1      42.900  27.229  28.665  1.00  0.00     0.031 C 
ATOM     37  C   UNL A   1      38.254  29.084  28.442  1.00  0.00     0.029 A 
ATOM     38  N   UNL A   1      39.793  30.312  29.504  1.00  0.00    -0.354 N 
ATOM     39  C   UNL A   1      43.856  28.894  29.910  1.00  0.00     0.074 A 
ATOM     40  C   UNL A   1      44.030  27.629  29.227  1.00  0.00     0.031 C 
ATOM     41  C   UNL A   1      37.659  30.219  28.848  1.00  0.00     0.029 A 
ATOM     42  C   UNL A   1      38.622  31.023  29.601  1.00  0.00     0.049 A 
ATOM     43  H   UNL A   1      40.651  30.635  29.863  1.00  0.00     0.167 HD
ATOM     44  C   UNL A   1      44.846  29.561  30.550  1.00  0.00     0.037 A 
ATOM     45  C   UNL A   1      38.355  32.169  30.259  1.00  0.00     0.037 A 
ATOM     46  C   UNL A   1      44.663  30.807  31.244  1.00  0.00     0.049 A 
ATOM     47  C   UNL A   1      39.449  32.837  31.054  1.00  0.00     0.074 A 
ATOM     48  C   UNL A   1      45.602  31.563  31.924  1.00  0.00     0.029 A 
ATOM     49  N   UNL A   1      43.452  31.475  31.360  1.00  0.00    -0.354 N 
ATOM     50  N   UNL A   1      40.711  32.503  31.176  1.00  0.00    -0.248 NA
ATOM     51  C   UNL A   1      39.072  34.033  31.824  1.00  0.00     0.031 C 
ATOM     52  C   UNL A   1      44.949  32.658  32.498  1.00  0.00     0.029 A 
ATOM     53  C   UNL A   1      43.613  32.617  32.129  1.00  0.00     0.049 A 
ATOM     54  H   UNL A   1      42.604  31.181  30.956  1.00  0.00     0.167 HD
ATOM     55  C   UNL A   1      41.281  33.454  32.013  1.00  0.00     0.074 A 
ATOM     56  C   UNL A   1      40.232  34.390  32.359  1.00  0.00     0.031 C 
ATOM     57  C   UNL A   1      42.560  33.543  32.459  1.00  0.00     0.037 A 
BRANCH  44  58
ATOM     58  C   UNL A   1      46.204  28.925  30.563  1.00  0.00     0.064 A 
ATOM     59  C   UNL A   1      46.587  28.022  31.567  1.00  0.00     0.173 A 
ATOM     60  C   UNL A   1      47.133  29.215  29.552  1.00  0.00     0.173 A 
ATOM     61  F   UNL A   1      45.741  27.725  32.566  1.00  0.00    -0.203 F 
ATOM     62  C   UNL A   1      47.861  27.461  31.576  1.00  0.00     0.198 A 
ATOM     63  C   UNL A   1      48.394  28.628  29.547  1.00  0.00     0.198 A 
ATOM     64  F   UNL A   1      46.816  30.069  28.568  1.00  0.00    -0.203 F 
ATOM     65  F   UNL A   1      48.224  26.646  32.577  1.00  0.00    -0.200 F 
ATOM     66  C   UNL A   1      48.760  27.758  30.565  1.00  0.00     0.200 A 
ATOM     67  F   UNL A   1      49.259  28.908  28.562  1.00  0.00    -0.200 F 
ATOM     68  F   UNL A   1      49.986  27.217  30.574  1.00  0.00    -0.200 F 
ENDBRANCH  44  58
BRANCH  45  69
ATOM     69  C   UNL A   1      36.987  32.750  30.222  1.00  0.00     0.064 A 
ATOM     70  C   UNL A   1      36.590  33.578  29.162  1.00  0.00     0.173 A 
ATOM     71  C   UNL A   1      36.061  32.517  31.249  1.00  0.00     0.173 A 
ATOM     72  F   UNL A   1      37.450  33.857  28.172  1.00  0.00    -0.203 F 
ATOM     73  C   UNL A   1      35.324  34.161  29.140  1.00  0.00     0.198 A 
ATOM     74  C   UNL A   1      34.785  33.076  31.209  1.00  0.00     0.198 A 
ATOM     75  F   UNL A   1      36.394  31.740  32.291  1.00  0.00    -0.203 F 
ATOM     76  F   UNL A   1      34.989  34.987  28.139  1.00  0.00    -0.200 F 
ATOM     77  C   UNL A   1      34.420  33.904  30.159  1.00  0.00     0.200 A 
ATOM     78  F   UNL A   1      33.913  32.818  32.193  1.00  0.00    -0.200 F 
ATOM     79  F   UNL A   1      33.202  34.462  30.135  1.00  0.00    -0.200 F 
ENDBRANCH  45  69
BRANCH  57  80
ATOM     80  C   UNL A   1      42.910  34.705  33.345  1.00  0.00     0.064 A 
ATOM     81  C   UNL A   1      42.909  34.592  34.743  1.00  0.00     0.173 A 
ATOM     82  C   UNL A   1      43.315  35.927  32.786  1.00  0.00     0.173 A 
ATOM     83  F   UNL A   1      42.515  33.450  35.327  1.00  0.00    -0.203 F 
ATOM     84  C   UNL A   1      43.285  35.664  35.548  1.00  0.00     0.198 A 
ATOM     85  C   UNL A   1      43.718  36.987  33.593  1.00  0.00     0.198 A 
ATOM     86  F   UNL A   1      43.340  36.086  31.454  1.00  0.00    -0.203 F 
ATOM     87  F   UNL A   1      43.240  35.545  36.882  1.00  0.00    -0.200 F 
ATOM     88  C   UNL A   1      43.699  36.856  34.973  1.00  0.00     0.200 A 
ATOM     89  F   UNL A   1      44.132  38.133  33.035  1.00  0.00    -0.200 F 
ATOM     90  F   UNL A   1      44.076  37.882  35.749  1.00  0.00    -0.200 F 
ENDBRANCH  57  80
ENDBRANCH  31  32
ENDBRANCH  24  26
ENDBRANCH  23  24
ENDBRANCH  22  23
ENDBRANCH  21  22
ENDBRANCH  20  21
ENDBRANCH   1  20
TORSDOF 19
ENDMDL
MODEL 3
REMARK VINA RESULT:      -8.5      4.218     10.019
REMARK SMILES CC[C@@H](C(=O)OCCOCCOCCOC(=O)c1ccc(-c2c3nc(c(-c4c(F)c(F)c(F)c(F)c4F)c4ccc([nH]4)c(-c4c(F)c(F)c(F)c(F)c4F)c4nc(c(-c5c(F)c(F)c(F)c(F)c5F)c5ccc2[nH]5)C=C4)C=C3)cc1)c1cc(Br)ccc1F
REMARK SMILES IDX 11 1 10 2 9 3 8 4 7 5 6 6 4 7 5 8 3 9 2 10 1 11 81 12 82 13
REMARK SMILES IDX 87 14 83 15 86 16 88 17 84 18 85 19 12 20 13 21 14 22 15 23
REMARK SMILES IDX 16 24 17 25 18 26 19 27 80 28 20 29 79 30 21 31 22 32 23 33
REMARK SMILES IDX 73 34 24 35 78 36 72 37 74 38 25 39 77 40 71 41 70 42 26 44
REMARK SMILES IDX 58 45 38 46 57 47 39 48 42 49 56 50 75 51 40 52 41 53 55 55
REMARK SMILES IDX 76 56 43 57 27 58 28 59 36 60 29 61 30 62 34 63 37 64 31 65
REMARK SMILES IDX 32 66 35 67 33 68 59 69 60 70 68 71 61 72 62 73 66 74 69 75
REMARK SMILES IDX 63 76 64 77 67 78 65 79 44 80 45 81 53 82 46 83 47 84 51 85
REMARK SMILES IDX 54 86 48 87 49 88 52 89 50 90
REMARK H PARENT 74 43 42 54
REMARK Flexibility Score: inf
ROOT
ATOM      1  C   UNL A   1      35.094  24.005  26.116  1.00  0.00     0.188 C 
ENDROOT
BRANCH   1   2
ATOM      2  C   UNL A   1      33.584  24.224  25.936  1.00  0.00     0.188 C 
BRANCH   2   3
ATOM      3  O   UNL A   1      33.009  24.128  24.644  1.00  0.00    -0.376 OA
BRANCH   3   4
ATOM      4  C   UNL A   1      31.613  23.872  24.545  1.00  0.00     0.202 C 
BRANCH   4   5
ATOM      5  C   UNL A   1      30.692  25.003  24.068  1.00  0.00     0.261 C 
BRANCH   5   6
ATOM      6  O   UNL A   1      31.001  26.260  24.698  1.00  0.00    -0.463 OA
BRANCH   6   7
ATOM      7  C   UNL A   1      30.857  27.369  23.929  1.00  0.00     0.313 C 
ATOM      8  O   UNL A   1      29.795  27.701  23.411  1.00  0.00    -0.252 OA
BRANCH   7   9
ATOM      9  C   UNL A   1      32.136  28.218  23.817  1.00  0.00     0.132 C 
BRANCH   9  10
ATOM     10  C   UNL A   1      33.452  27.507  23.398  1.00  0.00     0.017 C 
ATOM     11  C   UNL A   1      33.434  26.667  22.131  1.00  0.00     0.005 C 
ENDBRANCH   9  10
BRANCH   9  12
ATOM     12  C   UNL A   1      32.398  29.160  25.007  1.00  0.00     0.003 A 
ATOM     13  C   UNL A   1      33.579  28.996  25.765  1.00  0.00     0.023 A 
ATOM     14  C   UNL A   1      31.541  30.198  25.394  1.00  0.00     0.127 A 
ATOM     15  C   UNL A   1      33.855  29.807  26.872  1.00  0.00     0.018 A 
ATOM     16  C   UNL A   1      31.822  31.018  26.492  1.00  0.00     0.041 A 
ATOM     17  F   UNL A   1      30.408  30.444  24.725  1.00  0.00    -0.207 F 
ATOM     18  Br  UNL A   1      35.435  29.524  27.868  1.00  0.00    -0.051 Br
ATOM     19  C   UNL A   1      32.977  30.819  27.241  1.00  0.00     0.019 A 
ENDBRANCH   9  12
ENDBRANCH   7   9
ENDBRANCH   6   7
ENDBRANCH   5   6
ENDBRANCH   4   5
ENDBRANCH   3   4
ENDBRANCH   2   3
ENDBRANCH   1   2
BRANCH   1  20
ATOM     20  O   UNL A   1      35.634  22.748  26.440  1.00  0.00    -0.376 OA
BRANCH  20  21
ATOM     21  C   UNL A   1      35.664  21.697  25.496  1.00  0.00     0.202 C 
BRANCH  21  22
ATOM     22  C   UNL A   1      36.939  20.940  25.083  1.00  0.00     0.261 C 
BRANCH  22  23
ATOM     23  O   UNL A   1      38.172  21.659  25.119  1.00  0.00    -0.460 OA
BRANCH  23  24
ATOM     24  C   UNL A   1      39.021  21.324  26.122  1.00  0.00     0.338 C 
ATOM     25  O   UNL A   1      39.326  20.206  26.502  1.00  0.00    -0.246 OA
BRANCH  24  26
ATOM     26  C   UNL A   1      39.687  22.561  26.574  1.00  0.00     0.060 A 
ATOM     27  C   UNL A   1      39.328  23.783  25.989  1.00  0.00     0.016 A 
ATOM     28  C   UNL A   1      40.640  22.510  27.592  1.00  0.00     0.016 A 
ATOM     29  C   UNL A   1      39.917  24.968  26.432  1.00  0.00     0.010 A 
ATOM     30  C   UNL A   1      41.251  23.691  28.011  1.00  0.00     0.010 A 
ATOM     31  C   UNL A   1      40.900  24.922  27.429  1.00  0.00    -0.014 A 
BRANCH  31  32
ATOM     32  C   UNL A   1      41.677  26.132  27.779  1.00  0.00     0.031 A 
ATOM     33  C   UNL A   1      41.003  27.215  28.567  1.00  0.00     0.074 A 
ATOM     34  C   UNL A   1      42.948  26.281  27.369  1.00  0.00     0.049 A 
ATOM     35  N   UNL A   1      41.426  28.418  28.857  1.00  0.00    -0.248 NA
ATOM     36  C   UNL A   1      39.665  26.900  29.088  1.00  0.00     0.031 C 
ATOM     37  C   UNL A   1      43.722  25.282  26.639  1.00  0.00     0.029 A 
ATOM     38  N   UNL A   1      43.803  27.347  27.496  1.00  0.00    -0.354 N 
ATOM     39  C   UNL A   1      40.400  29.009  29.581  1.00  0.00     0.074 A 
ATOM     40  C   UNL A   1      39.330  28.039  29.673  1.00  0.00     0.031 C 
ATOM     41  C   UNL A   1      44.941  25.784  26.377  1.00  0.00     0.029 A 
ATOM     42  C   UNL A   1      45.012  27.158  26.871  1.00  0.00     0.049 A 
ATOM     43  H   UNL A   1      43.574  28.167  27.990  1.00  0.00     0.167 HD
ATOM     44  C   UNL A   1      40.355  30.252  30.115  1.00  0.00     0.037 A 
ATOM     45  C   UNL A   1      46.035  28.015  26.687  1.00  0.00     0.037 A 
ATOM     46  C   UNL A   1      41.414  31.220  30.002  1.00  0.00     0.049 A 
ATOM     47  C   UNL A   1      45.917  29.430  27.198  1.00  0.00     0.074 A 
ATOM     48  C   UNL A   1      41.466  32.507  30.508  1.00  0.00     0.029 A 
ATOM     49  N   UNL A   1      42.605  31.009  29.322  1.00  0.00    -0.354 N 
ATOM     50  N   UNL A   1      44.949  29.987  27.886  1.00  0.00    -0.248 NA
ATOM     51  C   UNL A   1      47.027  30.342  26.885  1.00  0.00     0.031 C 
ATOM     52  C   UNL A   1      42.662  33.094  30.087  1.00  0.00     0.029 A 
ATOM     53  C   UNL A   1      43.384  32.155  29.367  1.00  0.00     0.049 A 
ATOM     54  H   UNL A   1      42.859  30.171  28.874  1.00  0.00     0.167 HD
ATOM     55  C   UNL A   1      45.343  31.301  28.107  1.00  0.00     0.074 A 
ATOM     56  C   UNL A   1      46.644  31.457  27.493  1.00  0.00     0.031 C 
ATOM     57  C   UNL A   1      44.683  32.293  28.757  1.00  0.00     0.037 A 
BRANCH  44  58
ATOM     58  C   UNL A   1      39.097  30.646  30.829  1.00  0.00     0.064 A 
ATOM     59  C   UNL A   1      38.032  31.268  30.160  1.00  0.00     0.173 A 
ATOM     60  C   UNL A   1      38.951  30.390  32.201  1.00  0.00     0.173 A 
ATOM     61  F   UNL A   1      38.130  31.551  28.852  1.00  0.00    -0.203 F 
ATOM     62  C   UNL A   1      36.881  31.649  30.846  1.00  0.00     0.198 A 
ATOM     63  C   UNL A   1      37.787  30.744  32.876  1.00  0.00     0.198 A 
ATOM     64  F   UNL A   1      39.938  29.796  32.887  1.00  0.00    -0.203 F 
ATOM     65  F   UNL A   1      35.900  32.293  30.198  1.00  0.00    -0.200 F 
ATOM     66  C   UNL A   1      36.757  31.381  32.200  1.00  0.00     0.200 A 
ATOM     67  F   UNL A   1      37.663  30.474  34.183  1.00  0.00    -0.200 F 
ATOM     68  F   UNL A   1      35.649  31.747  32.858  1.00  0.00    -0.200 F 
ENDBRANCH  44  58
BRANCH  45  69
ATOM     69  C   UNL A   1      47.256  27.576  25.961  1.00  0.00     0.064 A 
ATOM     70  C   UNL A   1      47.394  27.812  24.585  1.00  0.00     0.173 A 
ATOM     71  C   UNL A   1      48.293  26.892  26.611  1.00  0.00     0.173 A 
ATOM     72  F   UNL A   1      46.416  28.434  23.912  1.00  0.00    -0.203 F 
ATOM     73  C   UNL A   1      48.516  27.368  23.887  1.00  0.00     0.198 A 
ATOM     74  C   UNL A   1      49.428  26.476  25.918  1.00  0.00     0.198 A 
ATOM     75  F   UNL A   1      48.207  26.633  27.925  1.00  0.00    -0.203 F 
ATOM     76  F   UNL A   1      48.598  27.564  22.564  1.00  0.00    -0.200 F 
ATOM     77  C   UNL A   1      49.535  26.707  24.555  1.00  0.00     0.200 A 
ATOM     78  F   UNL A   1      50.414  25.845  26.570  1.00  0.00    -0.200 F 
ATOM     79  F   UNL A   1      50.614  26.283  23.884  1.00  0.00    -0.200 F 
ENDBRANCH  45  69
BRANCH  57  80
ATOM     80  C   UNL A   1      45.364  33.627  28.868  1.00  0.00     0.064 A 
ATOM     81  C   UNL A   1      46.177  33.951  29.964  1.00  0.00     0.173 A 
ATOM     82  C   UNL A   1      45.254  34.568  27.832  1.00  0.00     0.173 A 
ATOM     83  F   UNL A   1      46.303  33.092  30.988  1.00  0.00    -0.203 F 
ATOM     84  C   UNL A   1      46.843  35.172  30.026  1.00  0.00     0.198 A 
ATOM     85  C   UNL A   1      45.943  35.776  27.885  1.00  0.00     0.198 A 
ATOM     86  F   UNL A   1      44.494  34.306  26.758  1.00  0.00    -0.203 F 
ATOM     87  F   UNL A   1      47.584  35.475  31.100  1.00  0.00    -0.200 F 
ATOM     88  C   UNL A   1      46.733  36.079  28.982  1.00  0.00     0.200 A 
ATOM     89  F   UNL A   1      45.849  36.644  26.867  1.00  0.00    -0.200 F 
ATOM     90  F   UNL A   1      47.387  37.248  29.036  1.00  0.00    -0.200 F 
ENDBRANCH  57  80
ENDBRANCH  31  32
ENDBRANCH  24  26
ENDBRANCH  23  24
ENDBRANCH  22  23
ENDBRANCH  21  22
ENDBRANCH  20  21
ENDBRANCH   1  20
TORSDOF 19
ENDMDL
