MODEL 1
REMARK VINA RESULT:     -10.9      0.000      0.000
REMARK SMILES COc1cccc(NC(=O)/C(C#N)=C\c2ccc(O[C@@H](C)C(=O)OCCOCCOCCOC(=O)c3ccc(-c4c5nc(c(-c6c(F)c(F)c(F)c(F)c6F)c6ccc([nH]6)c(-c6c(F)c(F)c(F)c(F)c6F)c6nc(c(-c7c(F)c(F)c(F)c(F)c7F)c7ccc4[nH]7)C=C6)C=C5)cc3)cc2)c1
REMARK SMILES IDX 26 1 25 2 24 3 22 4 23 5 20 6 21 7 19 8 18 9 15 10 16 11
REMARK SMILES IDX 100 12 17 13 99 14 14 15 11 16 9 17 8 18 10 20 7 21 3 22
REMARK SMILES IDX 4 23 101 24 5 25 6 26 2 27 1 28 12 29 13 30 27 31 28 32
REMARK SMILES IDX 29 33 30 34 31 35 32 36 33 37 34 38 35 39 36 40 37 41 98 42
REMARK SMILES IDX 38 43 97 44 39 45 40 46 41 47 91 48 42 49 96 50 90 51 92 52
REMARK SMILES IDX 43 53 95 54 89 55 88 56 44 58 76 59 56 60 75 61 57 62 60 63
REMARK SMILES IDX 74 64 93 65 58 66 59 67 73 69 94 70 61 71 45 72 46 73 54 74
REMARK SMILES IDX 47 75 48 76 52 77 55 78 49 79 50 80 53 81 51 82 77 83 78 84
REMARK SMILES IDX 86 85 79 86 80 87 84 88 87 89 81 90 82 91 85 92 83 93 62 94
REMARK SMILES IDX 63 95 71 96 64 97 65 98 69 99 72 100 66 101 67 102 70 103
REMARK SMILES IDX 68 104
REMARK H PARENT 8 19 92 57 60 68
REMARK Flexibility Score: inf
ROOT
ATOM      1  C   UNL A   1      43.043  19.244  25.657  1.00  0.00     0.202 C 
ENDROOT
BRANCH   1   2
ATOM      2  C   UNL A   1      42.762  20.656  26.188  1.00  0.00     0.261 C 
BRANCH   2   3
ATOM      3  O   UNL A   1      41.477  21.159  25.780  1.00  0.00    -0.461 OA
BRANCH   3   4
ATOM      4  C   UNL A   1      40.424  21.011  26.625  1.00  0.00     0.347 C 
ATOM      5  O   UNL A   1      40.540  20.851  27.834  1.00  0.00    -0.248 OA
BRANCH   4   6
ATOM      6  C   UNL A   1      39.034  21.114  25.910  1.00  0.00     0.279 C 
ATOM      7  C   UNL A   1      38.632  19.739  25.375  1.00  0.00     0.066 C 
BRANCH   6   8
ATOM      8  O   UNL A   1      38.589  22.104  24.987  1.00  0.00    -0.479 OA
BRANCH   8   9
ATOM      9  C   UNL A   1      37.370  22.703  25.116  1.00  0.00     0.120 A 
ATOM     10  C   UNL A   1      34.792  23.780  25.235  1.00  0.00    -0.024 A 
ATOM     11  C   UNL A   1      35.163  23.009  24.134  1.00  0.00     0.012 A 
ATOM     12  C   UNL A   1      35.677  23.923  26.305  1.00  0.00     0.012 A 
ATOM     13  C   UNL A   1      36.447  22.451  24.091  1.00  0.00     0.047 A 
ATOM     14  C   UNL A   1      36.981  23.475  26.198  1.00  0.00     0.047 A 
BRANCH  10  15
ATOM     15  C   UNL A   1      33.562  24.564  25.275  1.00  0.00     0.033 C 
ATOM     16  C   UNL A   1      32.457  24.099  25.885  1.00  0.00     0.118 C 
BRANCH  16  17
ATOM     17  C   UNL A   1      32.330  22.836  26.785  1.00  0.00     0.266 C 
ATOM     18  N   UNL A   1      32.558  21.530  26.391  1.00  0.00    -0.321 N 
ATOM     19  H   UNL A   1      32.886  20.989  27.145  1.00  0.00     0.170 HD
ATOM     20  O   UNL A   1      32.106  22.951  27.995  1.00  0.00    -0.268 OA
BRANCH  18  21
ATOM     21  C   UNL A   1      32.455  20.747  25.218  1.00  0.00     0.045 A 
ATOM     22  C   UNL A   1      32.712  18.582  24.152  1.00  0.00     0.120 A 
ATOM     23  C   UNL A   1      32.550  19.142  22.892  1.00  0.00     0.046 A 
ATOM     24  C   UNL A   1      32.721  19.375  25.306  1.00  0.00     0.072 A 
ATOM     25  C   UNL A   1      32.141  20.462  22.817  1.00  0.00     0.006 A 
ATOM     26  C   UNL A   1      31.994  21.218  23.991  1.00  0.00     0.026 A 
BRANCH  22  27
ATOM     27  O   UNL A   1      32.826  17.221  24.259  1.00  0.00    -0.497 OA
ATOM     28  C   UNL A   1      34.015  16.810  23.567  1.00  0.00     0.278 C 
ENDBRANCH  22  27
ENDBRANCH  18  21
ENDBRANCH  16  17
BRANCH  16  29
ATOM     29  C   UNL A   1      31.147  24.868  25.849  1.00  0.00     0.105 C 
ATOM     30  N   UNL A   1      30.060  25.506  25.819  1.00  0.00    -0.192 NA
ENDBRANCH  16  29
ENDBRANCH  10  15
ENDBRANCH   8   9
ENDBRANCH   6   8
ENDBRANCH   4   6
ENDBRANCH   3   4
ENDBRANCH   2   3
ENDBRANCH   1   2
BRANCH   1  31
ATOM     31  O   UNL A   1      43.459  19.123  24.300  1.00  0.00    -0.376 OA
BRANCH  31  32
ATOM     32  C   UNL A   1      44.810  19.433  23.969  1.00  0.00     0.188 C 
BRANCH  32  33
ATOM     33  C   UNL A   1      45.878  19.454  25.078  1.00  0.00     0.188 C 
BRANCH  33  34
ATOM     34  O   UNL A   1      46.402  20.733  25.378  1.00  0.00    -0.376 OA
BRANCH  34  35
ATOM     35  C   UNL A   1      46.321  21.683  24.327  1.00  0.00     0.202 C 
BRANCH  35  36
ATOM     36  C   UNL A   1      45.939  23.098  24.782  1.00  0.00     0.261 C 
BRANCH  36  37
ATOM     37  O   UNL A   1      44.845  23.179  25.718  1.00  0.00    -0.460 OA
BRANCH  37  38
ATOM     38  C   UNL A   1      43.801  23.976  25.396  1.00  0.00     0.338 C 
ATOM     39  O   UNL A   1      43.104  23.905  24.397  1.00  0.00    -0.246 OA
BRANCH  38  40
ATOM     40  C   UNL A   1      43.494  24.822  26.574  1.00  0.00     0.060 A 
ATOM     41  C   UNL A   1      42.642  24.330  27.574  1.00  0.00     0.016 A 
ATOM     42  C   UNL A   1      44.070  26.087  26.707  1.00  0.00     0.016 A 
ATOM     43  C   UNL A   1      42.345  25.111  28.696  1.00  0.00     0.010 A 
ATOM     44  C   UNL A   1      43.753  26.877  27.818  1.00  0.00     0.010 A 
ATOM     45  C   UNL A   1      42.867  26.406  28.805  1.00  0.00    -0.014 A 
BRANCH  45  46
ATOM     46  C   UNL A   1      42.353  27.341  29.839  1.00  0.00     0.031 A 
ATOM     47  C   UNL A   1      43.037  27.372  31.180  1.00  0.00     0.074 A 
ATOM     48  C   UNL A   1      41.298  28.143  29.613  1.00  0.00     0.049 A 
ATOM     49  N   UNL A   1      42.729  28.042  32.261  1.00  0.00    -0.248 NA
ATOM     50  C   UNL A   1      44.227  26.519  31.317  1.00  0.00     0.031 C 
ATOM     51  C   UNL A   1      40.562  28.238  28.355  1.00  0.00     0.029 A 
ATOM     52  N   UNL A   1      40.650  29.021  30.450  1.00  0.00    -0.354 N 
ATOM     53  C   UNL A   1      43.679  27.683  33.209  1.00  0.00     0.074 A 
ATOM     54  C   UNL A   1      44.552  26.712  32.586  1.00  0.00     0.031 C 
ATOM     55  C   UNL A   1      39.553  29.113  28.507  1.00  0.00     0.029 A 
ATOM     56  C   UNL A   1      39.549  29.613  29.882  1.00  0.00     0.049 A 
ATOM     57  H   UNL A   1      40.948  29.207  31.369  1.00  0.00     0.167 HD
ATOM     58  C   UNL A   1      43.818  28.127  34.482  1.00  0.00     0.037 A 
ATOM     59  C   UNL A   1      38.629  30.441  30.418  1.00  0.00     0.037 A 
ATOM     60  C   UNL A   1      42.945  29.087  35.105  1.00  0.00     0.049 A 
ATOM     61  C   UNL A   1      38.759  30.866  31.861  1.00  0.00     0.074 A 
ATOM     62  C   UNL A   1      43.022  29.622  36.380  1.00  0.00     0.029 A 
ATOM     63  N   UNL A   1      41.826  29.646  34.506  1.00  0.00    -0.354 N 
ATOM     64  N   UNL A   1      39.680  30.554  32.740  1.00  0.00    -0.248 NA
ATOM     65  C   UNL A   1      37.719  31.766  32.384  1.00  0.00     0.031 C 
ATOM     66  C   UNL A   1      41.912  30.451  36.574  1.00  0.00     0.029 A 
ATOM     67  C   UNL A   1      41.183  30.492  35.396  1.00  0.00     0.049 A 
ATOM     68  H   UNL A   1      41.532  29.467  33.583  1.00  0.00     0.167 HD
ATOM     69  C   UNL A   1      39.350  31.238  33.905  1.00  0.00     0.074 A 
ATOM     70  C   UNL A   1      38.150  31.994  33.616  1.00  0.00     0.031 C 
ATOM     71  C   UNL A   1      39.987  31.242  35.102  1.00  0.00     0.037 A 
BRANCH  58  72
ATOM     72  C   UNL A   1      44.936  27.541  35.298  1.00  0.00     0.064 A 
ATOM     73  C   UNL A   1      44.763  26.382  36.069  1.00  0.00     0.173 A 
ATOM     74  C   UNL A   1      46.201  28.147  35.300  1.00  0.00     0.173 A 
ATOM     75  F   UNL A   1      43.571  25.771  36.113  1.00  0.00    -0.203 F 
ATOM     76  C   UNL A   1      45.805  25.873  36.842  1.00  0.00     0.198 A 
ATOM     77  C   UNL A   1      47.250  27.615  36.045  1.00  0.00     0.198 A 
ATOM     78  F   UNL A   1      46.424  29.255  34.577  1.00  0.00    -0.203 F 
ATOM     79  F   UNL A   1      45.598  24.802  37.620  1.00  0.00    -0.200 F 
ATOM     80  C   UNL A   1      47.049  26.487  36.825  1.00  0.00     0.200 A 
ATOM     81  F   UNL A   1      48.455  28.201  36.015  1.00  0.00    -0.200 F 
ATOM     82  F   UNL A   1      48.050  25.996  37.568  1.00  0.00    -0.200 F 
ENDBRANCH  58  72
BRANCH  59  83
ATOM     83  C   UNL A   1      37.490  30.919  29.589  1.00  0.00     0.064 A 
ATOM     84  C   UNL A   1      36.433  30.064  29.249  1.00  0.00     0.173 A 
ATOM     85  C   UNL A   1      37.442  32.237  29.111  1.00  0.00     0.173 A 
ATOM     86  F   UNL A   1      36.449  28.786  29.654  1.00  0.00    -0.203 F 
ATOM     87  C   UNL A   1      35.376  30.506  28.454  1.00  0.00     0.198 A 
ATOM     88  C   UNL A   1      36.370  32.686  28.342  1.00  0.00     0.198 A 
ATOM     89  F   UNL A   1      38.433  33.094  29.400  1.00  0.00    -0.203 F 
ATOM     90  F   UNL A   1      34.401  29.655  28.105  1.00  0.00    -0.200 F 
ATOM     91  C   UNL A   1      35.342  31.819  28.008  1.00  0.00     0.200 A 
ATOM     92  F   UNL A   1      36.336  33.958  27.921  1.00  0.00    -0.200 F 
ATOM     93  F   UNL A   1      34.322  32.245  27.250  1.00  0.00    -0.200 F 
ENDBRANCH  59  83
BRANCH  71  94
ATOM     94  C   UNL A   1      39.426  32.120  36.188  1.00  0.00     0.064 A 
ATOM     95  C   UNL A   1      39.901  33.422  36.409  1.00  0.00     0.173 A 
ATOM     96  C   UNL A   1      38.367  31.666  36.990  1.00  0.00     0.173 A 
ATOM     97  F   UNL A   1      40.918  33.903  35.680  1.00  0.00    -0.203 F 
ATOM     98  C   UNL A   1      39.357  34.223  37.412  1.00  0.00     0.198 A 
ATOM     99  C   UNL A   1      37.801  32.482  37.967  1.00  0.00     0.198 A 
ATOM    100  F   UNL A   1      37.866  30.433  36.817  1.00  0.00    -0.203 F 
ATOM    101  F   UNL A   1      39.862  35.443  37.639  1.00  0.00    -0.200 F 
ATOM    102  C   UNL A   1      38.303  33.756  38.183  1.00  0.00     0.200 A 
ATOM    103  F   UNL A   1      36.772  32.034  38.699  1.00  0.00    -0.200 F 
ATOM    104  F   UNL A   1      37.776  34.532  39.140  1.00  0.00    -0.200 F 
ENDBRANCH  71  94
ENDBRANCH  45  46
ENDBRANCH  38  40
ENDBRANCH  37  38
ENDBRANCH  36  37
ENDBRANCH  35  36
ENDBRANCH  34  35
ENDBRANCH  33  34
ENDBRANCH  32  33
ENDBRANCH  31  32
ENDBRANCH   1  31
TORSDOF 24
ENDMDL
MODEL 2
REMARK VINA RESULT:     -10.0      2.672      8.242
REMARK SMILES COc1cccc(NC(=O)/C(C#N)=C\c2ccc(O[C@@H](C)C(=O)OCCOCCOCCOC(=O)c3ccc(-c4c5nc(c(-c6c(F)c(F)c(F)c(F)c6F)c6ccc([nH]6)c(-c6c(F)c(F)c(F)c(F)c6F)c6nc(c(-c7c(F)c(F)c(F)c(F)c7F)c7ccc4[nH]7)C=C6)C=C5)cc3)cc2)c1
REMARK SMILES IDX 26 1 25 2 24 3 22 4 23 5 20 6 21 7 19 8 18 9 15 10 16 11
REMARK SMILES IDX 100 12 17 13 99 14 14 15 11 16 9 17 8 18 10 20 7 21 3 22
REMARK SMILES IDX 4 23 101 24 5 25 6 26 2 27 1 28 12 29 13 30 27 31 28 32
REMARK SMILES IDX 29 33 30 34 31 35 32 36 33 37 34 38 35 39 36 40 37 41 98 42
REMARK SMILES IDX 38 43 97 44 39 45 40 46 41 47 91 48 42 49 96 50 90 51 92 52
REMARK SMILES IDX 43 53 95 54 89 55 88 56 44 58 76 59 56 60 75 61 57 62 60 63
REMARK SMILES IDX 74 64 93 65 58 66 59 67 73 69 94 70 61 71 45 72 46 73 54 74
REMARK SMILES IDX 47 75 48 76 52 77 55 78 49 79 50 80 53 81 51 82 77 83 78 84
REMARK SMILES IDX 86 85 79 86 80 87 84 88 87 89 81 90 82 91 85 92 83 93 62 94
REMARK SMILES IDX 63 95 71 96 64 97 65 98 69 99 72 100 66 101 67 102 70 103
REMARK SMILES IDX 68 104
REMARK H PARENT 8 19 92 57 60 68
REMARK Flexibility Score: inf
ROOT
ATOM      1  C   UNL A   1      37.840  22.779  25.940  1.00  0.00     0.202 C 
ENDROOT
BRANCH   1   2
ATOM      2  C   UNL A   1      36.981  21.684  25.295  1.00  0.00     0.261 C 
BRANCH   2   3
ATOM      3  O   UNL A   1      35.597  21.762  25.678  1.00  0.00    -0.461 OA
BRANCH   3   4
ATOM      4  C   UNL A   1      34.707  20.937  25.070  1.00  0.00     0.347 C 
ATOM      5  O   UNL A   1      34.955  19.777  24.763  1.00  0.00    -0.248 OA
BRANCH   4   6
ATOM      6  C   UNL A   1      33.305  21.597  24.839  1.00  0.00     0.279 C 
ATOM      7  C   UNL A   1      32.290  20.518  24.458  1.00  0.00     0.066 C 
BRANCH   6   8
ATOM      8  O   UNL A   1      32.998  22.782  24.111  1.00  0.00    -0.479 OA
BRANCH   8   9
ATOM      9  C   UNL A   1      32.736  23.961  24.745  1.00  0.00     0.120 A 
ATOM     10  C   UNL A   1      31.984  26.314  26.056  1.00  0.00    -0.024 A 
ATOM     11  C   UNL A   1      31.017  25.562  25.389  1.00  0.00     0.012 A 
ATOM     12  C   UNL A   1      33.291  25.833  26.143  1.00  0.00     0.012 A 
ATOM     13  C   UNL A   1      31.395  24.371  24.755  1.00  0.00     0.047 A 
ATOM     14  C   UNL A   1      33.679  24.726  25.411  1.00  0.00     0.047 A 
BRANCH  10  15
ATOM     15  C   UNL A   1      31.730  27.657  26.567  1.00  0.00     0.033 C 
ATOM     16  C   UNL A   1      31.936  28.745  25.803  1.00  0.00     0.118 C 
BRANCH  16  17
ATOM     17  C   UNL A   1      32.251  28.789  24.280  1.00  0.00     0.266 C 
ATOM     18  N   UNL A   1      31.437  29.322  23.297  1.00  0.00    -0.321 N 
ATOM     19  H   UNL A   1      31.973  29.676  22.551  1.00  0.00     0.170 HD
ATOM     20  O   UNL A   1      33.353  28.422  23.858  1.00  0.00    -0.268 OA
BRANCH  18  21
ATOM     21  C   UNL A   1      30.055  29.506  23.053  1.00  0.00     0.045 A 
ATOM     22  C   UNL A   1      28.212  31.038  22.676  1.00  0.00     0.120 A 
ATOM     23  C   UNL A   1      27.284  30.017  22.833  1.00  0.00     0.046 A 
ATOM     24  C   UNL A   1      29.584  30.807  22.836  1.00  0.00     0.072 A 
ATOM     25  C   UNL A   1      27.754  28.718  22.897  1.00  0.00     0.006 A 
ATOM     26  C   UNL A   1      29.136  28.472  22.897  1.00  0.00     0.026 A 
BRANCH  22  27
ATOM     27  O   UNL A   1      27.768  32.284  22.318  1.00  0.00    -0.497 OA
ATOM     28  C   UNL A   1      28.699  33.256  22.818  1.00  0.00     0.278 C 
ENDBRANCH  22  27
ENDBRANCH  18  21
ENDBRANCH  16  17
BRANCH  16  29
ATOM     29  C   UNL A   1      31.764  30.148  26.358  1.00  0.00     0.105 C 
ATOM     30  N   UNL A   1      31.620  31.313  26.820  1.00  0.00    -0.192 NA
ENDBRANCH  16  29
ENDBRANCH  10  15
ENDBRANCH   8   9
ENDBRANCH   6   8
ENDBRANCH   4   6
ENDBRANCH   3   4
ENDBRANCH   2   3
ENDBRANCH   1   2
BRANCH   1  31
ATOM     31  O   UNL A   1      39.172  22.435  26.313  1.00  0.00    -0.376 OA
BRANCH  31  32
ATOM     32  C   UNL A   1      39.661  21.139  25.983  1.00  0.00     0.188 C 
BRANCH  32  33
ATOM     33  C   UNL A   1      40.964  20.632  26.628  1.00  0.00     0.188 C 
BRANCH  33  34
ATOM     34  O   UNL A   1      41.922  20.125  25.719  1.00  0.00    -0.376 OA
BRANCH  34  35
ATOM     35  C   UNL A   1      43.188  20.764  25.754  1.00  0.00     0.202 C 
BRANCH  35  36
ATOM     36  C   UNL A   1      43.122  22.288  25.927  1.00  0.00     0.261 C 
BRANCH  36  37
ATOM     37  O   UNL A   1      44.372  22.935  26.243  1.00  0.00    -0.460 OA
BRANCH  37  38
ATOM     38  C   UNL A   1      44.505  24.238  25.910  1.00  0.00     0.338 C 
ATOM     39  O   UNL A   1      44.920  24.689  24.854  1.00  0.00    -0.246 OA
BRANCH  38  40
ATOM     40  C   UNL A   1      43.848  25.047  26.964  1.00  0.00     0.060 A 
ATOM     41  C   UNL A   1      43.700  26.430  26.782  1.00  0.00     0.016 A 
ATOM     42  C   UNL A   1      43.350  24.438  28.118  1.00  0.00     0.016 A 
ATOM     43  C   UNL A   1      43.077  27.209  27.763  1.00  0.00     0.010 A 
ATOM     44  C   UNL A   1      42.748  25.221  29.109  1.00  0.00     0.010 A 
ATOM     45  C   UNL A   1      42.633  26.614  28.951  1.00  0.00    -0.014 A 
BRANCH  45  46
ATOM     46  C   UNL A   1      42.221  27.455  30.106  1.00  0.00     0.031 A 
ATOM     47  C   UNL A   1      40.994  28.315  29.963  1.00  0.00     0.074 A 
ATOM     48  C   UNL A   1      42.915  27.473  31.257  1.00  0.00     0.049 A 
ATOM     49  N   UNL A   1      40.480  29.184  30.796  1.00  0.00    -0.248 NA
ATOM     50  C   UNL A   1      40.253  28.178  28.700  1.00  0.00     0.031 C 
ATOM     51  C   UNL A   1      44.101  26.669  31.542  1.00  0.00     0.029 A 
ATOM     52  N   UNL A   1      42.727  28.216  32.399  1.00  0.00    -0.354 N 
ATOM     53  C   UNL A   1      39.364  29.706  30.153  1.00  0.00     0.074 A 
ATOM     54  C   UNL A   1      39.295  29.080  28.850  1.00  0.00     0.031 C 
ATOM     55  C   UNL A   1      44.546  26.974  32.774  1.00  0.00     0.029 A 
ATOM     56  C   UNL A   1      43.698  28.018  33.350  1.00  0.00     0.049 A 
ATOM     57  H   UNL A   1      41.968  28.830  32.522  1.00  0.00     0.167 HD
ATOM     58  C   UNL A   1      38.471  30.618  30.608  1.00  0.00     0.037 A 
ATOM     59  C   UNL A   1      43.894  28.629  34.536  1.00  0.00     0.037 A 
ATOM     60  C   UNL A   1      38.543  31.247  31.902  1.00  0.00     0.049 A 
ATOM     61  C   UNL A   1      42.930  29.697  34.994  1.00  0.00     0.074 A 
ATOM     62  C   UNL A   1      37.670  32.161  32.465  1.00  0.00     0.029 A 
ATOM     63  N   UNL A   1      39.555  31.040  32.828  1.00  0.00    -0.354 N 
ATOM     64  N   UNL A   1      41.856  30.158  34.400  1.00  0.00    -0.248 NA
ATOM     65  C   UNL A   1      43.207  30.327  36.295  1.00  0.00     0.031 C 
ATOM     66  C   UNL A   1      38.189  32.556  33.703  1.00  0.00     0.029 A 
ATOM     67  C   UNL A   1      39.347  31.835  33.944  1.00  0.00     0.049 A 
ATOM     68  H   UNL A   1      40.310  30.418  32.709  1.00  0.00     0.167 HD
ATOM     69  C   UNL A   1      41.314  31.105  35.262  1.00  0.00     0.074 A 
ATOM     70  C   UNL A   1      42.171  31.143  36.428  1.00  0.00     0.031 C 
ATOM     71  C   UNL A   1      40.205  31.869  35.103  1.00  0.00     0.037 A 
BRANCH  58  72
ATOM     72  C   UNL A   1      37.361  31.020  29.679  1.00  0.00     0.064 A 
ATOM     73  C   UNL A   1      36.339  30.130  29.315  1.00  0.00     0.173 A 
ATOM     74  C   UNL A   1      37.316  32.319  29.151  1.00  0.00     0.173 A 
ATOM     75  F   UNL A   1      36.341  28.872  29.780  1.00  0.00    -0.203 F 
ATOM     76  C   UNL A   1      35.336  30.514  28.427  1.00  0.00     0.198 A 
ATOM     77  C   UNL A   1      36.293  32.711  28.293  1.00  0.00     0.198 A 
ATOM     78  F   UNL A   1      38.266  33.213  29.469  1.00  0.00    -0.203 F 
ATOM     79  F   UNL A   1      34.407  29.627  28.045  1.00  0.00    -0.200 F 
ATOM     80  C   UNL A   1      35.311  31.805  27.922  1.00  0.00     0.200 A 
ATOM     81  F   UNL A   1      36.261  33.964  27.818  1.00  0.00    -0.200 F 
ATOM     82  F   UNL A   1      34.344  32.173  27.070  1.00  0.00    -0.200 F 
ENDBRANCH  58  72
BRANCH  59  83
ATOM     83  C   UNL A   1      45.063  28.256  35.376  1.00  0.00     0.064 A 
ATOM     84  C   UNL A   1      46.303  28.891  35.218  1.00  0.00     0.173 A 
ATOM     85  C   UNL A   1      44.967  27.248  36.349  1.00  0.00     0.173 A 
ATOM     86  F   UNL A   1      46.454  29.837  34.280  1.00  0.00    -0.203 F 
ATOM     87  C   UNL A   1      47.404  28.525  35.991  1.00  0.00     0.198 A 
ATOM     88  C   UNL A   1      46.061  26.905  37.141  1.00  0.00     0.198 A 
ATOM     89  F   UNL A   1      43.806  26.602  36.535  1.00  0.00    -0.203 F 
ATOM     90  F   UNL A   1      48.589  29.117  35.787  1.00  0.00    -0.200 F 
ATOM     91  C   UNL A   1      47.279  27.539  36.957  1.00  0.00     0.200 A 
ATOM     92  F   UNL A   1      45.934  25.957  38.080  1.00  0.00    -0.200 F 
ATOM     93  F   UNL A   1      48.336  27.193  37.705  1.00  0.00    -0.200 F 
ENDBRANCH  59  83
BRANCH  71  94
ATOM     94  C   UNL A   1      39.824  32.789  36.230  1.00  0.00     0.064 A 
ATOM     95  C   UNL A   1      40.431  34.042  36.403  1.00  0.00     0.173 A 
ATOM     96  C   UNL A   1      38.804  32.429  37.125  1.00  0.00     0.173 A 
ATOM     97  F   UNL A   1      41.419  34.433  35.585  1.00  0.00    -0.203 F 
ATOM     98  C   UNL A   1      40.051  34.885  37.446  1.00  0.00     0.198 A 
ATOM     99  C   UNL A   1      38.402  33.288  38.144  1.00  0.00     0.198 A 
ATOM    100  F   UNL A   1      38.181  31.246  37.002  1.00  0.00    -0.203 F 
ATOM    101  F   UNL A   1      40.681  36.055  37.623  1.00  0.00    -0.200 F 
ATOM    102  C   UNL A   1      39.033  34.512  38.310  1.00  0.00     0.200 A 
ATOM    103  F   UNL A   1      37.406  32.932  38.967  1.00  0.00    -0.200 F 
ATOM    104  F   UNL A   1      38.664  35.328  39.307  1.00  0.00    -0.200 F 
ENDBRANCH  71  94
ENDBRANCH  45  46
ENDBRANCH  38  40
ENDBRANCH  37  38
ENDBRANCH  36  37
ENDBRANCH  35  36
ENDBRANCH  34  35
ENDBRANCH  33  34
ENDBRANCH  32  33
ENDBRANCH  31  32
ENDBRANCH   1  31
TORSDOF 24
ENDMDL
MODEL 3
REMARK VINA RESULT:      -9.8      5.536     10.009
REMARK SMILES COc1cccc(NC(=O)/C(C#N)=C\c2ccc(O[C@@H](C)C(=O)OCCOCCOCCOC(=O)c3ccc(-c4c5nc(c(-c6c(F)c(F)c(F)c(F)c6F)c6ccc([nH]6)c(-c6c(F)c(F)c(F)c(F)c6F)c6nc(c(-c7c(F)c(F)c(F)c(F)c7F)c7ccc4[nH]7)C=C6)C=C5)cc3)cc2)c1
REMARK SMILES IDX 26 1 25 2 24 3 22 4 23 5 20 6 21 7 19 8 18 9 15 10 16 11
REMARK SMILES IDX 100 12 17 13 99 14 14 15 11 16 9 17 8 18 10 20 7 21 3 22
REMARK SMILES IDX 4 23 101 24 5 25 6 26 2 27 1 28 12 29 13 30 27 31 28 32
REMARK SMILES IDX 29 33 30 34 31 35 32 36 33 37 34 38 35 39 36 40 37 41 98 42
REMARK SMILES IDX 38 43 97 44 39 45 40 46 41 47 91 48 42 49 96 50 90 51 92 52
REMARK SMILES IDX 43 53 95 54 89 55 88 56 44 58 76 59 56 60 75 61 57 62 60 63
REMARK SMILES IDX 74 64 93 65 58 66 59 67 73 69 94 70 61 71 45 72 46 73 54 74
REMARK SMILES IDX 47 75 48 76 52 77 55 78 49 79 50 80 53 81 51 82 77 83 78 84
REMARK SMILES IDX 86 85 79 86 80 87 84 88 87 89 81 90 82 91 85 92 83 93 62 94
REMARK SMILES IDX 63 95 71 96 64 97 65 98 69 99 72 100 66 101 67 102 70 103
REMARK SMILES IDX 68 104
REMARK H PARENT 8 19 92 57 60 68
REMARK Flexibility Score: inf
ROOT
ATOM      1  C   UNL A   1      37.798  22.473  25.964  1.00  0.00     0.202 C 
ENDROOT
BRANCH   1   2
ATOM      2  C   UNL A   1      36.780  21.369  25.654  1.00  0.00     0.261 C 
BRANCH   2   3
ATOM      3  O   UNL A   1      35.454  21.880  25.430  1.00  0.00    -0.461 OA
BRANCH   3   4
ATOM      4  C   UNL A   1      34.509  21.041  24.934  1.00  0.00     0.347 C 
ATOM      5  O   UNL A   1      34.648  19.825  24.864  1.00  0.00    -0.248 OA
BRANCH   4   6
ATOM      6  C   UNL A   1      33.194  21.773  24.500  1.00  0.00     0.279 C 
ATOM      7  C   UNL A   1      32.248  20.771  23.836  1.00  0.00     0.066 C 
BRANCH   6   8
ATOM      8  O   UNL A   1      33.060  23.027  23.837  1.00  0.00    -0.479 OA
BRANCH   8   9
ATOM      9  C   UNL A   1      32.886  24.187  24.532  1.00  0.00     0.120 A 
ATOM     10  C   UNL A   1      32.330  26.488  26.022  1.00  0.00    -0.024 A 
ATOM     11  C   UNL A   1      31.279  25.674  25.599  1.00  0.00     0.012 A 
ATOM     12  C   UNL A   1      33.646  26.093  25.781  1.00  0.00     0.012 A 
ATOM     13  C   UNL A   1      31.565  24.509  24.875  1.00  0.00     0.047 A 
ATOM     14  C   UNL A   1      33.913  25.012  24.960  1.00  0.00     0.047 A 
BRANCH  10  15
ATOM     15  C   UNL A   1      32.123  27.812  26.598  1.00  0.00     0.033 C 
ATOM     16  C   UNL A   1      32.290  28.926  25.864  1.00  0.00     0.118 C 
BRANCH  16  17
ATOM     17  C   UNL A   1      32.504  29.027  24.326  1.00  0.00     0.266 C 
ATOM     18  N   UNL A   1      31.530  29.315  23.387  1.00  0.00    -0.321 N 
ATOM     19  H   UNL A   1      31.917  29.783  22.613  1.00  0.00     0.170 HD
ATOM     20  O   UNL A   1      33.640  28.952  23.846  1.00  0.00    -0.268 OA
BRANCH  18  21
ATOM     21  C   UNL A   1      30.138  29.129  23.217  1.00  0.00     0.045 A 
ATOM     22  C   UNL A   1      27.963  30.112  22.778  1.00  0.00     0.120 A 
ATOM     23  C   UNL A   1      27.319  28.931  23.125  1.00  0.00     0.046 A 
ATOM     24  C   UNL A   1      29.355  30.238  22.872  1.00  0.00     0.072 A 
ATOM     25  C   UNL A   1      28.095  27.803  23.319  1.00  0.00     0.006 A 
ATOM     26  C   UNL A   1      29.495  27.895  23.255  1.00  0.00     0.026 A 
BRANCH  22  27
ATOM     27  O   UNL A   1      27.216  31.155  22.298  1.00  0.00    -0.497 OA
ATOM     28  C   UNL A   1      28.105  32.226  21.948  1.00  0.00     0.278 C 
ENDBRANCH  22  27
ENDBRANCH  18  21
ENDBRANCH  16  17
BRANCH  16  29
ATOM     29  C   UNL A   1      32.169  30.309  26.482  1.00  0.00     0.105 C 
ATOM     30  N   UNL A   1      32.068  31.456  26.996  1.00  0.00    -0.192 NA
ENDBRANCH  16  29
ENDBRANCH  10  15
ENDBRANCH   8   9
ENDBRANCH   6   8
ENDBRANCH   4   6
ENDBRANCH   3   4
ENDBRANCH   2   3
ENDBRANCH   1   2
BRANCH   1  31
ATOM     31  O   UNL A   1      39.180  22.149  25.831  1.00  0.00    -0.376 OA
BRANCH  31  32
ATOM     32  C   UNL A   1      39.550  20.780  25.692  1.00  0.00     0.188 C 
BRANCH  32  33
ATOM     33  C   UNL A   1      40.750  20.234  26.488  1.00  0.00     0.188 C 
BRANCH  33  34
ATOM     34  O   UNL A   1      41.013  18.857  26.300  1.00  0.00    -0.376 OA
BRANCH  34  35
ATOM     35  C   UNL A   1      42.386  18.508  26.220  1.00  0.00     0.202 C 
BRANCH  35  36
ATOM     36  C   UNL A   1      43.221  19.431  25.322  1.00  0.00     0.261 C 
BRANCH  36  37
ATOM     37  O   UNL A   1      44.563  18.981  25.041  1.00  0.00    -0.460 OA
BRANCH  37  38
ATOM     38  C   UNL A   1      45.317  19.737  24.211  1.00  0.00     0.338 C 
ATOM     39  O   UNL A   1      45.745  19.419  23.113  1.00  0.00    -0.246 OA
BRANCH  38  40
ATOM     40  C   UNL A   1      45.356  21.114  24.759  1.00  0.00     0.060 A 
ATOM     41  C   UNL A   1      45.145  22.204  23.902  1.00  0.00     0.016 A 
ATOM     42  C   UNL A   1      45.569  21.329  26.122  1.00  0.00     0.016 A 
ATOM     43  C   UNL A   1      45.172  23.511  24.401  1.00  0.00     0.010 A 
ATOM     44  C   UNL A   1      45.619  22.636  26.617  1.00  0.00     0.010 A 
ATOM     45  C   UNL A   1      45.450  23.736  25.755  1.00  0.00    -0.014 A 
BRANCH  45  46
ATOM     46  C   UNL A   1      45.749  25.108  26.244  1.00  0.00     0.031 A 
ATOM     47  C   UNL A   1      44.623  25.924  26.820  1.00  0.00     0.074 A 
ATOM     48  C   UNL A   1      46.984  25.634  26.176  1.00  0.00     0.049 A 
ATOM     49  N   UNL A   1      44.618  27.164  27.240  1.00  0.00    -0.248 NA
ATOM     50  C   UNL A   1      43.322  25.246  26.925  1.00  0.00     0.031 C 
ATOM     51  C   UNL A   1      48.170  24.946  25.673  1.00  0.00     0.029 A 
ATOM     52  N   UNL A   1      47.440  26.886  26.519  1.00  0.00    -0.354 N 
ATOM     53  C   UNL A   1      43.314  27.418  27.647  1.00  0.00     0.074 A 
ATOM     54  C   UNL A   1      42.550  26.214  27.393  1.00  0.00     0.031 C 
ATOM     55  C   UNL A   1      49.216  25.790  25.724  1.00  0.00     0.029 A 
ATOM     56  C   UNL A   1      48.767  27.087  26.231  1.00  0.00     0.049 A 
ATOM     57  H   UNL A   1      46.868  27.571  26.933  1.00  0.00     0.167 HD
ATOM     58  C   UNL A   1      42.799  28.547  28.191  1.00  0.00     0.037 A 
ATOM     59  C   UNL A   1      49.524  28.198  26.337  1.00  0.00     0.037 A 
ATOM     60  C   UNL A   1      43.556  29.747  28.436  1.00  0.00     0.049 A 
ATOM     61  C   UNL A   1      48.913  29.469  26.876  1.00  0.00     0.074 A 
ATOM     62  C   UNL A   1      43.130  30.931  29.011  1.00  0.00     0.029 A 
ATOM     63  N   UNL A   1      44.892  29.921  28.107  1.00  0.00    -0.354 N 
ATOM     64  N   UNL A   1      47.691  29.691  27.295  1.00  0.00    -0.248 NA
ATOM     65  C   UNL A   1      49.794  30.645  26.960  1.00  0.00     0.031 C 
ATOM     66  C   UNL A   1      44.190  31.844  28.968  1.00  0.00     0.029 A 
ATOM     67  C   UNL A   1      45.298  31.205  28.433  1.00  0.00     0.049 A 
ATOM     68  H   UNL A   1      45.468  29.232  27.701  1.00  0.00     0.167 HD
ATOM     69  C   UNL A   1      47.663  31.015  27.719  1.00  0.00     0.074 A 
ATOM     70  C   UNL A   1      48.996  31.543  27.518  1.00  0.00     0.031 C 
ATOM     71  C   UNL A   1      46.628  31.726  28.231  1.00  0.00     0.037 A 
BRANCH  58  72
ATOM     72  C   UNL A   1      41.332  28.547  28.518  1.00  0.00     0.064 A 
ATOM     73  C   UNL A   1      40.365  28.960  27.589  1.00  0.00     0.173 A 
ATOM     74  C   UNL A   1      40.889  28.120  29.779  1.00  0.00     0.173 A 
ATOM     75  F   UNL A   1      40.734  29.390  26.374  1.00  0.00    -0.203 F 
ATOM     76  C   UNL A   1      39.012  28.981  27.924  1.00  0.00     0.198 A 
ATOM     77  C   UNL A   1      39.534  28.108  30.097  1.00  0.00     0.198 A 
ATOM     78  F   UNL A   1      41.771  27.710  30.704  1.00  0.00    -0.203 F 
ATOM     79  F   UNL A   1      38.113  29.439  27.042  1.00  0.00    -0.200 F 
ATOM     80  C   UNL A   1      38.598  28.550  29.175  1.00  0.00     0.200 A 
ATOM     81  F   UNL A   1      39.134  27.677  31.302  1.00  0.00    -0.200 F 
ATOM     82  F   UNL A   1      37.297  28.569  29.495  1.00  0.00    -0.200 F 
ENDBRANCH  58  72
BRANCH  59  83
ATOM     83  C   UNL A   1      50.949  28.166  25.912  1.00  0.00     0.064 A 
ATOM     84  C   UNL A   1      51.305  28.262  24.560  1.00  0.00     0.173 A 
ATOM     85  C   UNL A   1      51.985  28.027  26.850  1.00  0.00     0.173 A 
ATOM     86  F   UNL A   1      50.351  28.363  23.623  1.00  0.00    -0.203 F 
ATOM     87  C   UNL A   1      52.640  28.210  24.160  1.00  0.00     0.198 A 
ATOM     88  C   UNL A   1      53.319  28.006  26.451  1.00  0.00     0.198 A 
ATOM     89  F   UNL A   1      51.698  27.922  28.156  1.00  0.00    -0.203 F 
ATOM     90  F   UNL A   1      52.949  28.258  22.857  1.00  0.00    -0.200 F 
ATOM     91  C   UNL A   1      53.646  28.090  25.107  1.00  0.00     0.200 A 
ATOM     92  F   UNL A   1      54.289  27.899  27.370  1.00  0.00    -0.200 F 
ATOM     93  F   UNL A   1      54.929  28.048  24.723  1.00  0.00    -0.200 F 
ENDBRANCH  59  83
BRANCH  71  94
ATOM     94  C   UNL A   1      46.896  33.145  28.651  1.00  0.00     0.064 A 
ATOM     95  C   UNL A   1      46.748  34.222  27.763  1.00  0.00     0.173 A 
ATOM     96  C   UNL A   1      47.263  33.435  29.975  1.00  0.00     0.173 A 
ATOM     97  F   UNL A   1      46.411  34.003  26.485  1.00  0.00    -0.203 F 
ATOM     98  C   UNL A   1      46.988  35.532  28.178  1.00  0.00     0.198 A 
ATOM     99  C   UNL A   1      47.467  34.747  30.395  1.00  0.00     0.198 A 
ATOM    100  F   UNL A   1      47.409  32.446  30.869  1.00  0.00    -0.203 F 
ATOM    101  F   UNL A   1      46.892  36.539  27.300  1.00  0.00    -0.200 F 
ATOM    102  C   UNL A   1      47.338  35.793  29.494  1.00  0.00     0.200 A 
ATOM    103  F   UNL A   1      47.788  34.999  31.671  1.00  0.00    -0.200 F 
ATOM    104  F   UNL A   1      47.560  37.054  29.893  1.00  0.00    -0.200 F 
ENDBRANCH  71  94
ENDBRANCH  45  46
ENDBRANCH  38  40
ENDBRANCH  37  38
ENDBRANCH  36  37
ENDBRANCH  35  36
ENDBRANCH  34  35
ENDBRANCH  33  34
ENDBRANCH  32  33
ENDBRANCH  31  32
ENDBRANCH   1  31
TORSDOF 24
ENDMDL
