MODEL 1
REMARK VINA RESULT:     -11.0      0.000      0.000
REMARK SMILES O=C(/C=C\c1ccc(OCc2ccc(Br)cc2)cc1)OCCOCCOCCOC(=O)c1ccc(-c2c3nc(c(-c4c(F)c(F)c(F)c(F)c4F)c4ccc([nH]4)c(-c4c(F)c(F)c(F)c(F)c4F)c4nc(c(-c5c(F)c(F)c(F)c(F)c5F)c5ccc2[nH]5)C=C4)C=C3)cc1
REMARK SMILES IDX 24 1 23 2 22 3 21 4 20 5 2 6 1 7 3 8 4 9 5 10 6 11 19 12
REMARK SMILES IDX 7 13 18 14 8 15 9 16 10 17 11 18 12 19 17 20 13 21 16 22
REMARK SMILES IDX 14 23 15 24 25 25 26 26 27 27 28 28 29 29 30 30 31 31 32 32
REMARK SMILES IDX 33 33 94 34 34 35 93 36 35 37 36 38 37 39 87 40 38 41 92 42
REMARK SMILES IDX 86 43 88 44 39 45 91 46 85 47 84 48 40 50 72 51 52 52 71 53
REMARK SMILES IDX 53 54 56 55 70 56 89 57 54 58 55 59 69 61 90 62 57 63 41 64
REMARK SMILES IDX 42 65 50 66 43 67 44 68 48 69 51 70 45 71 46 72 49 73 47 74
REMARK SMILES IDX 73 75 74 76 82 77 75 78 76 79 80 80 83 81 77 82 78 83 81 84
REMARK SMILES IDX 79 85 58 86 59 87 67 88 60 89 61 90 65 91 68 92 62 93 63 94
REMARK SMILES IDX 66 95 64 96
REMARK H PARENT 88 49 56 60
REMARK Flexibility Score: inf
ROOT
ATOM      1  C   UNL A   1      34.008  25.190  23.621  1.00  0.00     0.188 C 
ENDROOT
BRANCH   1   2
ATOM      2  O   UNL A   1      34.638  24.699  24.801  1.00  0.00    -0.376 OA
BRANCH   2   3
ATOM      3  C   UNL A   1      35.910  24.082  24.624  1.00  0.00     0.202 C 
BRANCH   3   4
ATOM      4  C   UNL A   1      36.550  23.416  25.857  1.00  0.00     0.261 C 
BRANCH   4   5
ATOM      5  O   UNL A   1      36.302  22.013  25.990  1.00  0.00    -0.460 OA
BRANCH   5   6
ATOM      6  C   UNL A   1      35.095  21.448  26.119  1.00  0.00     0.330 C 
ATOM      7  O   UNL A   1      34.770  20.539  25.355  1.00  0.00    -0.247 OA
BRANCH   6   8
ATOM      8  C   UNL A   1      34.101  21.876  27.133  1.00  0.00     0.094 C 
ATOM      9  C   UNL A   1      32.932  22.538  27.254  1.00  0.00     0.015 C 
BRANCH   9  10
ATOM     10  C   UNL A   1      32.046  23.224  26.305  1.00  0.00    -0.025 A 
ATOM     11  C   UNL A   1      31.488  24.450  26.669  1.00  0.00     0.012 A 
ATOM     12  C   UNL A   1      31.651  22.665  25.085  1.00  0.00     0.012 A 
ATOM     13  C   UNL A   1      30.732  25.181  25.749  1.00  0.00     0.047 A 
ATOM     14  C   UNL A   1      30.976  23.430  24.125  1.00  0.00     0.047 A 
ATOM     15  C   UNL A   1      30.584  24.724  24.438  1.00  0.00     0.119 A 
BRANCH  15  16
ATOM     16  O   UNL A   1      30.122  25.655  23.552  1.00  0.00    -0.489 OA
BRANCH  16  17
ATOM     17  C   UNL A   1      28.916  26.362  23.879  1.00  0.00     0.265 C 
BRANCH  17  18
ATOM     18  C   UNL A   1      28.735  27.776  23.338  1.00  0.00    -0.011 A 
ATOM     19  C   UNL A   1      29.834  28.404  22.723  1.00  0.00     0.008 A 
ATOM     20  C   UNL A   1      27.523  28.478  23.399  1.00  0.00     0.008 A 
ATOM     21  C   UNL A   1      29.732  29.706  22.223  1.00  0.00     0.016 A 
ATOM     22  C   UNL A   1      27.424  29.790  22.922  1.00  0.00     0.016 A 
ATOM     23  C   UNL A   1      28.530  30.398  22.337  1.00  0.00     0.017 A 
ATOM     24  Br  UNL A   1      28.397  32.167  21.687  1.00  0.00    -0.051 Br
ENDBRANCH  17  18
ENDBRANCH  16  17
ENDBRANCH  15  16
ENDBRANCH   9  10
ENDBRANCH   6   8
ENDBRANCH   5   6
ENDBRANCH   4   5
ENDBRANCH   3   4
ENDBRANCH   2   3
ENDBRANCH   1   2
BRANCH   1  25
ATOM     25  C   UNL A   1      33.650  26.692  23.608  1.00  0.00     0.188 C 
BRANCH  25  26
ATOM     26  O   UNL A   1      33.640  27.240  24.913  1.00  0.00    -0.376 OA
BRANCH  26  27
ATOM     27  C   UNL A   1      32.665  28.183  25.332  1.00  0.00     0.202 C 
BRANCH  27  28
ATOM     28  C   UNL A   1      32.928  29.679  25.612  1.00  0.00     0.261 C 
BRANCH  28  29
ATOM     29  O   UNL A   1      32.688  30.145  26.941  1.00  0.00    -0.460 OA
BRANCH  29  30
ATOM     30  C   UNL A   1      33.306  31.309  27.258  1.00  0.00     0.338 C 
ATOM     31  O   UNL A   1      32.841  32.439  27.218  1.00  0.00    -0.246 OA
BRANCH  30  32
ATOM     32  C   UNL A   1      34.621  31.006  27.829  1.00  0.00     0.060 A 
ATOM     33  C   UNL A   1      34.861  29.714  28.307  1.00  0.00     0.016 A 
ATOM     34  C   UNL A   1      35.587  32.003  27.931  1.00  0.00     0.016 A 
ATOM     35  C   UNL A   1      36.107  29.388  28.831  1.00  0.00     0.010 A 
ATOM     36  C   UNL A   1      36.818  31.691  28.508  1.00  0.00     0.010 A 
ATOM     37  C   UNL A   1      37.081  30.383  28.956  1.00  0.00    -0.014 A 
BRANCH  37  38
ATOM     38  C   UNL A   1      38.322  30.106  29.704  1.00  0.00     0.031 A 
ATOM     39  C   UNL A   1      39.297  29.129  29.120  1.00  0.00     0.074 A 
ATOM     40  C   UNL A   1      38.550  30.689  30.893  1.00  0.00     0.049 A 
ATOM     41  N   UNL A   1      40.372  28.611  29.653  1.00  0.00    -0.248 NA
ATOM     42  C   UNL A   1      39.020  28.669  27.748  1.00  0.00     0.031 C 
ATOM     43  C   UNL A   1      37.698  31.701  31.514  1.00  0.00     0.029 A 
ATOM     44  N   UNL A   1      39.557  30.488  31.803  1.00  0.00    -0.354 N 
ATOM     45  C   UNL A   1      40.887  27.752  28.692  1.00  0.00     0.074 A 
ATOM     46  C   UNL A   1      40.012  27.816  27.543  1.00  0.00     0.031 C 
ATOM     47  C   UNL A   1      38.193  32.000  32.728  1.00  0.00     0.029 A 
ATOM     48  C   UNL A   1      39.369  31.167  32.982  1.00  0.00     0.049 A 
ATOM     49  H   UNL A   1      40.337  29.915  31.628  1.00  0.00     0.167 HD
ATOM     50  C   UNL A   1      41.987  26.972  28.778  1.00  0.00     0.037 A 
ATOM     51  C   UNL A   1      40.043  31.079  34.145  1.00  0.00     0.037 A 
ATOM     52  C   UNL A   1      42.844  26.919  29.930  1.00  0.00     0.049 A 
ATOM     53  C   UNL A   1      41.216  30.131  34.237  1.00  0.00     0.074 A 
ATOM     54  C   UNL A   1      44.009  26.194  30.103  1.00  0.00     0.029 A 
ATOM     55  N   UNL A   1      42.614  27.604  31.114  1.00  0.00    -0.354 N 
ATOM     56  N   UNL A   1      41.731  29.353  33.314  1.00  0.00    -0.248 NA
ATOM     57  C   UNL A   1      41.898  30.041  35.537  1.00  0.00     0.031 C 
ATOM     58  C   UNL A   1      44.444  26.381  31.417  1.00  0.00     0.029 A 
ATOM     59  C   UNL A   1      43.590  27.276  32.041  1.00  0.00     0.049 A 
ATOM     60  H   UNL A   1      41.870  28.228  31.273  1.00  0.00     0.167 HD
ATOM     61  C   UNL A   1      42.807  28.708  33.911  1.00  0.00     0.074 A 
ATOM     62  C   UNL A   1      42.886  29.198  35.270  1.00  0.00     0.031 C 
ATOM     63  C   UNL A   1      43.652  27.786  33.387  1.00  0.00     0.037 A 
BRANCH  50  64
ATOM     64  C   UNL A   1      42.306  26.074  27.623  1.00  0.00     0.064 A 
ATOM     65  C   UNL A   1      43.261  26.417  26.656  1.00  0.00     0.173 A 
ATOM     66  C   UNL A   1      41.695  24.814  27.527  1.00  0.00     0.173 A 
ATOM     67  F   UNL A   1      43.860  27.618  26.692  1.00  0.00    -0.203 F 
ATOM     68  C   UNL A   1      43.593  25.531  25.634  1.00  0.00     0.198 A 
ATOM     69  C   UNL A   1      42.048  23.921  26.522  1.00  0.00     0.198 A 
ATOM     70  F   UNL A   1      40.771  24.442  28.425  1.00  0.00    -0.203 F 
ATOM     71  F   UNL A   1      44.489  25.888  24.705  1.00  0.00    -0.200 F 
ATOM     72  C   UNL A   1      42.995  24.280  25.574  1.00  0.00     0.200 A 
ATOM     73  F   UNL A   1      41.479  22.709  26.474  1.00  0.00    -0.200 F 
ATOM     74  F   UNL A   1      43.332  23.420  24.604  1.00  0.00    -0.200 F 
ENDBRANCH  50  64
BRANCH  51  75
ATOM     75  C   UNL A   1      39.596  31.846  35.341  1.00  0.00     0.064 A 
ATOM     76  C   UNL A   1      38.663  31.314  36.242  1.00  0.00     0.173 A 
ATOM     77  C   UNL A   1      40.040  33.158  35.569  1.00  0.00     0.173 A 
ATOM     78  F   UNL A   1      38.183  30.075  36.054  1.00  0.00    -0.203 F 
ATOM     79  C   UNL A   1      38.162  32.075  37.296  1.00  0.00     0.198 A 
ATOM     80  C   UNL A   1      39.568  33.905  36.646  1.00  0.00     0.198 A 
ATOM     81  F   UNL A   1      40.928  33.724  34.736  1.00  0.00    -0.203 F 
ATOM     82  F   UNL A   1      37.212  31.567  38.093  1.00  0.00    -0.200 F 
ATOM     83  C   UNL A   1      38.617  33.369  37.501  1.00  0.00     0.200 A 
ATOM     84  F   UNL A   1      40.020  35.151  36.844  1.00  0.00    -0.200 F 
ATOM     85  F   UNL A   1      38.127  34.104  38.507  1.00  0.00    -0.200 F 
ENDBRANCH  51  75
BRANCH  63  86
ATOM     86  C   UNL A   1      44.750  27.267  34.270  1.00  0.00     0.064 A 
ATOM     87  C   UNL A   1      45.978  27.934  34.384  1.00  0.00     0.173 A 
ATOM     88  C   UNL A   1      44.545  26.127  35.062  1.00  0.00     0.173 A 
ATOM     89  F   UNL A   1      46.228  29.022  33.639  1.00  0.00    -0.203 F 
ATOM     90  C   UNL A   1      46.967  27.468  35.247  1.00  0.00     0.198 A 
ATOM     91  C   UNL A   1      45.522  25.685  35.949  1.00  0.00     0.198 A 
ATOM     92  F   UNL A   1      43.384  25.458  34.998  1.00  0.00    -0.203 F 
ATOM     93  F   UNL A   1      48.149  28.097  35.310  1.00  0.00    -0.200 F 
ATOM     94  C   UNL A   1      46.734  26.352  36.036  1.00  0.00     0.200 A 
ATOM     95  F   UNL A   1      45.286  24.619  36.725  1.00  0.00    -0.200 F 
ATOM     96  F   UNL A   1      47.680  25.917  36.879  1.00  0.00    -0.200 F 
ENDBRANCH  63  86
ENDBRANCH  37  38
ENDBRANCH  30  32
ENDBRANCH  29  30
ENDBRANCH  28  29
ENDBRANCH  27  28
ENDBRANCH  26  27
ENDBRANCH  25  26
ENDBRANCH   1  25
TORSDOF 21
ENDMDL
MODEL 2
REMARK VINA RESULT:     -10.6      4.491      9.530
REMARK SMILES O=C(/C=C\c1ccc(OCc2ccc(Br)cc2)cc1)OCCOCCOCCOC(=O)c1ccc(-c2c3nc(c(-c4c(F)c(F)c(F)c(F)c4F)c4ccc([nH]4)c(-c4c(F)c(F)c(F)c(F)c4F)c4nc(c(-c5c(F)c(F)c(F)c(F)c5F)c5ccc2[nH]5)C=C4)C=C3)cc1
REMARK SMILES IDX 24 1 23 2 22 3 21 4 20 5 2 6 1 7 3 8 4 9 5 10 6 11 19 12
REMARK SMILES IDX 7 13 18 14 8 15 9 16 10 17 11 18 12 19 17 20 13 21 16 22
REMARK SMILES IDX 14 23 15 24 25 25 26 26 27 27 28 28 29 29 30 30 31 31 32 32
REMARK SMILES IDX 33 33 94 34 34 35 93 36 35 37 36 38 37 39 87 40 38 41 92 42
REMARK SMILES IDX 86 43 88 44 39 45 91 46 85 47 84 48 40 50 72 51 52 52 71 53
REMARK SMILES IDX 53 54 56 55 70 56 89 57 54 58 55 59 69 61 90 62 57 63 41 64
REMARK SMILES IDX 42 65 50 66 43 67 44 68 48 69 51 70 45 71 46 72 49 73 47 74
REMARK SMILES IDX 73 75 74 76 82 77 75 78 76 79 80 80 83 81 77 82 78 83 81 84
REMARK SMILES IDX 79 85 58 86 59 87 67 88 60 89 61 90 65 91 68 92 62 93 63 94
REMARK SMILES IDX 66 95 64 96
REMARK H PARENT 88 49 56 60
REMARK Flexibility Score: inf
ROOT
ATOM      1  C   UNL A   1      36.580  23.360  24.574  1.00  0.00     0.188 C 
ENDROOT
BRANCH   1   2
ATOM      2  O   UNL A   1      35.183  23.607  24.697  1.00  0.00    -0.376 OA
BRANCH   2   3
ATOM      3  C   UNL A   1      34.613  23.363  25.981  1.00  0.00     0.202 C 
BRANCH   3   4
ATOM      4  C   UNL A   1      33.488  22.313  26.067  1.00  0.00     0.261 C 
BRANCH   4   5
ATOM      5  O   UNL A   1      33.858  20.990  25.670  1.00  0.00    -0.460 OA
BRANCH   5   6
ATOM      6  C   UNL A   1      33.041  20.093  25.102  1.00  0.00     0.330 C 
ATOM      7  O   UNL A   1      32.681  19.111  25.751  1.00  0.00    -0.247 OA
BRANCH   6   8
ATOM      8  C   UNL A   1      32.554  20.207  23.706  1.00  0.00     0.094 C 
ATOM      9  C   UNL A   1      32.158  21.121  22.796  1.00  0.00     0.015 C 
BRANCH   9  10
ATOM     10  C   UNL A   1      32.000  22.580  22.819  1.00  0.00    -0.025 A 
ATOM     11  C   UNL A   1      30.844  23.125  23.378  1.00  0.00     0.012 A 
ATOM     12  C   UNL A   1      32.909  23.458  22.220  1.00  0.00     0.012 A 
ATOM     13  C   UNL A   1      30.712  24.509  23.517  1.00  0.00     0.047 A 
ATOM     14  C   UNL A   1      32.830  24.839  22.438  1.00  0.00     0.047 A 
ATOM     15  C   UNL A   1      31.763  25.355  23.159  1.00  0.00     0.119 A 
BRANCH  15  16
ATOM     16  O   UNL A   1      31.664  26.631  23.636  1.00  0.00    -0.489 OA
BRANCH  16  17
ATOM     17  C   UNL A   1      30.365  27.114  24.014  1.00  0.00     0.265 C 
BRANCH  17  18
ATOM     18  C   UNL A   1      29.744  28.240  23.194  1.00  0.00    -0.011 A 
ATOM     19  C   UNL A   1      30.592  29.045  22.410  1.00  0.00     0.008 A 
ATOM     20  C   UNL A   1      28.367  28.502  23.159  1.00  0.00     0.008 A 
ATOM     21  C   UNL A   1      30.081  30.102  21.651  1.00  0.00     0.016 A 
ATOM     22  C   UNL A   1      27.855  29.574  22.419  1.00  0.00     0.016 A 
ATOM     23  C   UNL A   1      28.715  30.370  21.670  1.00  0.00     0.017 A 
ATOM     24  Br  UNL A   1      28.025  31.814  20.665  1.00  0.00    -0.051 Br
ENDBRANCH  17  18
ENDBRANCH  16  17
ENDBRANCH  15  16
ENDBRANCH   9  10
ENDBRANCH   6   8
ENDBRANCH   5   6
ENDBRANCH   4   5
ENDBRANCH   3   4
ENDBRANCH   2   3
ENDBRANCH   1   2
BRANCH   1  25
ATOM     25  C   UNL A   1      36.993  21.916  24.211  1.00  0.00     0.188 C 
BRANCH  25  26
ATOM     26  O   UNL A   1      37.349  21.170  25.359  1.00  0.00    -0.376 OA
BRANCH  26  27
ATOM     27  C   UNL A   1      38.703  20.930  25.718  1.00  0.00     0.202 C 
BRANCH  27  28
ATOM     28  C   UNL A   1      39.494  19.639  25.416  1.00  0.00     0.261 C 
BRANCH  28  29
ATOM     29  O   UNL A   1      40.465  19.229  26.380  1.00  0.00    -0.460 OA
BRANCH  29  30
ATOM     30  C   UNL A   1      41.753  19.450  26.022  1.00  0.00     0.338 C 
ATOM     31  O   UNL A   1      42.484  18.720  25.366  1.00  0.00    -0.246 OA
BRANCH  30  32
ATOM     32  C   UNL A   1      42.128  20.811  26.413  1.00  0.00     0.060 A 
ATOM     33  C   UNL A   1      42.373  21.752  25.408  1.00  0.00     0.016 A 
ATOM     34  C   UNL A   1      42.277  21.138  27.758  1.00  0.00     0.016 A 
ATOM     35  C   UNL A   1      42.705  23.059  25.747  1.00  0.00     0.010 A 
ATOM     36  C   UNL A   1      42.665  22.434  28.097  1.00  0.00     0.010 A 
ATOM     37  C   UNL A   1      42.876  23.397  27.093  1.00  0.00    -0.014 A 
BRANCH  37  38
ATOM     38  C   UNL A   1      43.436  24.714  27.454  1.00  0.00     0.031 A 
ATOM     39  C   UNL A   1      42.506  25.749  28.011  1.00  0.00     0.074 A 
ATOM     40  C   UNL A   1      44.736  24.983  27.252  1.00  0.00     0.049 A 
ATOM     41  N   UNL A   1      42.726  27.013  28.258  1.00  0.00    -0.248 NA
ATOM     42  C   UNL A   1      41.141  25.298  28.332  1.00  0.00     0.031 C 
ATOM     43  C   UNL A   1      45.734  24.027  26.777  1.00  0.00     0.029 A 
ATOM     44  N   UNL A   1      45.433  26.157  27.394  1.00  0.00    -0.354 N 
ATOM     45  C   UNL A   1      41.524  27.511  28.742  1.00  0.00     0.074 A 
ATOM     46  C   UNL A   1      40.579  26.419  28.758  1.00  0.00     0.031 C 
ATOM     47  C   UNL A   1      46.908  24.664  26.622  1.00  0.00     0.029 A 
ATOM     48  C   UNL A   1      46.728  26.079  26.945  1.00  0.00     0.049 A 
ATOM     49  H   UNL A   1      45.043  26.974  27.781  1.00  0.00     0.167 HD
ATOM     50  C   UNL A   1      41.243  28.777  29.124  1.00  0.00     0.037 A 
ATOM     51  C   UNL A   1      47.640  27.055  26.767  1.00  0.00     0.037 A 
ATOM     52  C   UNL A   1      42.194  29.853  29.098  1.00  0.00     0.049 A 
ATOM     53  C   UNL A   1      47.265  28.475  27.120  1.00  0.00     0.074 A 
ATOM     54  C   UNL A   1      42.023  31.163  29.506  1.00  0.00     0.029 A 
ATOM     55  N   UNL A   1      43.491  29.745  28.619  1.00  0.00    -0.354 N 
ATOM     56  N   UNL A   1      46.144  28.939  27.622  1.00  0.00    -0.248 NA
ATOM     57  C   UNL A   1      48.279  29.512  26.875  1.00  0.00     0.031 C 
ATOM     58  C   UNL A   1      43.191  31.867  29.204  1.00  0.00     0.029 A 
ATOM     59  C   UNL A   1      44.114  30.980  28.673  1.00  0.00     0.049 A 
ATOM     60  H   UNL A   1      43.907  28.915  28.290  1.00  0.00     0.167 HD
ATOM     61  C   UNL A   1      46.329  30.308  27.777  1.00  0.00     0.074 A 
ATOM     62  C   UNL A   1      47.675  30.600  27.335  1.00  0.00     0.031 C 
ATOM     63  C   UNL A   1      45.461  31.243  28.236  1.00  0.00     0.037 A 
BRANCH  50  64
ATOM     64  C   UNL A   1      39.842  29.088  29.554  1.00  0.00     0.064 A 
ATOM     65  C   UNL A   1      38.849  29.464  28.640  1.00  0.00     0.173 A 
ATOM     66  C   UNL A   1      39.473  28.932  30.900  1.00  0.00     0.173 A 
ATOM     67  F   UNL A   1      39.155  29.646  27.346  1.00  0.00    -0.203 F 
ATOM     68  C   UNL A   1      37.537  29.675  29.056  1.00  0.00     0.198 A 
ATOM     69  C   UNL A   1      38.156  29.115  31.308  1.00  0.00     0.198 A 
ATOM     70  F   UNL A   1      40.388  28.577  31.814  1.00  0.00    -0.203 F 
ATOM     71  F   UNL A   1      36.608  30.059  28.171  1.00  0.00    -0.200 F 
ATOM     72  C   UNL A   1      37.189  29.488  30.387  1.00  0.00     0.200 A 
ATOM     73  F   UNL A   1      37.821  28.922  32.591  1.00  0.00    -0.200 F 
ATOM     74  F   UNL A   1      35.922  29.668  30.782  1.00  0.00    -0.200 F 
ENDBRANCH  50  64
BRANCH  51  75
ATOM     75  C   UNL A   1      48.968  26.753  26.165  1.00  0.00     0.064 A 
ATOM     76  C   UNL A   1      50.059  26.372  26.960  1.00  0.00     0.173 A 
ATOM     77  C   UNL A   1      49.193  26.907  24.788  1.00  0.00     0.173 A 
ATOM     78  F   UNL A   1      49.906  26.240  28.285  1.00  0.00    -0.203 F 
ATOM     79  C   UNL A   1      51.328  26.199  26.409  1.00  0.00     0.198 A 
ATOM     80  C   UNL A   1      50.454  26.695  24.232  1.00  0.00     0.198 A 
ATOM     81  F   UNL A   1      48.189  27.276  23.977  1.00  0.00    -0.203 F 
ATOM     82  F   UNL A   1      52.367  25.914  27.205  1.00  0.00    -0.200 F 
ATOM     83  C   UNL A   1      51.524  26.357  25.046  1.00  0.00     0.200 A 
ATOM     84  F   UNL A   1      50.634  26.839  22.912  1.00  0.00    -0.200 F 
ATOM     85  F   UNL A   1      52.745  26.202  24.518  1.00  0.00    -0.200 F 
ENDBRANCH  51  75
BRANCH  63  86
ATOM     86  C   UNL A   1      45.945  32.663  28.312  1.00  0.00     0.064 A 
ATOM     87  C   UNL A   1      45.778  33.554  27.242  1.00  0.00     0.173 A 
ATOM     88  C   UNL A   1      46.520  33.155  29.494  1.00  0.00     0.173 A 
ATOM     89  F   UNL A   1      45.245  33.130  26.086  1.00  0.00    -0.203 F 
ATOM     90  C   UNL A   1      46.186  34.882  27.348  1.00  0.00     0.198 A 
ATOM     91  C   UNL A   1      46.893  34.490  29.608  1.00  0.00     0.198 A 
ATOM     92  F   UNL A   1      46.693  32.346  30.550  1.00  0.00    -0.203 F 
ATOM     93  F   UNL A   1      46.055  35.706  26.299  1.00  0.00    -0.200 F 
ATOM     94  C   UNL A   1      46.732  35.351  28.534  1.00  0.00     0.200 A 
ATOM     95  F   UNL A   1      47.401  34.946  30.761  1.00  0.00    -0.200 F 
ATOM     96  F   UNL A   1      47.106  36.633  28.638  1.00  0.00    -0.200 F 
ENDBRANCH  63  86
ENDBRANCH  37  38
ENDBRANCH  30  32
ENDBRANCH  29  30
ENDBRANCH  28  29
ENDBRANCH  27  28
ENDBRANCH  26  27
ENDBRANCH  25  26
ENDBRANCH   1  25
TORSDOF 21
ENDMDL
MODEL 3
REMARK VINA RESULT:     -10.6      4.824      9.938
REMARK SMILES O=C(/C=C\c1ccc(OCc2ccc(Br)cc2)cc1)OCCOCCOCCOC(=O)c1ccc(-c2c3nc(c(-c4c(F)c(F)c(F)c(F)c4F)c4ccc([nH]4)c(-c4c(F)c(F)c(F)c(F)c4F)c4nc(c(-c5c(F)c(F)c(F)c(F)c5F)c5ccc2[nH]5)C=C4)C=C3)cc1
REMARK SMILES IDX 24 1 23 2 22 3 21 4 20 5 2 6 1 7 3 8 4 9 5 10 6 11 19 12
REMARK SMILES IDX 7 13 18 14 8 15 9 16 10 17 11 18 12 19 17 20 13 21 16 22
REMARK SMILES IDX 14 23 15 24 25 25 26 26 27 27 28 28 29 29 30 30 31 31 32 32
REMARK SMILES IDX 33 33 94 34 34 35 93 36 35 37 36 38 37 39 87 40 38 41 92 42
REMARK SMILES IDX 86 43 88 44 39 45 91 46 85 47 84 48 40 50 72 51 52 52 71 53
REMARK SMILES IDX 53 54 56 55 70 56 89 57 54 58 55 59 69 61 90 62 57 63 41 64
REMARK SMILES IDX 42 65 50 66 43 67 44 68 48 69 51 70 45 71 46 72 49 73 47 74
REMARK SMILES IDX 73 75 74 76 82 77 75 78 76 79 80 80 83 81 77 82 78 83 81 84
REMARK SMILES IDX 79 85 58 86 59 87 67 88 60 89 61 90 65 91 68 92 62 93 63 94
REMARK SMILES IDX 66 95 64 96
REMARK H PARENT 88 49 56 60
REMARK Flexibility Score: inf
ROOT
ATOM      1  C   UNL A   1      36.187  23.651  24.419  1.00  0.00     0.188 C 
ENDROOT
BRANCH   1   2
ATOM      2  O   UNL A   1      34.795  23.582  24.126  1.00  0.00    -0.376 OA
BRANCH   2   3
ATOM      3  C   UNL A   1      34.448  23.092  22.833  1.00  0.00     0.202 C 
BRANCH   3   4
ATOM      4  C   UNL A   1      33.127  23.593  22.219  1.00  0.00     0.261 C 
BRANCH   4   5
ATOM      5  O   UNL A   1      33.252  24.237  20.947  1.00  0.00    -0.460 OA
BRANCH   5   6
ATOM      6  C   UNL A   1      32.783  25.454  20.645  1.00  0.00     0.330 C 
ATOM      7  O   UNL A   1      32.015  25.585  19.693  1.00  0.00    -0.247 OA
BRANCH   6   8
ATOM      8  C   UNL A   1      33.160  26.679  21.392  1.00  0.00     0.094 C 
ATOM      9  C   UNL A   1      33.159  27.201  22.636  1.00  0.00     0.015 C 
BRANCH   9  10
ATOM     10  C   UNL A   1      32.701  26.716  23.944  1.00  0.00    -0.025 A 
ATOM     11  C   UNL A   1      31.355  26.385  24.106  1.00  0.00     0.012 A 
ATOM     12  C   UNL A   1      33.526  26.660  25.071  1.00  0.00     0.012 A 
ATOM     13  C   UNL A   1      30.908  25.817  25.302  1.00  0.00     0.047 A 
ATOM     14  C   UNL A   1      33.110  26.006  26.238  1.00  0.00     0.047 A 
ATOM     15  C   UNL A   1      31.814  25.514  26.319  1.00  0.00     0.119 A 
BRANCH  15  16
ATOM     16  O   UNL A   1      31.338  24.674  27.285  1.00  0.00    -0.489 OA
BRANCH  16  17
ATOM     17  C   UNL A   1      30.821  23.398  26.878  1.00  0.00     0.265 C 
BRANCH  17  18
ATOM     18  C   UNL A   1      31.800  22.353  26.354  1.00  0.00    -0.011 A 
ATOM     19  C   UNL A   1      32.989  22.129  27.073  1.00  0.00     0.008 A 
ATOM     20  C   UNL A   1      31.569  21.584  25.204  1.00  0.00     0.008 A 
ATOM     21  C   UNL A   1      33.932  21.194  26.631  1.00  0.00     0.016 A 
ATOM     22  C   UNL A   1      32.521  20.666  24.746  1.00  0.00     0.016 A 
ATOM     23  C   UNL A   1      33.699  20.477  25.462  1.00  0.00     0.017 A 
ATOM     24  Br  UNL A   1      34.983  19.234  24.849  1.00  0.00    -0.051 Br
ENDBRANCH  17  18
ENDBRANCH  16  17
ENDBRANCH  15  16
ENDBRANCH   9  10
ENDBRANCH   6   8
ENDBRANCH   5   6
ENDBRANCH   4   5
ENDBRANCH   3   4
ENDBRANCH   2   3
ENDBRANCH   1   2
BRANCH   1  25
ATOM     25  C   UNL A   1      36.982  22.332  24.294  1.00  0.00     0.188 C 
BRANCH  25  26
ATOM     26  O   UNL A   1      37.434  21.872  25.553  1.00  0.00    -0.376 OA
BRANCH  26  27
ATOM     27  C   UNL A   1      38.788  21.515  25.789  1.00  0.00     0.202 C 
BRANCH  27  28
ATOM     28  C   UNL A   1      39.410  20.129  25.512  1.00  0.00     0.261 C 
BRANCH  28  29
ATOM     29  O   UNL A   1      40.300  19.605  26.499  1.00  0.00    -0.460 OA
BRANCH  29  30
ATOM     30  C   UNL A   1      41.606  19.588  26.139  1.00  0.00     0.338 C 
ATOM     31  O   UNL A   1      42.190  18.739  25.479  1.00  0.00    -0.246 OA
BRANCH  30  32
ATOM     32  C   UNL A   1      42.224  20.856  26.533  1.00  0.00     0.060 A 
ATOM     33  C   UNL A   1      42.261  21.188  27.891  1.00  0.00     0.016 A 
ATOM     34  C   UNL A   1      42.718  21.726  25.565  1.00  0.00     0.016 A 
ATOM     35  C   UNL A   1      42.864  22.373  28.300  1.00  0.00     0.010 A 
ATOM     36  C   UNL A   1      43.272  22.940  25.970  1.00  0.00     0.010 A 
ATOM     37  C   UNL A   1      43.349  23.264  27.337  1.00  0.00    -0.014 A 
BRANCH  37  38
ATOM     38  C   UNL A   1      43.791  24.612  27.742  1.00  0.00     0.031 A 
ATOM     39  C   UNL A   1      42.746  25.609  28.144  1.00  0.00     0.074 A 
ATOM     40  C   UNL A   1      45.093  24.943  27.713  1.00  0.00     0.049 A 
ATOM     41  N   UNL A   1      42.870  26.886  28.390  1.00  0.00    -0.248 NA
ATOM     42  C   UNL A   1      41.373  25.095  28.285  1.00  0.00     0.031 C 
ATOM     43  C   UNL A   1      46.190  24.030  27.400  1.00  0.00     0.029 A 
ATOM     44  N   UNL A   1      45.708  26.152  27.923  1.00  0.00    -0.354 N 
ATOM     45  C   UNL A   1      41.591  27.331  28.694  1.00  0.00     0.074 A 
ATOM     46  C   UNL A   1      40.705  26.193  28.605  1.00  0.00     0.031 C 
ATOM     47  C   UNL A   1      47.343  24.722  27.393  1.00  0.00     0.029 A 
ATOM     48  C   UNL A   1      47.055  26.131  27.657  1.00  0.00     0.049 A 
ATOM     49  H   UNL A   1      45.230  26.954  28.235  1.00  0.00     0.167 HD
ATOM     50  C   UNL A   1      41.201  28.587  29.006  1.00  0.00     0.037 A 
ATOM     51  C   UNL A   1      47.935  27.149  27.583  1.00  0.00     0.037 A 
ATOM     52  C   UNL A   1      42.095  29.709  29.086  1.00  0.00     0.049 A 
ATOM     53  C   UNL A   1      47.449  28.554  27.851  1.00  0.00     0.074 A 
ATOM     54  C   UNL A   1      41.808  31.015  29.437  1.00  0.00     0.029 A 
ATOM     55  N   UNL A   1      43.450  29.657  28.792  1.00  0.00    -0.354 N 
ATOM     56  N   UNL A   1      46.249  28.969  28.184  1.00  0.00    -0.248 NA
ATOM     57  C   UNL A   1      48.437  29.636  27.723  1.00  0.00     0.031 C 
ATOM     58  C   UNL A   1      42.972  31.771  29.282  1.00  0.00     0.029 A 
ATOM     59  C   UNL A   1      44.001  30.923  28.902  1.00  0.00     0.049 A 
ATOM     60  H   UNL A   1      43.945  28.845  28.541  1.00  0.00     0.167 HD
ATOM     61  C   UNL A   1      46.346  30.347  28.332  1.00  0.00     0.074 A 
ATOM     62  C   UNL A   1      47.725  30.699  28.073  1.00  0.00     0.031 C 
ATOM     63  C   UNL A   1      45.381  31.246  28.648  1.00  0.00     0.037 A 
BRANCH  50  64
ATOM     64  C   UNL A   1      39.741  28.835  29.234  1.00  0.00     0.064 A 
ATOM     65  C   UNL A   1      39.153  28.704  30.499  1.00  0.00     0.173 A 
ATOM     66  C   UNL A   1      38.935  29.284  28.176  1.00  0.00     0.173 A 
ATOM     67  F   UNL A   1      39.877  28.259  31.538  1.00  0.00    -0.203 F 
ATOM     68  C   UNL A   1      37.810  29.012  30.698  1.00  0.00     0.198 A 
ATOM     69  C   UNL A   1      37.601  29.619  28.384  1.00  0.00     0.198 A 
ATOM     70  F   UNL A   1      39.450  29.422  26.945  1.00  0.00    -0.203 F 
ATOM     71  F   UNL A   1      37.260  28.855  31.909  1.00  0.00    -0.200 F 
ATOM     72  C   UNL A   1      37.038  29.481  29.644  1.00  0.00     0.200 A 
ATOM     73  F   UNL A   1      36.862  30.083  27.367  1.00  0.00    -0.200 F 
ATOM     74  F   UNL A   1      35.752  29.800  29.842  1.00  0.00    -0.200 F 
ENDBRANCH  50  64
BRANCH  51  75
ATOM     75  C   UNL A   1      49.347  26.903  27.175  1.00  0.00     0.064 A 
ATOM     76  C   UNL A   1      49.738  26.970  25.830  1.00  0.00     0.173 A 
ATOM     77  C   UNL A   1      50.318  26.525  28.114  1.00  0.00     0.173 A 
ATOM     78  F   UNL A   1      48.841  27.297  24.888  1.00  0.00    -0.203 F 
ATOM     79  C   UNL A   1      51.032  26.630  25.438  1.00  0.00     0.198 A 
ATOM     80  C   UNL A   1      51.622  26.223  27.725  1.00  0.00     0.198 A 
ATOM     81  F   UNL A   1      50.001  26.436  29.415  1.00  0.00    -0.203 F 
ATOM     82  F   UNL A   1      51.354  26.627  24.137  1.00  0.00    -0.200 F 
ATOM     83  C   UNL A   1      51.974  26.261  26.385  1.00  0.00     0.200 A 
ATOM     84  F   UNL A   1      52.531  25.877  28.647  1.00  0.00    -0.200 F 
ATOM     85  F   UNL A   1      53.213  25.923  26.006  1.00  0.00    -0.200 F 
ENDBRANCH  51  75
BRANCH  63  86
ATOM     86  C   UNL A   1      45.783  32.689  28.758  1.00  0.00     0.064 A 
ATOM     87  C   UNL A   1      46.263  33.228  29.959  1.00  0.00     0.173 A 
ATOM     88  C   UNL A   1      45.751  33.523  27.629  1.00  0.00     0.173 A 
ATOM     89  F   UNL A   1      46.301  32.476  31.070  1.00  0.00    -0.203 F 
ATOM     90  C   UNL A   1      46.679  34.555  30.032  1.00  0.00     0.198 A 
ATOM     91  C   UNL A   1      46.202  34.837  27.696  1.00  0.00     0.198 A 
ATOM     92  F   UNL A   1      45.310  33.053  26.453  1.00  0.00    -0.203 F 
ATOM     93  F   UNL A   1      47.095  35.061  31.200  1.00  0.00    -0.200 F 
ATOM     94  C   UNL A   1      46.660  35.354  28.898  1.00  0.00     0.200 A 
ATOM     95  F   UNL A   1      46.202  35.601  26.595  1.00  0.00    -0.200 F 
ATOM     96  F   UNL A   1      47.079  36.625  28.966  1.00  0.00    -0.200 F 
ENDBRANCH  63  86
ENDBRANCH  37  38
ENDBRANCH  30  32
ENDBRANCH  29  30
ENDBRANCH  28  29
ENDBRANCH  27  28
ENDBRANCH  26  27
ENDBRANCH  25  26
ENDBRANCH   1  25
TORSDOF 21
ENDMDL
