MODEL 1
REMARK VINA RESULT:     -10.6      0.000      0.000
REMARK SMILES C[C@@](NC(=O)CSCc1ccccc1)(C(=O)OCCOCCOCCOC(=O)c1ccc(-c2c3nc(c(-c4c(F)c(F)c(F)c(F)c4F)c4ccc([nH]4)c(-c4c(F)c(F)c(F)c(F)c4F)c4nc(c(-c5c(F)c(F)c(F)c(F)c5F)c5ccc2[nH]5)C=C4)C=C3)cc1)C1CC1
REMARK SMILES IDX 20 1 19 2 18 3 17 4 15 5 16 6 2 7 1 8 3 9 4 10 5 12 6 13
REMARK SMILES IDX 7 14 8 15 9 16 10 17 14 18 11 19 13 20 12 21 92 22 93 23
REMARK SMILES IDX 94 24 21 25 22 26 23 27 24 28 25 29 26 30 27 31 28 32 29 33
REMARK SMILES IDX 30 34 91 35 31 36 90 37 32 38 33 39 34 40 84 41 35 42 89 43
REMARK SMILES IDX 83 44 85 45 36 46 88 47 82 48 81 49 37 51 69 52 49 53 68 54
REMARK SMILES IDX 50 55 53 56 67 57 86 58 51 59 52 60 66 62 87 63 54 64 38 65
REMARK SMILES IDX 39 66 47 67 40 68 41 69 45 70 48 71 42 72 43 73 46 74 44 75
REMARK SMILES IDX 70 76 71 77 79 78 72 79 73 80 77 81 80 82 74 83 75 84 78 85
REMARK SMILES IDX 76 86 55 87 56 88 64 89 57 90 58 91 62 92 65 93 59 94 60 95
REMARK SMILES IDX 63 96 61 97
REMARK H PARENT 3 11 85 50 53 61
REMARK Flexibility Score: inf
ROOT
ATOM      1  O   UNL A   1      38.256  21.989  26.109  1.00  0.00    -0.376 OA
ENDROOT
BRANCH   1   2
ATOM      2  C   UNL A   1      37.674  21.541  24.885  1.00  0.00     0.202 C 
BRANCH   2   3
ATOM      3  C   UNL A   1      36.404  20.689  24.989  1.00  0.00     0.261 C 
BRANCH   3   4
ATOM      4  O   UNL A   1      35.513  21.117  26.044  1.00  0.00    -0.461 OA
BRANCH   4   5
ATOM      5  C   UNL A   1      34.849  22.285  25.862  1.00  0.00     0.331 C 
ATOM      6  O   UNL A   1      35.280  23.369  26.249  1.00  0.00    -0.249 OA
BRANCH   5   7
ATOM      7  C   UNL A   1      33.423  22.129  25.199  1.00  0.00     0.138 C 
ATOM      8  C   UNL A   1      33.003  20.806  24.522  1.00  0.00     0.048 C 
BRANCH   7   9
ATOM      9  N   UNL A   1      32.409  22.442  26.233  1.00  0.00    -0.340 N 
ATOM     10  C   UNL A   1      31.384  23.347  26.180  1.00  0.00     0.230 C 
ATOM     11  H   UNL A   1      32.483  21.928  27.071  1.00  0.00     0.164 HD
ATOM     12  O   UNL A   1      30.975  23.819  27.244  1.00  0.00    -0.274 OA
BRANCH  10  13
ATOM     13  C   UNL A   1      30.711  23.705  24.867  1.00  0.00     0.169 C 
BRANCH  13  14
ATOM     14  S   UNL A   1      29.954  25.358  24.891  1.00  0.00    -0.147 SA
BRANCH  14  15
ATOM     15  C   UNL A   1      31.274  26.365  24.157  1.00  0.00     0.105 C 
BRANCH  15  16
ATOM     16  C   UNL A   1      32.138  26.915  25.257  1.00  0.00    -0.038 A 
ATOM     17  C   UNL A   1      31.559  27.301  26.473  1.00  0.00     0.004 A 
ATOM     18  C   UNL A   1      33.488  27.208  25.015  1.00  0.00     0.004 A 
ATOM     19  C   UNL A   1      32.291  28.044  27.392  1.00  0.00     0.000 A 
ATOM     20  C   UNL A   1      34.227  27.928  25.951  1.00  0.00     0.000 A 
ATOM     21  C   UNL A   1      33.621  28.365  27.128  1.00  0.00     0.000 A 
ENDBRANCH  15  16
ENDBRANCH  14  15
ENDBRANCH  13  14
ENDBRANCH  10  13
ENDBRANCH   7   9
BRANCH   7  22
ATOM     22  C   UNL A   1      33.403  23.181  24.068  1.00  0.00     0.026 C 
ATOM     23  C   UNL A   1      34.522  23.411  23.079  1.00  0.00     0.007 C 
ATOM     24  C   UNL A   1      33.220  22.810  22.617  1.00  0.00     0.007 C 
ENDBRANCH   7  22
ENDBRANCH   5   7
ENDBRANCH   4   5
ENDBRANCH   3   4
ENDBRANCH   2   3
ENDBRANCH   1   2
BRANCH   1  25
ATOM     25  C   UNL A   1      39.670  22.145  26.152  1.00  0.00     0.188 C 
BRANCH  25  26
ATOM     26  C   UNL A   1      40.523  20.914  26.502  1.00  0.00     0.188 C 
BRANCH  26  27
ATOM     27  O   UNL A   1      41.856  21.198  26.866  1.00  0.00    -0.376 OA
BRANCH  27  28
ATOM     28  C   UNL A   1      42.861  20.833  25.934  1.00  0.00     0.202 C 
BRANCH  28  29
ATOM     29  C   UNL A   1      43.730  21.964  25.355  1.00  0.00     0.261 C 
BRANCH  29  30
ATOM     30  O   UNL A   1      43.053  23.206  25.084  1.00  0.00    -0.460 OA
BRANCH  30  31
ATOM     31  C   UNL A   1      43.779  24.351  25.165  1.00  0.00     0.338 C 
ATOM     32  O   UNL A   1      44.706  24.675  24.465  1.00  0.00    -0.246 OA
BRANCH  31  33
ATOM     33  C   UNL A   1      43.043  25.272  26.081  1.00  0.00     0.060 A 
ATOM     34  C   UNL A   1      43.510  26.590  26.215  1.00  0.00     0.016 A 
ATOM     35  C   UNL A   1      41.868  24.880  26.727  1.00  0.00     0.016 A 
ATOM     36  C   UNL A   1      42.830  27.501  27.027  1.00  0.00     0.010 A 
ATOM     37  C   UNL A   1      41.200  25.785  27.560  1.00  0.00     0.010 A 
ATOM     38  C   UNL A   1      41.702  27.086  27.748  1.00  0.00    -0.014 A 
BRANCH  38  39
ATOM     39  C   UNL A   1      41.249  27.894  28.910  1.00  0.00     0.031 A 
ATOM     40  C   UNL A   1      42.020  27.743  30.195  1.00  0.00     0.074 A 
ATOM     41  C   UNL A   1      40.224  28.763  28.839  1.00  0.00     0.049 A 
ATOM     42  N   UNL A   1      41.839  28.319  31.355  1.00  0.00    -0.248 NA
ATOM     43  C   UNL A   1      43.155  26.805  30.161  1.00  0.00     0.031 C 
ATOM     44  C   UNL A   1      39.425  29.043  27.651  1.00  0.00     0.029 A 
ATOM     45  N   UNL A   1      39.683  29.573  29.809  1.00  0.00    -0.354 N 
ATOM     46  C   UNL A   1      42.830  27.809  32.185  1.00  0.00     0.074 A 
ATOM     47  C   UNL A   1      43.587  26.853  31.410  1.00  0.00     0.031 C 
ATOM     48  C   UNL A   1      38.489  29.960  27.962  1.00  0.00     0.029 A 
ATOM     49  C   UNL A   1      38.607  30.310  29.378  1.00  0.00     0.049 A 
ATOM     50  H   UNL A   1      40.032  29.619  30.728  1.00  0.00     0.167 HD
ATOM     51  C   UNL A   1      43.096  28.114  33.477  1.00  0.00     0.037 A 
ATOM     52  C   UNL A   1      37.807  31.157  30.058  1.00  0.00     0.037 A 
ATOM     53  C   UNL A   1      42.342  29.058  34.254  1.00  0.00     0.049 A 
ATOM     54  C   UNL A   1      38.070  31.418  31.522  1.00  0.00     0.074 A 
ATOM     55  C   UNL A   1      42.542  29.450  35.566  1.00  0.00     0.029 A 
ATOM     56  N   UNL A   1      41.232  29.749  33.794  1.00  0.00    -0.354 N 
ATOM     57  N   UNL A   1      39.031  30.961  32.290  1.00  0.00    -0.248 NA
ATOM     58  C   UNL A   1      37.135  32.318  32.214  1.00  0.00     0.031 C 
ATOM     59  C   UNL A   1      41.516  30.333  35.918  1.00  0.00     0.029 A 
ATOM     60  C   UNL A   1      40.717  30.543  34.806  1.00  0.00     0.049 A 
ATOM     61  H   UNL A   1      40.864  29.686  32.883  1.00  0.00     0.167 HD
ATOM     62  C   UNL A   1      38.841  31.550  33.536  1.00  0.00     0.074 A 
ATOM     63  C   UNL A   1      37.677  32.402  33.419  1.00  0.00     0.031 C 
ATOM     64  C   UNL A   1      39.566  31.401  34.673  1.00  0.00     0.037 A 
BRANCH  51  65
ATOM     65  C   UNL A   1      44.228  27.382  34.134  1.00  0.00     0.064 A 
ATOM     66  C   UNL A   1      44.045  26.140  34.761  1.00  0.00     0.173 A 
ATOM     67  C   UNL A   1      45.518  27.933  34.137  1.00  0.00     0.173 A 
ATOM     68  F   UNL A   1      42.826  25.580  34.806  1.00  0.00    -0.203 F 
ATOM     69  C   UNL A   1      45.102  25.494  35.397  1.00  0.00     0.198 A 
ATOM     70  C   UNL A   1      46.581  27.269  34.743  1.00  0.00     0.198 A 
ATOM     71  F   UNL A   1      45.750  29.119  33.554  1.00  0.00    -0.203 F 
ATOM     72  F   UNL A   1      44.889  24.340  36.043  1.00  0.00    -0.200 F 
ATOM     73  C   UNL A   1      46.370  26.056  35.381  1.00  0.00     0.200 A 
ATOM     74  F   UNL A   1      47.808  27.808  34.719  1.00  0.00    -0.200 F 
ATOM     75  F   UNL A   1      47.387  25.433  35.992  1.00  0.00    -0.200 F 
ENDBRANCH  51  65
BRANCH  52  76
ATOM     76  C   UNL A   1      36.673  31.836  29.371  1.00  0.00     0.064 A 
ATOM     77  C   UNL A   1      36.705  33.215  29.114  1.00  0.00     0.173 A 
ATOM     78  C   UNL A   1      35.518  31.133  29.001  1.00  0.00     0.173 A 
ATOM     79  F   UNL A   1      37.774  33.938  29.479  1.00  0.00    -0.203 F 
ATOM     80  C   UNL A   1      35.618  33.866  28.534  1.00  0.00     0.198 A 
ATOM     81  C   UNL A   1      34.442  31.781  28.394  1.00  0.00     0.198 A 
ATOM     82  F   UNL A   1      35.430  29.815  29.233  1.00  0.00    -0.203 F 
ATOM     83  F   UNL A   1      35.654  35.194  28.353  1.00  0.00    -0.200 F 
ATOM     84  C   UNL A   1      34.490  33.148  28.170  1.00  0.00     0.200 A 
ATOM     85  F   UNL A   1      33.356  31.081  28.039  1.00  0.00    -0.200 F 
ATOM     86  F   UNL A   1      33.443  33.775  27.616  1.00  0.00    -0.200 F 
ENDBRANCH  52  76
BRANCH  64  87
ATOM     87  C   UNL A   1      39.164  32.219  35.868  1.00  0.00     0.064 A 
ATOM     88  C   UNL A   1      39.572  33.551  36.030  1.00  0.00     0.173 A 
ATOM     89  C   UNL A   1      38.321  31.670  36.848  1.00  0.00     0.173 A 
ATOM     90  F   UNL A   1      40.386  34.122  35.129  1.00  0.00    -0.203 F 
ATOM     91  C   UNL A   1      39.180  34.290  37.144  1.00  0.00     0.198 A 
ATOM     92  C   UNL A   1      37.902  32.422  37.941  1.00  0.00     0.198 A 
ATOM     93  F   UNL A   1      37.889  30.404  36.738  1.00  0.00    -0.203 F 
ATOM     94  F   UNL A   1      39.629  35.543  37.306  1.00  0.00    -0.200 F 
ATOM     95  C   UNL A   1      38.340  33.728  38.095  1.00  0.00     0.200 A 
ATOM     96  F   UNL A   1      37.075  31.883  38.848  1.00  0.00    -0.200 F 
ATOM     97  F   UNL A   1      37.959  34.443  39.162  1.00  0.00    -0.200 F 
ENDBRANCH  64  87
ENDBRANCH  38  39
ENDBRANCH  31  33
ENDBRANCH  30  31
ENDBRANCH  29  30
ENDBRANCH  28  29
ENDBRANCH  27  28
ENDBRANCH  26  27
ENDBRANCH  25  26
ENDBRANCH   1  25
TORSDOF 23
ENDMDL
MODEL 2
REMARK VINA RESULT:     -10.2      4.877      8.828
REMARK SMILES C[C@@](NC(=O)CSCc1ccccc1)(C(=O)OCCOCCOCCOC(=O)c1ccc(-c2c3nc(c(-c4c(F)c(F)c(F)c(F)c4F)c4ccc([nH]4)c(-c4c(F)c(F)c(F)c(F)c4F)c4nc(c(-c5c(F)c(F)c(F)c(F)c5F)c5ccc2[nH]5)C=C4)C=C3)cc1)C1CC1
REMARK SMILES IDX 20 1 19 2 18 3 17 4 15 5 16 6 2 7 1 8 3 9 4 10 5 12 6 13
REMARK SMILES IDX 7 14 8 15 9 16 10 17 14 18 11 19 13 20 12 21 92 22 93 23
REMARK SMILES IDX 94 24 21 25 22 26 23 27 24 28 25 29 26 30 27 31 28 32 29 33
REMARK SMILES IDX 30 34 91 35 31 36 90 37 32 38 33 39 34 40 84 41 35 42 89 43
REMARK SMILES IDX 83 44 85 45 36 46 88 47 82 48 81 49 37 51 69 52 49 53 68 54
REMARK SMILES IDX 50 55 53 56 67 57 86 58 51 59 52 60 66 62 87 63 54 64 38 65
REMARK SMILES IDX 39 66 47 67 40 68 41 69 45 70 48 71 42 72 43 73 46 74 44 75
REMARK SMILES IDX 70 76 71 77 79 78 72 79 73 80 77 81 80 82 74 83 75 84 78 85
REMARK SMILES IDX 76 86 55 87 56 88 64 89 57 90 58 91 62 92 65 93 59 94 60 95
REMARK SMILES IDX 63 96 61 97
REMARK H PARENT 3 11 85 50 53 61
REMARK Flexibility Score: inf
ROOT
ATOM      1  O   UNL A   1      34.000  21.802  24.816  1.00  0.00    -0.376 OA
ENDROOT
BRANCH   1   2
ATOM      2  C   UNL A   1      32.945  21.074  24.187  1.00  0.00     0.202 C 
BRANCH   2   3
ATOM      3  C   UNL A   1      32.221  21.763  23.024  1.00  0.00     0.261 C 
BRANCH   3   4
ATOM      4  O   UNL A   1      32.492  23.181  22.941  1.00  0.00    -0.461 OA
BRANCH   4   5
ATOM      5  C   UNL A   1      31.574  24.022  23.479  1.00  0.00     0.331 C 
ATOM      6  O   UNL A   1      30.378  23.980  23.195  1.00  0.00    -0.249 OA
BRANCH   5   7
ATOM      7  C   UNL A   1      32.180  25.131  24.427  1.00  0.00     0.138 C 
ATOM      8  C   UNL A   1      32.981  24.744  25.690  1.00  0.00     0.048 C 
BRANCH   7   9
ATOM      9  N   UNL A   1      33.045  26.005  23.601  1.00  0.00    -0.340 N 
ATOM     10  C   UNL A   1      32.743  26.650  22.432  1.00  0.00     0.230 C 
ATOM     11  H   UNL A   1      33.961  26.142  23.940  1.00  0.00     0.164 HD
ATOM     12  O   UNL A   1      33.668  26.904  21.656  1.00  0.00    -0.274 OA
BRANCH  10  13
ATOM     13  C   UNL A   1      31.330  27.116  22.128  1.00  0.00     0.169 C 
BRANCH  13  14
ATOM     14  S   UNL A   1      30.896  28.658  22.988  1.00  0.00    -0.147 SA
BRANCH  14  15
ATOM     15  C   UNL A   1      29.090  28.674  22.801  1.00  0.00     0.105 C 
BRANCH  15  16
ATOM     16  C   UNL A   1      28.643  30.077  22.500  1.00  0.00    -0.038 A 
ATOM     17  C   UNL A   1      28.128  30.391  21.236  1.00  0.00     0.004 A 
ATOM     18  C   UNL A   1      28.898  31.111  23.414  1.00  0.00     0.004 A 
ATOM     19  C   UNL A   1      27.956  31.718  20.859  1.00  0.00     0.000 A 
ATOM     20  C   UNL A   1      28.697  32.439  23.043  1.00  0.00     0.000 A 
ATOM     21  C   UNL A   1      28.249  32.742  21.759  1.00  0.00     0.000 A 
ENDBRANCH  15  16
ENDBRANCH  14  15
ENDBRANCH  13  14
ENDBRANCH  10  13
ENDBRANCH   7   9
BRANCH   7  22
ATOM     22  C   UNL A   1      30.952  25.905  24.955  1.00  0.00     0.026 C 
ATOM     23  C   UNL A   1      30.086  25.470  26.114  1.00  0.00     0.007 C 
ATOM     24  C   UNL A   1      30.974  26.680  26.248  1.00  0.00     0.007 C 
ENDBRANCH   7  22
ENDBRANCH   5   7
ENDBRANCH   4   5
ENDBRANCH   3   4
ENDBRANCH   2   3
ENDBRANCH   1   2
BRANCH   1  25
ATOM     25  C   UNL A   1      35.324  21.299  24.679  1.00  0.00     0.188 C 
BRANCH  25  26
ATOM     26  C   UNL A   1      36.477  22.126  25.275  1.00  0.00     0.188 C 
BRANCH  26  27
ATOM     27  O   UNL A   1      37.764  21.590  25.064  1.00  0.00    -0.376 OA
BRANCH  27  28
ATOM     28  C   UNL A   1      37.875  20.176  25.086  1.00  0.00     0.202 C 
BRANCH  28  29
ATOM     29  C   UNL A   1      39.238  19.581  25.486  1.00  0.00     0.261 C 
BRANCH  29  30
ATOM     30  O   UNL A   1      40.263  20.530  25.840  1.00  0.00    -0.460 OA
BRANCH  30  31
ATOM     31  C   UNL A   1      40.682  20.553  27.131  1.00  0.00     0.338 C 
ATOM     32  O   UNL A   1      40.935  19.603  27.830  1.00  0.00    -0.246 OA
BRANCH  31  33
ATOM     33  C   UNL A   1      41.058  21.963  27.444  1.00  0.00     0.060 A 
ATOM     34  C   UNL A   1      40.469  22.991  26.690  1.00  0.00     0.016 A 
ATOM     35  C   UNL A   1      41.902  22.277  28.513  1.00  0.00     0.016 A 
ATOM     36  C   UNL A   1      40.757  24.329  26.975  1.00  0.00     0.010 A 
ATOM     37  C   UNL A   1      42.210  23.616  28.782  1.00  0.00     0.010 A 
ATOM     38  C   UNL A   1      41.674  24.646  27.987  1.00  0.00    -0.014 A 
BRANCH  38  39
ATOM     39  C   UNL A   1      42.296  25.995  28.003  1.00  0.00     0.031 A 
ATOM     40  C   UNL A   1      41.539  27.092  28.706  1.00  0.00     0.074 A 
ATOM     41  C   UNL A   1      43.498  26.251  27.458  1.00  0.00     0.049 A 
ATOM     42  N   UNL A   1      41.845  28.353  28.866  1.00  0.00    -0.248 NA
ATOM     43  C   UNL A   1      40.255  26.703  29.314  1.00  0.00     0.031 C 
ATOM     44  C   UNL A   1      44.356  25.277  26.791  1.00  0.00     0.029 A 
ATOM     45  N   UNL A   1      44.203  27.429  27.384  1.00  0.00    -0.354 N 
ATOM     46  C   UNL A   1      40.792  28.906  29.583  1.00  0.00     0.074 A 
ATOM     47  C   UNL A   1      39.822  27.855  29.799  1.00  0.00     0.031 C 
ATOM     48  C   UNL A   1      45.475  25.899  26.370  1.00  0.00     0.029 A 
ATOM     49  C   UNL A   1      45.397  27.319  26.713  1.00  0.00     0.049 A 
ATOM     50  H   UNL A   1      43.882  28.274  27.773  1.00  0.00     0.167 HD
ATOM     51  C   UNL A   1      40.643  30.174  30.034  1.00  0.00     0.037 A 
ATOM     52  C   UNL A   1      46.310  28.263  26.406  1.00  0.00     0.037 A 
ATOM     53  C   UNL A   1      41.599  31.224  29.816  1.00  0.00     0.049 A 
ATOM     54  C   UNL A   1      46.083  29.691  26.845  1.00  0.00     0.074 A 
ATOM     55  C   UNL A   1      41.550  32.538  30.245  1.00  0.00     0.029 A 
ATOM     56  N   UNL A   1      42.773  31.082  29.093  1.00  0.00    -0.354 N 
ATOM     57  N   UNL A   1      45.103  30.198  27.555  1.00  0.00    -0.248 NA
ATOM     58  C   UNL A   1      47.096  30.677  26.440  1.00  0.00     0.031 C 
ATOM     59  C   UNL A   1      42.665  33.207  29.731  1.00  0.00     0.029 A 
ATOM     60  C   UNL A   1      43.443  32.294  29.038  1.00  0.00     0.049 A 
ATOM     61  H   UNL A   1      43.086  30.244  28.680  1.00  0.00     0.167 HD
ATOM     62  C   UNL A   1      45.403  31.546  27.717  1.00  0.00     0.074 A 
ATOM     63  C   UNL A   1      46.660  31.777  27.036  1.00  0.00     0.031 C 
ATOM     64  C   UNL A   1      44.703  32.507  28.372  1.00  0.00     0.037 A 
BRANCH  51  65
ATOM     65  C   UNL A   1      39.376  30.495  30.770  1.00  0.00     0.064 A 
ATOM     66  C   UNL A   1      39.266  30.341  32.161  1.00  0.00     0.173 A 
ATOM     67  C   UNL A   1      38.254  30.965  30.072  1.00  0.00     0.173 A 
ATOM     68  F   UNL A   1      40.304  29.874  32.872  1.00  0.00    -0.203 F 
ATOM     69  C   UNL A   1      38.070  30.611  32.820  1.00  0.00     0.198 A 
ATOM     70  C   UNL A   1      37.070  31.267  30.738  1.00  0.00     0.198 A 
ATOM     71  F   UNL A   1      38.303  31.129  28.742  1.00  0.00    -0.203 F 
ATOM     72  F   UNL A   1      37.970  30.396  34.138  1.00  0.00    -0.200 F 
ATOM     73  C   UNL A   1      36.975  31.080  32.109  1.00  0.00     0.200 A 
ATOM     74  F   UNL A   1      36.015  31.730  30.051  1.00  0.00    -0.200 F 
ATOM     75  F   UNL A   1      35.825  31.341  32.744  1.00  0.00    -0.200 F 
ENDBRANCH  51  65
BRANCH  52  76
ATOM     76  C   UNL A   1      47.537  27.903  25.643  1.00  0.00     0.064 A 
ATOM     77  C   UNL A   1      48.759  27.690  26.299  1.00  0.00     0.173 A 
ATOM     78  C   UNL A   1      47.527  27.812  24.244  1.00  0.00     0.173 A 
ATOM     79  F   UNL A   1      48.830  27.798  27.634  1.00  0.00    -0.203 F 
ATOM     80  C   UNL A   1      49.925  27.421  25.583  1.00  0.00     0.198 A 
ATOM     81  C   UNL A   1      48.687  27.514  23.531  1.00  0.00     0.198 A 
ATOM     82  F   UNL A   1      46.388  28.018  23.566  1.00  0.00    -0.203 F 
ATOM     83  F   UNL A   1      51.089  27.278  26.232  1.00  0.00    -0.200 F 
ATOM     84  C   UNL A   1      49.887  27.328  24.200  1.00  0.00     0.200 A 
ATOM     85  F   UNL A   1      48.644  27.420  22.195  1.00  0.00    -0.200 F 
ATOM     86  F   UNL A   1      51.008  27.073  23.513  1.00  0.00    -0.200 F 
ENDBRANCH  52  76
BRANCH  64  87
ATOM     87  C   UNL A   1      45.305  33.883  28.440  1.00  0.00     0.064 A 
ATOM     88  C   UNL A   1      46.211  34.250  29.445  1.00  0.00     0.173 A 
ATOM     89  C   UNL A   1      44.997  34.838  27.456  1.00  0.00     0.173 A 
ATOM     90  F   UNL A   1      46.533  33.381  30.415  1.00  0.00    -0.203 F 
ATOM     91  C   UNL A   1      46.760  35.531  29.483  1.00  0.00     0.198 A 
ATOM     92  C   UNL A   1      45.575  36.104  27.476  1.00  0.00     0.198 A 
ATOM     93  F   UNL A   1      44.145  34.536  26.464  1.00  0.00    -0.203 F 
ATOM     94  F   UNL A   1      47.580  35.876  30.484  1.00  0.00    -0.200 F 
ATOM     95  C   UNL A   1      46.447  36.453  28.495  1.00  0.00     0.200 A 
ATOM     96  F   UNL A   1      45.285  36.987  26.510  1.00  0.00    -0.200 F 
ATOM     97  F   UNL A   1      46.981  37.682  28.529  1.00  0.00    -0.200 F 
ENDBRANCH  64  87
ENDBRANCH  38  39
ENDBRANCH  31  33
ENDBRANCH  30  31
ENDBRANCH  29  30
ENDBRANCH  28  29
ENDBRANCH  27  28
ENDBRANCH  26  27
ENDBRANCH  25  26
ENDBRANCH   1  25
TORSDOF 23
ENDMDL
MODEL 3
REMARK VINA RESULT:     -10.0      1.016      7.286
REMARK SMILES C[C@@](NC(=O)CSCc1ccccc1)(C(=O)OCCOCCOCCOC(=O)c1ccc(-c2c3nc(c(-c4c(F)c(F)c(F)c(F)c4F)c4ccc([nH]4)c(-c4c(F)c(F)c(F)c(F)c4F)c4nc(c(-c5c(F)c(F)c(F)c(F)c5F)c5ccc2[nH]5)C=C4)C=C3)cc1)C1CC1
REMARK SMILES IDX 20 1 19 2 18 3 17 4 15 5 16 6 2 7 1 8 3 9 4 10 5 12 6 13
REMARK SMILES IDX 7 14 8 15 9 16 10 17 14 18 11 19 13 20 12 21 92 22 93 23
REMARK SMILES IDX 94 24 21 25 22 26 23 27 24 28 25 29 26 30 27 31 28 32 29 33
REMARK SMILES IDX 30 34 91 35 31 36 90 37 32 38 33 39 34 40 84 41 35 42 89 43
REMARK SMILES IDX 83 44 85 45 36 46 88 47 82 48 81 49 37 51 69 52 49 53 68 54
REMARK SMILES IDX 50 55 53 56 67 57 86 58 51 59 52 60 66 62 87 63 54 64 38 65
REMARK SMILES IDX 39 66 47 67 40 68 41 69 45 70 48 71 42 72 43 73 46 74 44 75
REMARK SMILES IDX 70 76 71 77 79 78 72 79 73 80 77 81 80 82 74 83 75 84 78 85
REMARK SMILES IDX 76 86 55 87 56 88 64 89 57 90 58 91 62 92 65 93 59 94 60 95
REMARK SMILES IDX 63 96 61 97
REMARK H PARENT 3 11 85 50 53 61
REMARK Flexibility Score: inf
ROOT
ATOM      1  O   UNL A   1      38.069  22.847  26.469  1.00  0.00    -0.376 OA
ENDROOT
BRANCH   1   2
ATOM      2  C   UNL A   1      37.303  22.627  25.285  1.00  0.00     0.202 C 
BRANCH   2   3
ATOM      3  C   UNL A   1      36.304  21.464  25.308  1.00  0.00     0.261 C 
BRANCH   3   4
ATOM      4  O   UNL A   1      35.253  21.632  26.287  1.00  0.00    -0.461 OA
BRANCH   4   5
ATOM      5  C   UNL A   1      34.245  22.485  25.976  1.00  0.00     0.331 C 
ATOM      6  O   UNL A   1      34.264  23.680  26.265  1.00  0.00    -0.249 OA
BRANCH   5   7
ATOM      7  C   UNL A   1      32.993  21.799  25.300  1.00  0.00     0.138 C 
ATOM      8  C   UNL A   1      33.071  20.348  24.775  1.00  0.00     0.048 C 
BRANCH   7   9
ATOM      9  N   UNL A   1      31.869  21.865  26.262  1.00  0.00    -0.340 N 
ATOM     10  C   UNL A   1      31.001  22.898  26.495  1.00  0.00     0.230 C 
ATOM     11  H   UNL A   1      31.726  21.057  26.807  1.00  0.00     0.164 HD
ATOM     12  O   UNL A   1      30.484  22.977  27.612  1.00  0.00    -0.274 OA
BRANCH  10  13
ATOM     13  C   UNL A   1      30.619  23.874  25.395  1.00  0.00     0.169 C 
BRANCH  13  14
ATOM     14  S   UNL A   1      30.330  25.558  26.018  1.00  0.00    -0.147 SA
BRANCH  14  15
ATOM     15  C   UNL A   1      30.123  26.480  24.467  1.00  0.00     0.105 C 
BRANCH  15  16
ATOM     16  C   UNL A   1      31.368  26.328  23.639  1.00  0.00    -0.038 A 
ATOM     17  C   UNL A   1      32.618  26.633  24.194  1.00  0.00     0.004 A 
ATOM     18  C   UNL A   1      31.275  26.051  22.267  1.00  0.00     0.004 A 
ATOM     19  C   UNL A   1      33.737  26.749  23.378  1.00  0.00     0.000 A 
ATOM     20  C   UNL A   1      32.404  26.139  21.456  1.00  0.00     0.000 A 
ATOM     21  C   UNL A   1      33.629  26.511  22.008  1.00  0.00     0.000 A 
ENDBRANCH  15  16
ENDBRANCH  14  15
ENDBRANCH  13  14
ENDBRANCH  10  13
ENDBRANCH   7   9
BRANCH   7  22
ATOM     22  C   UNL A   1      32.705  22.660  24.051  1.00  0.00     0.026 C 
ATOM     23  C   UNL A   1      33.645  22.832  22.881  1.00  0.00     0.007 C 
ATOM     24  C   UNL A   1      32.364  22.059  22.710  1.00  0.00     0.007 C 
ENDBRANCH   7  22
ENDBRANCH   5   7
ENDBRANCH   4   5
ENDBRANCH   3   4
ENDBRANCH   2   3
ENDBRANCH   1   2
BRANCH   1  25
ATOM     25  C   UNL A   1      39.479  22.983  26.330  1.00  0.00     0.188 C 
BRANCH  25  26
ATOM     26  C   UNL A   1      40.328  21.701  26.288  1.00  0.00     0.188 C 
BRANCH  26  27
ATOM     27  O   UNL A   1      41.672  21.864  26.686  1.00  0.00    -0.376 OA
BRANCH  27  28
ATOM     28  C   UNL A   1      42.663  21.476  25.749  1.00  0.00     0.202 C 
BRANCH  28  29
ATOM     29  C   UNL A   1      43.611  22.572  25.229  1.00  0.00     0.261 C 
BRANCH  29  30
ATOM     30  O   UNL A   1      43.027  23.876  25.041  1.00  0.00    -0.460 OA
BRANCH  30  31
ATOM     31  C   UNL A   1      43.813  24.958  25.274  1.00  0.00     0.338 C 
ATOM     32  O   UNL A   1      44.746  25.335  24.610  1.00  0.00    -0.246 OA
BRANCH  31  33
ATOM     33  C   UNL A   1      43.138  25.770  26.330  1.00  0.00     0.060 A 
ATOM     34  C   UNL A   1      43.603  27.074  26.565  1.00  0.00     0.016 A 
ATOM     35  C   UNL A   1      42.016  25.296  27.014  1.00  0.00     0.016 A 
ATOM     36  C   UNL A   1      42.976  27.887  27.513  1.00  0.00     0.010 A 
ATOM     37  C   UNL A   1      41.402  26.102  27.981  1.00  0.00     0.010 A 
ATOM     38  C   UNL A   1      41.907  27.384  28.266  1.00  0.00    -0.014 A 
BRANCH  38  39
ATOM     39  C   UNL A   1      41.533  28.063  29.533  1.00  0.00     0.031 A 
ATOM     40  C   UNL A   1      40.292  28.919  29.514  1.00  0.00     0.074 A 
ATOM     41  C   UNL A   1      42.225  27.911  30.676  1.00  0.00     0.049 A 
ATOM     42  N   UNL A   1      39.743  29.622  30.469  1.00  0.00    -0.248 NA
ATOM     43  C   UNL A   1      39.574  28.985  28.229  1.00  0.00     0.031 C 
ATOM     44  C   UNL A   1      43.412  27.079  30.848  1.00  0.00     0.029 A 
ATOM     45  N   UNL A   1      42.018  28.465  31.917  1.00  0.00    -0.354 N 
ATOM     46  C   UNL A   1      38.624  30.217  29.900  1.00  0.00     0.074 A 
ATOM     47  C   UNL A   1      38.590  29.822  28.510  1.00  0.00     0.031 C 
ATOM     48  C   UNL A   1      43.833  27.180  32.124  1.00  0.00     0.029 A 
ATOM     49  C   UNL A   1      42.961  28.105  32.848  1.00  0.00     0.049 A 
ATOM     50  H   UNL A   1      41.265  29.065  32.119  1.00  0.00     0.167 HD
ATOM     51  C   UNL A   1      37.698  31.016  30.481  1.00  0.00     0.037 A 
ATOM     52  C   UNL A   1      43.104  28.492  34.133  1.00  0.00     0.037 A 
ATOM     53  C   UNL A   1      37.732  31.419  31.860  1.00  0.00     0.049 A 
ATOM     54  C   UNL A   1      42.106  29.452  34.738  1.00  0.00     0.074 A 
ATOM     55  C   UNL A   1      36.832  32.212  32.550  1.00  0.00     0.029 A 
ATOM     56  N   UNL A   1      38.729  31.069  32.758  1.00  0.00    -0.354 N 
ATOM     57  N   UNL A   1      41.031  29.980  34.204  1.00  0.00    -0.248 NA
ATOM     58  C   UNL A   1      42.345  29.866  36.128  1.00  0.00     0.031 C 
ATOM     59  C   UNL A   1      37.317  32.392  33.849  1.00  0.00     0.029 A 
ATOM     60  C   UNL A   1      38.483  31.656  33.988  1.00  0.00     0.049 A 
ATOM     61  H   UNL A   1      39.498  30.489  32.553  1.00  0.00     0.167 HD
ATOM     62  C   UNL A   1      40.444  30.750  35.204  1.00  0.00     0.074 A 
ATOM     63  C   UNL A   1      41.281  30.615  36.377  1.00  0.00     0.031 C 
ATOM     64  C   UNL A   1      39.314  31.500  35.155  1.00  0.00     0.037 A 
BRANCH  51  65
ATOM     65  C   UNL A   1      36.597  31.537  29.606  1.00  0.00     0.064 A 
ATOM     66  C   UNL A   1      35.591  30.699  29.100  1.00  0.00     0.173 A 
ATOM     67  C   UNL A   1      36.547  32.898  29.268  1.00  0.00     0.173 A 
ATOM     68  F   UNL A   1      35.605  29.385  29.375  1.00  0.00    -0.203 F 
ATOM     69  C   UNL A   1      34.598  31.196  28.261  1.00  0.00     0.198 A 
ATOM     70  C   UNL A   1      35.534  33.399  28.457  1.00  0.00     0.198 A 
ATOM     71  F   UNL A   1      37.484  33.743  29.724  1.00  0.00    -0.203 F 
ATOM     72  F   UNL A   1      33.686  30.366  27.739  1.00  0.00    -0.200 F 
ATOM     73  C   UNL A   1      34.567  32.547  27.945  1.00  0.00     0.200 A 
ATOM     74  F   UNL A   1      35.499  34.706  28.161  1.00  0.00    -0.200 F 
ATOM     75  F   UNL A   1      33.610  33.025  27.138  1.00  0.00    -0.200 F 
ENDBRANCH  51  65
BRANCH  52  76
ATOM     76  C   UNL A   1      44.233  27.974  34.953  1.00  0.00     0.064 A 
ATOM     77  C   UNL A   1      44.104  26.791  35.697  1.00  0.00     0.173 A 
ATOM     78  C   UNL A   1      45.445  28.673  35.051  1.00  0.00     0.173 A 
ATOM     79  F   UNL A   1      42.953  26.103  35.664  1.00  0.00    -0.203 F 
ATOM     80  C   UNL A   1      45.135  26.340  36.520  1.00  0.00     0.198 A 
ATOM     81  C   UNL A   1      46.486  28.205  35.852  1.00  0.00     0.198 A 
ATOM     82  F   UNL A   1      45.618  29.815  34.370  1.00  0.00    -0.203 F 
ATOM     83  F   UNL A   1      44.962  25.237  37.263  1.00  0.00    -0.200 F 
ATOM     84  C   UNL A   1      46.326  27.045  36.593  1.00  0.00     0.200 A 
ATOM     85  F   UNL A   1      47.638  28.887  35.915  1.00  0.00    -0.200 F 
ATOM     86  F   UNL A   1      47.315  26.613  37.387  1.00  0.00    -0.200 F 
ENDBRANCH  52  76
BRANCH  64  87
ATOM     87  C   UNL A   1      38.878  32.185  36.421  1.00  0.00     0.064 A 
ATOM     88  C   UNL A   1      38.038  31.560  37.354  1.00  0.00     0.173 A 
ATOM     89  C   UNL A   1      39.343  33.476  36.721  1.00  0.00     0.173 A 
ATOM     90  F   UNL A   1      37.557  30.331  37.113  1.00  0.00    -0.203 F 
ATOM     91  C   UNL A   1      37.653  32.214  38.522  1.00  0.00     0.198 A 
ATOM     92  C   UNL A   1      38.985  34.112  37.906  1.00  0.00     0.198 A 
ATOM     93  F   UNL A   1      40.159  34.116  35.869  1.00  0.00    -0.203 F 
ATOM     94  F   UNL A   1      36.805  31.619  39.372  1.00  0.00    -0.200 F 
ATOM     95  C   UNL A   1      38.132  33.486  38.801  1.00  0.00     0.200 A 
ATOM     96  F   UNL A   1      39.465  35.333  38.181  1.00  0.00    -0.200 F 
ATOM     97  F   UNL A   1      37.766  34.110  39.928  1.00  0.00    -0.200 F 
ENDBRANCH  64  87
ENDBRANCH  38  39
ENDBRANCH  31  33
ENDBRANCH  30  31
ENDBRANCH  29  30
ENDBRANCH  28  29
ENDBRANCH  27  28
ENDBRANCH  26  27
ENDBRANCH  25  26
ENDBRANCH   1  25
TORSDOF 23
ENDMDL
