MODEL 1
REMARK VINA RESULT:     -10.6      0.000      0.000
REMARK SMILES CCS(=O)(=O)Nc1ccc(N2CC[NH+](C)CC2)cc1C(=O)OCCOCCOCCOC(=O)c1ccc(-c2c3nc(c(-c4c(F)c(F)c(F)c(F)c4F)c4ccc([nH]4)c(-c4c(F)c(F)c(F)c(F)c4F)c4nc(c(-c5c(F)c(F)c(F)c(F)c5F)c5ccc2[nH]5)C=C4)C=C3)cc1
REMARK SMILES IDX 26 1 25 2 24 3 23 4 22 5 20 6 21 7 19 8 7 9 8 10 9 11 18 12
REMARK SMILES IDX 10 13 6 14 3 16 4 17 5 18 2 19 1 20 11 21 12 22 17 23 13 24
REMARK SMILES IDX 16 25 14 26 15 27 27 29 28 30 29 31 30 32 31 33 32 34 33 35
REMARK SMILES IDX 34 36 35 37 96 38 36 39 95 40 37 41 38 42 39 43 89 44 40 45
REMARK SMILES IDX 94 46 88 47 90 48 41 49 93 50 87 51 86 52 42 54 74 55 54 56
REMARK SMILES IDX 73 57 55 58 58 59 72 60 91 61 56 62 57 63 71 65 92 66 59 67
REMARK SMILES IDX 43 68 44 69 52 70 45 71 46 72 50 73 53 74 47 75 48 76 51 77
REMARK SMILES IDX 49 78 75 79 76 80 84 81 77 82 78 83 82 84 85 85 79 86 80 87
REMARK SMILES IDX 83 88 81 89 60 90 61 91 69 92 62 93 63 94 67 95 70 96 64 97
REMARK SMILES IDX 65 98 68 99 66 100
REMARK H PARENT 6 15 14 28 90 53 58 64
REMARK Flexibility Score: inf
ROOT
ATOM      1  C   UNL A   1      41.246  21.372  27.406  1.00  0.00     0.188 C 
ENDROOT
BRANCH   1   2
ATOM      2  O   UNL A   1      39.988  20.901  26.952  1.00  0.00    -0.376 OA
BRANCH   2   3
ATOM      3  C   UNL A   1      39.163  21.866  26.321  1.00  0.00     0.202 C 
BRANCH   3   4
ATOM      4  C   UNL A   1      38.259  21.290  25.242  1.00  0.00     0.261 C 
BRANCH   4   5
ATOM      5  O   UNL A   1      36.855  21.582  25.372  1.00  0.00    -0.460 OA
BRANCH   5   6
ATOM      6  C   UNL A   1      36.195  22.343  24.473  1.00  0.00     0.340 C 
ATOM      7  O   UNL A   1      36.510  22.535  23.312  1.00  0.00    -0.246 OA
BRANCH   6   8
ATOM      8  C   UNL A   1      34.993  22.939  25.122  1.00  0.00     0.086 A 
ATOM      9  C   UNL A   1      34.131  22.186  25.943  1.00  0.00     0.063 A 
ATOM     10  C   UNL A   1      33.063  22.822  26.570  1.00  0.00     0.030 A 
ATOM     11  C   UNL A   1      32.849  24.192  26.365  1.00  0.00     0.028 A 
ATOM     12  C   UNL A   1      34.758  24.310  24.920  1.00  0.00     0.043 A 
ATOM     13  C   UNL A   1      33.681  24.957  25.533  1.00  0.00     0.038 A 
BRANCH   9  14
ATOM     14  N   UNL A   1      34.219  20.770  26.010  1.00  0.00    -0.283 N 
ATOM     15  H   UNL A   1      34.867  20.407  26.657  1.00  0.00     0.180 HD
BRANCH  14  16
ATOM     16  S   UNL A   1      33.365  19.661  25.135  1.00  0.00     0.232 S 
ATOM     17  O   UNL A   1      32.649  18.905  26.146  1.00  0.00    -0.207 OA
ATOM     18  O   UNL A   1      34.317  18.986  24.277  1.00  0.00    -0.207 OA
BRANCH  16  19
ATOM     19  C   UNL A   1      32.126  20.374  24.053  1.00  0.00     0.156 C 
ATOM     20  C   UNL A   1      32.520  21.279  22.920  1.00  0.00     0.023 C 
ENDBRANCH  16  19
ENDBRANCH  14  16
ENDBRANCH   9  14
BRANCH  13  21
ATOM     21  N   UNL A   1      33.445  26.298  25.348  1.00  0.00    -0.360 N 
ATOM     22  C   UNL A   1      32.762  27.148  26.331  1.00  0.00     0.178 C 
ATOM     23  C   UNL A   1      33.697  26.926  24.044  1.00  0.00     0.178 C 
ATOM     24  C   UNL A   1      31.489  27.784  25.727  1.00  0.00     0.283 C 
ATOM     25  C   UNL A   1      32.383  27.537  23.493  1.00  0.00     0.283 C 
ATOM     26  N   UNL A   1      31.746  28.476  24.444  1.00  0.00    -0.334 N 
ATOM     27  C   UNL A   1      30.509  29.025  23.894  1.00  0.00     0.332 C 
ATOM     28  H   UNL A   1      32.382  29.257  24.609  1.00  0.00     0.347 HD
ENDBRANCH  13  21
ENDBRANCH   6   8
ENDBRANCH   5   6
ENDBRANCH   4   5
ENDBRANCH   3   4
ENDBRANCH   2   3
ENDBRANCH   1   2
BRANCH   1  29
ATOM     29  C   UNL A   1      42.454  20.905  26.563  1.00  0.00     0.188 C 
BRANCH  29  30
ATOM     30  O   UNL A   1      43.561  21.769  26.358  1.00  0.00    -0.376 OA
BRANCH  30  31
ATOM     31  C   UNL A   1      44.329  21.620  25.173  1.00  0.00     0.202 C 
BRANCH  31  32
ATOM     32  C   UNL A   1      44.521  22.843  24.257  1.00  0.00     0.261 C 
BRANCH  32  33
ATOM     33  O   UNL A   1      43.729  23.997  24.600  1.00  0.00    -0.460 OA
BRANCH  33  34
ATOM     34  C   UNL A   1      44.407  25.071  25.078  1.00  0.00     0.338 C 
ATOM     35  O   UNL A   1      45.449  25.535  24.644  1.00  0.00    -0.246 OA
BRANCH  34  36
ATOM     36  C   UNL A   1      43.584  25.785  26.088  1.00  0.00     0.060 A 
ATOM     37  C   UNL A   1      43.867  27.139  26.329  1.00  0.00     0.016 A 
ATOM     38  C   UNL A   1      42.564  25.151  26.799  1.00  0.00     0.016 A 
ATOM     39  C   UNL A   1      43.157  27.854  27.295  1.00  0.00     0.010 A 
ATOM     40  C   UNL A   1      41.877  25.858  27.797  1.00  0.00     0.010 A 
ATOM     41  C   UNL A   1      42.195  27.203  28.073  1.00  0.00    -0.014 A 
BRANCH  41  42
ATOM     42  C   UNL A   1      41.737  27.839  29.335  1.00  0.00     0.031 A 
ATOM     43  C   UNL A   1      40.472  28.655  29.287  1.00  0.00     0.074 A 
ATOM     44  C   UNL A   1      42.380  27.676  30.505  1.00  0.00     0.049 A 
ATOM     45  N   UNL A   1      39.897  29.366  30.223  1.00  0.00    -0.248 NA
ATOM     46  C   UNL A   1      39.757  28.665  27.999  1.00  0.00     0.031 C 
ATOM     47  C   UNL A   1      43.572  26.859  30.714  1.00  0.00     0.029 A 
ATOM     48  N   UNL A   1      42.115  28.209  31.745  1.00  0.00    -0.354 N 
ATOM     49  C   UNL A   1      38.764  29.915  29.634  1.00  0.00     0.074 A 
ATOM     50  C   UNL A   1      38.743  29.474  28.257  1.00  0.00     0.031 C 
ATOM     51  C   UNL A   1      43.949  26.962  32.002  1.00  0.00     0.029 A 
ATOM     52  C   UNL A   1      43.048  27.881  32.697  1.00  0.00     0.049 A 
ATOM     53  H   UNL A   1      41.329  28.772  31.931  1.00  0.00     0.167 HD
ATOM     54  C   UNL A   1      37.821  30.713  30.189  1.00  0.00     0.037 A 
ATOM     55  C   UNL A   1      43.175  28.306  33.971  1.00  0.00     0.037 A 
ATOM     56  C   UNL A   1      37.839  31.161  31.554  1.00  0.00     0.049 A 
ATOM     57  C   UNL A   1      42.170  29.279  34.541  1.00  0.00     0.074 A 
ATOM     58  C   UNL A   1      36.928  31.970  32.209  1.00  0.00     0.029 A 
ATOM     59  N   UNL A   1      38.828  30.845  32.474  1.00  0.00    -0.354 N 
ATOM     60  N   UNL A   1      41.100  29.791  33.982  1.00  0.00    -0.248 NA
ATOM     61  C   UNL A   1      42.394  29.734  35.922  1.00  0.00     0.031 C 
ATOM     62  C   UNL A   1      37.394  32.190  33.509  1.00  0.00     0.029 A 
ATOM     63  C   UNL A   1      38.563  31.467  33.683  1.00  0.00     0.049 A 
ATOM     64  H   UNL A   1      39.603  30.265  32.294  1.00  0.00     0.167 HD
ATOM     65  C   UNL A   1      40.509  30.599  34.948  1.00  0.00     0.074 A 
ATOM     66  C   UNL A   1      41.334  30.502  36.133  1.00  0.00     0.031 C 
ATOM     67  C   UNL A   1      39.385  31.352  34.862  1.00  0.00     0.037 A 
BRANCH  54  68
ATOM     68  C   UNL A   1      36.711  31.186  29.297  1.00  0.00     0.064 A 
ATOM     69  C   UNL A   1      36.655  32.505  28.821  1.00  0.00     0.173 A 
ATOM     70  C   UNL A   1      35.694  30.303  28.905  1.00  0.00     0.173 A 
ATOM     71  F   UNL A   1      37.593  33.394  29.184  1.00  0.00    -0.203 F 
ATOM     72  C   UNL A   1      35.606  32.929  28.011  1.00  0.00     0.198 A 
ATOM     73  C   UNL A   1      34.664  30.722  28.069  1.00  0.00     0.198 A 
ATOM     74  F   UNL A   1      35.700  29.031  29.333  1.00  0.00    -0.203 F 
ATOM     75  F   UNL A   1      35.543  34.207  27.614  1.00  0.00    -0.200 F 
ATOM     76  C   UNL A   1      34.615  32.036  27.630  1.00  0.00     0.200 A 
ATOM     77  F   UNL A   1      33.713  29.855  27.693  1.00  0.00    -0.200 F 
ATOM     78  F   UNL A   1      33.607  32.446  26.847  1.00  0.00    -0.200 F 
ENDBRANCH  54  68
BRANCH  55  79
ATOM     79  C   UNL A   1      44.319  27.843  34.802  1.00  0.00     0.064 A 
ATOM     80  C   UNL A   1      44.229  26.674  35.572  1.00  0.00     0.173 A 
ATOM     81  C   UNL A   1      45.509  28.580  34.877  1.00  0.00     0.173 A 
ATOM     82  F   UNL A   1      43.102  25.947  35.554  1.00  0.00    -0.203 F 
ATOM     83  C   UNL A   1      45.277  26.272  36.398  1.00  0.00     0.198 A 
ATOM     84  C   UNL A   1      46.568  28.163  35.680  1.00  0.00     0.198 A 
ATOM     85  F   UNL A   1      45.645  29.711  34.167  1.00  0.00    -0.203 F 
ATOM     86  F   UNL A   1      45.144  25.178  37.160  1.00  0.00    -0.200 F 
ATOM     87  C   UNL A   1      46.448  27.014  36.447  1.00  0.00     0.200 A 
ATOM     88  F   UNL A   1      47.702  28.876  35.717  1.00  0.00    -0.200 F 
ATOM     89  F   UNL A   1      47.456  26.626  37.241  1.00  0.00    -0.200 F 
ENDBRANCH  55  79
BRANCH  67  90
ATOM     90  C   UNL A   1      38.945  32.098  36.091  1.00  0.00     0.064 A 
ATOM     91  C   UNL A   1      38.201  31.480  37.106  1.00  0.00     0.173 A 
ATOM     92  C   UNL A   1      39.322  33.438  36.278  1.00  0.00     0.173 A 
ATOM     93  F   UNL A   1      37.805  30.206  36.971  1.00  0.00    -0.203 F 
ATOM     94  C   UNL A   1      37.830  32.181  38.251  1.00  0.00     0.198 A 
ATOM     95  C   UNL A   1      38.976  34.127  37.437  1.00  0.00     0.198 A 
ATOM     96  F   UNL A   1      40.042  34.075  35.343  1.00  0.00    -0.203 F 
ATOM     97  F   UNL A   1      37.079  31.583  39.186  1.00  0.00    -0.200 F 
ATOM     98  C   UNL A   1      38.225  33.501  38.419  1.00  0.00     0.200 A 
ATOM     99  F   UNL A   1      39.374  35.395  37.605  1.00  0.00    -0.200 F 
ATOM    100  F   UNL A   1      37.875  34.170  39.527  1.00  0.00    -0.200 F 
ENDBRANCH  67  90
ENDBRANCH  41  42
ENDBRANCH  34  36
ENDBRANCH  33  34
ENDBRANCH  32  33
ENDBRANCH  31  32
ENDBRANCH  30  31
ENDBRANCH  29  30
ENDBRANCH   1  29
TORSDOF 21
ENDMDL
MODEL 2
REMARK VINA RESULT:     -10.3      6.034     11.036
REMARK SMILES CCS(=O)(=O)Nc1ccc(N2CC[NH+](C)CC2)cc1C(=O)OCCOCCOCCOC(=O)c1ccc(-c2c3nc(c(-c4c(F)c(F)c(F)c(F)c4F)c4ccc([nH]4)c(-c4c(F)c(F)c(F)c(F)c4F)c4nc(c(-c5c(F)c(F)c(F)c(F)c5F)c5ccc2[nH]5)C=C4)C=C3)cc1
REMARK SMILES IDX 26 1 25 2 24 3 23 4 22 5 20 6 21 7 19 8 7 9 8 10 9 11 18 12
REMARK SMILES IDX 10 13 6 14 3 16 4 17 5 18 2 19 1 20 11 21 12 22 17 23 13 24
REMARK SMILES IDX 16 25 14 26 15 27 27 29 28 30 29 31 30 32 31 33 32 34 33 35
REMARK SMILES IDX 34 36 35 37 96 38 36 39 95 40 37 41 38 42 39 43 89 44 40 45
REMARK SMILES IDX 94 46 88 47 90 48 41 49 93 50 87 51 86 52 42 54 74 55 54 56
REMARK SMILES IDX 73 57 55 58 58 59 72 60 91 61 56 62 57 63 71 65 92 66 59 67
REMARK SMILES IDX 43 68 44 69 52 70 45 71 46 72 50 73 53 74 47 75 48 76 51 77
REMARK SMILES IDX 49 78 75 79 76 80 84 81 77 82 78 83 82 84 85 85 79 86 80 87
REMARK SMILES IDX 83 88 81 89 60 90 61 91 69 92 62 93 63 94 67 95 70 96 64 97
REMARK SMILES IDX 65 98 68 99 66 100
REMARK H PARENT 6 15 14 28 90 53 58 64
REMARK Flexibility Score: inf
ROOT
ATOM      1  C   UNL A   1      34.875  33.113  28.765  1.00  0.00     0.188 C 
ENDROOT
BRANCH   1   2
ATOM      2  O   UNL A   1      34.082  31.937  28.739  1.00  0.00    -0.376 OA
BRANCH   2   3
ATOM      3  C   UNL A   1      34.039  31.256  27.496  1.00  0.00     0.202 C 
BRANCH   3   4
ATOM      4  C   UNL A   1      32.761  30.460  27.277  1.00  0.00     0.261 C 
BRANCH   4   5
ATOM      5  O   UNL A   1      32.597  29.873  25.973  1.00  0.00    -0.460 OA
BRANCH   5   6
ATOM      6  C   UNL A   1      31.478  30.055  25.240  1.00  0.00     0.340 C 
ATOM      7  O   UNL A   1      30.775  31.050  25.222  1.00  0.00    -0.246 OA
BRANCH   6   8
ATOM      8  C   UNL A   1      31.210  28.829  24.437  1.00  0.00     0.086 A 
ATOM      9  C   UNL A   1      30.827  28.886  23.083  1.00  0.00     0.063 A 
ATOM     10  C   UNL A   1      30.657  27.700  22.374  1.00  0.00     0.030 A 
ATOM     11  C   UNL A   1      30.852  26.469  23.017  1.00  0.00     0.028 A 
ATOM     12  C   UNL A   1      31.393  27.586  25.068  1.00  0.00     0.043 A 
ATOM     13  C   UNL A   1      31.210  26.388  24.371  1.00  0.00     0.038 A 
BRANCH   9  14
ATOM     14  N   UNL A   1      30.443  30.110  22.470  1.00  0.00    -0.283 N 
ATOM     15  H   UNL A   1      31.178  30.691  22.167  1.00  0.00     0.180 HD
BRANCH  14  16
ATOM     16  S   UNL A   1      28.914  30.672  22.208  1.00  0.00     0.232 S 
ATOM     17  O   UNL A   1      28.599  30.197  20.873  1.00  0.00    -0.207 OA
ATOM     18  O   UNL A   1      28.943  32.096  22.471  1.00  0.00    -0.207 OA
BRANCH  16  19
ATOM     19  C   UNL A   1      27.676  29.980  23.305  1.00  0.00     0.156 C 
ATOM     20  C   UNL A   1      27.198  28.565  23.133  1.00  0.00     0.023 C 
ENDBRANCH  16  19
ENDBRANCH  14  16
ENDBRANCH   9  14
BRANCH  13  21
ATOM     21  N   UNL A   1      31.391  25.168  24.976  1.00  0.00    -0.360 N 
ATOM     22  C   UNL A   1      32.332  24.936  26.078  1.00  0.00     0.178 C 
ATOM     23  C   UNL A   1      30.778  23.958  24.411  1.00  0.00     0.178 C 
ATOM     24  C   UNL A   1      33.382  23.867  25.697  1.00  0.00     0.283 C 
ATOM     25  C   UNL A   1      31.881  22.932  24.046  1.00  0.00     0.283 C 
ATOM     26  N   UNL A   1      32.770  22.618  25.187  1.00  0.00    -0.334 N 
ATOM     27  C   UNL A   1      33.800  21.655  24.804  1.00  0.00     0.332 C 
ATOM     28  H   UNL A   1      32.213  22.193  25.929  1.00  0.00     0.347 HD
ENDBRANCH  13  21
ENDBRANCH   6   8
ENDBRANCH   5   6
ENDBRANCH   4   5
ENDBRANCH   3   4
ENDBRANCH   2   3
ENDBRANCH   1   2
BRANCH   1  29
ATOM     29  C   UNL A   1      34.430  34.169  29.802  1.00  0.00     0.188 C 
BRANCH  29  30
ATOM     30  O   UNL A   1      34.271  33.812  31.166  1.00  0.00    -0.376 OA
BRANCH  30  31
ATOM     31  C   UNL A   1      34.996  34.538  32.147  1.00  0.00     0.202 C 
BRANCH  31  32
ATOM     32  C   UNL A   1      36.535  34.497  32.113  1.00  0.00     0.261 C 
BRANCH  32  33
ATOM     33  O   UNL A   1      37.151  33.709  33.150  1.00  0.00    -0.460 OA
BRANCH  33  34
ATOM     34  C   UNL A   1      36.878  32.379  33.136  1.00  0.00     0.338 C 
ATOM     35  O   UNL A   1      35.902  31.824  33.615  1.00  0.00    -0.246 OA
BRANCH  34  36
ATOM     36  C   UNL A   1      37.827  31.673  32.237  1.00  0.00     0.060 A 
ATOM     37  C   UNL A   1      38.993  31.134  32.804  1.00  0.00     0.016 A 
ATOM     38  C   UNL A   1      37.598  31.546  30.867  1.00  0.00     0.016 A 
ATOM     39  C   UNL A   1      39.944  30.496  32.006  1.00  0.00     0.010 A 
ATOM     40  C   UNL A   1      38.571  30.938  30.058  1.00  0.00     0.010 A 
ATOM     41  C   UNL A   1      39.764  30.442  30.620  1.00  0.00    -0.014 A 
BRANCH  41  42
ATOM     42  C   UNL A   1      40.930  30.130  29.753  1.00  0.00     0.031 A 
ATOM     43  C   UNL A   1      40.988  28.761  29.128  1.00  0.00     0.074 A 
ATOM     44  C   UNL A   1      41.892  31.029  29.480  1.00  0.00     0.049 A 
ATOM     45  N   UNL A   1      41.922  28.214  28.393  1.00  0.00    -0.248 NA
ATOM     46  C   UNL A   1      39.824  27.891  29.367  1.00  0.00     0.031 C 
ATOM     47  C   UNL A   1      41.928  32.408  29.956  1.00  0.00     0.029 A 
ATOM     48  N   UNL A   1      43.040  30.899  28.734  1.00  0.00    -0.354 N 
ATOM     49  C   UNL A   1      41.464  26.937  28.094  1.00  0.00     0.074 A 
ATOM     50  C   UNL A   1      40.181  26.781  28.743  1.00  0.00     0.031 C 
ATOM     51  C   UNL A   1      43.054  32.993  29.508  1.00  0.00     0.029 A 
ATOM     52  C   UNL A   1      43.835  32.019  28.746  1.00  0.00     0.049 A 
ATOM     53  H   UNL A   1      43.268  30.081  28.236  1.00  0.00     0.167 HD
ATOM     54  C   UNL A   1      42.055  25.977  27.343  1.00  0.00     0.037 A 
ATOM     55  C   UNL A   1      45.065  32.215  28.230  1.00  0.00     0.037 A 
ATOM     56  C   UNL A   1      43.333  26.122  26.702  1.00  0.00     0.049 A 
ATOM     57  C   UNL A   1      45.754  31.097  27.483  1.00  0.00     0.074 A 
ATOM     58  C   UNL A   1      44.014  25.207  25.919  1.00  0.00     0.029 A 
ATOM     59  N   UNL A   1      44.128  27.255  26.778  1.00  0.00    -0.354 N 
ATOM     60  N   UNL A   1      45.315  29.894  27.200  1.00  0.00    -0.248 NA
ATOM     61  C   UNL A   1      47.112  31.367  26.986  1.00  0.00     0.031 C 
ATOM     62  C   UNL A   1      45.247  25.766  25.568  1.00  0.00     0.029 A 
ATOM     63  C   UNL A   1      45.307  27.052  26.079  1.00  0.00     0.049 A 
ATOM     64  H   UNL A   1      43.891  28.082  27.257  1.00  0.00     0.167 HD
ATOM     65  C   UNL A   1      46.325  29.277  26.469  1.00  0.00     0.074 A 
ATOM     66  C   UNL A   1      47.396  30.242  26.342  1.00  0.00     0.031 C 
ATOM     67  C   UNL A   1      46.362  28.026  25.948  1.00  0.00     0.037 A 
BRANCH  54  68
ATOM     68  C   UNL A   1      41.336  24.666  27.214  1.00  0.00     0.064 A 
ATOM     69  C   UNL A   1      40.180  24.530  26.430  1.00  0.00     0.173 A 
ATOM     70  C   UNL A   1      41.817  23.528  27.878  1.00  0.00     0.173 A 
ATOM     71  F   UNL A   1      39.669  25.594  25.791  1.00  0.00    -0.203 F 
ATOM     72  C   UNL A   1      39.518  23.309  26.339  1.00  0.00     0.198 A 
ATOM     73  C   UNL A   1      41.170  22.302  27.760  1.00  0.00     0.198 A 
ATOM     74  F   UNL A   1      42.918  23.605  28.642  1.00  0.00    -0.203 F 
ATOM     75  F   UNL A   1      38.385  23.215  25.629  1.00  0.00    -0.200 F 
ATOM     76  C   UNL A   1      40.016  22.196  26.999  1.00  0.00     0.200 A 
ATOM     77  F   UNL A   1      41.659  21.225  28.389  1.00  0.00    -0.200 F 
ATOM     78  F   UNL A   1      39.378  21.020  26.908  1.00  0.00    -0.200 F 
ENDBRANCH  54  68
BRANCH  55  79
ATOM     79  C   UNL A   1      45.757  33.519  28.423  1.00  0.00     0.064 A 
ATOM     80  C   UNL A   1      45.625  34.555  27.486  1.00  0.00     0.173 A 
ATOM     81  C   UNL A   1      46.595  33.742  29.525  1.00  0.00     0.173 A 
ATOM     82  F   UNL A   1      44.855  34.381  26.402  1.00  0.00    -0.203 F 
ATOM     83  C   UNL A   1      46.320  35.753  27.635  1.00  0.00     0.198 A 
ATOM     84  C   UNL A   1      47.266  34.951  29.688  1.00  0.00     0.198 A 
ATOM     85  F   UNL A   1      46.762  32.782  30.447  1.00  0.00    -0.203 F 
ATOM     86  F   UNL A   1      46.215  36.706  26.698  1.00  0.00    -0.200 F 
ATOM     87  C   UNL A   1      47.135  35.953  28.738  1.00  0.00     0.200 A 
ATOM     88  F   UNL A   1      48.045  35.145  30.762  1.00  0.00    -0.200 F 
ATOM     89  F   UNL A   1      47.802  37.106  28.881  1.00  0.00    -0.200 F 
ENDBRANCH  55  79
BRANCH  67  90
ATOM     90  C   UNL A   1      47.575  27.634  25.151  1.00  0.00     0.064 A 
ATOM     91  C   UNL A   1      47.621  27.773  23.757  1.00  0.00     0.173 A 
ATOM     92  C   UNL A   1      48.727  27.162  25.801  1.00  0.00     0.173 A 
ATOM     93  F   UNL A   1      46.545  28.207  23.086  1.00  0.00    -0.203 F 
ATOM     94  C   UNL A   1      48.766  27.432  23.040  1.00  0.00     0.198 A 
ATOM     95  C   UNL A   1      49.880  26.852  25.086  1.00  0.00     0.198 A 
ATOM     96  F   UNL A   1      48.740  27.019  27.135  1.00  0.00    -0.203 F 
ATOM     97  F   UNL A   1      48.772  27.529  21.704  1.00  0.00    -0.200 F 
ATOM     98  C   UNL A   1      49.897  26.980  23.706  1.00  0.00     0.200 A 
ATOM     99  F   UNL A   1      50.976  26.432  25.733  1.00  0.00    -0.200 F 
ATOM    100  F   UNL A   1      51.001  26.663  23.016  1.00  0.00    -0.200 F 
ENDBRANCH  67  90
ENDBRANCH  41  42
ENDBRANCH  34  36
ENDBRANCH  33  34
ENDBRANCH  32  33
ENDBRANCH  31  32
ENDBRANCH  30  31
ENDBRANCH  29  30
ENDBRANCH   1  29
TORSDOF 21
ENDMDL
MODEL 3
REMARK VINA RESULT:     -10.0      5.976     11.155
REMARK SMILES CCS(=O)(=O)Nc1ccc(N2CC[NH+](C)CC2)cc1C(=O)OCCOCCOCCOC(=O)c1ccc(-c2c3nc(c(-c4c(F)c(F)c(F)c(F)c4F)c4ccc([nH]4)c(-c4c(F)c(F)c(F)c(F)c4F)c4nc(c(-c5c(F)c(F)c(F)c(F)c5F)c5ccc2[nH]5)C=C4)C=C3)cc1
REMARK SMILES IDX 26 1 25 2 24 3 23 4 22 5 20 6 21 7 19 8 7 9 8 10 9 11 18 12
REMARK SMILES IDX 10 13 6 14 3 16 4 17 5 18 2 19 1 20 11 21 12 22 17 23 13 24
REMARK SMILES IDX 16 25 14 26 15 27 27 29 28 30 29 31 30 32 31 33 32 34 33 35
REMARK SMILES IDX 34 36 35 37 96 38 36 39 95 40 37 41 38 42 39 43 89 44 40 45
REMARK SMILES IDX 94 46 88 47 90 48 41 49 93 50 87 51 86 52 42 54 74 55 54 56
REMARK SMILES IDX 73 57 55 58 58 59 72 60 91 61 56 62 57 63 71 65 92 66 59 67
REMARK SMILES IDX 43 68 44 69 52 70 45 71 46 72 50 73 53 74 47 75 48 76 51 77
REMARK SMILES IDX 49 78 75 79 76 80 84 81 77 82 78 83 82 84 85 85 79 86 80 87
REMARK SMILES IDX 83 88 81 89 60 90 61 91 69 92 62 93 63 94 67 95 70 96 64 97
REMARK SMILES IDX 65 98 68 99 66 100
REMARK H PARENT 6 15 14 28 90 53 58 64
REMARK Flexibility Score: inf
ROOT
ATOM      1  C   UNL A   1      35.178  32.686  28.062  1.00  0.00     0.188 C 
ENDROOT
BRANCH   1   2
ATOM      2  O   UNL A   1      35.038  31.346  28.508  1.00  0.00    -0.376 OA
BRANCH   2   3
ATOM      3  C   UNL A   1      34.702  30.400  27.507  1.00  0.00     0.202 C 
BRANCH   3   4
ATOM      4  C   UNL A   1      33.235  30.429  27.103  1.00  0.00     0.261 C 
BRANCH   4   5
ATOM      5  O   UNL A   1      32.846  29.508  26.067  1.00  0.00    -0.460 OA
BRANCH   5   6
ATOM      6  C   UNL A   1      31.735  29.693  25.323  1.00  0.00     0.340 C 
ATOM      7  O   UNL A   1      31.045  30.696  25.285  1.00  0.00    -0.246 OA
BRANCH   6   8
ATOM      8  C   UNL A   1      31.459  28.460  24.534  1.00  0.00     0.086 A 
ATOM      9  C   UNL A   1      30.989  28.506  23.206  1.00  0.00     0.063 A 
ATOM     10  C   UNL A   1      30.814  27.316  22.506  1.00  0.00     0.030 A 
ATOM     11  C   UNL A   1      31.093  26.092  23.130  1.00  0.00     0.028 A 
ATOM     12  C   UNL A   1      31.724  27.223  25.147  1.00  0.00     0.043 A 
ATOM     13  C   UNL A   1      31.539  26.021  24.459  1.00  0.00     0.038 A 
BRANCH   9  14
ATOM     14  N   UNL A   1      30.525  29.716  22.624  1.00  0.00    -0.283 N 
ATOM     15  H   UNL A   1      31.218  30.365  22.364  1.00  0.00     0.180 HD
BRANCH  14  16
ATOM     16  S   UNL A   1      28.963  30.163  22.333  1.00  0.00     0.232 S 
ATOM     17  O   UNL A   1      28.185  29.080  22.905  1.00  0.00    -0.207 OA
ATOM     18  O   UNL A   1      28.867  30.442  20.915  1.00  0.00    -0.207 OA
BRANCH  16  19
ATOM     19  C   UNL A   1      28.457  31.662  23.178  1.00  0.00     0.156 C 
ATOM     20  C   UNL A   1      28.785  33.015  22.611  1.00  0.00     0.023 C 
ENDBRANCH  16  19
ENDBRANCH  14  16
ENDBRANCH   9  14
BRANCH  13  21
ATOM     21  N   UNL A   1      31.800  24.806  25.046  1.00  0.00    -0.360 N 
ATOM     22  C   UNL A   1      32.614  24.646  26.257  1.00  0.00     0.178 C 
ATOM     23  C   UNL A   1      31.430  23.556  24.370  1.00  0.00     0.178 C 
ATOM     24  C   UNL A   1      33.836  23.737  25.989  1.00  0.00     0.283 C 
ATOM     25  C   UNL A   1      32.697  22.696  24.125  1.00  0.00     0.283 C 
ATOM     26  N   UNL A   1      33.465  22.445  25.366  1.00  0.00    -0.334 N 
ATOM     27  C   UNL A   1      34.654  21.640  25.096  1.00  0.00     0.332 C 
ATOM     28  H   UNL A   1      32.878  21.920  26.014  1.00  0.00     0.347 HD
ENDBRANCH  13  21
ENDBRANCH   6   8
ENDBRANCH   5   6
ENDBRANCH   4   5
ENDBRANCH   3   4
ENDBRANCH   2   3
ENDBRANCH   1   2
BRANCH   1  29
ATOM     29  C   UNL A   1      34.410  33.730  28.901  1.00  0.00     0.188 C 
BRANCH  29  30
ATOM     30  O   UNL A   1      34.042  33.442  30.241  1.00  0.00    -0.376 OA
BRANCH  30  31
ATOM     31  C   UNL A   1      34.410  34.360  31.260  1.00  0.00     0.202 C 
BRANCH  31  32
ATOM     32  C   UNL A   1      35.837  34.297  31.833  1.00  0.00     0.261 C 
BRANCH  32  33
ATOM     33  O   UNL A   1      36.040  33.312  32.865  1.00  0.00    -0.460 OA
BRANCH  33  34
ATOM     34  C   UNL A   1      36.153  32.023  32.453  1.00  0.00     0.338 C 
ATOM     35  O   UNL A   1      35.259  31.196  32.375  1.00  0.00    -0.246 OA
BRANCH  34  36
ATOM     36  C   UNL A   1      37.498  31.792  31.865  1.00  0.00     0.060 A 
ATOM     37  C   UNL A   1      37.668  32.041  30.494  1.00  0.00     0.016 A 
ATOM     38  C   UNL A   1      38.572  31.329  32.627  1.00  0.00     0.016 A 
ATOM     39  C   UNL A   1      38.896  31.803  29.874  1.00  0.00     0.010 A 
ATOM     40  C   UNL A   1      39.795  31.053  31.997  1.00  0.00     0.010 A 
ATOM     41  C   UNL A   1      39.951  31.256  30.611  1.00  0.00    -0.014 A 
BRANCH  41  42
ATOM     42  C   UNL A   1      41.096  30.645  29.887  1.00  0.00     0.031 A 
ATOM     43  C   UNL A   1      42.299  31.512  29.625  1.00  0.00     0.074 A 
ATOM     44  C   UNL A   1      41.108  29.355  29.506  1.00  0.00     0.049 A 
ATOM     45  N   UNL A   1      43.393  31.247  28.958  1.00  0.00    -0.248 NA
ATOM     46  C   UNL A   1      42.258  32.867  30.199  1.00  0.00     0.031 C 
ATOM     47  C   UNL A   1      40.047  28.384  29.755  1.00  0.00     0.029 A 
ATOM     48  N   UNL A   1      42.058  28.645  28.810  1.00  0.00    -0.354 N 
ATOM     49  C   UNL A   1      44.162  32.403  29.025  1.00  0.00     0.074 A 
ATOM     50  C   UNL A   1      43.401  33.378  29.775  1.00  0.00     0.031 C 
ATOM     51  C   UNL A   1      40.394  27.208  29.201  1.00  0.00     0.029 A 
ATOM     52  C   UNL A   1      41.684  27.355  28.526  1.00  0.00     0.049 A 
ATOM     53  H   UNL A   1      42.925  29.027  28.542  1.00  0.00     0.167 HD
ATOM     54  C   UNL A   1      45.392  32.635  28.510  1.00  0.00     0.037 A 
ATOM     55  C   UNL A   1      42.300  26.417  27.777  1.00  0.00     0.037 A 
ATOM     56  C   UNL A   1      46.150  31.674  27.756  1.00  0.00     0.049 A 
ATOM     57  C   UNL A   1      43.626  26.730  27.124  1.00  0.00     0.074 A 
ATOM     58  C   UNL A   1      47.406  31.816  27.194  1.00  0.00     0.029 A 
ATOM     59  N   UNL A   1      45.715  30.394  27.449  1.00  0.00    -0.354 N 
ATOM     60  N   UNL A   1      44.348  27.823  27.193  1.00  0.00    -0.248 NA
ATOM     61  C   UNL A   1      44.219  25.677  26.285  1.00  0.00     0.031 C 
ATOM     62  C   UNL A   1      47.709  30.640  26.499  1.00  0.00     0.029 A 
ATOM     63  C   UNL A   1      46.668  29.744  26.682  1.00  0.00     0.049 A 
ATOM     64  H   UNL A   1      44.858  30.004  27.735  1.00  0.00     0.167 HD
ATOM     65  C   UNL A   1      45.490  27.577  26.437  1.00  0.00     0.074 A 
ATOM     66  C   UNL A   1      45.370  26.229  25.926  1.00  0.00     0.031 C 
ATOM     67  C   UNL A   1      46.543  28.394  26.189  1.00  0.00     0.037 A 
BRANCH  54  68
ATOM     68  C   UNL A   1      45.974  34.003  28.712  1.00  0.00     0.064 A 
ATOM     69  C   UNL A   1      46.794  34.304  29.811  1.00  0.00     0.173 A 
ATOM     70  C   UNL A   1      45.716  35.026  27.787  1.00  0.00     0.173 A 
ATOM     71  F   UNL A   1      47.054  33.366  30.735  1.00  0.00    -0.203 F 
ATOM     72  C   UNL A   1      47.308  35.585  29.990  1.00  0.00     0.198 A 
ATOM     73  C   UNL A   1      46.257  36.296  27.952  1.00  0.00     0.198 A 
ATOM     74  F   UNL A   1      44.937  34.791  26.719  1.00  0.00    -0.203 F 
ATOM     75  F   UNL A   1      48.042  35.864  31.076  1.00  0.00    -0.200 F 
ATOM     76  C   UNL A   1      47.044  36.578  29.058  1.00  0.00     0.200 A 
ATOM     77  F   UNL A   1      46.011  37.252  27.045  1.00  0.00    -0.200 F 
ATOM     78  F   UNL A   1      47.543  37.811  29.231  1.00  0.00    -0.200 F 
ENDBRANCH  54  68
BRANCH  55  79
ATOM     79  C   UNL A   1      41.661  25.089  27.568  1.00  0.00     0.064 A 
ATOM     80  C   UNL A   1      40.534  24.949  26.745  1.00  0.00     0.173 A 
ATOM     81  C   UNL A   1      42.137  23.943  28.219  1.00  0.00     0.173 A 
ATOM     82  F   UNL A   1      40.024  26.022  26.121  1.00  0.00    -0.203 F 
ATOM     83  C   UNL A   1      39.898  23.718  26.597  1.00  0.00     0.198 A 
ATOM     84  C   UNL A   1      41.519  22.706  28.047  1.00  0.00     0.198 A 
ATOM     85  F   UNL A   1      43.207  24.023  29.024  1.00  0.00    -0.203 F 
ATOM     86  F   UNL A   1      38.793  23.624  25.844  1.00  0.00    -0.200 F 
ATOM     87  C   UNL A   1      40.394  22.597  27.244  1.00  0.00     0.200 A 
ATOM     88  F   UNL A   1      42.008  21.622  28.666  1.00  0.00    -0.200 F 
ATOM     89  F   UNL A   1      39.783  21.413  27.100  1.00  0.00    -0.200 F 
ENDBRANCH  55  79
BRANCH  67  90
ATOM     90  C   UNL A   1      47.678  27.847  25.369  1.00  0.00     0.064 A 
ATOM     91  C   UNL A   1      48.806  27.262  25.961  1.00  0.00     0.173 A 
ATOM     92  C   UNL A   1      47.607  27.860  23.966  1.00  0.00     0.173 A 
ATOM     93  F   UNL A   1      48.929  27.235  27.296  1.00  0.00    -0.203 F 
ATOM     94  C   UNL A   1      49.832  26.733  25.182  1.00  0.00     0.198 A 
ATOM     95  C   UNL A   1      48.620  27.303  23.190  1.00  0.00     0.198 A 
ATOM     96  F   UNL A   1      46.546  28.399  23.347  1.00  0.00    -0.203 F 
ATOM     97  F   UNL A   1      50.922  26.221  25.770  1.00  0.00    -0.200 F 
ATOM     98  C   UNL A   1      49.734  26.746  23.797  1.00  0.00     0.200 A 
ATOM     99  F   UNL A   1      48.515  27.301  21.854  1.00  0.00    -0.200 F 
ATOM    100  F   UNL A   1      50.718  26.227  23.050  1.00  0.00    -0.200 F 
ENDBRANCH  67  90
ENDBRANCH  41  42
ENDBRANCH  34  36
ENDBRANCH  33  34
ENDBRANCH  32  33
ENDBRANCH  31  32
ENDBRANCH  30  31
ENDBRANCH  29  30
ENDBRANCH   1  29
TORSDOF 21
ENDMDL
