MODEL 1
REMARK VINA RESULT:     -12.2      0.000      0.000
REMARK SMILES O=C(OCCOCCOCCOC(=O)[C@@H](Cc1ccccc1)N1C(=O)/C(=C/c2ccncc2)SC1=S)c1ccc(-c2c3nc(c(-c4c(F)c(F)c(F)c(F)c4F)c4ccc([nH]4)c(-c4c(F)c(F)c(F)c(F)c4F)c4nc(c(-c5c(F)c(F)c(F)c(F)c5F)c5ccc2[nH]5)C=C4)C=C3)cc1
REMARK SMILES IDX 7 1 6 2 5 3 4 4 3 5 2 6 1 7 37 8 38 9 99 10 39 11 98 12
REMARK SMILES IDX 40 13 41 14 42 15 92 16 43 17 97 18 91 19 93 20 44 21 96 22
REMARK SMILES IDX 90 23 89 24 45 26 77 27 57 28 76 29 58 30 61 31 75 32 94 33
REMARK SMILES IDX 59 34 60 35 74 37 95 38 62 39 46 40 47 41 55 42 48 43 49 44
REMARK SMILES IDX 53 45 56 46 50 47 51 48 54 49 52 50 78 51 79 52 87 53 80 54
REMARK SMILES IDX 81 55 85 56 88 57 82 58 83 59 86 60 84 61 63 62 64 63 72 64
REMARK SMILES IDX 65 65 66 66 70 67 73 68 67 69 68 70 71 71 69 72 8 73 9 74
REMARK SMILES IDX 10 75 11 76 12 77 13 78 14 79 15 80 16 81 17 82 18 83 22 84
REMARK SMILES IDX 19 85 21 86 20 87 23 88 24 89 35 90 25 91 26 92 34 93 36 94
REMARK SMILES IDX 27 95 28 96 29 97 33 98 30 99 32 100 31 101
REMARK H PARENT 93 25 61 36
REMARK Flexibility Score: inf
ROOT
ATOM      1  C   UNL A   1      34.148  18.123  24.386  1.00  0.00     0.188 C 
ENDROOT
BRANCH   1   2
ATOM      2  O   UNL A   1      35.554  18.308  24.608  1.00  0.00    -0.376 OA
BRANCH   2   3
ATOM      3  C   UNL A   1      35.892  19.658  24.943  1.00  0.00     0.202 C 
BRANCH   3   4
ATOM      4  C   UNL A   1      37.350  20.067  24.672  1.00  0.00     0.261 C 
BRANCH   4   5
ATOM      5  O   UNL A   1      37.831  21.122  25.519  1.00  0.00    -0.460 OA
BRANCH   5   6
ATOM      6  C   UNL A   1      39.058  21.327  26.053  1.00  0.00     0.338 C 
ATOM      7  O   UNL A   1      39.828  20.367  26.097  1.00  0.00    -0.246 OA
BRANCH   6   8
ATOM      8  C   UNL A   1      39.553  22.627  26.617  1.00  0.00     0.060 A 
ATOM      9  C   UNL A   1      39.056  23.893  26.313  1.00  0.00     0.016 A 
ATOM     10  C   UNL A   1      40.590  22.554  27.573  1.00  0.00     0.016 A 
ATOM     11  C   UNL A   1      39.590  25.040  26.897  1.00  0.00     0.010 A 
ATOM     12  C   UNL A   1      41.129  23.703  28.171  1.00  0.00     0.010 A 
ATOM     13  C   UNL A   1      40.636  24.956  27.816  1.00  0.00    -0.014 A 
BRANCH  13  14
ATOM     14  C   UNL A   1      41.274  26.224  28.221  1.00  0.00     0.031 A 
ATOM     15  C   UNL A   1      42.616  26.540  27.647  1.00  0.00     0.074 A 
ATOM     16  C   UNL A   1      40.599  27.127  28.954  1.00  0.00     0.049 A 
ATOM     17  N   UNL A   1      43.327  27.626  27.766  1.00  0.00    -0.248 NA
ATOM     18  C   UNL A   1      43.258  25.476  26.855  1.00  0.00     0.031 C 
ATOM     19  C   UNL A   1      39.313  26.878  29.584  1.00  0.00     0.029 A 
ATOM     20  N   UNL A   1      40.859  28.443  29.242  1.00  0.00    -0.354 N 
ATOM     21  C   UNL A   1      44.532  27.347  27.142  1.00  0.00     0.074 A 
ATOM     22  C   UNL A   1      44.433  26.019  26.581  1.00  0.00     0.031 C 
ATOM     23  C   UNL A   1      38.825  28.034  30.061  1.00  0.00     0.029 A 
ATOM     24  C   UNL A   1      39.797  29.094  29.831  1.00  0.00     0.049 A 
ATOM     25  H   UNL A   1      41.719  28.879  29.046  1.00  0.00     0.167 HD
ATOM     26  C   UNL A   1      45.639  28.122  27.112  1.00  0.00     0.037 A 
ATOM     27  C   UNL A   1      39.645  30.398  30.140  1.00  0.00     0.037 A 
ATOM     28  C   UNL A   1      45.701  29.431  27.703  1.00  0.00     0.049 A 
ATOM     29  C   UNL A   1      40.861  31.279  29.982  1.00  0.00     0.074 A 
ATOM     30  C   UNL A   1      46.784  30.281  27.811  1.00  0.00     0.029 A 
ATOM     31  N   UNL A   1      44.620  30.077  28.291  1.00  0.00    -0.354 N 
ATOM     32  N   UNL A   1      42.022  30.996  29.441  1.00  0.00    -0.248 NA
ATOM     33  C   UNL A   1      40.778  32.632  30.550  1.00  0.00     0.031 C 
ATOM     34  C   UNL A   1      46.371  31.422  28.507  1.00  0.00     0.029 A 
ATOM     35  C   UNL A   1      45.013  31.313  28.771  1.00  0.00     0.049 A 
ATOM     36  H   UNL A   1      43.709  29.709  28.356  1.00  0.00     0.167 HD
ATOM     37  C   UNL A   1      42.823  32.108  29.653  1.00  0.00     0.074 A 
ATOM     38  C   UNL A   1      41.986  33.108  30.286  1.00  0.00     0.031 C 
ATOM     39  C   UNL A   1      44.145  32.274  29.402  1.00  0.00     0.037 A 
BRANCH  26  40
ATOM     40  C   UNL A   1      46.884  27.509  26.548  1.00  0.00     0.064 A 
ATOM     41  C   UNL A   1      47.764  26.742  27.322  1.00  0.00     0.173 A 
ATOM     42  C   UNL A   1      47.210  27.724  25.199  1.00  0.00     0.173 A 
ATOM     43  F   UNL A   1      47.519  26.543  28.626  1.00  0.00    -0.203 F 
ATOM     44  C   UNL A   1      48.936  26.229  26.771  1.00  0.00     0.198 A 
ATOM     45  C   UNL A   1      48.366  27.184  24.645  1.00  0.00     0.198 A 
ATOM     46  F   UNL A   1      46.409  28.467  24.420  1.00  0.00    -0.203 F 
ATOM     47  F   UNL A   1      49.794  25.547  27.543  1.00  0.00    -0.200 F 
ATOM     48  C   UNL A   1      49.232  26.443  25.432  1.00  0.00     0.200 A 
ATOM     49  F   UNL A   1      48.646  27.392  23.351  1.00  0.00    -0.200 F 
ATOM     50  F   UNL A   1      50.359  25.946  24.905  1.00  0.00    -0.200 F 
ENDBRANCH  26  40
BRANCH  27  51
ATOM     51  C   UNL A   1      38.365  30.956  30.673  1.00  0.00     0.064 A 
ATOM     52  C   UNL A   1      38.143  31.050  32.058  1.00  0.00     0.173 A 
ATOM     53  C   UNL A   1      37.310  31.347  29.834  1.00  0.00     0.173 A 
ATOM     54  F   UNL A   1      39.104  30.679  32.919  1.00  0.00    -0.203 F 
ATOM     55  C   UNL A   1      36.916  31.472  32.574  1.00  0.00     0.198 A 
ATOM     56  C   UNL A   1      36.101  31.818  30.351  1.00  0.00     0.198 A 
ATOM     57  F   UNL A   1      37.442  31.266  28.503  1.00  0.00    -0.203 F 
ATOM     58  F   UNL A   1      36.716  31.486  33.899  1.00  0.00    -0.200 F 
ATOM     59  C   UNL A   1      35.898  31.860  31.719  1.00  0.00     0.200 A 
ATOM     60  F   UNL A   1      35.131  32.215  29.518  1.00  0.00    -0.200 F 
ATOM     61  F   UNL A   1      34.721  32.258  32.216  1.00  0.00    -0.200 F 
ENDBRANCH  27  51
BRANCH  39  62
ATOM     62  C   UNL A   1      44.755  33.576  29.830  1.00  0.00     0.064 A 
ATOM     63  C   UNL A   1      44.740  34.700  28.990  1.00  0.00     0.173 A 
ATOM     64  C   UNL A   1      45.317  33.711  31.106  1.00  0.00     0.173 A 
ATOM     65  F   UNL A   1      44.225  34.616  27.754  1.00  0.00    -0.203 F 
ATOM     66  C   UNL A   1      45.293  35.908  29.406  1.00  0.00     0.198 A 
ATOM     67  C   UNL A   1      45.838  34.928  31.531  1.00  0.00     0.198 A 
ATOM     68  F   UNL A   1      45.346  32.666  31.946  1.00  0.00    -0.203 F 
ATOM     69  F   UNL A   1      45.316  36.955  28.570  1.00  0.00    -0.200 F 
ATOM     70  C   UNL A   1      45.833  36.022  30.678  1.00  0.00     0.200 A 
ATOM     71  F   UNL A   1      46.344  35.043  32.766  1.00  0.00    -0.200 F 
ATOM     72  F   UNL A   1      46.358  37.188  31.080  1.00  0.00    -0.200 F 
ENDBRANCH  39  62
ENDBRANCH  13  14
ENDBRANCH   6   8
ENDBRANCH   5   6
ENDBRANCH   4   5
ENDBRANCH   3   4
ENDBRANCH   2   3
ENDBRANCH   1   2
BRANCH   1  73
ATOM     73  C   UNL A   1      33.305  19.300  24.877  1.00  0.00     0.188 C 
BRANCH  73  74
ATOM     74  O   UNL A   1      32.601  20.033  23.876  1.00  0.00    -0.376 OA
BRANCH  74  75
ATOM     75  C   UNL A   1      32.729  21.452  23.867  1.00  0.00     0.202 C 
BRANCH  75  76
ATOM     76  C   UNL A   1      31.777  22.210  22.946  1.00  0.00     0.261 C 
BRANCH  76  77
ATOM     77  O   UNL A   1      31.111  23.272  23.630  1.00  0.00    -0.462 OA
BRANCH  77  78
ATOM     78  C   UNL A   1      31.710  24.487  23.581  1.00  0.00     0.329 C 
ATOM     79  O   UNL A   1      32.556  24.835  22.763  1.00  0.00    -0.250 OA
BRANCH  78  80
ATOM     80  C   UNL A   1      31.239  25.395  24.712  1.00  0.00     0.206 C 
BRANCH  80  81
ATOM     81  C   UNL A   1      32.042  25.363  26.017  1.00  0.00     0.073 C 
BRANCH  81  82
ATOM     82  C   UNL A   1      32.922  24.178  26.346  1.00  0.00    -0.045 A 
ATOM     83  C   UNL A   1      34.270  24.138  25.970  1.00  0.00     0.004 A 
ATOM     84  C   UNL A   1      32.424  23.139  27.143  1.00  0.00     0.004 A 
ATOM     85  C   UNL A   1      35.113  23.127  26.434  1.00  0.00     0.000 A 
ATOM     86  C   UNL A   1      33.262  22.123  27.603  1.00  0.00     0.000 A 
ATOM     87  C   UNL A   1      34.611  22.127  27.262  1.00  0.00     0.000 A 
ENDBRANCH  81  82
ENDBRANCH  80  81
BRANCH  80  88
ATOM     88  N   UNL A   1      30.984  26.740  24.182  1.00  0.00    -0.278 N 
ATOM     89  C   UNL A   1      29.693  27.042  23.781  1.00  0.00     0.267 C 
ATOM     90  C   UNL A   1      31.944  27.698  23.945  1.00  0.00     0.149 C 
ATOM     91  O   UNL A   1      28.725  26.301  23.800  1.00  0.00    -0.268 OA
ATOM     92  C   UNL A   1      29.629  28.433  23.298  1.00  0.00     0.081 C 
ATOM     93  S   UNL A   1      31.200  29.107  23.194  1.00  0.00    -0.054 SA
ATOM     94  S   UNL A   1      33.584  27.613  24.233  1.00  0.00    -0.052 S 
ATOM     95  C   UNL A   1      28.446  28.991  23.027  1.00  0.00     0.029 C 
BRANCH  95  96
ATOM     96  C   UNL A   1      28.280  30.340  22.509  1.00  0.00    -0.021 A 
ATOM     97  C   UNL A   1      28.144  30.534  21.137  1.00  0.00     0.028 A 
ATOM     98  C   UNL A   1      28.278  31.432  23.369  1.00  0.00     0.028 A 
ATOM     99  C   UNL A   1      28.026  31.831  20.676  1.00  0.00     0.111 A 
ATOM    100  C   UNL A   1      28.147  32.690  22.809  1.00  0.00     0.111 A 
ATOM    101  N   UNL A   1      28.023  32.913  21.482  1.00  0.00    -0.265 NA
ENDBRANCH  95  96
ENDBRANCH  80  88
ENDBRANCH  78  80
ENDBRANCH  77  78
ENDBRANCH  76  77
ENDBRANCH  75  76
ENDBRANCH  74  75
ENDBRANCH  73  74
ENDBRANCH   1  73
TORSDOF 21
ENDMDL
MODEL 2
REMARK VINA RESULT:     -11.7      4.236      9.939
REMARK SMILES O=C(OCCOCCOCCOC(=O)[C@@H](Cc1ccccc1)N1C(=O)/C(=C/c2ccncc2)SC1=S)c1ccc(-c2c3nc(c(-c4c(F)c(F)c(F)c(F)c4F)c4ccc([nH]4)c(-c4c(F)c(F)c(F)c(F)c4F)c4nc(c(-c5c(F)c(F)c(F)c(F)c5F)c5ccc2[nH]5)C=C4)C=C3)cc1
REMARK SMILES IDX 7 1 6 2 5 3 4 4 3 5 2 6 1 7 37 8 38 9 99 10 39 11 98 12
REMARK SMILES IDX 40 13 41 14 42 15 92 16 43 17 97 18 91 19 93 20 44 21 96 22
REMARK SMILES IDX 90 23 89 24 45 26 77 27 57 28 76 29 58 30 61 31 75 32 94 33
REMARK SMILES IDX 59 34 60 35 74 37 95 38 62 39 46 40 47 41 55 42 48 43 49 44
REMARK SMILES IDX 53 45 56 46 50 47 51 48 54 49 52 50 78 51 79 52 87 53 80 54
REMARK SMILES IDX 81 55 85 56 88 57 82 58 83 59 86 60 84 61 63 62 64 63 72 64
REMARK SMILES IDX 65 65 66 66 70 67 73 68 67 69 68 70 71 71 69 72 8 73 9 74
REMARK SMILES IDX 10 75 11 76 12 77 13 78 14 79 15 80 16 81 17 82 18 83 22 84
REMARK SMILES IDX 19 85 21 86 20 87 23 88 24 89 35 90 25 91 26 92 34 93 36 94
REMARK SMILES IDX 27 95 28 96 29 97 33 98 30 99 32 100 31 101
REMARK H PARENT 93 25 61 36
REMARK Flexibility Score: inf
ROOT
ATOM      1  C   UNL A   1      31.539  28.643  22.979  1.00  0.00     0.188 C 
ENDROOT
BRANCH   1   2
ATOM      2  O   UNL A   1      30.682  28.887  24.104  1.00  0.00    -0.376 OA
BRANCH   2   3
ATOM      3  C   UNL A   1      30.998  30.102  24.793  1.00  0.00     0.202 C 
BRANCH   3   4
ATOM      4  C   UNL A   1      32.233  30.046  25.710  1.00  0.00     0.261 C 
BRANCH   4   5
ATOM      5  O   UNL A   1      32.171  30.940  26.832  1.00  0.00    -0.460 OA
BRANCH   5   6
ATOM      6  C   UNL A   1      33.119  31.748  27.362  1.00  0.00     0.338 C 
ATOM      7  O   UNL A   1      32.869  32.952  27.431  1.00  0.00    -0.246 OA
BRANCH   6   8
ATOM      8  C   UNL A   1      34.464  31.299  27.855  1.00  0.00     0.060 A 
ATOM      9  C   UNL A   1      34.843  29.984  28.115  1.00  0.00     0.016 A 
ATOM     10  C   UNL A   1      35.444  32.301  28.033  1.00  0.00     0.016 A 
ATOM     11  C   UNL A   1      36.124  29.676  28.571  1.00  0.00     0.010 A 
ATOM     12  C   UNL A   1      36.737  31.999  28.486  1.00  0.00     0.010 A 
ATOM     13  C   UNL A   1      37.073  30.679  28.774  1.00  0.00    -0.014 A 
BRANCH  13  14
ATOM     14  C   UNL A   1      38.324  30.288  29.453  1.00  0.00     0.031 A 
ATOM     15  C   UNL A   1      38.460  30.624  30.902  1.00  0.00     0.074 A 
ATOM     16  C   UNL A   1      39.232  29.520  28.827  1.00  0.00     0.049 A 
ATOM     17  N   UNL A   1      39.408  30.300  31.736  1.00  0.00    -0.248 NA
ATOM     18  C   UNL A   1      37.401  31.466  31.483  1.00  0.00     0.031 C 
ATOM     19  C   UNL A   1      39.194  29.189  27.412  1.00  0.00     0.029 A 
ATOM     20  N   UNL A   1      40.321  28.831  29.298  1.00  0.00    -0.354 N 
ATOM     21  C   UNL A   1      39.107  30.966  32.912  1.00  0.00     0.074 A 
ATOM     22  C   UNL A   1      37.853  31.655  32.712  1.00  0.00     0.031 C 
ATOM     23  C   UNL A   1      40.119  28.251  27.153  1.00  0.00     0.029 A 
ATOM     24  C   UNL A   1      40.863  27.966  28.372  1.00  0.00     0.049 A 
ATOM     25  H   UNL A   1      40.680  28.943  30.208  1.00  0.00     0.167 HD
ATOM     26  C   UNL A   1      39.864  31.040  34.030  1.00  0.00     0.037 A 
ATOM     27  C   UNL A   1      41.846  27.054  28.512  1.00  0.00     0.037 A 
ATOM     28  C   UNL A   1      41.118  30.355  34.180  1.00  0.00     0.049 A 
ATOM     29  C   UNL A   1      42.603  27.066  29.819  1.00  0.00     0.074 A 
ATOM     30  C   UNL A   1      42.016  30.412  35.227  1.00  0.00     0.029 A 
ATOM     31  N   UNL A   1      41.651  29.482  33.238  1.00  0.00    -0.354 N 
ATOM     32  N   UNL A   1      42.349  27.741  30.915  1.00  0.00    -0.248 NA
ATOM     33  C   UNL A   1      43.828  26.256  29.883  1.00  0.00     0.031 C 
ATOM     34  C   UNL A   1      43.116  29.612  34.899  1.00  0.00     0.029 A 
ATOM     35  C   UNL A   1      42.871  29.000  33.678  1.00  0.00     0.049 A 
ATOM     36  H   UNL A   1      41.223  29.242  32.384  1.00  0.00     0.167 HD
ATOM     37  C   UNL A   1      43.406  27.485  31.774  1.00  0.00     0.074 A 
ATOM     38  C   UNL A   1      44.255  26.516  31.110  1.00  0.00     0.031 C 
ATOM     39  C   UNL A   1      43.686  28.040  32.979  1.00  0.00     0.037 A 
BRANCH  26  40
ATOM     40  C   UNL A   1      39.414  31.994  35.094  1.00  0.00     0.064 A 
ATOM     41  C   UNL A   1      39.776  33.347  35.096  1.00  0.00     0.173 A 
ATOM     42  C   UNL A   1      38.621  31.523  36.154  1.00  0.00     0.173 A 
ATOM     43  F   UNL A   1      40.566  33.836  34.128  1.00  0.00    -0.203 F 
ATOM     44  C   UNL A   1      39.376  34.191  36.130  1.00  0.00     0.198 A 
ATOM     45  C   UNL A   1      38.199  32.376  37.168  1.00  0.00     0.198 A 
ATOM     46  F   UNL A   1      38.264  30.231  36.209  1.00  0.00    -0.203 F 
ATOM     47  F   UNL A   1      39.781  35.469  36.142  1.00  0.00    -0.200 F 
ATOM     48  C   UNL A   1      38.582  33.707  37.159  1.00  0.00     0.200 A 
ATOM     49  F   UNL A   1      37.431  31.904  38.160  1.00  0.00    -0.200 F 
ATOM     50  F   UNL A   1      38.198  34.522  38.151  1.00  0.00    -0.200 F 
ENDBRANCH  26  40
BRANCH  27  51
ATOM     51  C   UNL A   1      42.229  26.108  27.420  1.00  0.00     0.064 A 
ATOM     52  C   UNL A   1      41.571  24.874  27.273  1.00  0.00     0.173 A 
ATOM     53  C   UNL A   1      43.291  26.368  26.539  1.00  0.00     0.173 A 
ATOM     54  F   UNL A   1      40.556  24.553  28.091  1.00  0.00    -0.203 F 
ATOM     55  C   UNL A   1      41.981  23.935  26.325  1.00  0.00     0.198 A 
ATOM     56  C   UNL A   1      43.667  25.450  25.557  1.00  0.00     0.198 A 
ATOM     57  F   UNL A   1      43.977  27.514  26.632  1.00  0.00    -0.203 F 
ATOM     58  F   UNL A   1      41.374  22.742  26.257  1.00  0.00    -0.200 F 
ATOM     59  C   UNL A   1      43.026  24.227  25.465  1.00  0.00     0.200 A 
ATOM     60  F   UNL A   1      44.662  25.750  24.713  1.00  0.00    -0.200 F 
ATOM     61  F   UNL A   1      43.423  23.323  24.560  1.00  0.00    -0.200 F 
ENDBRANCH  27  51
BRANCH  39  62
ATOM     62  C   UNL A   1      44.967  27.617  33.636  1.00  0.00     0.064 A 
ATOM     63  C   UNL A   1      46.167  28.308  33.408  1.00  0.00     0.173 A 
ATOM     64  C   UNL A   1      44.982  26.543  34.536  1.00  0.00     0.173 A 
ATOM     65  F   UNL A   1      46.205  29.334  32.544  1.00  0.00    -0.203 F 
ATOM     66  C   UNL A   1      47.345  27.917  34.038  1.00  0.00     0.198 A 
ATOM     67  C   UNL A   1      46.153  26.178  35.190  1.00  0.00     0.198 A 
ATOM     68  F   UNL A   1      43.857  25.860  34.792  1.00  0.00    -0.203 F 
ATOM     69  F   UNL A   1      48.491  28.556  33.767  1.00  0.00    -0.200 F 
ATOM     70  C   UNL A   1      47.335  26.859  34.934  1.00  0.00     0.200 A 
ATOM     71  F   UNL A   1      46.139  25.167  36.068  1.00  0.00    -0.200 F 
ATOM     72  F   UNL A   1      48.468  26.490  35.547  1.00  0.00    -0.200 F 
ENDBRANCH  39  62
ENDBRANCH  13  14
ENDBRANCH   6   8
ENDBRANCH   5   6
ENDBRANCH   4   5
ENDBRANCH   3   4
ENDBRANCH   2   3
ENDBRANCH   1   2
BRANCH   1  73
ATOM     73  C   UNL A   1      32.038  27.200  22.909  1.00  0.00     0.188 C 
BRANCH  73  74
ATOM     74  O   UNL A   1      31.128  26.244  22.366  1.00  0.00    -0.376 OA
BRANCH  74  75
ATOM     75  C   UNL A   1      30.239  25.580  23.260  1.00  0.00     0.202 C 
BRANCH  75  76
ATOM     76  C   UNL A   1      30.502  24.095  23.494  1.00  0.00     0.261 C 
BRANCH  76  77
ATOM     77  O   UNL A   1      30.723  23.807  24.875  1.00  0.00    -0.462 OA
BRANCH  77  78
ATOM     78  C   UNL A   1      31.871  24.289  25.412  1.00  0.00     0.329 C 
ATOM     79  O   UNL A   1      31.946  25.129  26.305  1.00  0.00    -0.250 OA
BRANCH  78  80
ATOM     80  C   UNL A   1      33.103  23.691  24.742  1.00  0.00     0.206 C 
BRANCH  80  81
ATOM     81  C   UNL A   1      34.398  24.510  24.798  1.00  0.00     0.073 C 
BRANCH  81  82
ATOM     82  C   UNL A   1      35.740  23.817  24.868  1.00  0.00    -0.045 A 
ATOM     83  C   UNL A   1      36.652  24.087  25.895  1.00  0.00     0.004 A 
ATOM     84  C   UNL A   1      36.047  22.796  23.959  1.00  0.00     0.004 A 
ATOM     85  C   UNL A   1      37.804  23.314  26.052  1.00  0.00     0.000 A 
ATOM     86  C   UNL A   1      37.201  22.026  24.109  1.00  0.00     0.000 A 
ATOM     87  C   UNL A   1      38.070  22.275  25.166  1.00  0.00     0.000 A 
ENDBRANCH  81  82
ENDBRANCH  80  81
BRANCH  80  88
ATOM     88  N   UNL A   1      33.246  22.289  25.151  1.00  0.00    -0.278 N 
ATOM     89  C   UNL A   1      33.074  21.313  24.183  1.00  0.00     0.267 C 
ATOM     90  C   UNL A   1      33.432  21.851  26.443  1.00  0.00     0.149 C 
ATOM     91  O   UNL A   1      32.792  21.484  23.010  1.00  0.00    -0.268 OA
ATOM     92  C   UNL A   1      33.273  19.978  24.775  1.00  0.00     0.081 C 
ATOM     93  S   UNL A   1      33.427  20.089  26.477  1.00  0.00    -0.054 SA
ATOM     94  S   UNL A   1      33.590  22.760  27.832  1.00  0.00    -0.052 S 
ATOM     95  C   UNL A   1      33.327  18.901  23.986  1.00  0.00     0.029 C 
BRANCH  95  96
ATOM     96  C   UNL A   1      33.480  17.539  24.474  1.00  0.00    -0.021 A 
ATOM     97  C   UNL A   1      32.356  16.831  24.890  1.00  0.00     0.028 A 
ATOM     98  C   UNL A   1      34.738  16.952  24.550  1.00  0.00     0.028 A 
ATOM     99  C   UNL A   1      32.542  15.554  25.383  1.00  0.00     0.111 A 
ATOM    100  C   UNL A   1      34.818  15.666  25.053  1.00  0.00     0.111 A 
ATOM    101  N   UNL A   1      33.748  14.955  25.472  1.00  0.00    -0.265 NA
ENDBRANCH  95  96
ENDBRANCH  80  88
ENDBRANCH  78  80
ENDBRANCH  77  78
ENDBRANCH  76  77
ENDBRANCH  75  76
ENDBRANCH  74  75
ENDBRANCH  73  74
ENDBRANCH   1  73
TORSDOF 21
ENDMDL
MODEL 3
REMARK VINA RESULT:     -11.6      5.592     10.083
REMARK SMILES O=C(OCCOCCOCCOC(=O)[C@@H](Cc1ccccc1)N1C(=O)/C(=C/c2ccncc2)SC1=S)c1ccc(-c2c3nc(c(-c4c(F)c(F)c(F)c(F)c4F)c4ccc([nH]4)c(-c4c(F)c(F)c(F)c(F)c4F)c4nc(c(-c5c(F)c(F)c(F)c(F)c5F)c5ccc2[nH]5)C=C4)C=C3)cc1
REMARK SMILES IDX 7 1 6 2 5 3 4 4 3 5 2 6 1 7 37 8 38 9 99 10 39 11 98 12
REMARK SMILES IDX 40 13 41 14 42 15 92 16 43 17 97 18 91 19 93 20 44 21 96 22
REMARK SMILES IDX 90 23 89 24 45 26 77 27 57 28 76 29 58 30 61 31 75 32 94 33
REMARK SMILES IDX 59 34 60 35 74 37 95 38 62 39 46 40 47 41 55 42 48 43 49 44
REMARK SMILES IDX 53 45 56 46 50 47 51 48 54 49 52 50 78 51 79 52 87 53 80 54
REMARK SMILES IDX 81 55 85 56 88 57 82 58 83 59 86 60 84 61 63 62 64 63 72 64
REMARK SMILES IDX 65 65 66 66 70 67 73 68 67 69 68 70 71 71 69 72 8 73 9 74
REMARK SMILES IDX 10 75 11 76 12 77 13 78 14 79 15 80 16 81 17 82 18 83 22 84
REMARK SMILES IDX 19 85 21 86 20 87 23 88 24 89 35 90 25 91 26 92 34 93 36 94
REMARK SMILES IDX 27 95 28 96 29 97 33 98 30 99 32 100 31 101
REMARK H PARENT 93 25 61 36
REMARK Flexibility Score: inf
ROOT
ATOM      1  C   UNL A   1      35.414  33.876  28.855  1.00  0.00     0.188 C 
ENDROOT
BRANCH   1   2
ATOM      2  O   UNL A   1      34.708  35.052  28.431  1.00  0.00    -0.376 OA
BRANCH   2   3
ATOM      3  C   UNL A   1      33.339  35.063  28.853  1.00  0.00     0.202 C 
BRANCH   3   4
ATOM      4  C   UNL A   1      32.865  36.352  29.545  1.00  0.00     0.261 C 
BRANCH   4   5
ATOM      5  O   UNL A   1      32.216  36.136  30.807  1.00  0.00    -0.460 OA
BRANCH   5   6
ATOM      6  C   UNL A   1      32.738  35.992  32.048  1.00  0.00     0.338 C 
ATOM      7  O   UNL A   1      32.237  36.653  32.958  1.00  0.00    -0.246 OA
BRANCH   6   8
ATOM      8  C   UNL A   1      33.895  35.104  32.404  1.00  0.00     0.060 A 
ATOM      9  C   UNL A   1      33.809  33.791  32.861  1.00  0.00     0.016 A 
ATOM     10  C   UNL A   1      35.189  35.640  32.221  1.00  0.00     0.016 A 
ATOM     11  C   UNL A   1      34.952  33.052  33.163  1.00  0.00     0.010 A 
ATOM     12  C   UNL A   1      36.345  34.903  32.517  1.00  0.00     0.010 A 
ATOM     13  C   UNL A   1      36.224  33.605  33.008  1.00  0.00    -0.014 A 
BRANCH  13  14
ATOM     14  C   UNL A   1      37.360  32.831  33.547  1.00  0.00     0.031 A 
ATOM     15  C   UNL A   1      38.113  31.956  32.600  1.00  0.00     0.074 A 
ATOM     16  C   UNL A   1      37.790  33.032  34.805  1.00  0.00     0.049 A 
ATOM     17  N   UNL A   1      39.200  31.266  32.806  1.00  0.00    -0.248 NA
ATOM     18  C   UNL A   1      37.550  31.816  31.247  1.00  0.00     0.031 C 
ATOM     19  C   UNL A   1      37.088  33.830  35.797  1.00  0.00     0.029 A 
ATOM     20  N   UNL A   1      38.939  32.643  35.446  1.00  0.00    -0.354 N 
ATOM     21  C   UNL A   1      39.402  30.543  31.642  1.00  0.00     0.074 A 
ATOM     22  C   UNL A   1      38.372  30.930  30.705  1.00  0.00     0.031 C 
ATOM     23  C   UNL A   1      37.878  33.994  36.870  1.00  0.00     0.029 A 
ATOM     24  C   UNL A   1      39.116  33.254  36.669  1.00  0.00     0.049 A 
ATOM     25  H   UNL A   1      39.574  31.992  35.070  1.00  0.00     0.167 HD
ATOM     26  C   UNL A   1      40.334  29.590  31.419  1.00  0.00     0.037 A 
ATOM     27  C   UNL A   1      40.167  33.210  37.513  1.00  0.00     0.037 A 
ATOM     28  C   UNL A   1      41.330  29.220  32.388  1.00  0.00     0.049 A 
ATOM     29  C   UNL A   1      41.264  32.226  37.182  1.00  0.00     0.074 A 
ATOM     30  C   UNL A   1      42.277  28.217  32.315  1.00  0.00     0.029 A 
ATOM     31  N   UNL A   1      41.500  29.848  33.616  1.00  0.00    -0.354 N 
ATOM     32  N   UNL A   1      41.424  31.500  36.102  1.00  0.00    -0.248 NA
ATOM     33  C   UNL A   1      42.278  31.992  38.219  1.00  0.00     0.031 C 
ATOM     34  C   UNL A   1      42.988  28.206  33.520  1.00  0.00     0.029 A 
ATOM     35  C   UNL A   1      42.532  29.248  34.315  1.00  0.00     0.049 A 
ATOM     36  H   UNL A   1      40.964  30.608  33.941  1.00  0.00     0.167 HD
ATOM     37  C   UNL A   1      42.518  30.685  36.350  1.00  0.00     0.074 A 
ATOM     38  C   UNL A   1      43.041  31.074  37.644  1.00  0.00     0.031 C 
ATOM     39  C   UNL A   1      43.015  29.666  35.606  1.00  0.00     0.037 A 
BRANCH  26  40
ATOM     40  C   UNL A   1      40.218  28.808  30.147  1.00  0.00     0.064 A 
ATOM     41  C   UNL A   1      39.533  27.588  30.072  1.00  0.00     0.173 A 
ATOM     42  C   UNL A   1      40.836  29.288  28.981  1.00  0.00     0.173 A 
ATOM     43  F   UNL A   1      38.961  27.066  31.168  1.00  0.00    -0.203 F 
ATOM     44  C   UNL A   1      39.488  26.867  28.881  1.00  0.00     0.198 A 
ATOM     45  C   UNL A   1      40.763  28.581  27.786  1.00  0.00     0.198 A 
ATOM     46  F   UNL A   1      41.520  30.442  29.004  1.00  0.00    -0.203 F 
ATOM     47  F   UNL A   1      38.877  25.675  28.845  1.00  0.00    -0.200 F 
ATOM     48  C   UNL A   1      40.095  27.368  27.737  1.00  0.00     0.200 A 
ATOM     49  F   UNL A   1      41.350  29.069  26.684  1.00  0.00    -0.200 F 
ATOM     50  F   UNL A   1      40.048  26.674  26.593  1.00  0.00    -0.200 F 
ENDBRANCH  26  40
BRANCH  27  51
ATOM     51  C   UNL A   1      40.237  34.040  38.755  1.00  0.00     0.064 A 
ATOM     52  C   UNL A   1      40.875  35.293  38.747  1.00  0.00     0.173 A 
ATOM     53  C   UNL A   1      39.736  33.592  39.987  1.00  0.00     0.173 A 
ATOM     54  F   UNL A   1      41.391  35.777  37.606  1.00  0.00    -0.203 F 
ATOM     55  C   UNL A   1      41.040  36.036  39.918  1.00  0.00     0.198 A 
ATOM     56  C   UNL A   1      39.856  34.358  41.147  1.00  0.00     0.198 A 
ATOM     57  F   UNL A   1      39.134  32.398  40.074  1.00  0.00    -0.203 F 
ATOM     58  F   UNL A   1      41.712  37.195  39.887  1.00  0.00    -0.200 F 
ATOM     59  C   UNL A   1      40.526  35.569  41.116  1.00  0.00     0.200 A 
ATOM     60  F   UNL A   1      39.334  33.911  42.297  1.00  0.00    -0.200 F 
ATOM     61  F   UNL A   1      40.691  36.279  42.239  1.00  0.00    -0.200 F 
ENDBRANCH  27  51
BRANCH  39  62
ATOM     62  C   UNL A   1      44.168  28.904  36.188  1.00  0.00     0.064 A 
ATOM     63  C   UNL A   1      45.487  29.366  36.062  1.00  0.00     0.173 A 
ATOM     64  C   UNL A   1      43.946  27.729  36.917  1.00  0.00     0.173 A 
ATOM     65  F   UNL A   1      45.751  30.481  35.361  1.00  0.00    -0.203 F 
ATOM     66  C   UNL A   1      46.547  28.660  36.623  1.00  0.00     0.198 A 
ATOM     67  C   UNL A   1      45.004  27.044  37.506  1.00  0.00     0.198 A 
ATOM     68  F   UNL A   1      42.701  27.254  37.072  1.00  0.00    -0.203 F 
ATOM     69  F   UNL A   1      47.804  29.089  36.447  1.00  0.00    -0.200 F 
ATOM     70  C   UNL A   1      46.303  27.505  37.351  1.00  0.00     0.200 A 
ATOM     71  F   UNL A   1      44.766  25.938  38.223  1.00  0.00    -0.200 F 
ATOM     72  F   UNL A   1      47.324  26.831  37.898  1.00  0.00    -0.200 F 
ENDBRANCH  39  62
ENDBRANCH  13  14
ENDBRANCH   6   8
ENDBRANCH   5   6
ENDBRANCH   4   5
ENDBRANCH   3   4
ENDBRANCH   2   3
ENDBRANCH   1   2
BRANCH   1  73
ATOM     73  C   UNL A   1      34.500  32.665  29.042  1.00  0.00     0.188 C 
BRANCH  73  74
ATOM     74  O   UNL A   1      35.097  31.386  28.833  1.00  0.00    -0.376 OA
BRANCH  74  75
ATOM     75  C   UNL A   1      34.654  30.611  27.722  1.00  0.00     0.202 C 
BRANCH  75  76
ATOM     76  C   UNL A   1      33.226  30.868  27.248  1.00  0.00     0.261 C 
BRANCH  76  77
ATOM     77  O   UNL A   1      32.853  29.987  26.187  1.00  0.00    -0.462 OA
BRANCH  77  78
ATOM     78  C   UNL A   1      31.966  29.011  26.501  1.00  0.00     0.329 C 
ATOM     79  O   UNL A   1      31.662  28.659  27.636  1.00  0.00    -0.250 OA
BRANCH  78  80
ATOM     80  C   UNL A   1      31.395  28.345  25.254  1.00  0.00     0.206 C 
BRANCH  80  81
ATOM     81  C   UNL A   1      31.234  29.219  24.004  1.00  0.00     0.073 C 
BRANCH  81  82
ATOM     82  C   UNL A   1      29.868  29.715  23.587  1.00  0.00    -0.045 A 
ATOM     83  C   UNL A   1      28.926  28.864  22.997  1.00  0.00     0.004 A 
ATOM     84  C   UNL A   1      29.479  31.025  23.894  1.00  0.00     0.004 A 
ATOM     85  C   UNL A   1      27.613  29.287  22.785  1.00  0.00     0.000 A 
ATOM     86  C   UNL A   1      28.168  31.453  23.676  1.00  0.00     0.000 A 
ATOM     87  C   UNL A   1      27.231  30.577  23.138  1.00  0.00     0.000 A 
ENDBRANCH  81  82
ENDBRANCH  80  81
BRANCH  80  88
ATOM     88  N   UNL A   1      32.083  27.069  25.025  1.00  0.00    -0.278 N 
ATOM     89  C   UNL A   1      31.616  25.954  25.703  1.00  0.00     0.267 C 
ATOM     90  C   UNL A   1      33.225  26.902  24.275  1.00  0.00     0.149 C 
ATOM     91  O   UNL A   1      30.694  25.910  26.498  1.00  0.00    -0.268 OA
ATOM     92  C   UNL A   1      32.415  24.772  25.334  1.00  0.00     0.081 C 
ATOM     93  S   UNL A   1      33.763  25.228  24.380  1.00  0.00    -0.054 SA
ATOM     94  S   UNL A   1      34.075  28.050  23.415  1.00  0.00    -0.052 S 
ATOM     95  C   UNL A   1      32.031  23.557  25.734  1.00  0.00     0.029 C 
BRANCH  95  96
ATOM     96  C   UNL A   1      32.770  22.335  25.457  1.00  0.00    -0.021 A 
ATOM     97  C   UNL A   1      34.031  22.156  26.019  1.00  0.00     0.028 A 
ATOM     98  C   UNL A   1      32.237  21.360  24.621  1.00  0.00     0.028 A 
ATOM     99  C   UNL A   1      34.721  21.001  25.705  1.00  0.00     0.111 A 
ATOM    100  C   UNL A   1      33.005  20.236  24.374  1.00  0.00     0.111 A 
ATOM    101  N   UNL A   1      34.235  20.036  24.896  1.00  0.00    -0.265 NA
ENDBRANCH  95  96
ENDBRANCH  80  88
ENDBRANCH  78  80
ENDBRANCH  77  78
ENDBRANCH  76  77
ENDBRANCH  75  76
ENDBRANCH  74  75
ENDBRANCH  73  74
ENDBRANCH   1  73
TORSDOF 21
ENDMDL
