MODEL 1
REMARK VINA RESULT:      -9.8      0.000      0.000
REMARK SMILES Cc1ncccc1C(=O)NCCOCC(=O)OCCOCCOCCOC(=O)c1ccc(-c2c3nc(c(-c4c(F)c(F)c(F)c(F)c4F)c4ccc([nH]4)c(-c4c(F)c(F)c(F)c(F)c4F)c4nc(c(-c5c(F)c(F)c(F)c(F)c5F)c5ccc2[nH]5)C=C4)C=C3)cc1
REMARK SMILES IDX 20 1 19 2 18 3 17 4 15 5 16 6 14 7 13 8 12 9 11 10 10 11
REMARK SMILES IDX 8 12 9 13 7 15 1 16 2 17 3 18 4 19 6 20 5 21 21 22 22 23
REMARK SMILES IDX 23 24 24 25 25 26 26 27 27 28 28 29 29 30 30 31 91 32 31 33
REMARK SMILES IDX 90 34 32 35 33 36 34 37 84 38 35 39 89 40 83 41 85 42 36 43
REMARK SMILES IDX 88 44 82 45 81 46 37 48 69 49 49 50 68 51 50 52 53 53 67 54
REMARK SMILES IDX 86 55 51 56 52 57 66 59 87 60 54 61 38 62 39 63 47 64 40 65
REMARK SMILES IDX 41 66 45 67 48 68 42 69 43 70 46 71 44 72 70 73 71 74 79 75
REMARK SMILES IDX 72 76 73 77 77 78 80 79 74 80 75 81 78 82 76 83 55 84 56 85
REMARK SMILES IDX 64 86 57 87 58 88 62 89 65 90 59 91 60 92 63 93 61 94
REMARK H PARENT 10 14 85 47 53 58
REMARK Flexibility Score: inf
ROOT
ATOM      1  O   UNL A   1      33.953  31.575  27.241  1.00  0.00    -0.376 OA
ENDROOT
BRANCH   1   2
ATOM      2  C   UNL A   1      32.750  30.944  26.851  1.00  0.00     0.202 C 
BRANCH   2   3
ATOM      3  C   UNL A   1      32.665  29.439  27.159  1.00  0.00     0.261 C 
BRANCH   3   4
ATOM      4  O   UNL A   1      31.402  28.773  26.888  1.00  0.00    -0.462 OA
BRANCH   4   5
ATOM      5  C   UNL A   1      31.491  27.435  26.639  1.00  0.00     0.332 C 
ATOM      6  O   UNL A   1      32.008  26.621  27.402  1.00  0.00    -0.250 OA
BRANCH   5   7
ATOM      7  C   UNL A   1      30.895  26.975  25.289  1.00  0.00     0.282 C 
BRANCH   7   8
ATOM      8  O   UNL A   1      30.256  27.744  24.300  1.00  0.00    -0.368 OA
BRANCH   8   9
ATOM      9  C   UNL A   1      30.257  27.265  22.959  1.00  0.00     0.182 C 
BRANCH   9  10
ATOM     10  C   UNL A   1      31.374  27.764  22.006  1.00  0.00     0.144 C 
BRANCH  10  11
ATOM     11  N   UNL A   1      32.171  26.704  21.316  1.00  0.00    -0.350 N 
ATOM     12  C   UNL A   1      32.812  25.466  21.448  1.00  0.00     0.253 C 
ATOM     13  O   UNL A   1      33.277  25.148  20.336  1.00  0.00    -0.269 OA
ATOM     14  H   UNL A   1      32.297  26.997  20.385  1.00  0.00     0.163 HD
BRANCH  12  15
ATOM     15  C   UNL A   1      33.109  24.344  22.667  1.00  0.00     0.061 A 
ATOM     16  C   UNL A   1      32.150  21.101  22.569  1.00  0.00     0.067 C 
ATOM     17  C   UNL A   1      32.927  22.376  23.113  1.00  0.00     0.050 A 
ATOM     18  N   UNL A   1      33.616  21.782  24.625  1.00  0.00    -0.261 NA
ATOM     19  C   UNL A   1      34.445  22.881  25.655  1.00  0.00     0.111 A 
ATOM     20  C   UNL A   1      34.024  25.351  23.887  1.00  0.00     0.017 A 
ATOM     21  C   UNL A   1      34.667  24.591  25.344  1.00  0.00     0.021 A 
ENDBRANCH  12  15
ENDBRANCH  10  11
ENDBRANCH   9  10
ENDBRANCH   8   9
ENDBRANCH   7   8
ENDBRANCH   5   7
ENDBRANCH   4   5
ENDBRANCH   3   4
ENDBRANCH   2   3
ENDBRANCH   1   2
BRANCH   1  22
ATOM     22  C   UNL A   1      33.847  32.314  28.437  1.00  0.00     0.188 C 
BRANCH  22  23
ATOM     23  C   UNL A   1      33.694  33.810  28.284  1.00  0.00     0.188 C 
BRANCH  23  24
ATOM     24  O   UNL A   1      32.827  34.567  29.094  1.00  0.00    -0.376 OA
BRANCH  24  25
ATOM     25  C   UNL A   1      33.490  35.413  30.048  1.00  0.00     0.202 C 
BRANCH  25  26
ATOM     26  C   UNL A   1      33.947  34.922  31.467  1.00  0.00     0.261 C 
BRANCH  26  27
ATOM     27  O   UNL A   1      35.187  34.181  31.598  1.00  0.00    -0.460 OA
BRANCH  27  28
ATOM     28  C   UNL A   1      35.094  32.904  32.025  1.00  0.00     0.338 C 
ATOM     29  O   UNL A   1      34.177  32.425  32.668  1.00  0.00    -0.246 OA
BRANCH  28  30
ATOM     30  C   UNL A   1      36.124  32.052  31.362  1.00  0.00     0.060 A 
ATOM     31  C   UNL A   1      37.149  30.992  32.345  1.00  0.00     0.016 A 
ATOM     32  C   UNL A   1      36.667  32.340  29.705  1.00  0.00     0.016 A 
ATOM     33  C   UNL A   1      38.713  30.249  31.763  1.00  0.00     0.010 A 
ATOM     34  C   UNL A   1      38.404  31.530  29.088  1.00  0.00     0.010 A 
ATOM     35  C   UNL A   1      39.360  30.503  30.159  1.00  0.00    -0.014 A 
BRANCH  35  36
ATOM     36  C   UNL A   1      40.621  30.067  29.503  1.00  0.00     0.031 A 
ATOM     37  C   UNL A   1      40.697  28.651  28.980  1.00  0.00     0.074 A 
ATOM     38  C   UNL A   1      41.772  30.693  29.824  1.00  0.00     0.049 A 
ATOM     39  N   UNL A   1      41.728  27.940  28.601  1.00  0.00    -0.248 NA
ATOM     40  C   UNL A   1      39.439  27.897  28.967  1.00  0.00     0.031 C 
ATOM     41  C   UNL A   1      41.868  31.939  30.574  1.00  0.00     0.029 A 
ATOM     42  N   UNL A   1      43.086  30.329  29.649  1.00  0.00    -0.354 N 
ATOM     43  C   UNL A   1      41.224  26.676  28.304  1.00  0.00     0.074 A 
ATOM     44  C   UNL A   1      39.833  26.672  28.668  1.00  0.00     0.031 C 
ATOM     45  C   UNL A   1      43.153  32.227  30.826  1.00  0.00     0.029 A 
ATOM     46  C   UNL A   1      43.987  31.206  30.215  1.00  0.00     0.049 A 
ATOM     47  H   UNL A   1      43.360  29.516  29.164  1.00  0.00     0.167 HD
ATOM     48  C   UNL A   1      41.852  25.628  27.725  1.00  0.00     0.037 A 
ATOM     49  C   UNL A   1      45.333  31.207  30.208  1.00  0.00     0.037 A 
ATOM     50  C   UNL A   1      43.250  25.653  27.404  1.00  0.00     0.049 A 
ATOM     51  C   UNL A   1      46.028  30.097  29.469  1.00  0.00     0.074 A 
ATOM     52  C   UNL A   1      43.992  24.743  26.679  1.00  0.00     0.029 A 
ATOM     53  N   UNL A   1      44.122  26.647  27.826  1.00  0.00    -0.354 N 
ATOM     54  N   UNL A   1      45.514  29.014  28.938  1.00  0.00    -0.248 NA
ATOM     55  C   UNL A   1      47.478  30.229  29.284  1.00  0.00     0.031 C 
ATOM     56  C   UNL A   1      45.329  25.151  26.721  1.00  0.00     0.029 A 
ATOM     57  C   UNL A   1      45.404  26.359  27.399  1.00  0.00     0.049 A 
ATOM     58  H   UNL A   1      43.866  27.439  28.351  1.00  0.00     0.167 HD
ATOM     59  C   UNL A   1      46.565  28.360  28.313  1.00  0.00     0.074 A 
ATOM     60  C   UNL A   1      47.742  29.178  28.521  1.00  0.00     0.031 C 
ATOM     61  C   UNL A   1      46.557  27.191  27.625  1.00  0.00     0.037 A 
BRANCH  48  62
ATOM     62  C   UNL A   1      41.031  24.421  27.353  1.00  0.00     0.064 A 
ATOM     63  C   UNL A   1      41.262  23.167  27.949  1.00  0.00     0.173 A 
ATOM     64  C   UNL A   1      39.967  24.516  26.443  1.00  0.00     0.173 A 
ATOM     65  F   UNL A   1      42.260  23.011  28.832  1.00  0.00    -0.203 F 
ATOM     66  C   UNL A   1      40.491  22.055  27.620  1.00  0.00     0.198 A 
ATOM     67  C   UNL A   1      39.169  23.409  26.150  1.00  0.00     0.198 A 
ATOM     68  F   UNL A   1      39.687  25.682  25.844  1.00  0.00    -0.203 F 
ATOM     69  F   UNL A   1      40.774  20.863  28.163  1.00  0.00    -0.200 F 
ATOM     70  C   UNL A   1      39.438  22.180  26.730  1.00  0.00     0.200 A 
ATOM     71  F   UNL A   1      38.134  23.536  25.307  1.00  0.00    -0.200 F 
ATOM     72  F   UNL A   1      38.682  21.114  26.432  1.00  0.00    -0.200 F 
ENDBRANCH  48  62
BRANCH  49  73
ATOM     73  C   UNL A   1      46.090  32.360  30.772  1.00  0.00     0.064 A 
ATOM     74  C   UNL A   1      46.386  33.473  29.968  1.00  0.00     0.173 A 
ATOM     75  C   UNL A   1      46.517  32.400  32.107  1.00  0.00     0.173 A 
ATOM     76  F   UNL A   1      46.002  33.490  28.683  1.00  0.00    -0.203 F 
ATOM     77  C   UNL A   1      47.116  34.554  30.459  1.00  0.00     0.198 A 
ATOM     78  C   UNL A   1      47.218  33.499  32.609  1.00  0.00     0.198 A 
ATOM     79  F   UNL A   1      46.244  31.377  32.930  1.00  0.00    -0.203 F 
ATOM     80  F   UNL A   1      47.433  35.571  29.646  1.00  0.00    -0.200 F 
ATOM     81  C   UNL A   1      47.528  34.568  31.781  1.00  0.00     0.200 A 
ATOM     82  F   UNL A   1      47.596  33.521  33.894  1.00  0.00    -0.200 F 
ATOM     83  F   UNL A   1      48.230  35.607  32.255  1.00  0.00    -0.200 F 
ENDBRANCH  49  73
BRANCH  61  84
ATOM     84  C   UNL A   1      47.852  26.751  27.016  1.00  0.00     0.064 A 
ATOM     85  C   UNL A   1      48.241  27.155  25.731  1.00  0.00     0.173 A 
ATOM     86  C   UNL A   1      48.734  25.944  27.752  1.00  0.00     0.173 A 
ATOM     87  F   UNL A   1      47.427  27.919  24.988  1.00  0.00    -0.203 F 
ATOM     88  C   UNL A   1      49.447  26.730  25.188  1.00  0.00     0.198 A 
ATOM     89  C   UNL A   1      49.962  25.564  27.224  1.00  0.00     0.198 A 
ATOM     90  F   UNL A   1      48.413  25.543  28.992  1.00  0.00    -0.203 F 
ATOM     91  F   UNL A   1      49.767  27.068  23.931  1.00  0.00    -0.200 F 
ATOM     92  C   UNL A   1      50.310  25.945  25.937  1.00  0.00     0.200 A 
ATOM     93  F   UNL A   1      50.806  24.829  27.960  1.00  0.00    -0.200 F 
ATOM     94  F   UNL A   1      51.479  25.547  25.415  1.00  0.00    -0.200 F 
ENDBRANCH  61  84
ENDBRANCH  35  36
ENDBRANCH  28  30
ENDBRANCH  27  28
ENDBRANCH  26  27
ENDBRANCH  25  26
ENDBRANCH  24  25
ENDBRANCH  23  24
ENDBRANCH  22  23
ENDBRANCH   1  22
TORSDOF 22
ENDMDL
MODEL 2
REMARK VINA RESULT:      -9.4      3.925      6.832
REMARK SMILES Cc1ncccc1C(=O)NCCOCC(=O)OCCOCCOCCOC(=O)c1ccc(-c2c3nc(c(-c4c(F)c(F)c(F)c(F)c4F)c4ccc([nH]4)c(-c4c(F)c(F)c(F)c(F)c4F)c4nc(c(-c5c(F)c(F)c(F)c(F)c5F)c5ccc2[nH]5)C=C4)C=C3)cc1
REMARK SMILES IDX 20 1 19 2 18 3 17 4 15 5 16 6 14 7 13 8 12 9 11 10 10 11
REMARK SMILES IDX 8 12 9 13 7 15 1 16 2 17 3 18 4 19 6 20 5 21 21 22 22 23
REMARK SMILES IDX 23 24 24 25 25 26 26 27 27 28 28 29 29 30 30 31 91 32 31 33
REMARK SMILES IDX 90 34 32 35 33 36 34 37 84 38 35 39 89 40 83 41 85 42 36 43
REMARK SMILES IDX 88 44 82 45 81 46 37 48 69 49 49 50 68 51 50 52 53 53 67 54
REMARK SMILES IDX 86 55 51 56 52 57 66 59 87 60 54 61 38 62 39 63 47 64 40 65
REMARK SMILES IDX 41 66 45 67 48 68 42 69 43 70 46 71 44 72 70 73 71 74 79 75
REMARK SMILES IDX 72 76 73 77 77 78 80 79 74 80 75 81 78 82 76 83 55 84 56 85
REMARK SMILES IDX 64 86 57 87 58 88 62 89 65 90 59 91 60 92 63 93 61 94
REMARK H PARENT 10 14 85 47 53 58
REMARK Flexibility Score: inf
ROOT
ATOM      1  O   UNL A   1      30.407  25.101  24.718  1.00  0.00    -0.376 OA
ENDROOT
BRANCH   1   2
ATOM      2  C   UNL A   1      30.493  24.185  23.646  1.00  0.00     0.202 C 
BRANCH   2   3
ATOM      3  C   UNL A   1      31.561  24.509  22.587  1.00  0.00     0.261 C 
BRANCH   3   4
ATOM      4  O   UNL A   1      31.897  25.908  22.383  1.00  0.00    -0.462 OA
BRANCH   4   5
ATOM      5  C   UNL A   1      33.202  26.233  22.608  1.00  0.00     0.332 C 
ATOM      6  O   UNL A   1      34.028  26.438  21.722  1.00  0.00    -0.250 OA
BRANCH   5   7
ATOM      7  C   UNL A   1      33.610  26.321  24.097  1.00  0.00     0.282 C 
BRANCH   7   8
ATOM      8  O   UNL A   1      33.956  25.282  24.980  1.00  0.00    -0.368 OA
BRANCH   8   9
ATOM      9  C   UNL A   1      34.921  24.324  24.558  1.00  0.00     0.182 C 
BRANCH   9  10
ATOM     10  C   UNL A   1      34.758  22.861  25.047  1.00  0.00     0.144 C 
BRANCH  10  11
ATOM     11  N   UNL A   1      33.355  22.360  25.167  1.00  0.00    -0.350 N 
ATOM     12  C   UNL A   1      32.494  21.271  24.980  1.00  0.00     0.253 C 
ATOM     13  O   UNL A   1      31.358  21.603  25.372  1.00  0.00    -0.269 OA
ATOM     14  H   UNL A   1      32.814  23.099  25.525  1.00  0.00     0.163 HD
BRANCH  12  15
ATOM     15  C   UNL A   1      32.588  19.700  24.385  1.00  0.00     0.061 A 
ATOM     16  C   UNL A   1      32.129  18.842  21.144  1.00  0.00     0.067 C 
ATOM     17  C   UNL A   1      32.550  18.633  22.663  1.00  0.00     0.050 A 
ATOM     18  N   UNL A   1      32.867  16.899  22.733  1.00  0.00    -0.261 NA
ATOM     19  C   UNL A   1      33.226  16.174  24.250  1.00  0.00     0.111 A 
ATOM     20  C   UNL A   1      32.989  18.752  25.895  1.00  0.00     0.017 A 
ATOM     21  C   UNL A   1      33.298  17.018  25.784  1.00  0.00     0.021 A 
ENDBRANCH  12  15
ENDBRANCH  10  11
ENDBRANCH   9  10
ENDBRANCH   8   9
ENDBRANCH   7   8
ENDBRANCH   5   7
ENDBRANCH   4   5
ENDBRANCH   3   4
ENDBRANCH   2   3
ENDBRANCH   1   2
BRANCH   1  22
ATOM     22  C   UNL A   1      29.697  26.278  24.408  1.00  0.00     0.188 C 
BRANCH  22  23
ATOM     23  C   UNL A   1      30.351  27.578  24.816  1.00  0.00     0.188 C 
BRANCH  23  24
ATOM     24  O   UNL A   1      30.538  28.645  23.917  1.00  0.00    -0.376 OA
BRANCH  24  25
ATOM     25  C   UNL A   1      31.430  29.670  24.387  1.00  0.00     0.202 C 
BRANCH  25  26
ATOM     26  C   UNL A   1      31.007  30.779  25.413  1.00  0.00     0.261 C 
BRANCH  26  27
ATOM     27  O   UNL A   1      31.640  30.818  26.718  1.00  0.00    -0.460 OA
BRANCH  27  28
ATOM     28  C   UNL A   1      32.320  31.940  27.035  1.00  0.00     0.338 C 
ATOM     29  O   UNL A   1      31.834  33.027  27.293  1.00  0.00    -0.246 OA
BRANCH  28  30
ATOM     30  C   UNL A   1      33.749  31.625  27.323  1.00  0.00     0.060 A 
ATOM     31  C   UNL A   1      34.232  29.948  27.628  1.00  0.00     0.016 A 
ATOM     32  C   UNL A   1      34.918  32.867  27.789  1.00  0.00     0.016 A 
ATOM     33  C   UNL A   1      35.803  29.460  28.420  1.00  0.00     0.010 A 
ATOM     34  C   UNL A   1      36.636  32.312  28.680  1.00  0.00     0.010 A 
ATOM     35  C   UNL A   1      37.009  30.608  28.955  1.00  0.00    -0.014 A 
BRANCH  35  36
ATOM     36  C   UNL A   1      38.302  30.449  29.671  1.00  0.00     0.031 A 
ATOM     37  C   UNL A   1      39.249  29.372  29.196  1.00  0.00     0.074 A 
ATOM     38  C   UNL A   1      38.390  30.859  30.954  1.00  0.00     0.049 A 
ATOM     39  N   UNL A   1      40.304  28.855  29.773  1.00  0.00    -0.248 NA
ATOM     40  C   UNL A   1      38.907  28.721  27.928  1.00  0.00     0.031 C 
ATOM     41  C   UNL A   1      37.404  31.684  31.640  1.00  0.00     0.029 A 
ATOM     42  N   UNL A   1      39.300  30.567  31.942  1.00  0.00    -0.354 N 
ATOM     43  C   UNL A   1      40.734  27.837  28.924  1.00  0.00     0.074 A 
ATOM     44  C   UNL A   1      39.764  27.718  27.870  1.00  0.00     0.031 C 
ATOM     45  C   UNL A   1      37.731  31.812  32.934  1.00  0.00     0.029 A 
ATOM     46  C   UNL A   1      38.982  31.111  33.169  1.00  0.00     0.049 A 
ATOM     47  H   UNL A   1      40.103  30.019  31.790  1.00  0.00     0.167 HD
ATOM     48  C   UNL A   1      41.868  27.105  28.988  1.00  0.00     0.037 A 
ATOM     49  C   UNL A   1      39.645  31.081  34.340  1.00  0.00     0.037 A 
ATOM     50  C   UNL A   1      42.800  27.224  30.072  1.00  0.00     0.049 A 
ATOM     51  C   UNL A   1      40.962  30.357  34.378  1.00  0.00     0.074 A 
ATOM     52  C   UNL A   1      44.059  26.675  30.201  1.00  0.00     0.029 A 
ATOM     53  N   UNL A   1      42.544  27.935  31.236  1.00  0.00    -0.354 N 
ATOM     54  N   UNL A   1      41.512  29.601  33.459  1.00  0.00    -0.248 NA
ATOM     55  C   UNL A   1      41.774  30.517  35.591  1.00  0.00     0.031 C 
ATOM     56  C   UNL A   1      44.538  26.996  31.475  1.00  0.00     0.029 A 
ATOM     57  C   UNL A   1      43.613  27.816  32.104  1.00  0.00     0.049 A 
ATOM     58  H   UNL A   1      41.723  28.447  31.417  1.00  0.00     0.167 HD
ATOM     59  C   UNL A   1      42.753  29.235  33.957  1.00  0.00     0.074 A 
ATOM     60  C   UNL A   1      42.878  29.866  35.255  1.00  0.00     0.031 C 
ATOM     61  C   UNL A   1      43.706  28.453  33.391  1.00  0.00     0.037 A 
BRANCH  48  62
ATOM     62  C   UNL A   1      42.184  26.178  27.842  1.00  0.00     0.064 A 
ATOM     63  C   UNL A   1      42.860  26.635  26.696  1.00  0.00     0.173 A 
ATOM     64  C   UNL A   1      41.870  24.812  27.903  1.00  0.00     0.173 A 
ATOM     65  F   UNL A   1      43.196  27.930  26.580  1.00  0.00    -0.203 F 
ATOM     66  C   UNL A   1      43.170  25.776  25.645  1.00  0.00     0.198 A 
ATOM     67  C   UNL A   1      42.222  23.945  26.867  1.00  0.00     0.198 A 
ATOM     68  F   UNL A   1      41.233  24.307  28.969  1.00  0.00    -0.203 F 
ATOM     69  F   UNL A   1      43.764  26.256  24.544  1.00  0.00    -0.200 F 
ATOM     70  C   UNL A   1      42.862  24.429  25.737  1.00  0.00     0.200 A 
ATOM     71  F   UNL A   1      41.945  22.637  26.967  1.00  0.00    -0.200 F 
ATOM     72  F   UNL A   1      43.181  23.598  24.735  1.00  0.00    -0.200 F 
ENDBRANCH  48  62
BRANCH  49  73
ATOM     73  C   UNL A   1      39.164  31.882  35.502  1.00  0.00     0.064 A 
ATOM     74  C   UNL A   1      39.518  33.236  35.623  1.00  0.00     0.173 A 
ATOM     75  C   UNL A   1      38.336  31.342  36.496  1.00  0.00     0.173 A 
ATOM     76  F   UNL A   1      40.307  33.805  34.700  1.00  0.00    -0.203 F 
ATOM     77  C   UNL A   1      39.105  34.002  36.711  1.00  0.00     0.198 A 
ATOM     78  C   UNL A   1      37.894  32.120  37.568  1.00  0.00     0.198 A 
ATOM     79  F   UNL A   1      37.946  30.061  36.423  1.00  0.00    -0.203 F 
ATOM     80  F   UNL A   1      39.513  35.274  36.826  1.00  0.00    -0.200 F 
ATOM     81  C   UNL A   1      38.290  33.445  37.682  1.00  0.00     0.200 A 
ATOM     82  F   UNL A   1      37.086  31.585  38.495  1.00  0.00    -0.200 F 
ATOM     83  F   UNL A   1      37.892  34.181  38.729  1.00  0.00    -0.200 F 
ENDBRANCH  49  73
BRANCH  61  84
ATOM     84  C   UNL A   1      44.979  28.270  34.158  1.00  0.00     0.064 A 
ATOM     85  C   UNL A   1      45.172  27.183  35.022  1.00  0.00     0.173 A 
ATOM     86  C   UNL A   1      46.036  29.177  33.989  1.00  0.00     0.173 A 
ATOM     87  F   UNL A   1      44.187  26.294  35.222  1.00  0.00    -0.203 F 
ATOM     88  C   UNL A   1      46.363  27.035  35.724  1.00  0.00     0.198 A 
ATOM     89  C   UNL A   1      47.243  28.997  34.653  1.00  0.00     0.198 A 
ATOM     90  F   UNL A   1      45.905  30.225  33.162  1.00  0.00    -0.203 F 
ATOM     91  F   UNL A   1      46.499  26.031  36.599  1.00  0.00    -0.200 F 
ATOM     92  C   UNL A   1      47.400  27.936  35.531  1.00  0.00     0.200 A 
ATOM     93  F   UNL A   1      48.253  29.852  34.445  1.00  0.00    -0.200 F 
ATOM     94  F   UNL A   1      48.552  27.784  36.200  1.00  0.00    -0.200 F 
ENDBRANCH  61  84
ENDBRANCH  35  36
ENDBRANCH  28  30
ENDBRANCH  27  28
ENDBRANCH  26  27
ENDBRANCH  25  26
ENDBRANCH  24  25
ENDBRANCH  23  24
ENDBRANCH  22  23
ENDBRANCH   1  22
TORSDOF 22
ENDMDL
MODEL 3
REMARK VINA RESULT:      -9.3      1.766      7.445
REMARK SMILES Cc1ncccc1C(=O)NCCOCC(=O)OCCOCCOCCOC(=O)c1ccc(-c2c3nc(c(-c4c(F)c(F)c(F)c(F)c4F)c4ccc([nH]4)c(-c4c(F)c(F)c(F)c(F)c4F)c4nc(c(-c5c(F)c(F)c(F)c(F)c5F)c5ccc2[nH]5)C=C4)C=C3)cc1
REMARK SMILES IDX 20 1 19 2 18 3 17 4 15 5 16 6 14 7 13 8 12 9 11 10 10 11
REMARK SMILES IDX 8 12 9 13 7 15 1 16 2 17 3 18 4 19 6 20 5 21 21 22 22 23
REMARK SMILES IDX 23 24 24 25 25 26 26 27 27 28 28 29 29 30 30 31 91 32 31 33
REMARK SMILES IDX 90 34 32 35 33 36 34 37 84 38 35 39 89 40 83 41 85 42 36 43
REMARK SMILES IDX 88 44 82 45 81 46 37 48 69 49 49 50 68 51 50 52 53 53 67 54
REMARK SMILES IDX 86 55 51 56 52 57 66 59 87 60 54 61 38 62 39 63 47 64 40 65
REMARK SMILES IDX 41 66 45 67 48 68 42 69 43 70 46 71 44 72 70 73 71 74 79 75
REMARK SMILES IDX 72 76 73 77 77 78 80 79 74 80 75 81 78 82 76 83 55 84 56 85
REMARK SMILES IDX 64 86 57 87 58 88 62 89 65 90 59 91 60 92 63 93 61 94
REMARK H PARENT 10 14 85 47 53 58
REMARK Flexibility Score: inf
ROOT
ATOM      1  O   UNL A   1      34.355  30.057  26.846  1.00  0.00    -0.376 OA
ENDROOT
BRANCH   1   2
ATOM      2  C   UNL A   1      33.627  28.883  27.139  1.00  0.00     0.202 C 
BRANCH   2   3
ATOM      3  C   UNL A   1      33.282  28.001  25.927  1.00  0.00     0.261 C 
BRANCH   3   4
ATOM      4  O   UNL A   1      31.889  27.631  25.744  1.00  0.00    -0.462 OA
BRANCH   4   5
ATOM      5  C   UNL A   1      31.302  28.113  24.612  1.00  0.00     0.332 C 
ATOM      6  O   UNL A   1      31.567  29.201  24.103  1.00  0.00    -0.250 OA
BRANCH   5   7
ATOM      7  C   UNL A   1      30.233  27.191  23.980  1.00  0.00     0.282 C 
BRANCH   7   8
ATOM      8  O   UNL A   1      30.372  26.277  22.921  1.00  0.00    -0.368 OA
BRANCH   8   9
ATOM      9  C   UNL A   1      31.556  26.326  22.131  1.00  0.00     0.182 C 
BRANCH   9  10
ATOM     10  C   UNL A   1      32.725  25.379  22.510  1.00  0.00     0.144 C 
BRANCH  10  11
ATOM     11  N   UNL A   1      32.800  24.968  23.945  1.00  0.00    -0.350 N 
ATOM     12  C   UNL A   1      33.182  23.965  24.844  1.00  0.00     0.253 C 
ATOM     13  O   UNL A   1      32.959  24.373  26.001  1.00  0.00    -0.269 OA
ATOM     14  H   UNL A   1      32.427  25.707  24.477  1.00  0.00     0.163 HD
BRANCH  12  15
ATOM     15  C   UNL A   1      33.833  22.414  24.773  1.00  0.00     0.061 A 
ATOM     16  C   UNL A   1      37.038  21.639  25.533  1.00  0.00     0.067 C 
ATOM     17  C   UNL A   1      35.509  21.359  25.198  1.00  0.00     0.050 A 
ATOM     18  N   UNL A   1      35.482  19.606  24.995  1.00  0.00    -0.261 NA
ATOM     19  C   UNL A   1      34.029  18.847  24.473  1.00  0.00     0.111 A 
ATOM     20  C   UNL A   1      32.392  21.428  24.232  1.00  0.00     0.017 A 
ATOM     21  C   UNL A   1      32.531  19.674  24.101  1.00  0.00     0.021 A 
ENDBRANCH  12  15
ENDBRANCH  10  11
ENDBRANCH   9  10
ENDBRANCH   8   9
ENDBRANCH   7   8
ENDBRANCH   5   7
ENDBRANCH   4   5
ENDBRANCH   3   4
ENDBRANCH   2   3
ENDBRANCH   1   2
BRANCH   1  22
ATOM     22  C   UNL A   1      34.733  30.794  27.986  1.00  0.00     0.188 C 
BRANCH  22  23
ATOM     23  C   UNL A   1      34.645  32.298  27.867  1.00  0.00     0.188 C 
BRANCH  23  24
ATOM     24  O   UNL A   1      33.585  33.040  28.423  1.00  0.00    -0.376 OA
BRANCH  24  25
ATOM     25  C   UNL A   1      33.982  34.281  29.031  1.00  0.00     0.202 C 
BRANCH  25  26
ATOM     26  C   UNL A   1      33.729  34.622  30.542  1.00  0.00     0.261 C 
BRANCH  26  27
ATOM     27  O   UNL A   1      34.822  34.505  31.489  1.00  0.00    -0.460 OA
BRANCH  27  28
ATOM     28  C   UNL A   1      35.216  33.257  31.817  1.00  0.00     0.338 C 
ATOM     29  O   UNL A   1      34.488  32.331  32.127  1.00  0.00    -0.246 OA
BRANCH  28  30
ATOM     30  C   UNL A   1      36.652  33.052  31.471  1.00  0.00     0.060 A 
ATOM     31  C   UNL A   1      37.171  33.164  29.781  1.00  0.00     0.016 A 
ATOM     32  C   UNL A   1      37.796  32.295  32.586  1.00  0.00     0.016 A 
ATOM     33  C   UNL A   1      38.755  32.512  29.147  1.00  0.00     0.010 A 
ATOM     34  C   UNL A   1      39.529  31.562  31.866  1.00  0.00     0.010 A 
ATOM     35  C   UNL A   1      39.937  31.711  30.155  1.00  0.00    -0.014 A 
BRANCH  35  36
ATOM     36  C   UNL A   1      41.235  31.052  29.853  1.00  0.00     0.031 A 
ATOM     37  C   UNL A   1      42.406  31.930  29.474  1.00  0.00     0.074 A 
ATOM     38  C   UNL A   1      41.233  29.771  29.430  1.00  0.00     0.049 A 
ATOM     39  N   UNL A   1      43.556  31.623  28.929  1.00  0.00    -0.248 NA
ATOM     40  C   UNL A   1      42.218  33.373  29.653  1.00  0.00     0.031 C 
ATOM     41  C   UNL A   1      40.085  28.874  29.479  1.00  0.00     0.029 A 
ATOM     42  N   UNL A   1      42.191  29.022  28.788  1.00  0.00    -0.354 N 
ATOM     43  C   UNL A   1      44.207  32.836  28.720  1.00  0.00     0.074 A 
ATOM     44  C   UNL A   1      43.286  33.884  29.067  1.00  0.00     0.031 C 
ATOM     45  C   UNL A   1      40.380  27.715  28.873  1.00  0.00     0.029 A 
ATOM     46  C   UNL A   1      41.761  27.762  28.425  1.00  0.00     0.049 A 
ATOM     47  H   UNL A   1      43.099  29.353  28.604  1.00  0.00     0.167 HD
ATOM     48  C   UNL A   1      45.481  33.056  28.326  1.00  0.00     0.037 A 
ATOM     49  C   UNL A   1      42.419  26.748  27.834  1.00  0.00     0.037 A 
ATOM     50  C   UNL A   1      46.366  31.989  27.955  1.00  0.00     0.049 A 
ATOM     51  C   UNL A   1      43.869  26.959  27.497  1.00  0.00     0.074 A 
ATOM     52  C   UNL A   1      47.719  32.033  27.689  1.00  0.00     0.029 A 
ATOM     53  N   UNL A   1      45.956  30.675  27.771  1.00  0.00    -0.354 N 
ATOM     54  N   UNL A   1      44.576  28.062  27.557  1.00  0.00    -0.248 NA
ATOM     55  C   UNL A   1      44.628  25.781  27.058  1.00  0.00     0.031 C 
ATOM     56  C   UNL A   1      48.116  30.758  27.276  1.00  0.00     0.029 A 
ATOM     57  C   UNL A   1      47.028  29.902  27.367  1.00  0.00     0.049 A 
ATOM     58  H   UNL A   1      45.040  30.344  27.906  1.00  0.00     0.167 HD
ATOM     59  C   UNL A   1      45.871  27.706  27.212  1.00  0.00     0.074 A 
ATOM     60  C   UNL A   1      45.852  26.279  26.960  1.00  0.00     0.031 C 
ATOM     61  C   UNL A   1      46.977  28.485  27.119  1.00  0.00     0.037 A 
BRANCH  48  62
ATOM     62  C   UNL A   1      45.999  34.471  28.341  1.00  0.00     0.064 A 
ATOM     63  C   UNL A   1      46.593  35.020  29.493  1.00  0.00     0.173 A 
ATOM     64  C   UNL A   1      45.962  35.273  27.191  1.00  0.00     0.173 A 
ATOM     65  F   UNL A   1      46.666  34.303  30.625  1.00  0.00    -0.203 F 
ATOM     66  C   UNL A   1      47.089  36.321  29.503  1.00  0.00     0.198 A 
ATOM     67  C   UNL A   1      46.502  36.560  27.192  1.00  0.00     0.198 A 
ATOM     68  F   UNL A   1      45.418  34.809  26.057  1.00  0.00    -0.203 F 
ATOM     69  F   UNL A   1      47.597  36.833  30.633  1.00  0.00    -0.200 F 
ATOM     70  C   UNL A   1      47.054  37.085  28.349  1.00  0.00     0.200 A 
ATOM     71  F   UNL A   1      46.489  37.290  26.068  1.00  0.00    -0.200 F 
ATOM     72  F   UNL A   1      47.553  38.329  28.353  1.00  0.00    -0.200 F 
ENDBRANCH  48  62
BRANCH  49  73
ATOM     73  C   UNL A   1      41.771  25.415  27.678  1.00  0.00     0.064 A 
ATOM     74  C   UNL A   1      40.829  25.203  26.658  1.00  0.00     0.173 A 
ATOM     75  C   UNL A   1      42.075  24.328  28.510  1.00  0.00     0.173 A 
ATOM     76  F   UNL A   1      40.500  26.207  25.832  1.00  0.00    -0.203 F 
ATOM     77  C   UNL A   1      40.186  23.976  26.504  1.00  0.00     0.198 A 
ATOM     78  C   UNL A   1      41.456  23.089  28.333  1.00  0.00     0.198 A 
ATOM     79  F   UNL A   1      42.982  24.464  29.487  1.00  0.00    -0.203 F 
ATOM     80  F   UNL A   1      39.248  23.827  25.558  1.00  0.00    -0.200 F 
ATOM     81  C   UNL A   1      40.503  22.918  27.340  1.00  0.00     0.200 A 
ATOM     82  F   UNL A   1      41.780  22.060  29.128  1.00  0.00    -0.200 F 
ATOM     83  F   UNL A   1      39.885  21.738  27.193  1.00  0.00    -0.200 F 
ENDBRANCH  49  73
BRANCH  61  84
ATOM     84  C   UNL A   1      48.262  27.803  26.764  1.00  0.00     0.064 A 
ATOM     85  C   UNL A   1      48.593  27.492  25.438  1.00  0.00     0.173 A 
ATOM     86  C   UNL A   1      49.192  27.495  27.768  1.00  0.00     0.173 A 
ATOM     87  F   UNL A   1      47.731  27.760  24.445  1.00  0.00    -0.203 F 
ATOM     88  C   UNL A   1      49.791  26.858  25.134  1.00  0.00     0.198 A 
ATOM     89  C   UNL A   1      50.412  26.906  27.455  1.00  0.00     0.198 A 
ATOM     90  F   UNL A   1      48.928  27.785  29.052  1.00  0.00    -0.203 F 
ATOM     91  F   UNL A   1      50.056  26.504  23.870  1.00  0.00    -0.200 F 
ATOM     92  C   UNL A   1      50.703  26.575  26.141  1.00  0.00     0.200 A 
ATOM     93  F   UNL A   1      51.303  26.659  28.424  1.00  0.00    -0.200 F 
ATOM     94  F   UNL A   1      51.864  25.973  25.844  1.00  0.00    -0.200 F 
ENDBRANCH  61  84
ENDBRANCH  35  36
ENDBRANCH  28  30
ENDBRANCH  27  28
ENDBRANCH  26  27
ENDBRANCH  25  26
ENDBRANCH  24  25
ENDBRANCH  23  24
ENDBRANCH  22  23
ENDBRANCH   1  22
TORSDOF 22
ENDMDL
