MODEL 1
REMARK VINA RESULT:      -9.9      0.000      0.000
REMARK SMILES CC[C@H](Oc1cccc(/C=C2\SC(=S)N(NC(=O)c3cccc(O)c3)C2=O)c1)C(=O)OCCOCCOCCOC(=O)c1ccc(-c2c3nc(c(-c4c(F)c(F)c(F)c(F)c4F)c4ccc([nH]4)c(-c4c(F)c(F)c(F)c(F)c4F)c4nc(c(-c5c(F)c(F)c(F)c(F)c5F)c5ccc2[nH]5)C=C4)C=C3)cc1
REMARK SMILES IDX 33 1 32 2 31 3 29 4 30 5 3 6 2 7 1 8 4 9 5 10 6 11 28 12
REMARK SMILES IDX 7 13 9 14 8 15 10 16 11 17 12 18 26 19 13 20 15 21 27 22
REMARK SMILES IDX 14 23 16 24 17 25 18 27 19 28 20 29 25 30 21 31 23 32 22 33
REMARK SMILES IDX 24 34 34 36 35 37 36 38 37 39 38 40 39 41 40 42 41 43 42 44
REMARK SMILES IDX 43 45 44 46 105 47 45 48 104 49 46 50 47 51 48 52 98 53
REMARK SMILES IDX 49 54 103 55 97 56 99 57 50 58 102 59 96 60 95 61 51 63
REMARK SMILES IDX 83 64 63 65 82 66 64 67 67 68 81 69 100 70 65 71 66 72 80 74
REMARK SMILES IDX 101 75 68 76 52 77 53 78 61 79 54 80 55 81 59 82 62 83 56 84
REMARK SMILES IDX 57 85 60 86 58 87 84 88 85 89 93 90 86 91 87 92 91 93 94 94
REMARK SMILES IDX 88 95 89 96 92 97 90 98 69 99 70 100 78 101 71 102 72 103
REMARK SMILES IDX 76 104 79 105 73 106 74 107 77 108 75 109
REMARK H PARENT 16 26 24 35 99 62 67 73
REMARK Flexibility Score: inf
ROOT
ATOM      1  C   UNL A   1      37.005  33.197  30.593  1.00  0.00     0.202 C 
ENDROOT
BRANCH   1   2
ATOM      2  C   UNL A   1      37.447  32.021  31.477  1.00  0.00     0.261 C 
BRANCH   2   3
ATOM      3  O   UNL A   1      38.035  30.897  30.806  1.00  0.00    -0.461 OA
BRANCH   3   4
ATOM      4  C   UNL A   1      37.186  29.864  30.554  1.00  0.00     0.347 C 
ATOM      5  O   UNL A   1      36.369  29.448  31.373  1.00  0.00    -0.248 OA
BRANCH   4   6
ATOM      6  C   UNL A   1      37.270  29.320  29.105  1.00  0.00     0.282 C 
BRANCH   6   7
ATOM      7  C   UNL A   1      38.720  28.810  28.955  1.00  0.00     0.054 C 
ATOM      8  C   UNL A   1      39.272  29.041  27.552  1.00  0.00     0.008 C 
ENDBRANCH   6   7
BRANCH   6   9
ATOM      9  O   UNL A   1      36.847  30.302  28.132  1.00  0.00    -0.479 OA
BRANCH   9  10
ATOM     10  C   UNL A   1      35.560  30.257  27.652  1.00  0.00     0.121 A 
ATOM     11  C   UNL A   1      34.659  31.286  27.927  1.00  0.00     0.046 A 
ATOM     12  C   UNL A   1      35.062  29.058  27.110  1.00  0.00     0.054 A 
ATOM     13  C   UNL A   1      33.328  31.218  27.541  1.00  0.00     0.004 A 
ATOM     14  C   UNL A   1      33.685  28.931  26.836  1.00  0.00    -0.021 A 
ATOM     15  C   UNL A   1      32.847  30.048  26.986  1.00  0.00     0.008 A 
BRANCH  14  16
ATOM     16  C   UNL A   1      32.922  27.703  26.564  1.00  0.00     0.029 C 
ATOM     17  C   UNL A   1      32.932  26.983  25.436  1.00  0.00     0.082 C 
ATOM     18  S   UNL A   1      33.347  27.409  23.830  1.00  0.00    -0.052 SA
ATOM     19  C   UNL A   1      32.619  25.529  25.496  1.00  0.00     0.285 C 
ATOM     20  C   UNL A   1      32.663  25.913  23.186  1.00  0.00     0.168 C 
ATOM     21  N   UNL A   1      32.258  25.103  24.233  1.00  0.00    -0.198 N 
ATOM     22  O   UNL A   1      32.801  24.850  26.496  1.00  0.00    -0.266 OA
ATOM     23  S   UNL A   1      32.573  25.576  21.554  1.00  0.00    -0.050 S 
BRANCH  21  24
ATOM     24  N   UNL A   1      31.758  23.811  23.982  1.00  0.00    -0.255 N 
ATOM     25  C   UNL A   1      32.430  22.605  24.044  1.00  0.00     0.270 C 
ATOM     26  H   UNL A   1      30.808  23.760  23.731  1.00  0.00     0.192 HD
ATOM     27  O   UNL A   1      31.803  21.555  23.902  1.00  0.00    -0.267 OA
BRANCH  25  28
ATOM     28  C   UNL A   1      33.898  22.532  24.191  1.00  0.00     0.045 A 
ATOM     29  C   UNL A   1      34.390  21.848  25.314  1.00  0.00     0.014 A 
ATOM     30  C   UNL A   1      34.776  23.039  23.227  1.00  0.00     0.060 A 
ATOM     31  C   UNL A   1      35.756  21.597  25.432  1.00  0.00     0.005 A 
ATOM     32  C   UNL A   1      36.133  22.748  23.345  1.00  0.00     0.116 A 
ATOM     33  C   UNL A   1      36.626  22.029  24.433  1.00  0.00     0.046 A 
BRANCH  32  34
ATOM     34  O   UNL A   1      37.026  23.113  22.380  1.00  0.00    -0.508 OA
ATOM     35  H   UNL A   1      36.870  23.879  21.864  1.00  0.00     0.293 HD
ENDBRANCH  32  34
ENDBRANCH  25  28
ENDBRANCH  21  24
ENDBRANCH  14  16
ENDBRANCH   9  10
ENDBRANCH   6   9
ENDBRANCH   4   6
ENDBRANCH   3   4
ENDBRANCH   2   3
ENDBRANCH   1   2
BRANCH   1  36
ATOM     36  O   UNL A   1      35.646  33.554  30.397  1.00  0.00    -0.376 OA
BRANCH  36  37
ATOM     37  C   UNL A   1      34.652  33.163  31.324  1.00  0.00     0.188 C 
BRANCH  37  38
ATOM     38  C   UNL A   1      34.178  34.138  32.419  1.00  0.00     0.188 C 
BRANCH  38  39
ATOM     39  O   UNL A   1      34.355  33.758  33.759  1.00  0.00    -0.376 OA
BRANCH  39  40
ATOM     40  C   UNL A   1      35.401  34.298  34.545  1.00  0.00     0.202 C 
BRANCH  40  41
ATOM     41  C   UNL A   1      36.803  33.688  34.747  1.00  0.00     0.261 C 
BRANCH  41  42
ATOM     42  O   UNL A   1      36.920  32.274  34.903  1.00  0.00    -0.460 OA
BRANCH  42  43
ATOM     43  C   UNL A   1      37.778  31.855  35.862  1.00  0.00     0.338 C 
ATOM     44  O   UNL A   1      37.600  31.850  37.070  1.00  0.00    -0.246 OA
BRANCH  43  45
ATOM     45  C   UNL A   1      38.926  31.202  35.208  1.00  0.00     0.060 A 
ATOM     46  C   UNL A   1      40.220  31.567  35.601  1.00  0.00     0.016 A 
ATOM     47  C   UNL A   1      38.728  30.258  34.200  1.00  0.00     0.016 A 
ATOM     48  C   UNL A   1      41.327  30.999  34.973  1.00  0.00     0.010 A 
ATOM     49  C   UNL A   1      39.838  29.709  33.553  1.00  0.00     0.010 A 
ATOM     50  C   UNL A   1      41.141  30.096  33.917  1.00  0.00    -0.014 A 
BRANCH  50  51
ATOM     51  C   UNL A   1      42.294  29.700  33.074  1.00  0.00     0.031 A 
ATOM     52  C   UNL A   1      43.054  28.456  33.443  1.00  0.00     0.074 A 
ATOM     53  C   UNL A   1      42.658  30.421  32.001  1.00  0.00     0.049 A 
ATOM     54  N   UNL A   1      44.135  27.950  32.909  1.00  0.00    -0.248 NA
ATOM     55  C   UNL A   1      42.519  27.678  34.573  1.00  0.00     0.031 C 
ATOM     56  C   UNL A   1      41.974  31.616  31.513  1.00  0.00     0.029 A 
ATOM     57  N   UNL A   1      43.710  30.255  31.134  1.00  0.00    -0.354 N 
ATOM     58  C   UNL A   1      44.419  26.807  33.644  1.00  0.00     0.074 A 
ATOM     59  C   UNL A   1      43.410  26.705  34.677  1.00  0.00     0.031 C 
ATOM     60  C   UNL A   1      42.633  32.086  30.440  1.00  0.00     0.029 A 
ATOM     61  C   UNL A   1      43.805  31.247  30.190  1.00  0.00     0.049 A 
ATOM     62  H   UNL A   1      44.335  29.496  31.184  1.00  0.00     0.167 HD
ATOM     63  C   UNL A   1      45.427  25.921  33.470  1.00  0.00     0.037 A 
ATOM     64  C   UNL A   1      44.750  31.465  29.254  1.00  0.00     0.037 A 
ATOM     65  C   UNL A   1      46.428  26.026  32.443  1.00  0.00     0.049 A 
ATOM     66  C   UNL A   1      45.910  30.508  29.135  1.00  0.00     0.074 A 
ATOM     67  C   UNL A   1      47.477  25.165  32.170  1.00  0.00     0.029 A 
ATOM     68  N   UNL A   1      46.514  27.064  31.527  1.00  0.00    -0.354 N 
ATOM     69  N   UNL A   1      46.158  29.414  29.812  1.00  0.00    -0.248 NA
ATOM     70  C   UNL A   1      46.924  30.820  28.115  1.00  0.00     0.031 C 
ATOM     71  C   UNL A   1      48.233  25.714  31.129  1.00  0.00     0.029 A 
ATOM     72  C   UNL A   1      47.616  26.882  30.708  1.00  0.00     0.049 A 
ATOM     73  H   UNL A   1      45.883  27.817  31.467  1.00  0.00     0.167 HD
ATOM     74  C   UNL A   1      47.330  28.889  29.281  1.00  0.00     0.074 A 
ATOM     75  C   UNL A   1      47.739  29.780  28.215  1.00  0.00     0.031 C 
ATOM     76  C   UNL A   1      48.005  27.770  29.641  1.00  0.00     0.037 A 
BRANCH  63  77
ATOM     77  C   UNL A   1      45.519  24.777  34.439  1.00  0.00     0.064 A 
ATOM     78  C   UNL A   1      46.185  24.898  35.668  1.00  0.00     0.173 A 
ATOM     79  C   UNL A   1      44.903  23.551  34.145  1.00  0.00     0.173 A 
ATOM     80  F   UNL A   1      46.805  26.044  35.991  1.00  0.00    -0.203 F 
ATOM     81  C   UNL A   1      46.256  23.825  36.553  1.00  0.00     0.198 A 
ATOM     82  C   UNL A   1      44.948  22.492  35.046  1.00  0.00     0.198 A 
ATOM     83  F   UNL A   1      44.250  23.383  32.985  1.00  0.00    -0.203 F 
ATOM     84  F   UNL A   1      46.941  23.947  37.698  1.00  0.00    -0.200 F 
ATOM     85  C   UNL A   1      45.629  22.627  36.245  1.00  0.00     0.200 A 
ATOM     86  F   UNL A   1      44.331  21.338  34.753  1.00  0.00    -0.200 F 
ATOM     87  F   UNL A   1      45.691  21.598  37.102  1.00  0.00    -0.200 F 
ENDBRANCH  63  77
BRANCH  64  88
ATOM     88  C   UNL A   1      44.652  32.648  28.356  1.00  0.00     0.064 A 
ATOM     89  C   UNL A   1      44.153  32.525  27.052  1.00  0.00     0.173 A 
ATOM     90  C   UNL A   1      45.089  33.915  28.770  1.00  0.00     0.173 A 
ATOM     91  F   UNL A   1      43.750  31.329  26.599  1.00  0.00    -0.203 F 
ATOM     92  C   UNL A   1      44.112  33.620  26.190  1.00  0.00     0.198 A 
ATOM     93  C   UNL A   1      45.019  35.015  27.917  1.00  0.00     0.198 A 
ATOM     94  F   UNL A   1      45.583  34.086  30.005  1.00  0.00    -0.203 F 
ATOM     95  F   UNL A   1      43.681  33.462  24.931  1.00  0.00    -0.200 F 
ATOM     96  C   UNL A   1      44.540  34.865  26.626  1.00  0.00     0.200 A 
ATOM     97  F   UNL A   1      45.425  36.218  28.345  1.00  0.00    -0.200 F 
ATOM     98  F   UNL A   1      44.502  35.917  25.796  1.00  0.00    -0.200 F 
ENDBRANCH  64  88
BRANCH  76  99
ATOM     99  C   UNL A   1      49.231  27.410  28.846  1.00  0.00     0.064 A 
ATOM    100  C   UNL A   1      49.159  26.616  27.692  1.00  0.00     0.173 A 
ATOM    101  C   UNL A   1      50.489  27.905  29.224  1.00  0.00     0.173 A 
ATOM    102  F   UNL A   1      47.984  26.105  27.295  1.00  0.00    -0.203 F 
ATOM    103  C   UNL A   1      50.305  26.310  26.961  1.00  0.00     0.198 A 
ATOM    104  C   UNL A   1      51.626  27.627  28.471  1.00  0.00     0.198 A 
ATOM    105  F   UNL A   1      50.613  28.677  30.314  1.00  0.00    -0.203 F 
ATOM    106  F   UNL A   1      50.221  25.508  25.891  1.00  0.00    -0.200 F 
ATOM    107  C   UNL A   1      51.535  26.822  27.346  1.00  0.00     0.200 A 
ATOM    108  F   UNL A   1      52.810  28.137  28.835  1.00  0.00    -0.200 F 
ATOM    109  F   UNL A   1      52.635  26.535  26.636  1.00  0.00    -0.200 F 
ENDBRANCH  76  99
ENDBRANCH  50  51
ENDBRANCH  43  45
ENDBRANCH  42  43
ENDBRANCH  41  42
ENDBRANCH  40  41
ENDBRANCH  39  40
ENDBRANCH  38  39
ENDBRANCH  37  38
ENDBRANCH  36  37
ENDBRANCH   1  36
TORSDOF 24
ENDMDL
MODEL 2
REMARK VINA RESULT:      -9.1      4.243     11.901
REMARK SMILES CC[C@H](Oc1cccc(/C=C2\SC(=S)N(NC(=O)c3cccc(O)c3)C2=O)c1)C(=O)OCCOCCOCCOC(=O)c1ccc(-c2c3nc(c(-c4c(F)c(F)c(F)c(F)c4F)c4ccc([nH]4)c(-c4c(F)c(F)c(F)c(F)c4F)c4nc(c(-c5c(F)c(F)c(F)c(F)c5F)c5ccc2[nH]5)C=C4)C=C3)cc1
REMARK SMILES IDX 33 1 32 2 31 3 29 4 30 5 3 6 2 7 1 8 4 9 5 10 6 11 28 12
REMARK SMILES IDX 7 13 9 14 8 15 10 16 11 17 12 18 26 19 13 20 15 21 27 22
REMARK SMILES IDX 14 23 16 24 17 25 18 27 19 28 20 29 25 30 21 31 23 32 22 33
REMARK SMILES IDX 24 34 34 36 35 37 36 38 37 39 38 40 39 41 40 42 41 43 42 44
REMARK SMILES IDX 43 45 44 46 105 47 45 48 104 49 46 50 47 51 48 52 98 53
REMARK SMILES IDX 49 54 103 55 97 56 99 57 50 58 102 59 96 60 95 61 51 63
REMARK SMILES IDX 83 64 63 65 82 66 64 67 67 68 81 69 100 70 65 71 66 72 80 74
REMARK SMILES IDX 101 75 68 76 52 77 53 78 61 79 54 80 55 81 59 82 62 83 56 84
REMARK SMILES IDX 57 85 60 86 58 87 84 88 85 89 93 90 86 91 87 92 91 93 94 94
REMARK SMILES IDX 88 95 89 96 92 97 90 98 69 99 70 100 78 101 71 102 72 103
REMARK SMILES IDX 76 104 79 105 73 106 74 107 77 108 75 109
REMARK H PARENT 16 26 24 35 99 62 67 73
REMARK Flexibility Score: inf
ROOT
ATOM      1  C   UNL A   1      45.547  27.184  24.788  1.00  0.00     0.202 C 
ENDROOT
BRANCH   1   2
ATOM      2  C   UNL A   1      45.421  25.794  25.431  1.00  0.00     0.261 C 
BRANCH   2   3
ATOM      3  O   UNL A   1      44.571  25.690  26.581  1.00  0.00    -0.461 OA
BRANCH   3   4
ATOM      4  C   UNL A   1      43.613  24.726  26.509  1.00  0.00     0.347 C 
ATOM      5  O   UNL A   1      43.589  23.864  25.633  1.00  0.00    -0.248 OA
BRANCH   4   6
ATOM      6  C   UNL A   1      42.608  24.749  27.689  1.00  0.00     0.282 C 
BRANCH   6   7
ATOM      7  C   UNL A   1      42.833  23.414  28.431  1.00  0.00     0.054 C 
ATOM      8  C   UNL A   1      43.565  23.605  29.756  1.00  0.00     0.008 C 
ENDBRANCH   6   7
BRANCH   6   9
ATOM      9  O   UNL A   1      41.256  24.998  27.243  1.00  0.00    -0.479 OA
BRANCH   9  10
ATOM     10  C   UNL A   1      40.821  26.295  27.116  1.00  0.00     0.121 A 
ATOM     11  C   UNL A   1      41.485  27.192  26.277  1.00  0.00     0.046 A 
ATOM     12  C   UNL A   1      39.875  26.804  28.025  1.00  0.00     0.054 A 
ATOM     13  C   UNL A   1      41.129  28.532  26.209  1.00  0.00     0.004 A 
ATOM     14  C   UNL A   1      39.602  28.187  28.053  1.00  0.00    -0.021 A 
ATOM     15  C   UNL A   1      40.182  29.023  27.085  1.00  0.00     0.008 A 
BRANCH  14  16
ATOM     16  C   UNL A   1      38.900  28.953  29.094  1.00  0.00     0.029 C 
ATOM     17  C   UNL A   1      37.698  29.534  28.994  1.00  0.00     0.082 C 
ATOM     18  S   UNL A   1      36.807  30.050  27.627  1.00  0.00    -0.052 SA
ATOM     19  C   UNL A   1      36.882  29.738  30.221  1.00  0.00     0.285 C 
ATOM     20  C   UNL A   1      35.659  30.943  28.628  1.00  0.00     0.168 C 
ATOM     21  N   UNL A   1      35.936  30.710  29.964  1.00  0.00    -0.198 N 
ATOM     22  O   UNL A   1      36.991  29.036  31.217  1.00  0.00    -0.266 OA
ATOM     23  S   UNL A   1      34.434  31.886  27.999  1.00  0.00    -0.050 S 
BRANCH  21  24
ATOM     24  N   UNL A   1      35.103  31.242  30.968  1.00  0.00    -0.255 N 
ATOM     25  C   UNL A   1      35.257  32.421  31.674  1.00  0.00     0.270 C 
ATOM     26  H   UNL A   1      34.309  30.708  31.195  1.00  0.00     0.192 HD
ATOM     27  O   UNL A   1      34.367  32.788  32.440  1.00  0.00    -0.267 OA
BRANCH  25  28
ATOM     28  C   UNL A   1      36.499  33.218  31.606  1.00  0.00     0.045 A 
ATOM     29  C   UNL A   1      37.242  33.336  32.791  1.00  0.00     0.014 A 
ATOM     30  C   UNL A   1      36.974  33.768  30.411  1.00  0.00     0.060 A 
ATOM     31  C   UNL A   1      38.503  33.931  32.764  1.00  0.00     0.005 A 
ATOM     32  C   UNL A   1      38.250  34.327  30.397  1.00  0.00     0.116 A 
ATOM     33  C   UNL A   1      39.016  34.407  31.559  1.00  0.00     0.046 A 
BRANCH  32  34
ATOM     34  O   UNL A   1      38.818  34.777  29.242  1.00  0.00    -0.508 OA
ATOM     35  H   UNL A   1      39.178  35.641  29.201  1.00  0.00     0.293 HD
ENDBRANCH  32  34
ENDBRANCH  25  28
ENDBRANCH  21  24
ENDBRANCH  14  16
ENDBRANCH   9  10
ENDBRANCH   6   9
ENDBRANCH   4   6
ENDBRANCH   3   4
ENDBRANCH   2   3
ENDBRANCH   1   2
BRANCH   1  36
ATOM     36  O   UNL A   1      46.733  27.960  24.842  1.00  0.00    -0.376 OA
BRANCH  36  37
ATOM     37  C   UNL A   1      47.686  27.904  23.800  1.00  0.00     0.188 C 
BRANCH  37  38
ATOM     38  C   UNL A   1      48.545  26.641  23.594  1.00  0.00     0.188 C 
BRANCH  38  39
ATOM     39  O   UNL A   1      49.766  26.780  22.914  1.00  0.00    -0.376 OA
BRANCH  39  40
ATOM     40  C   UNL A   1      50.820  27.560  23.449  1.00  0.00     0.202 C 
BRANCH  40  41
ATOM     41  C   UNL A   1      51.803  27.133  24.558  1.00  0.00     0.261 C 
BRANCH  41  42
ATOM     42  O   UNL A   1      51.592  25.885  25.219  1.00  0.00    -0.460 OA
BRANCH  42  43
ATOM     43  C   UNL A   1      51.787  25.887  26.558  1.00  0.00     0.338 C 
ATOM     44  O   UNL A   1      52.805  25.585  27.163  1.00  0.00    -0.246 OA
BRANCH  43  45
ATOM     45  C   UNL A   1      50.616  26.510  27.199  1.00  0.00     0.060 A 
ATOM     46  C   UNL A   1      50.826  27.541  28.125  1.00  0.00     0.016 A 
ATOM     47  C   UNL A   1      49.326  26.067  26.909  1.00  0.00     0.016 A 
ATOM     48  C   UNL A   1      49.742  28.122  28.780  1.00  0.00     0.010 A 
ATOM     49  C   UNL A   1      48.243  26.632  27.585  1.00  0.00     0.010 A 
ATOM     50  C   UNL A   1      48.447  27.643  28.543  1.00  0.00    -0.014 A 
BRANCH  50  51
ATOM     51  C   UNL A   1      47.332  28.064  29.424  1.00  0.00     0.031 A 
ATOM     52  C   UNL A   1      46.670  29.388  29.156  1.00  0.00     0.074 A 
ATOM     53  C   UNL A   1      46.908  27.290  30.437  1.00  0.00     0.049 A 
ATOM     54  N   UNL A   1      45.732  30.003  29.828  1.00  0.00    -0.248 NA
ATOM     55  C   UNL A   1      47.136  30.117  27.964  1.00  0.00     0.031 C 
ATOM     56  C   UNL A   1      47.433  25.968  30.768  1.00  0.00     0.029 A 
ATOM     57  N   UNL A   1      45.940  27.517  31.384  1.00  0.00    -0.354 N 
ATOM     58  C   UNL A   1      45.506  31.195  29.153  1.00  0.00     0.074 A 
ATOM     59  C   UNL A   1      46.420  31.229  28.032  1.00  0.00     0.031 C 
ATOM     60  C   UNL A   1      46.791  25.506  31.855  1.00  0.00     0.029 A 
ATOM     61  C   UNL A   1      45.839  26.515  32.316  1.00  0.00     0.049 A 
ATOM     62  H   UNL A   1      45.373  28.322  31.394  1.00  0.00     0.167 HD
ATOM     63  C   UNL A   1      44.614  32.171  29.441  1.00  0.00     0.037 A 
ATOM     64  C   UNL A   1      45.083  26.440  33.430  1.00  0.00     0.037 A 
ATOM     65  C   UNL A   1      43.707  32.135  30.557  1.00  0.00     0.049 A 
ATOM     66  C   UNL A   1      44.156  27.580  33.775  1.00  0.00     0.074 A 
ATOM     67  C   UNL A   1      42.748  33.064  30.920  1.00  0.00     0.029 A 
ATOM     68  N   UNL A   1      43.657  31.119  31.501  1.00  0.00    -0.354 N 
ATOM     69  N   UNL A   1      43.924  28.690  33.118  1.00  0.00    -0.248 NA
ATOM     70  C   UNL A   1      43.383  27.451  35.020  1.00  0.00     0.031 C 
ATOM     71  C   UNL A   1      42.160  32.641  32.117  1.00  0.00     0.029 A 
ATOM     72  C   UNL A   1      42.705  31.415  32.463  1.00  0.00     0.049 A 
ATOM     73  H   UNL A   1      44.214  30.308  31.487  1.00  0.00     0.167 HD
ATOM     74  C   UNL A   1      42.957  29.374  33.847  1.00  0.00     0.074 A 
ATOM     75  C   UNL A   1      42.638  28.547  34.992  1.00  0.00     0.031 C 
ATOM     76  C   UNL A   1      42.386  30.576  33.591  1.00  0.00     0.037 A 
BRANCH  63  77
ATOM     77  C   UNL A   1      44.601  33.382  28.553  1.00  0.00     0.064 A 
ATOM     78  C   UNL A   1      43.975  33.374  27.297  1.00  0.00     0.173 A 
ATOM     79  C   UNL A   1      45.197  34.578  28.980  1.00  0.00     0.173 A 
ATOM     80  F   UNL A   1      43.403  32.251  26.834  1.00  0.00    -0.203 F 
ATOM     81  C   UNL A   1      43.972  34.510  26.491  1.00  0.00     0.198 A 
ATOM     82  C   UNL A   1      45.164  35.720  28.186  1.00  0.00     0.198 A 
ATOM     83  F   UNL A   1      45.807  34.641  30.174  1.00  0.00    -0.203 F 
ATOM     84  F   UNL A   1      43.413  34.464  25.274  1.00  0.00    -0.200 F 
ATOM     85  C   UNL A   1      44.558  35.683  26.940  1.00  0.00     0.200 A 
ATOM     86  F   UNL A   1      45.720  36.857  28.627  1.00  0.00    -0.200 F 
ATOM     87  F   UNL A   1      44.547  36.778  26.167  1.00  0.00    -0.200 F 
ENDBRANCH  63  77
BRANCH  64  88
ATOM     88  C   UNL A   1      45.174  25.248  34.316  1.00  0.00     0.064 A 
ATOM     89  C   UNL A   1      44.467  24.075  34.023  1.00  0.00     0.173 A 
ATOM     90  C   UNL A   1      45.942  25.270  35.490  1.00  0.00     0.173 A 
ATOM     91  F   UNL A   1      43.696  24.014  32.928  1.00  0.00    -0.203 F 
ATOM     92  C   UNL A   1      44.506  22.976  34.880  1.00  0.00     0.198 A 
ATOM     93  C   UNL A   1      46.006  24.160  36.330  1.00  0.00     0.198 A 
ATOM     94  F   UNL A   1      46.633  26.371  35.822  1.00  0.00    -0.203 F 
ATOM     95  F   UNL A   1      43.776  21.887  34.603  1.00  0.00    -0.200 F 
ATOM     96  C   UNL A   1      45.280  23.018  36.029  1.00  0.00     0.200 A 
ATOM     97  F   UNL A   1      46.762  24.201  37.435  1.00  0.00    -0.200 F 
ATOM     98  F   UNL A   1      45.317  21.961  36.853  1.00  0.00    -0.200 F 
ENDBRANCH  64  88
BRANCH  76  99
ATOM     99  C   UNL A   1      41.316  31.053  34.534  1.00  0.00     0.064 A 
ATOM    100  C   UNL A   1      41.592  31.949  35.577  1.00  0.00     0.173 A 
ATOM    101  C   UNL A   1      39.985  30.642  34.359  1.00  0.00     0.173 A 
ATOM    102  F   UNL A   1      42.849  32.363  35.797  1.00  0.00    -0.203 F 
ATOM    103  C   UNL A   1      40.581  32.392  36.427  1.00  0.00     0.198 A 
ATOM    104  C   UNL A   1      38.972  31.114  35.189  1.00  0.00     0.198 A 
ATOM    105  F   UNL A   1      39.663  29.793  33.371  1.00  0.00    -0.203 F 
ATOM    106  F   UNL A   1      40.877  33.207  37.449  1.00  0.00    -0.200 F 
ATOM    107  C   UNL A   1      39.272  31.981  36.228  1.00  0.00     0.200 A 
ATOM    108  F   UNL A   1      37.705  30.729  34.982  1.00  0.00    -0.200 F 
ATOM    109  F   UNL A   1      38.300  32.416  37.040  1.00  0.00    -0.200 F 
ENDBRANCH  76  99
ENDBRANCH  50  51
ENDBRANCH  43  45
ENDBRANCH  42  43
ENDBRANCH  41  42
ENDBRANCH  40  41
ENDBRANCH  39  40
ENDBRANCH  38  39
ENDBRANCH  37  38
ENDBRANCH  36  37
ENDBRANCH   1  36
TORSDOF 24
ENDMDL
MODEL 3
REMARK VINA RESULT:      -9.0      4.225     10.001
REMARK SMILES CC[C@H](Oc1cccc(/C=C2\SC(=S)N(NC(=O)c3cccc(O)c3)C2=O)c1)C(=O)OCCOCCOCCOC(=O)c1ccc(-c2c3nc(c(-c4c(F)c(F)c(F)c(F)c4F)c4ccc([nH]4)c(-c4c(F)c(F)c(F)c(F)c4F)c4nc(c(-c5c(F)c(F)c(F)c(F)c5F)c5ccc2[nH]5)C=C4)C=C3)cc1
REMARK SMILES IDX 33 1 32 2 31 3 29 4 30 5 3 6 2 7 1 8 4 9 5 10 6 11 28 12
REMARK SMILES IDX 7 13 9 14 8 15 10 16 11 17 12 18 26 19 13 20 15 21 27 22
REMARK SMILES IDX 14 23 16 24 17 25 18 27 19 28 20 29 25 30 21 31 23 32 22 33
REMARK SMILES IDX 24 34 34 36 35 37 36 38 37 39 38 40 39 41 40 42 41 43 42 44
REMARK SMILES IDX 43 45 44 46 105 47 45 48 104 49 46 50 47 51 48 52 98 53
REMARK SMILES IDX 49 54 103 55 97 56 99 57 50 58 102 59 96 60 95 61 51 63
REMARK SMILES IDX 83 64 63 65 82 66 64 67 67 68 81 69 100 70 65 71 66 72 80 74
REMARK SMILES IDX 101 75 68 76 52 77 53 78 61 79 54 80 55 81 59 82 62 83 56 84
REMARK SMILES IDX 57 85 60 86 58 87 84 88 85 89 93 90 86 91 87 92 91 93 94 94
REMARK SMILES IDX 88 95 89 96 92 97 90 98 69 99 70 100 78 101 71 102 72 103
REMARK SMILES IDX 76 104 79 105 73 106 74 107 77 108 75 109
REMARK H PARENT 16 26 24 35 99 62 67 73
REMARK Flexibility Score: inf
ROOT
ATOM      1  C   UNL A   1      45.117  26.103  25.174  1.00  0.00     0.202 C 
ENDROOT
BRANCH   1   2
ATOM      2  C   UNL A   1      44.891  24.628  25.540  1.00  0.00     0.261 C 
BRANCH   2   3
ATOM      3  O   UNL A   1      44.446  24.358  26.877  1.00  0.00    -0.461 OA
BRANCH   3   4
ATOM      4  C   UNL A   1      43.388  23.508  26.975  1.00  0.00     0.347 C 
ATOM      5  O   UNL A   1      43.338  22.424  26.397  1.00  0.00    -0.248 OA
BRANCH   4   6
ATOM      6  C   UNL A   1      42.289  23.982  27.960  1.00  0.00     0.282 C 
BRANCH   6   7
ATOM      7  C   UNL A   1      41.179  22.913  27.864  1.00  0.00     0.054 C 
ATOM      8  C   UNL A   1      39.888  23.470  27.272  1.00  0.00     0.008 C 
ENDBRANCH   6   7
BRANCH   6   9
ATOM      9  O   UNL A   1      41.875  25.341  27.696  1.00  0.00    -0.479 OA
BRANCH   9  10
ATOM     10  C   UNL A   1      42.047  26.295  28.670  1.00  0.00     0.121 A 
ATOM     11  C   UNL A   1      43.081  26.185  29.602  1.00  0.00     0.046 A 
ATOM     12  C   UNL A   1      41.033  27.241  28.904  1.00  0.00     0.054 A 
ATOM     13  C   UNL A   1      43.215  27.078  30.655  1.00  0.00     0.004 A 
ATOM     14  C   UNL A   1      41.093  28.066  30.046  1.00  0.00    -0.021 A 
ATOM     15  C   UNL A   1      42.231  28.023  30.868  1.00  0.00     0.008 A 
BRANCH  14  16
ATOM     16  C   UNL A   1      40.021  28.885  30.632  1.00  0.00     0.029 C 
ATOM     17  C   UNL A   1      38.833  29.169  30.084  1.00  0.00     0.082 C 
ATOM     18  S   UNL A   1      38.316  29.170  28.452  1.00  0.00    -0.052 SA
ATOM     19  C   UNL A   1      37.675  29.471  30.969  1.00  0.00     0.285 C 
ATOM     20  C   UNL A   1      36.817  30.010  28.857  1.00  0.00     0.168 C 
ATOM     21  N   UNL A   1      36.722  30.145  30.232  1.00  0.00    -0.198 N 
ATOM     22  O   UNL A   1      37.584  29.049  32.113  1.00  0.00    -0.266 OA
ATOM     23  S   UNL A   1      35.712  30.514  27.714  1.00  0.00    -0.050 S 
BRANCH  21  24
ATOM     24  N   UNL A   1      35.569  30.706  30.814  1.00  0.00    -0.255 N 
ATOM     25  C   UNL A   1      35.419  31.956  31.386  1.00  0.00     0.270 C 
ATOM     26  H   UNL A   1      34.767  30.137  30.813  1.00  0.00     0.192 HD
ATOM     27  O   UNL A   1      34.303  32.326  31.748  1.00  0.00    -0.267 OA
BRANCH  25  28
ATOM     28  C   UNL A   1      36.574  32.836  31.659  1.00  0.00     0.045 A 
ATOM     29  C   UNL A   1      37.326  33.257  30.552  1.00  0.00     0.014 A 
ATOM     30  C   UNL A   1      36.872  33.309  32.942  1.00  0.00     0.060 A 
ATOM     31  C   UNL A   1      38.325  34.217  30.713  1.00  0.00     0.005 A 
ATOM     32  C   UNL A   1      37.849  34.292  33.078  1.00  0.00     0.116 A 
ATOM     33  C   UNL A   1      38.570  34.751  31.977  1.00  0.00     0.046 A 
BRANCH  32  34
ATOM     34  O   UNL A   1      38.107  34.877  34.283  1.00  0.00    -0.508 OA
ATOM     35  H   UNL A   1      37.489  34.802  34.983  1.00  0.00     0.293 HD
ENDBRANCH  32  34
ENDBRANCH  25  28
ENDBRANCH  21  24
ENDBRANCH  14  16
ENDBRANCH   9  10
ENDBRANCH   6   9
ENDBRANCH   4   6
ENDBRANCH   3   4
ENDBRANCH   2   3
ENDBRANCH   1   2
BRANCH   1  36
ATOM     36  O   UNL A   1      46.139  26.900  25.752  1.00  0.00    -0.376 OA
BRANCH  36  37
ATOM     37  C   UNL A   1      47.244  27.331  24.984  1.00  0.00     0.188 C 
BRANCH  37  38
ATOM     38  C   UNL A   1      48.033  26.330  24.118  1.00  0.00     0.188 C 
BRANCH  38  39
ATOM     39  O   UNL A   1      49.013  26.840  23.251  1.00  0.00    -0.376 OA
BRANCH  39  40
ATOM     40  C   UNL A   1      50.148  27.527  23.746  1.00  0.00     0.202 C 
BRANCH  40  41
ATOM     41  C   UNL A   1      51.126  27.019  24.825  1.00  0.00     0.261 C 
BRANCH  41  42
ATOM     42  O   UNL A   1      50.972  25.689  25.319  1.00  0.00    -0.460 OA
BRANCH  42  43
ATOM     43  C   UNL A   1      51.502  25.448  26.541  1.00  0.00     0.338 C 
ATOM     44  O   UNL A   1      52.627  25.048  26.800  1.00  0.00    -0.246 OA
BRANCH  43  45
ATOM     45  C   UNL A   1      50.561  25.940  27.563  1.00  0.00     0.060 A 
ATOM     46  C   UNL A   1      49.227  25.516  27.507  1.00  0.00     0.016 A 
ATOM     47  C   UNL A   1      50.984  26.828  28.552  1.00  0.00     0.016 A 
ATOM     48  C   UNL A   1      48.302  25.995  28.433  1.00  0.00     0.010 A 
ATOM     49  C   UNL A   1      50.051  27.328  29.463  1.00  0.00     0.010 A 
ATOM     50  C   UNL A   1      48.701  26.936  29.392  1.00  0.00    -0.014 A 
BRANCH  50  51
ATOM     51  C   UNL A   1      47.680  27.646  30.197  1.00  0.00     0.031 A 
ATOM     52  C   UNL A   1      47.158  26.979  31.440  1.00  0.00     0.074 A 
ATOM     53  C   UNL A   1      47.227  28.860  29.841  1.00  0.00     0.049 A 
ATOM     54  N   UNL A   1      46.216  27.365  32.260  1.00  0.00    -0.248 NA
ATOM     55  C   UNL A   1      47.788  25.698  31.802  1.00  0.00     0.031 C 
ATOM     56  C   UNL A   1      47.689  29.631  28.690  1.00  0.00     0.029 A 
ATOM     57  N   UNL A   1      46.262  29.651  30.414  1.00  0.00    -0.354 N 
ATOM     58  C   UNL A   1      46.128  26.370  33.225  1.00  0.00     0.074 A 
ATOM     59  C   UNL A   1      47.096  25.352  32.876  1.00  0.00     0.031 C 
ATOM     60  C   UNL A   1      46.994  30.780  28.630  1.00  0.00     0.029 A 
ATOM     61  C   UNL A   1      46.016  30.808  29.716  1.00  0.00     0.049 A 
ATOM     62  H   UNL A   1      45.792  29.412  31.245  1.00  0.00     0.167 HD
ATOM     63  C   UNL A   1      45.316  26.313  34.307  1.00  0.00     0.037 A 
ATOM     64  C   UNL A   1      45.084  31.761  29.920  1.00  0.00     0.037 A 
ATOM     65  C   UNL A   1      44.354  27.327  34.651  1.00  0.00     0.049 A 
ATOM     66  C   UNL A   1      44.135  31.633  31.085  1.00  0.00     0.074 A 
ATOM     67  C   UNL A   1      43.501  27.373  35.739  1.00  0.00     0.029 A 
ATOM     68  N   UNL A   1      44.108  28.468  33.901  1.00  0.00    -0.354 N 
ATOM     69  N   UNL A   1      44.075  30.707  32.010  1.00  0.00    -0.248 NA
ATOM     70  C   UNL A   1      43.121  32.689  31.232  1.00  0.00     0.031 C 
ATOM     71  C   UNL A   1      42.696  28.510  35.616  1.00  0.00     0.029 A 
ATOM     72  C   UNL A   1      43.094  29.208  34.487  1.00  0.00     0.049 A 
ATOM     73  H   UNL A   1      44.584  28.715  33.076  1.00  0.00     0.167 HD
ATOM     74  C   UNL A   1      43.047  31.084  32.867  1.00  0.00     0.074 A 
ATOM     75  C   UNL A   1      42.517  32.332  32.356  1.00  0.00     0.031 C 
ATOM     76  C   UNL A   1      42.585  30.456  33.976  1.00  0.00     0.037 A 
BRANCH  63  77
ATOM     77  C   UNL A   1      45.407  25.094  35.179  1.00  0.00     0.064 A 
ATOM     78  C   UNL A   1      44.826  23.873  34.807  1.00  0.00     0.173 A 
ATOM     79  C   UNL A   1      46.114  25.143  36.390  1.00  0.00     0.173 A 
ATOM     80  F   UNL A   1      44.124  23.777  33.667  1.00  0.00    -0.203 F 
ATOM     81  C   UNL A   1      44.924  22.753  35.630  1.00  0.00     0.198 A 
ATOM     82  C   UNL A   1      46.238  24.014  37.193  1.00  0.00     0.198 A 
ATOM     83  F   UNL A   1      46.691  26.285  36.791  1.00  0.00    -0.203 F 
ATOM     84  F   UNL A   1      44.318  21.610  35.280  1.00  0.00    -0.200 F 
ATOM     85  C   UNL A   1      45.638  22.822  36.817  1.00  0.00     0.200 A 
ATOM     86  F   UNL A   1      46.939  24.079  38.334  1.00  0.00    -0.200 F 
ATOM     87  F   UNL A   1      45.740  21.742  37.604  1.00  0.00    -0.200 F 
ENDBRANCH  63  77
BRANCH  64  88
ATOM     88  C   UNL A   1      44.989  32.921  28.993  1.00  0.00     0.064 A 
ATOM     89  C   UNL A   1      45.594  34.146  29.304  1.00  0.00     0.173 A 
ATOM     90  C   UNL A   1      44.263  32.839  27.795  1.00  0.00     0.173 A 
ATOM     91  F   UNL A   1      46.275  34.284  30.451  1.00  0.00    -0.203 F 
ATOM     92  C   UNL A   1      45.459  35.251  28.465  1.00  0.00     0.198 A 
ATOM     93  C   UNL A   1      44.155  33.936  26.942  1.00  0.00     0.198 A 
ATOM     94  F   UNL A   1      43.658  31.693  27.453  1.00  0.00    -0.203 F 
ATOM     95  F   UNL A   1      46.002  36.426  28.815  1.00  0.00    -0.200 F 
ATOM     96  C   UNL A   1      44.745  35.143  27.282  1.00  0.00     0.200 A 
ATOM     97  F   UNL A   1      43.471  33.825  25.795  1.00  0.00    -0.200 F 
ATOM     98  F   UNL A   1      44.615  36.206  26.476  1.00  0.00    -0.200 F 
ENDBRANCH  64  88
BRANCH  76  99
ATOM     99  C   UNL A   1      41.484  31.128  34.749  1.00  0.00     0.064 A 
ATOM    100  C   UNL A   1      40.141  30.748  34.609  1.00  0.00     0.173 A 
ATOM    101  C   UNL A   1      41.785  32.137  35.677  1.00  0.00     0.173 A 
ATOM    102  F   UNL A   1      39.796  29.799  33.726  1.00  0.00    -0.203 F 
ATOM    103  C   UNL A   1      39.139  31.372  35.350  1.00  0.00     0.198 A 
ATOM    104  C   UNL A   1      40.786  32.734  36.440  1.00  0.00     0.198 A 
ATOM    105  F   UNL A   1      43.054  32.533  35.858  1.00  0.00    -0.203 F 
ATOM    106  F   UNL A   1      37.857  31.028  35.162  1.00  0.00    -0.200 F 
ATOM    107  C   UNL A   1      39.463  32.358  36.269  1.00  0.00     0.200 A 
ATOM    108  F   UNL A   1      41.104  33.674  37.341  1.00  0.00    -0.200 F 
ATOM    109  F   UNL A   1      38.499  32.950  36.987  1.00  0.00    -0.200 F 
ENDBRANCH  76  99
ENDBRANCH  50  51
ENDBRANCH  43  45
ENDBRANCH  42  43
ENDBRANCH  41  42
ENDBRANCH  40  41
ENDBRANCH  39  40
ENDBRANCH  38  39
ENDBRANCH  37  38
ENDBRANCH  36  37
ENDBRANCH   1  36
TORSDOF 24
ENDMDL
