MODEL 1
REMARK VINA RESULT:     -10.9      0.000      0.000
REMARK SMILES Cn1ccc(C(=O)NCc2ccc(C(=O)OCCOCCOCCOC(=O)c3ccc(-c4c5nc(c(-c6c(F)c(F)c(F)c(F)c6F)c6ccc([nH]6)c(-c6c(F)c(F)c(F)c(F)c6F)c6nc(c(-c7c(F)c(F)c(F)c(F)c7F)c7ccc4[nH]7)C=C6)C=C5)cc3)cc2)cc1=O
REMARK SMILES IDX 20 1 19 2 18 3 17 4 16 5 14 6 15 7 13 8 10 9 11 10 92 11
REMARK SMILES IDX 12 12 91 13 9 14 8 15 6 16 7 17 5 19 1 20 2 21 3 22 94 23
REMARK SMILES IDX 4 24 93 25 95 26 21 27 22 28 23 29 24 30 25 31 26 32 27 33
REMARK SMILES IDX 28 34 29 35 90 36 30 37 89 38 31 39 32 40 33 41 83 42 34 43
REMARK SMILES IDX 88 44 82 45 84 46 35 47 87 48 81 49 80 50 36 52 68 53 48 54
REMARK SMILES IDX 67 55 49 56 52 57 66 58 85 59 50 60 51 61 65 63 86 64 53 65
REMARK SMILES IDX 37 66 38 67 46 68 39 69 40 70 44 71 47 72 41 73 42 74 45 75
REMARK SMILES IDX 43 76 69 77 70 78 78 79 71 80 72 81 76 82 79 83 73 84 74 85
REMARK SMILES IDX 77 86 75 87 54 88 55 89 63 90 56 91 57 92 61 93 64 94 58 95
REMARK SMILES IDX 59 96 62 97 60 98
REMARK H PARENT 8 18 84 51 52 62
REMARK Flexibility Score: inf
ROOT
ATOM      1  C   UNL A   1      40.671  21.716  27.472  1.00  0.00     0.188 C 
ENDROOT
BRANCH   1   2
ATOM      2  O   UNL A   1      39.635  22.065  26.572  1.00  0.00    -0.376 OA
BRANCH   2   3
ATOM      3  C   UNL A   1      39.140  23.395  26.535  1.00  0.00     0.202 C 
BRANCH   3   4
ATOM      4  C   UNL A   1      37.692  23.702  26.128  1.00  0.00     0.261 C 
BRANCH   4   5
ATOM      5  O   UNL A   1      37.423  23.602  24.724  1.00  0.00    -0.460 OA
BRANCH   5   6
ATOM      6  C   UNL A   1      36.835  22.441  24.327  1.00  0.00     0.338 C 
ATOM      7  O   UNL A   1      37.360  21.348  24.245  1.00  0.00    -0.246 OA
BRANCH   6   8
ATOM      8  C   UNL A   1      35.374  22.644  24.186  1.00  0.00     0.060 A 
ATOM      9  C   UNL A   1      32.621  23.129  23.852  1.00  0.00    -0.029 A 
ATOM     10  C   UNL A   1      33.567  24.066  23.411  1.00  0.00     0.006 A 
ATOM     11  C   UNL A   1      33.082  21.925  24.419  1.00  0.00     0.006 A 
ATOM     12  C   UNL A   1      34.933  23.831  23.590  1.00  0.00     0.016 A 
ATOM     13  C   UNL A   1      34.449  21.682  24.590  1.00  0.00     0.016 A 
BRANCH   9  14
ATOM     14  C   UNL A   1      31.146  23.414  23.666  1.00  0.00     0.152 C 
BRANCH  14  15
ATOM     15  N   UNL A   1      30.468  23.648  24.924  1.00  0.00    -0.348 N 
ATOM     16  C   UNL A   1      30.474  24.649  25.836  1.00  0.00     0.251 C 
ATOM     17  O   UNL A   1      29.846  24.427  26.876  1.00  0.00    -0.269 OA
ATOM     18  H   UNL A   1      29.866  22.911  25.174  1.00  0.00     0.164 HD
BRANCH  16  19
ATOM     19  C   UNL A   1      31.119  25.995  25.642  1.00  0.00     0.046 A 
ATOM     20  C   UNL A   1      33.211  29.706  25.552  1.00  0.00     0.153 C 
ATOM     21  N   UNL A   1      32.501  28.436  25.544  1.00  0.00    -0.319 N 
ATOM     22  C   UNL A   1      33.015  27.390  26.279  1.00  0.00     0.089 A 
ATOM     23  C   UNL A   1      31.339  28.304  24.792  1.00  0.00     0.251 A 
ATOM     24  C   UNL A   1      32.377  26.217  26.346  1.00  0.00     0.032 A 
ATOM     25  C   UNL A   1      30.664  26.976  24.848  1.00  0.00     0.085 A 
ATOM     26  O   UNL A   1      30.835  29.193  24.112  1.00  0.00    -0.269 OA
ENDBRANCH  16  19
ENDBRANCH  14  15
ENDBRANCH   9  14
ENDBRANCH   6   8
ENDBRANCH   5   6
ENDBRANCH   4   5
ENDBRANCH   3   4
ENDBRANCH   2   3
ENDBRANCH   1   2
BRANCH   1  27
ATOM     27  C   UNL A   1      41.839  20.815  27.023  1.00  0.00     0.188 C 
BRANCH  27  28
ATOM     28  O   UNL A   1      41.798  19.452  27.363  1.00  0.00    -0.376 OA
BRANCH  28  29
ATOM     29  C   UNL A   1      42.750  18.535  26.852  1.00  0.00     0.202 C 
BRANCH  29  30
ATOM     30  C   UNL A   1      43.251  18.450  25.397  1.00  0.00     0.261 C 
BRANCH  30  31
ATOM     31  O   UNL A   1      44.659  18.447  25.163  1.00  0.00    -0.460 OA
BRANCH  31  32
ATOM     32  C   UNL A   1      45.092  19.288  24.197  1.00  0.00     0.338 C 
ATOM     33  O   UNL A   1      45.412  19.008  23.048  1.00  0.00    -0.246 OA
BRANCH  32  34
ATOM     34  C   UNL A   1      44.968  20.672  24.680  1.00  0.00     0.060 A 
ATOM     35  C   UNL A   1      44.526  21.659  23.792  1.00  0.00     0.016 A 
ATOM     36  C   UNL A   1      45.323  20.998  25.991  1.00  0.00     0.016 A 
ATOM     37  C   UNL A   1      44.452  22.987  24.208  1.00  0.00     0.010 A 
ATOM     38  C   UNL A   1      45.269  22.333  26.400  1.00  0.00     0.010 A 
ATOM     39  C   UNL A   1      44.856  23.337  25.504  1.00  0.00    -0.014 A 
BRANCH  39  40
ATOM     40  C   UNL A   1      44.995  24.764  25.878  1.00  0.00     0.031 A 
ATOM     41  C   UNL A   1      46.347  25.411  25.761  1.00  0.00     0.074 A 
ATOM     42  C   UNL A   1      43.941  25.473  26.317  1.00  0.00     0.049 A 
ATOM     43  N   UNL A   1      46.725  26.616  26.105  1.00  0.00    -0.248 NA
ATOM     44  C   UNL A   1      47.420  24.586  25.181  1.00  0.00     0.031 C 
ATOM     45  C   UNL A   1      42.576  24.968  26.442  1.00  0.00     0.029 A 
ATOM     46  N   UNL A   1      43.862  26.772  26.759  1.00  0.00    -0.354 N 
ATOM     47  C   UNL A   1      48.078  26.688  25.798  1.00  0.00     0.074 A 
ATOM     48  C   UNL A   1      48.461  25.402  25.256  1.00  0.00     0.031 C 
ATOM     49  C   UNL A   1      41.798  25.939  26.956  1.00  0.00     0.029 A 
ATOM     50  C   UNL A   1      42.619  27.118  27.226  1.00  0.00     0.049 A 
ATOM     51  H   UNL A   1      44.626  27.394  26.743  1.00  0.00     0.167 HD
ATOM     52  C   UNL A   1      48.922  27.734  25.953  1.00  0.00     0.037 A 
ATOM     53  C   UNL A   1      42.203  28.248  27.834  1.00  0.00     0.037 A 
ATOM     54  C   UNL A   1      48.537  29.015  26.484  1.00  0.00     0.049 A 
ATOM     55  C   UNL A   1      43.182  29.377  28.049  1.00  0.00     0.074 A 
ATOM     56  C   UNL A   1      49.313  30.150  26.642  1.00  0.00     0.029 A 
ATOM     57  N   UNL A   1      47.271  29.327  26.955  1.00  0.00    -0.354 N 
ATOM     58  N   UNL A   1      44.448  29.454  27.716  1.00  0.00    -0.248 NA
ATOM     59  C   UNL A   1      42.670  30.580  28.725  1.00  0.00     0.031 C 
ATOM     60  C   UNL A   1      48.532  31.130  27.263  1.00  0.00     0.029 A 
ATOM     61  C   UNL A   1      47.253  30.627  27.434  1.00  0.00     0.049 A 
ATOM     62  H   UNL A   1      46.499  28.715  26.950  1.00  0.00     0.167 HD
ATOM     63  C   UNL A   1      44.872  30.718  28.109  1.00  0.00     0.074 A 
ATOM     64  C   UNL A   1      43.725  31.381  28.693  1.00  0.00     0.031 C 
ATOM     65  C   UNL A   1      46.100  31.280  27.999  1.00  0.00     0.037 A 
BRANCH  52  66
ATOM     66  C   UNL A   1      50.359  27.539  25.570  1.00  0.00     0.064 A 
ATOM     67  C   UNL A   1      51.341  27.224  26.518  1.00  0.00     0.173 A 
ATOM     68  C   UNL A   1      50.742  27.601  24.221  1.00  0.00     0.173 A 
ATOM     69  F   UNL A   1      51.029  27.166  27.821  1.00  0.00    -0.203 F 
ATOM     70  C   UNL A   1      52.659  26.991  26.133  1.00  0.00     0.198 A 
ATOM     71  C   UNL A   1      52.053  27.341  23.836  1.00  0.00     0.198 A 
ATOM     72  F   UNL A   1      49.838  27.897  23.274  1.00  0.00    -0.203 F 
ATOM     73  F   UNL A   1      53.590  26.723  27.059  1.00  0.00    -0.200 F 
ATOM     74  C   UNL A   1      53.011  27.039  24.791  1.00  0.00     0.200 A 
ATOM     75  F   UNL A   1      52.389  27.374  22.539  1.00  0.00    -0.200 F 
ATOM     76  F   UNL A   1      54.276  26.796  24.421  1.00  0.00    -0.200 F 
ENDBRANCH  52  66
BRANCH  53  77
ATOM     77  C   UNL A   1      40.802  28.364  28.322  1.00  0.00     0.064 A 
ATOM     78  C   UNL A   1      39.795  28.916  27.518  1.00  0.00     0.173 A 
ATOM     79  C   UNL A   1      40.455  27.976  29.625  1.00  0.00     0.173 A 
ATOM     80  F   UNL A   1      40.084  29.331  26.276  1.00  0.00    -0.203 F 
ATOM     81  C   UNL A   1      38.504  29.105  28.008  1.00  0.00     0.198 A 
ATOM     82  C   UNL A   1      39.155  28.134  30.102  1.00  0.00     0.198 A 
ATOM     83  F   UNL A   1      41.380  27.448  30.439  1.00  0.00    -0.203 F 
ATOM     84  F   UNL A   1      37.580  29.698  27.241  1.00  0.00    -0.200 F 
ATOM     85  C   UNL A   1      38.183  28.709  29.298  1.00  0.00     0.200 A 
ATOM     86  F   UNL A   1      38.849  27.743  31.347  1.00  0.00    -0.200 F 
ATOM     87  F   UNL A   1      36.945  28.900  29.771  1.00  0.00    -0.200 F 
ENDBRANCH  53  77
BRANCH  65  88
ATOM     88  C   UNL A   1      46.265  32.696  28.473  1.00  0.00     0.064 A 
ATOM     89  C   UNL A   1      46.705  32.994  29.770  1.00  0.00     0.173 A 
ATOM     90  C   UNL A   1      46.026  33.768  27.598  1.00  0.00     0.173 A 
ATOM     91  F   UNL A   1      46.935  32.008  30.649  1.00  0.00    -0.203 F 
ATOM     92  C   UNL A   1      46.876  34.314  30.182  1.00  0.00     0.198 A 
ATOM     93  C   UNL A   1      46.231  35.084  28.002  1.00  0.00     0.198 A 
ATOM     94  F   UNL A   1      45.613  33.537  26.343  1.00  0.00    -0.203 F 
ATOM     95  F   UNL A   1      47.252  34.577  31.441  1.00  0.00    -0.200 F 
ATOM     96  C   UNL A   1      46.648  35.356  29.296  1.00  0.00     0.200 A 
ATOM     97  F   UNL A   1      46.026  36.088  27.139  1.00  0.00    -0.200 F 
ATOM     98  F   UNL A   1      46.824  36.625  29.691  1.00  0.00    -0.200 F 
ENDBRANCH  65  88
ENDBRANCH  39  40
ENDBRANCH  32  34
ENDBRANCH  31  32
ENDBRANCH  30  31
ENDBRANCH  29  30
ENDBRANCH  28  29
ENDBRANCH  27  28
ENDBRANCH   1  27
TORSDOF 20
ENDMDL
MODEL 2
REMARK VINA RESULT:     -10.6      0.793      1.519
REMARK SMILES Cn1ccc(C(=O)NCc2ccc(C(=O)OCCOCCOCCOC(=O)c3ccc(-c4c5nc(c(-c6c(F)c(F)c(F)c(F)c6F)c6ccc([nH]6)c(-c6c(F)c(F)c(F)c(F)c6F)c6nc(c(-c7c(F)c(F)c(F)c(F)c7F)c7ccc4[nH]7)C=C6)C=C5)cc3)cc2)cc1=O
REMARK SMILES IDX 20 1 19 2 18 3 17 4 16 5 14 6 15 7 13 8 10 9 11 10 92 11
REMARK SMILES IDX 12 12 91 13 9 14 8 15 6 16 7 17 5 19 1 20 2 21 3 22 94 23
REMARK SMILES IDX 4 24 93 25 95 26 21 27 22 28 23 29 24 30 25 31 26 32 27 33
REMARK SMILES IDX 28 34 29 35 90 36 30 37 89 38 31 39 32 40 33 41 83 42 34 43
REMARK SMILES IDX 88 44 82 45 84 46 35 47 87 48 81 49 80 50 36 52 68 53 48 54
REMARK SMILES IDX 67 55 49 56 52 57 66 58 85 59 50 60 51 61 65 63 86 64 53 65
REMARK SMILES IDX 37 66 38 67 46 68 39 69 40 70 44 71 47 72 41 73 42 74 45 75
REMARK SMILES IDX 43 76 69 77 70 78 78 79 71 80 72 81 76 82 79 83 73 84 74 85
REMARK SMILES IDX 77 86 75 87 54 88 55 89 63 90 56 91 57 92 61 93 64 94 58 95
REMARK SMILES IDX 59 96 62 97 60 98
REMARK H PARENT 8 18 84 51 52 62
REMARK Flexibility Score: inf
ROOT
ATOM      1  C   UNL A   1      40.826  21.888  26.498  1.00  0.00     0.188 C 
ENDROOT
BRANCH   1   2
ATOM      2  O   UNL A   1      40.321  22.790  27.466  1.00  0.00    -0.376 OA
BRANCH   2   3
ATOM      3  C   UNL A   1      39.332  23.743  27.105  1.00  0.00     0.202 C 
BRANCH   3   4
ATOM      4  C   UNL A   1      38.348  23.482  25.956  1.00  0.00     0.261 C 
BRANCH   4   5
ATOM      5  O   UNL A   1      37.386  22.449  26.206  1.00  0.00    -0.460 OA
BRANCH   5   6
ATOM      6  C   UNL A   1      36.990  21.747  25.111  1.00  0.00     0.338 C 
ATOM      7  O   UNL A   1      37.638  20.919  24.501  1.00  0.00    -0.246 OA
BRANCH   6   8
ATOM      8  C   UNL A   1      35.550  21.984  24.859  1.00  0.00     0.060 A 
ATOM      9  C   UNL A   1      32.841  22.542  24.327  1.00  0.00    -0.029 A 
ATOM     10  C   UNL A   1      33.830  23.502  24.063  1.00  0.00     0.006 A 
ATOM     11  C   UNL A   1      33.241  21.284  24.815  1.00  0.00     0.006 A 
ATOM     12  C   UNL A   1      35.173  23.230  24.341  1.00  0.00     0.016 A 
ATOM     13  C   UNL A   1      34.584  21.004  25.085  1.00  0.00     0.016 A 
BRANCH   9  14
ATOM     14  C   UNL A   1      31.392  22.867  24.036  1.00  0.00     0.152 C 
BRANCH  14  15
ATOM     15  N   UNL A   1      30.641  23.154  25.241  1.00  0.00    -0.348 N 
ATOM     16  C   UNL A   1      30.571  24.206  26.089  1.00  0.00     0.251 C 
ATOM     17  O   UNL A   1      29.894  24.027  27.107  1.00  0.00    -0.269 OA
ATOM     18  H   UNL A   1      30.047  22.415  25.503  1.00  0.00     0.164 HD
BRANCH  16  19
ATOM     19  C   UNL A   1      31.189  25.558  25.848  1.00  0.00     0.046 A 
ATOM     20  C   UNL A   1      32.641  29.400  24.714  1.00  0.00     0.153 C 
ATOM     21  N   UNL A   1      32.144  28.100  25.139  1.00  0.00    -0.319 N 
ATOM     22  C   UNL A   1      30.946  27.653  24.625  1.00  0.00     0.089 A 
ATOM     23  C   UNL A   1      32.875  27.351  26.054  1.00  0.00     0.251 A 
ATOM     24  C   UNL A   1      30.468  26.446  24.943  1.00  0.00     0.032 A 
ATOM     25  C   UNL A   1      32.305  26.025  26.427  1.00  0.00     0.085 A 
ATOM     26  O   UNL A   1      33.942  27.695  26.554  1.00  0.00    -0.269 OA
ENDBRANCH  16  19
ENDBRANCH  14  15
ENDBRANCH   9  14
ENDBRANCH   6   8
ENDBRANCH   5   6
ENDBRANCH   4   5
ENDBRANCH   3   4
ENDBRANCH   2   3
ENDBRANCH   1   2
BRANCH   1  27
ATOM     27  C   UNL A   1      40.666  20.365  26.677  1.00  0.00     0.188 C 
BRANCH  27  28
ATOM     28  O   UNL A   1      41.482  19.715  27.619  1.00  0.00    -0.376 OA
BRANCH  28  29
ATOM     29  C   UNL A   1      42.581  18.915  27.217  1.00  0.00     0.202 C 
BRANCH  29  30
ATOM     30  C   UNL A   1      42.876  18.415  25.790  1.00  0.00     0.261 C 
BRANCH  30  31
ATOM     31  O   UNL A   1      43.138  19.381  24.772  1.00  0.00    -0.460 OA
BRANCH  31  32
ATOM     32  C   UNL A   1      44.443  19.583  24.483  1.00  0.00     0.338 C 
ATOM     33  O   UNL A   1      45.213  18.814  23.919  1.00  0.00    -0.246 OA
BRANCH  32  34
ATOM     34  C   UNL A   1      44.793  20.974  24.807  1.00  0.00     0.060 A 
ATOM     35  C   UNL A   1      45.259  21.270  26.093  1.00  0.00     0.016 A 
ATOM     36  C   UNL A   1      44.625  21.985  23.858  1.00  0.00     0.016 A 
ATOM     37  C   UNL A   1      45.546  22.588  26.443  1.00  0.00     0.010 A 
ATOM     38  C   UNL A   1      44.893  23.308  24.217  1.00  0.00     0.010 A 
ATOM     39  C   UNL A   1      45.331  23.619  25.518  1.00  0.00    -0.014 A 
BRANCH  39  40
ATOM     40  C   UNL A   1      45.417  25.034  25.952  1.00  0.00     0.031 A 
ATOM     41  C   UNL A   1      46.755  25.719  25.916  1.00  0.00     0.074 A 
ATOM     42  C   UNL A   1      44.327  25.698  26.375  1.00  0.00     0.049 A 
ATOM     43  N   UNL A   1      47.086  26.918  26.320  1.00  0.00    -0.248 NA
ATOM     44  C   UNL A   1      47.872  24.945  25.349  1.00  0.00     0.031 C 
ATOM     45  C   UNL A   1      42.972  25.154  26.424  1.00  0.00     0.029 A 
ATOM     46  N   UNL A   1      44.197  26.976  26.863  1.00  0.00    -0.354 N 
ATOM     47  C   UNL A   1      48.448  27.036  26.072  1.00  0.00     0.074 A 
ATOM     48  C   UNL A   1      48.886  25.783  25.497  1.00  0.00     0.031 C 
ATOM     49  C   UNL A   1      42.149  26.084  26.942  1.00  0.00     0.029 A 
ATOM     50  C   UNL A   1      42.927  27.272  27.291  1.00  0.00     0.049 A 
ATOM     51  H   UNL A   1      44.944  27.617  26.901  1.00  0.00     0.167 HD
ATOM     52  C   UNL A   1      49.257  28.097  26.302  1.00  0.00     0.037 A 
ATOM     53  C   UNL A   1      42.456  28.366  27.925  1.00  0.00     0.037 A 
ATOM     54  C   UNL A   1      48.816  29.346  26.865  1.00  0.00     0.049 A 
ATOM     55  C   UNL A   1      43.396  29.510  28.223  1.00  0.00     0.074 A 
ATOM     56  C   UNL A   1      49.555  30.493  27.098  1.00  0.00     0.029 A 
ATOM     57  N   UNL A   1      47.525  29.607  27.296  1.00  0.00    -0.354 N 
ATOM     58  N   UNL A   1      44.671  29.632  27.944  1.00  0.00    -0.248 NA
ATOM     59  C   UNL A   1      42.825  30.672  28.922  1.00  0.00     0.031 C 
ATOM     60  C   UNL A   1      48.724  31.427  27.723  1.00  0.00     0.029 A 
ATOM     61  C   UNL A   1      47.454  30.886  27.823  1.00  0.00     0.049 A 
ATOM     62  H   UNL A   1      46.771  28.976  27.236  1.00  0.00     0.167 HD
ATOM     63  C   UNL A   1      45.045  30.890  28.403  1.00  0.00     0.074 A 
ATOM     64  C   UNL A   1      43.859  31.500  28.965  1.00  0.00     0.031 C 
ATOM     65  C   UNL A   1      46.262  31.486  28.364  1.00  0.00     0.037 A 
BRANCH  52  66
ATOM     66  C   UNL A   1      50.712  27.953  25.970  1.00  0.00     0.064 A 
ATOM     67  C   UNL A   1      51.666  27.636  26.947  1.00  0.00     0.173 A 
ATOM     68  C   UNL A   1      51.146  28.068  24.640  1.00  0.00     0.173 A 
ATOM     69  F   UNL A   1      51.305  27.530  28.234  1.00  0.00    -0.203 F 
ATOM     70  C   UNL A   1      53.004  27.451  26.607  1.00  0.00     0.198 A 
ATOM     71  C   UNL A   1      52.478  27.855  24.300  1.00  0.00     0.198 A 
ATOM     72  F   UNL A   1      50.271  28.367  23.667  1.00  0.00    -0.203 F 
ATOM     73  F   UNL A   1      53.905  27.181  27.561  1.00  0.00    -0.200 F 
ATOM     74  C   UNL A   1      53.406  27.550  25.283  1.00  0.00     0.200 A 
ATOM     75  F   UNL A   1      52.862  27.938  23.018  1.00  0.00    -0.200 F 
ATOM     76  F   UNL A   1      54.691  27.354  24.956  1.00  0.00    -0.200 F 
ENDBRANCH  52  66
BRANCH  53  77
ATOM     77  C   UNL A   1      41.035  28.427  28.359  1.00  0.00     0.064 A 
ATOM     78  C   UNL A   1      40.040  28.949  27.520  1.00  0.00     0.173 A 
ATOM     79  C   UNL A   1      40.653  28.018  29.646  1.00  0.00     0.173 A 
ATOM     80  F   UNL A   1      40.360  29.383  26.293  1.00  0.00    -0.203 F 
ATOM     81  C   UNL A   1      38.725  29.086  27.962  1.00  0.00     0.198 A 
ATOM     82  C   UNL A   1      39.331  28.124  30.073  1.00  0.00     0.198 A 
ATOM     83  F   UNL A   1      41.565  27.517  30.491  1.00  0.00    -0.203 F 
ATOM     84  F   UNL A   1      37.810  29.651  27.162  1.00  0.00    -0.200 F 
ATOM     85  C   UNL A   1      38.370  28.670  29.236  1.00  0.00     0.200 A 
ATOM     86  F   UNL A   1      38.992  27.714  31.303  1.00  0.00    -0.200 F 
ATOM     87  F   UNL A   1      37.108  28.812  29.662  1.00  0.00    -0.200 F 
ENDBRANCH  53  77
BRANCH  65  88
ATOM     88  C   UNL A   1      46.369  32.886  28.899  1.00  0.00     0.064 A 
ATOM     89  C   UNL A   1      46.129  34.007  28.090  1.00  0.00     0.173 A 
ATOM     90  C   UNL A   1      46.666  33.106  30.254  1.00  0.00     0.173 A 
ATOM     91  F   UNL A   1      45.853  33.852  26.787  1.00  0.00    -0.203 F 
ATOM     92  C   UNL A   1      46.208  35.296  28.612  1.00  0.00     0.198 A 
ATOM     93  C   UNL A   1      46.710  34.395  30.779  1.00  0.00     0.198 A 
ATOM     94  F   UNL A   1      46.895  32.069  31.073  1.00  0.00    -0.203 F 
ATOM     95  F   UNL A   1      46.021  36.354  27.810  1.00  0.00    -0.200 F 
ATOM     96  C   UNL A   1      46.489  35.488  29.957  1.00  0.00     0.200 A 
ATOM     97  F   UNL A   1      46.966  34.577  32.082  1.00  0.00    -0.200 F 
ATOM     98  F   UNL A   1      46.553  36.729  30.459  1.00  0.00    -0.200 F 
ENDBRANCH  65  88
ENDBRANCH  39  40
ENDBRANCH  32  34
ENDBRANCH  31  32
ENDBRANCH  30  31
ENDBRANCH  29  30
ENDBRANCH  28  29
ENDBRANCH  27  28
ENDBRANCH   1  27
TORSDOF 20
ENDMDL
MODEL 3
REMARK VINA RESULT:     -10.6      5.978     11.612
REMARK SMILES Cn1ccc(C(=O)NCc2ccc(C(=O)OCCOCCOCCOC(=O)c3ccc(-c4c5nc(c(-c6c(F)c(F)c(F)c(F)c6F)c6ccc([nH]6)c(-c6c(F)c(F)c(F)c(F)c6F)c6nc(c(-c7c(F)c(F)c(F)c(F)c7F)c7ccc4[nH]7)C=C6)C=C5)cc3)cc2)cc1=O
REMARK SMILES IDX 20 1 19 2 18 3 17 4 16 5 14 6 15 7 13 8 10 9 11 10 92 11
REMARK SMILES IDX 12 12 91 13 9 14 8 15 6 16 7 17 5 19 1 20 2 21 3 22 94 23
REMARK SMILES IDX 4 24 93 25 95 26 21 27 22 28 23 29 24 30 25 31 26 32 27 33
REMARK SMILES IDX 28 34 29 35 90 36 30 37 89 38 31 39 32 40 33 41 83 42 34 43
REMARK SMILES IDX 88 44 82 45 84 46 35 47 87 48 81 49 80 50 36 52 68 53 48 54
REMARK SMILES IDX 67 55 49 56 52 57 66 58 85 59 50 60 51 61 65 63 86 64 53 65
REMARK SMILES IDX 37 66 38 67 46 68 39 69 40 70 44 71 47 72 41 73 42 74 45 75
REMARK SMILES IDX 43 76 69 77 70 78 78 79 71 80 72 81 76 82 79 83 73 84 74 85
REMARK SMILES IDX 77 86 75 87 54 88 55 89 63 90 56 91 57 92 61 93 64 94 58 95
REMARK SMILES IDX 59 96 62 97 60 98
REMARK H PARENT 8 18 84 51 52 62
REMARK Flexibility Score: inf
ROOT
ATOM      1  C   UNL A   1      33.348  28.729  25.856  1.00  0.00     0.188 C 
ENDROOT
BRANCH   1   2
ATOM      2  O   UNL A   1      33.963  28.114  24.738  1.00  0.00    -0.376 OA
BRANCH   2   3
ATOM      3  C   UNL A   1      34.128  28.838  23.528  1.00  0.00     0.202 C 
BRANCH   3   4
ATOM      4  C   UNL A   1      33.740  28.232  22.171  1.00  0.00     0.261 C 
BRANCH   4   5
ATOM      5  O   UNL A   1      32.537  27.453  22.178  1.00  0.00    -0.460 OA
BRANCH   5   6
ATOM      6  C   UNL A   1      32.675  26.168  21.752  1.00  0.00     0.338 C 
ATOM      7  O   UNL A   1      33.272  25.787  20.765  1.00  0.00    -0.246 OA
BRANCH   6   8
ATOM      8  C   UNL A   1      32.151  25.241  22.782  1.00  0.00     0.060 A 
ATOM      9  C   UNL A   1      31.226  23.391  24.692  1.00  0.00    -0.029 A 
ATOM     10  C   UNL A   1      32.052  22.972  23.639  1.00  0.00     0.006 A 
ATOM     11  C   UNL A   1      30.914  24.760  24.797  1.00  0.00     0.006 A 
ATOM     12  C   UNL A   1      32.499  23.888  22.683  1.00  0.00     0.016 A 
ATOM     13  C   UNL A   1      31.368  25.681  23.848  1.00  0.00     0.016 A 
BRANCH   9  14
ATOM     14  C   UNL A   1      30.737  22.377  25.704  1.00  0.00     0.152 C 
BRANCH  14  15
ATOM     15  N   UNL A   1      31.354  22.555  27.003  1.00  0.00    -0.348 N 
ATOM     16  C   UNL A   1      32.621  22.479  27.472  1.00  0.00     0.251 C 
ATOM     17  O   UNL A   1      32.742  22.570  28.699  1.00  0.00    -0.269 OA
ATOM     18  H   UNL A   1      30.702  22.783  27.704  1.00  0.00     0.164 HD
BRANCH  16  19
ATOM     19  C   UNL A   1      33.856  22.363  26.621  1.00  0.00     0.046 A 
ATOM     20  C   UNL A   1      37.312  21.499  24.282  1.00  0.00     0.153 C 
ATOM     21  N   UNL A   1      36.122  21.823  25.055  1.00  0.00    -0.319 N 
ATOM     22  C   UNL A   1      35.179  20.837  25.254  1.00  0.00     0.089 A 
ATOM     23  C   UNL A   1      35.959  23.107  25.559  1.00  0.00     0.251 A 
ATOM     24  C   UNL A   1      34.092  21.065  25.997  1.00  0.00     0.032 A 
ATOM     25  C   UNL A   1      34.720  23.354  26.351  1.00  0.00     0.085 A 
ATOM     26  O   UNL A   1      36.755  24.029  25.411  1.00  0.00    -0.269 OA
ENDBRANCH  16  19
ENDBRANCH  14  15
ENDBRANCH   9  14
ENDBRANCH   6   8
ENDBRANCH   5   6
ENDBRANCH   4   5
ENDBRANCH   3   4
ENDBRANCH   2   3
ENDBRANCH   1   2
BRANCH   1  27
ATOM     27  C   UNL A   1      32.553  30.041  25.699  1.00  0.00     0.188 C 
BRANCH  27  28
ATOM     28  O   UNL A   1      32.142  30.714  26.862  1.00  0.00    -0.376 OA
BRANCH  28  29
ATOM     29  C   UNL A   1      33.004  31.616  27.537  1.00  0.00     0.202 C 
BRANCH  29  30
ATOM     30  C   UNL A   1      33.112  33.134  27.294  1.00  0.00     0.261 C 
BRANCH  30  31
ATOM     31  O   UNL A   1      32.288  34.006  28.068  1.00  0.00    -0.460 OA
BRANCH  31  32
ATOM     32  C   UNL A   1      32.935  35.009  28.701  1.00  0.00     0.338 C 
ATOM     33  O   UNL A   1      32.600  36.185  28.778  1.00  0.00    -0.246 OA
BRANCH  32  34
ATOM     34  C   UNL A   1      34.065  34.446  29.456  1.00  0.00     0.060 A 
ATOM     35  C   UNL A   1      35.347  34.513  28.899  1.00  0.00     0.016 A 
ATOM     36  C   UNL A   1      33.853  33.823  30.687  1.00  0.00     0.016 A 
ATOM     37  C   UNL A   1      36.428  33.940  29.567  1.00  0.00     0.010 A 
ATOM     38  C   UNL A   1      34.934  33.230  31.346  1.00  0.00     0.010 A 
ATOM     39  C   UNL A   1      36.221  33.264  30.778  1.00  0.00    -0.014 A 
BRANCH  39  40
ATOM     40  C   UNL A   1      37.315  32.463  31.377  1.00  0.00     0.031 A 
ATOM     41  C   UNL A   1      37.820  32.840  32.742  1.00  0.00     0.074 A 
ATOM     42  C   UNL A   1      37.854  31.423  30.719  1.00  0.00     0.049 A 
ATOM     43  N   UNL A   1      38.816  32.340  33.427  1.00  0.00    -0.248 NA
ATOM     44  C   UNL A   1      37.106  33.931  33.426  1.00  0.00     0.031 C 
ATOM     45  C   UNL A   1      37.430  30.941  29.406  1.00  0.00     0.029 A 
ATOM     46  N   UNL A   1      38.895  30.594  31.062  1.00  0.00    -0.354 N 
ATOM     47  C   UNL A   1      38.858  33.063  34.613  1.00  0.00     0.074 A 
ATOM     48  C   UNL A   1      37.799  34.048  34.548  1.00  0.00     0.031 C 
ATOM     49  C   UNL A   1      38.222  29.916  29.042  1.00  0.00     0.029 A 
ATOM     50  C   UNL A   1      39.228  29.695  30.080  1.00  0.00     0.049 A 
ATOM     51  H   UNL A   1      39.357  30.641  31.931  1.00  0.00     0.167 HD
ATOM     52  C   UNL A   1      39.703  32.916  35.659  1.00  0.00     0.037 A 
ATOM     53  C   UNL A   1      40.252  28.820  30.013  1.00  0.00     0.037 A 
ATOM     54  C   UNL A   1      40.749  31.929  35.725  1.00  0.00     0.049 A 
ATOM     55  C   UNL A   1      41.216  28.719  31.171  1.00  0.00     0.074 A 
ATOM     56  C   UNL A   1      41.631  31.677  36.761  1.00  0.00     0.029 A 
ATOM     57  N   UNL A   1      41.063  31.043  34.707  1.00  0.00    -0.354 N 
ATOM     58  N   UNL A   1      41.222  29.375  32.307  1.00  0.00    -0.248 NA
ATOM     59  C   UNL A   1      42.316  27.751  31.037  1.00  0.00     0.031 C 
ATOM     60  C   UNL A   1      42.515  30.677  36.348  1.00  0.00     0.029 A 
ATOM     61  C   UNL A   1      42.146  30.263  35.079  1.00  0.00     0.049 A 
ATOM     62  H   UNL A   1      40.587  30.977  33.847  1.00  0.00     0.167 HD
ATOM     63  C   UNL A   1      42.299  28.878  33.031  1.00  0.00     0.074 A 
ATOM     64  C   UNL A   1      42.916  27.855  32.214  1.00  0.00     0.031 C 
ATOM     65  C   UNL A   1      42.740  29.237  34.262  1.00  0.00     0.037 A 
BRANCH  52  66
ATOM     66  C   UNL A   1      39.555  33.857  36.817  1.00  0.00     0.064 A 
ATOM     67  C   UNL A   1      38.822  33.514  37.961  1.00  0.00     0.173 A 
ATOM     68  C   UNL A   1      40.216  35.095  36.806  1.00  0.00     0.173 A 
ATOM     69  F   UNL A   1      38.160  32.348  38.015  1.00  0.00    -0.203 F 
ATOM     70  C   UNL A   1      38.745  34.381  39.048  1.00  0.00     0.198 A 
ATOM     71  C   UNL A   1      40.160  35.947  37.905  1.00  0.00     0.198 A 
ATOM     72  F   UNL A   1      40.933  35.470  35.736  1.00  0.00    -0.203 F 
ATOM     73  F   UNL A   1      38.013  34.047  40.120  1.00  0.00    -0.200 F 
ATOM     74  C   UNL A   1      39.423  35.591  39.023  1.00  0.00     0.200 A 
ATOM     75  F   UNL A   1      40.827  37.110  37.885  1.00  0.00    -0.200 F 
ATOM     76  F   UNL A   1      39.363  36.416  40.078  1.00  0.00    -0.200 F 
ENDBRANCH  52  66
BRANCH  53  77
ATOM     77  C   UNL A   1      40.450  27.989  28.796  1.00  0.00     0.064 A 
ATOM     78  C   UNL A   1      41.230  28.444  27.723  1.00  0.00     0.173 A 
ATOM     79  C   UNL A   1      39.816  26.745  28.657  1.00  0.00     0.173 A 
ATOM     80  F   UNL A   1      41.830  29.641  27.794  1.00  0.00    -0.203 F 
ATOM     81  C   UNL A   1      41.342  27.703  26.548  1.00  0.00     0.198 A 
ATOM     82  C   UNL A   1      39.957  25.989  27.495  1.00  0.00     0.198 A 
ATOM     83  F   UNL A   1      39.054  26.264  29.650  1.00  0.00    -0.203 F 
ATOM     84  F   UNL A   1      42.038  28.194  25.514  1.00  0.00    -0.200 F 
ATOM     85  C   UNL A   1      40.710  26.473  26.436  1.00  0.00     0.200 A 
ATOM     86  F   UNL A   1      39.350  24.798  27.396  1.00  0.00    -0.200 F 
ATOM     87  F   UNL A   1      40.811  25.766  25.304  1.00  0.00    -0.200 F 
ENDBRANCH  53  77
BRANCH  65  88
ATOM     88  C   UNL A   1      43.916  28.491  34.826  1.00  0.00     0.064 A 
ATOM     89  C   UNL A   1      43.760  27.287  35.529  1.00  0.00     0.173 A 
ATOM     90  C   UNL A   1      45.222  28.962  34.614  1.00  0.00     0.173 A 
ATOM     91  F   UNL A   1      42.533  26.800  35.769  1.00  0.00    -0.203 F 
ATOM     92  C   UNL A   1      44.865  26.598  36.022  1.00  0.00     0.198 A 
ATOM     93  C   UNL A   1      46.326  28.252  35.078  1.00  0.00     0.198 A 
ATOM     94  F   UNL A   1      45.428  30.103  33.939  1.00  0.00    -0.203 F 
ATOM     95  F   UNL A   1      44.690  25.475  36.732  1.00  0.00    -0.200 F 
ATOM     96  C   UNL A   1      46.146  27.075  35.788  1.00  0.00     0.200 A 
ATOM     97  F   UNL A   1      47.562  28.707  34.836  1.00  0.00    -0.200 F 
ATOM     98  F   UNL A   1      47.209  26.404  36.253  1.00  0.00    -0.200 F 
ENDBRANCH  65  88
ENDBRANCH  39  40
ENDBRANCH  32  34
ENDBRANCH  31  32
ENDBRANCH  30  31
ENDBRANCH  29  30
ENDBRANCH  28  29
ENDBRANCH  27  28
ENDBRANCH   1  27
TORSDOF 20
ENDMDL
