MODEL 1
REMARK VINA RESULT:     -13.2      0.000      0.000
REMARK SMILES Cc1ccc(Nc2c(F)cccc2I)c(CC(=O)OCCOCCOCCOC(=O)c2ccc(-c3c4nc(c(-c5c(F)c(F)c(F)c(F)c5F)c5ccc([nH]5)c(-c5c(F)c(F)c(F)c(F)c5F)c5nc(c(-c6c(F)c(F)c(F)c(F)c6F)c6ccc3[nH]6)C=C5)C=C4)cc2)c1
REMARK SMILES IDX 23 1 22 2 21 3 20 4 19 5 17 6 18 7 16 8 15 9 1 10 2 11 3 12
REMARK SMILES IDX 94 13 4 14 5 15 6 16 7 18 8 19 13 20 9 21 10 22 12 23 14 24
REMARK SMILES IDX 11 25 24 26 25 27 26 28 27 29 28 30 29 31 30 32 31 33 32 34
REMARK SMILES IDX 93 35 33 36 92 37 34 38 35 39 36 40 86 41 37 42 91 43 85 44
REMARK SMILES IDX 87 45 38 46 90 47 84 48 83 49 39 51 71 52 51 53 70 54 52 55
REMARK SMILES IDX 55 56 69 57 88 58 53 59 54 60 68 62 89 63 56 64 40 65 41 66
REMARK SMILES IDX 49 67 42 68 43 69 47 70 50 71 44 72 45 73 48 74 46 75 72 76
REMARK SMILES IDX 73 77 81 78 74 79 75 80 79 81 82 82 76 83 77 84 80 85 78 86
REMARK SMILES IDX 57 87 58 88 66 89 59 90 60 91 64 92 67 93 61 94 62 95 65 96
REMARK SMILES IDX 63 97
REMARK H PARENT 6 17 87 50 55 61
REMARK Flexibility Score: inf
ROOT
ATOM      1  C   UNL A   1      41.999  21.845  26.183  1.00  0.00     0.188 C 
ENDROOT
BRANCH   1   2
ATOM      2  O   UNL A   1      40.710  22.347  26.417  1.00  0.00    -0.376 OA
BRANCH   2   3
ATOM      3  C   UNL A   1      39.583  21.523  26.270  1.00  0.00     0.202 C 
BRANCH   3   4
ATOM      4  C   UNL A   1      38.104  21.838  25.707  1.00  0.00     0.261 C 
BRANCH   4   5
ATOM      5  O   UNL A   1      36.769  23.003  26.050  1.00  0.00    -0.463 OA
BRANCH   5   6
ATOM      6  C   UNL A   1      35.164  23.224  26.252  1.00  0.00     0.310 C 
ATOM      7  O   UNL A   1      34.411  24.207  26.256  1.00  0.00    -0.252 OA
BRANCH   6   8
ATOM      8  C   UNL A   1      34.421  22.009  26.160  1.00  0.00     0.160 C 
BRANCH   8   9
ATOM      9  C   UNL A   1      34.425  21.799  24.685  1.00  0.00    -0.013 A 
ATOM     10  C   UNL A   1      33.952  18.008  24.578  1.00  0.00     0.044 C 
ATOM     11  C   UNL A   1      33.729  19.464  24.321  1.00  0.00    -0.051 A 
ATOM     12  C   UNL A   1      32.536  19.995  23.886  1.00  0.00     0.005 A 
ATOM     13  C   UNL A   1      34.713  20.370  24.634  1.00  0.00     0.009 A 
ATOM     14  C   UNL A   1      32.375  21.410  23.758  1.00  0.00     0.026 A 
ATOM     15  C   UNL A   1      33.460  22.575  23.991  1.00  0.00     0.042 A 
BRANCH  15  16
ATOM     16  N   UNL A   1      33.459  24.366  23.055  1.00  0.00    -0.352 N 
ATOM     17  H   UNL A   1      34.064  24.389  22.279  1.00  0.00     0.167 HD
BRANCH  16  18
ATOM     18  C   UNL A   1      32.592  25.952  23.321  1.00  0.00     0.088 A 
ATOM     19  C   UNL A   1      32.990  27.261  22.582  1.00  0.00     0.147 A 
ATOM     20  C   UNL A   1      31.694  26.243  24.379  1.00  0.00     0.040 A 
ATOM     21  F   UNL A   1      34.027  27.396  21.723  1.00  0.00    -0.205 F 
ATOM     22  C   UNL A   1      32.511  28.548  22.828  1.00  0.00     0.041 A 
ATOM     23  C   UNL A   1      31.300  27.629  24.624  1.00  0.00     0.017 A 
ATOM     24  I   UNL A   1      30.650  25.168  25.788  1.00  0.00    -0.042 I 
ATOM     25  C   UNL A   1      31.684  28.745  23.884  1.00  0.00     0.004 A 
ENDBRANCH  16  18
ENDBRANCH  15  16
ENDBRANCH   8   9
ENDBRANCH   6   8
ENDBRANCH   5   6
ENDBRANCH   4   5
ENDBRANCH   3   4
ENDBRANCH   2   3
ENDBRANCH   1   2
BRANCH   1  26
ATOM     26  C   UNL A   1      43.040  22.581  25.331  1.00  0.00     0.188 C 
BRANCH  26  27
ATOM     27  O   UNL A   1      43.964  23.377  26.036  1.00  0.00    -0.376 OA
BRANCH  27  28
ATOM     28  C   UNL A   1      43.519  24.706  26.329  1.00  0.00     0.202 C 
BRANCH  28  29
ATOM     29  C   UNL A   1      43.352  25.776  25.159  1.00  0.00     0.261 C 
BRANCH  29  30
ATOM     30  O   UNL A   1      42.018  26.426  25.029  1.00  0.00    -0.460 OA
BRANCH  30  31
ATOM     31  C   UNL A   1      41.680  27.639  25.669  1.00  0.00     0.338 C 
ATOM     32  O   UNL A   1      41.903  28.685  25.088  1.00  0.00    -0.246 OA
BRANCH  31  33
ATOM     33  C   UNL A   1      41.151  27.366  27.233  1.00  0.00     0.060 A 
ATOM     34  C   UNL A   1      39.485  27.217  28.258  1.00  0.00     0.016 A 
ATOM     35  C   UNL A   1      42.235  28.689  27.803  1.00  0.00     0.016 A 
ATOM     36  C   UNL A   1      39.091  28.559  29.535  1.00  0.00     0.010 A 
ATOM     37  C   UNL A   1      41.703  29.898  28.939  1.00  0.00     0.010 A 
ATOM     38  C   UNL A   1      40.193  29.980  29.887  1.00  0.00    -0.014 A 
BRANCH  38  39
ATOM     39  C   UNL A   1      40.244  31.349  31.178  1.00  0.00     0.031 A 
ATOM     40  C   UNL A   1      41.544  31.681  32.542  1.00  0.00     0.074 A 
ATOM     41  C   UNL A   1      39.497  32.471  31.048  1.00  0.00     0.049 A 
ATOM     42  N   UNL A   1      41.359  31.777  33.848  1.00  0.00    -0.248 NA
ATOM     43  C   UNL A   1      43.187  31.426  32.491  1.00  0.00     0.031 C 
ATOM     44  C   UNL A   1      39.760  33.774  31.690  1.00  0.00     0.029 A 
ATOM     45  N   UNL A   1      38.393  32.746  30.234  1.00  0.00    -0.354 N 
ATOM     46  C   UNL A   1      42.651  31.690  34.486  1.00  0.00     0.074 A 
ATOM     47  C   UNL A   1      43.520  30.957  33.668  1.00  0.00     0.031 C 
ATOM     48  C   UNL A   1      38.697  34.580  31.509  1.00  0.00     0.029 A 
ATOM     49  C   UNL A   1      37.667  33.759  30.903  1.00  0.00     0.049 A 
ATOM     50  H   UNL A   1      38.168  32.323  29.374  1.00  0.00     0.167 HD
ATOM     51  C   UNL A   1      43.158  32.658  35.312  1.00  0.00     0.037 A 
ATOM     52  C   UNL A   1      36.486  33.417  31.487  1.00  0.00     0.037 A 
ATOM     53  C   UNL A   1      42.138  33.665  35.406  1.00  0.00     0.049 A 
ATOM     54  C   UNL A   1      36.615  33.465  32.994  1.00  0.00     0.074 A 
ATOM     55  C   UNL A   1      41.912  34.854  34.737  1.00  0.00     0.029 A 
ATOM     56  N   UNL A   1      40.912  33.217  35.847  1.00  0.00    -0.354 N 
ATOM     57  N   UNL A   1      37.758  33.406  33.632  1.00  0.00    -0.248 NA
ATOM     58  C   UNL A   1      35.494  33.715  33.890  1.00  0.00     0.031 C 
ATOM     59  C   UNL A   1      40.500  35.087  34.762  1.00  0.00     0.029 A 
ATOM     60  C   UNL A   1      39.894  34.043  35.443  1.00  0.00     0.049 A 
ATOM     61  H   UNL A   1      40.782  32.404  36.387  1.00  0.00     0.167 HD
ATOM     62  C   UNL A   1      37.559  33.641  34.960  1.00  0.00     0.074 A 
ATOM     63  C   UNL A   1      36.125  33.819  35.073  1.00  0.00     0.031 C 
ATOM     64  C   UNL A   1      38.558  33.693  35.887  1.00  0.00     0.037 A 
BRANCH  51  65
ATOM     65  C   UNL A   1      44.648  32.836  35.678  1.00  0.00     0.064 A 
ATOM     66  C   UNL A   1      45.200  32.113  36.754  1.00  0.00     0.173 A 
ATOM     67  C   UNL A   1      45.591  33.675  35.018  1.00  0.00     0.173 A 
ATOM     68  F   UNL A   1      44.462  31.234  37.442  1.00  0.00    -0.203 F 
ATOM     69  C   UNL A   1      46.536  32.249  37.164  1.00  0.00     0.198 A 
ATOM     70  C   UNL A   1      46.905  33.872  35.478  1.00  0.00     0.198 A 
ATOM     71  F   UNL A   1      45.302  34.295  33.865  1.00  0.00    -0.203 F 
ATOM     72  F   UNL A   1      47.000  31.494  38.170  1.00  0.00    -0.200 F 
ATOM     73  C   UNL A   1      47.383  33.146  36.544  1.00  0.00     0.200 A 
ATOM     74  F   UNL A   1      47.707  34.756  34.865  1.00  0.00    -0.200 F 
ATOM     75  F   UNL A   1      48.654  33.281  36.948  1.00  0.00    -0.200 F 
ENDBRANCH  51  65
BRANCH  52  76
ATOM     76  C   UNL A   1      35.745  32.461  30.608  1.00  0.00     0.064 A 
ATOM     77  C   UNL A   1      35.059  33.025  29.503  1.00  0.00     0.173 A 
ATOM     78  C   UNL A   1      36.102  31.108  30.508  1.00  0.00     0.173 A 
ATOM     79  F   UNL A   1      34.764  34.337  29.498  1.00  0.00    -0.203 F 
ATOM     80  C   UNL A   1      34.811  32.298  28.342  1.00  0.00     0.198 A 
ATOM     81  C   UNL A   1      35.859  30.383  29.333  1.00  0.00     0.198 A 
ATOM     82  F   UNL A   1      36.800  30.518  31.487  1.00  0.00    -0.203 F 
ATOM     83  F   UNL A   1      34.280  32.909  27.271  1.00  0.00    -0.200 F 
ATOM     84  C   UNL A   1      35.215  30.976  28.257  1.00  0.00     0.200 A 
ATOM     85  F   UNL A   1      36.319  29.130  29.205  1.00  0.00    -0.200 F 
ATOM     86  F   UNL A   1      35.033  30.285  27.121  1.00  0.00    -0.200 F 
ENDBRANCH  52  76
BRANCH  64  87
ATOM     87  C   UNL A   1      38.359  33.373  37.356  1.00  0.00     0.064 A 
ATOM     88  C   UNL A   1      38.540  34.321  38.373  1.00  0.00     0.173 A 
ATOM     89  C   UNL A   1      37.777  32.145  37.773  1.00  0.00     0.173 A 
ATOM     90  F   UNL A   1      38.910  35.580  38.108  1.00  0.00    -0.203 F 
ATOM     91  C   UNL A   1      38.291  34.021  39.709  1.00  0.00     0.198 A 
ATOM     92  C   UNL A   1      37.401  31.904  39.089  1.00  0.00     0.198 A 
ATOM     93  F   UNL A   1      37.518  31.144  36.919  1.00  0.00    -0.203 F 
ATOM     94  F   UNL A   1      38.602  34.920  40.652  1.00  0.00    -0.200 F 
ATOM     95  C   UNL A   1      37.706  32.822  40.066  1.00  0.00     0.200 A 
ATOM     96  F   UNL A   1      36.737  30.780  39.395  1.00  0.00    -0.200 F 
ATOM     97  F   UNL A   1      37.426  32.558  41.348  1.00  0.00    -0.200 F 
ENDBRANCH  64  87
ENDBRANCH  38  39
ENDBRANCH  31  33
ENDBRANCH  30  31
ENDBRANCH  29  30
ENDBRANCH  28  29
ENDBRANCH  27  28
ENDBRANCH  26  27
ENDBRANCH   1  26
TORSDOF 20
ENDMDL
MODEL 2
REMARK VINA RESULT:     -12.7      1.642      2.183
REMARK SMILES Cc1ccc(Nc2c(F)cccc2I)c(CC(=O)OCCOCCOCCOC(=O)c2ccc(-c3c4nc(c(-c5c(F)c(F)c(F)c(F)c5F)c5ccc([nH]5)c(-c5c(F)c(F)c(F)c(F)c5F)c5nc(c(-c6c(F)c(F)c(F)c(F)c6F)c6ccc3[nH]6)C=C5)C=C4)cc2)c1
REMARK SMILES IDX 23 1 22 2 21 3 20 4 19 5 17 6 18 7 16 8 15 9 1 10 2 11 3 12
REMARK SMILES IDX 94 13 4 14 5 15 6 16 7 18 8 19 13 20 9 21 10 22 12 23 14 24
REMARK SMILES IDX 11 25 24 26 25 27 26 28 27 29 28 30 29 31 30 32 31 33 32 34
REMARK SMILES IDX 93 35 33 36 92 37 34 38 35 39 36 40 86 41 37 42 91 43 85 44
REMARK SMILES IDX 87 45 38 46 90 47 84 48 83 49 39 51 71 52 51 53 70 54 52 55
REMARK SMILES IDX 55 56 69 57 88 58 53 59 54 60 68 62 89 63 56 64 40 65 41 66
REMARK SMILES IDX 49 67 42 68 43 69 47 70 50 71 44 72 45 73 48 74 46 75 72 76
REMARK SMILES IDX 73 77 81 78 74 79 75 80 79 81 82 82 76 83 77 84 80 85 78 86
REMARK SMILES IDX 57 87 58 88 66 89 59 90 60 91 64 92 67 93 61 94 62 95 65 96
REMARK SMILES IDX 63 97
REMARK H PARENT 6 17 87 50 55 61
REMARK Flexibility Score: inf
ROOT
ATOM      1  C   UNL A   1      39.662  24.557  26.916  1.00  0.00     0.188 C 
ENDROOT
BRANCH   1   2
ATOM      2  O   UNL A   1      38.420  23.909  26.990  1.00  0.00    -0.376 OA
BRANCH   2   3
ATOM      3  C   UNL A   1      37.606  23.788  25.853  1.00  0.00     0.202 C 
BRANCH   3   4
ATOM      4  C   UNL A   1      36.007  23.907  25.674  1.00  0.00     0.261 C 
BRANCH   4   5
ATOM      5  O   UNL A   1      34.529  23.597  26.663  1.00  0.00    -0.463 OA
BRANCH   5   6
ATOM      6  C   UNL A   1      33.657  22.511  27.516  1.00  0.00     0.310 C 
ATOM      7  O   UNL A   1      32.748  22.586  28.353  1.00  0.00    -0.252 OA
BRANCH   6   8
ATOM      8  C   UNL A   1      33.790  21.180  27.020  1.00  0.00     0.160 C 
BRANCH   8   9
ATOM      9  C   UNL A   1      33.863  21.442  25.555  1.00  0.00    -0.013 A 
ATOM     10  C   UNL A   1      34.805  17.947  24.327  1.00  0.00     0.044 C 
ATOM     11  C   UNL A   1      34.065  19.238  24.472  1.00  0.00    -0.051 A 
ATOM     12  C   UNL A   1      32.758  19.423  24.082  1.00  0.00     0.005 A 
ATOM     13  C   UNL A   1      34.652  20.291  25.132  1.00  0.00     0.009 A 
ATOM     14  C   UNL A   1      32.091  20.661  24.345  1.00  0.00     0.026 A 
ATOM     15  C   UNL A   1      32.677  22.002  25.012  1.00  0.00     0.042 A 
BRANCH  15  16
ATOM     16  N   UNL A   1      32.018  23.874  24.628  1.00  0.00    -0.352 N 
ATOM     17  H   UNL A   1      31.036  23.938  24.632  1.00  0.00     0.167 HD
BRANCH  16  18
ATOM     18  C   UNL A   1      32.829  25.473  24.276  1.00  0.00     0.088 A 
ATOM     19  C   UNL A   1      33.273  26.454  25.398  1.00  0.00     0.147 A 
ATOM     20  C   UNL A   1      32.890  26.116  23.014  1.00  0.00     0.040 A 
ATOM     21  F   UNL A   1      33.071  26.277  26.724  1.00  0.00    -0.205 F 
ATOM     22  C   UNL A   1      33.744  27.758  25.241  1.00  0.00     0.041 A 
ATOM     23  C   UNL A   1      33.318  27.511  22.941  1.00  0.00     0.017 A 
ATOM     24  I   UNL A   1      32.552  25.591  21.054  1.00  0.00    -0.042 I 
ATOM     25  C   UNL A   1      33.734  28.310  24.003  1.00  0.00     0.004 A 
ENDBRANCH  16  18
ENDBRANCH  15  16
ENDBRANCH   8   9
ENDBRANCH   6   8
ENDBRANCH   5   6
ENDBRANCH   4   5
ENDBRANCH   3   4
ENDBRANCH   2   3
ENDBRANCH   1   2
BRANCH   1  26
ATOM     26  C   UNL A   1      40.988  23.805  26.752  1.00  0.00     0.188 C 
BRANCH  26  27
ATOM     27  O   UNL A   1      41.193  22.719  27.625  1.00  0.00    -0.376 OA
BRANCH  27  28
ATOM     28  C   UNL A   1      42.399  22.781  28.395  1.00  0.00     0.202 C 
BRANCH  28  29
ATOM     29  C   UNL A   1      43.529  23.848  28.040  1.00  0.00     0.261 C 
BRANCH  29  30
ATOM     30  O   UNL A   1      43.606  25.058  28.906  1.00  0.00    -0.460 OA
BRANCH  30  31
ATOM     31  C   UNL A   1      43.368  26.367  28.434  1.00  0.00     0.338 C 
ATOM     32  O   UNL A   1      44.278  26.964  27.891  1.00  0.00    -0.246 OA
BRANCH  31  33
ATOM     33  C   UNL A   1      41.845  26.898  28.879  1.00  0.00     0.060 A 
ATOM     34  C   UNL A   1      40.353  27.960  28.177  1.00  0.00     0.016 A 
ATOM     35  C   UNL A   1      42.547  27.555  30.404  1.00  0.00     0.016 A 
ATOM     36  C   UNL A   1      39.964  29.620  29.002  1.00  0.00     0.010 A 
ATOM     37  C   UNL A   1      42.139  29.139  31.004  1.00  0.00     0.010 A 
ATOM     38  C   UNL A   1      40.889  30.281  30.439  1.00  0.00    -0.014 A 
BRANCH  38  39
ATOM     39  C   UNL A   1      40.677  31.734  31.617  1.00  0.00     0.031 A 
ATOM     40  C   UNL A   1      41.868  32.384  32.966  1.00  0.00     0.074 A 
ATOM     41  C   UNL A   1      39.756  32.699  31.390  1.00  0.00     0.049 A 
ATOM     42  N   UNL A   1      41.637  32.547  34.258  1.00  0.00    -0.248 NA
ATOM     43  C   UNL A   1      43.531  32.409  32.955  1.00  0.00     0.031 C 
ATOM     44  C   UNL A   1      39.779  34.073  31.929  1.00  0.00     0.029 A 
ATOM     45  N   UNL A   1      38.641  32.720  30.544  1.00  0.00    -0.354 N 
ATOM     46  C   UNL A   1      42.908  32.730  34.916  1.00  0.00     0.074 A 
ATOM     47  C   UNL A   1      43.909  32.094  34.169  1.00  0.00     0.031 C 
ATOM     48  C   UNL A   1      38.600  34.671  31.673  1.00  0.00     0.029 A 
ATOM     49  C   UNL A   1      37.739  33.643  31.121  1.00  0.00     0.049 A 
ATOM     50  H   UNL A   1      38.513  32.201  29.718  1.00  0.00     0.167 HD
ATOM     51  C   UNL A   1      43.225  33.830  35.669  1.00  0.00     0.037 A 
ATOM     52  C   UNL A   1      36.618  33.151  31.718  1.00  0.00     0.037 A 
ATOM     53  C   UNL A   1      42.048  34.654  35.670  1.00  0.00     0.049 A 
ATOM     54  C   UNL A   1      36.700  33.335  33.217  1.00  0.00     0.074 A 
ATOM     55  C   UNL A   1      41.642  35.732  34.906  1.00  0.00     0.029 A 
ATOM     56  N   UNL A   1      40.904  34.039  36.131  1.00  0.00    -0.354 N 
ATOM     57  N   UNL A   1      37.820  33.520  33.871  1.00  0.00    -0.248 NA
ATOM     58  C   UNL A   1      35.530  33.459  34.077  1.00  0.00     0.031 C 
ATOM     59  C   UNL A   1      40.211  35.723  34.896  1.00  0.00     0.029 A 
ATOM     60  C   UNL A   1      39.772  34.646  35.650  1.00  0.00     0.049 A 
ATOM     61  H   UNL A   1      40.900  33.259  36.732  1.00  0.00     0.167 HD
ATOM     62  C   UNL A   1      37.551  33.818  35.174  1.00  0.00     0.074 A 
ATOM     63  C   UNL A   1      36.105  33.758  35.256  1.00  0.00     0.031 C 
ATOM     64  C   UNL A   1      38.503  34.110  36.106  1.00  0.00     0.037 A 
BRANCH  51  65
ATOM     65  C   UNL A   1      44.654  34.286  36.036  1.00  0.00     0.064 A 
ATOM     66  C   UNL A   1      45.295  33.748  37.171  1.00  0.00     0.173 A 
ATOM     67  C   UNL A   1      45.457  35.223  35.325  1.00  0.00     0.173 A 
ATOM     68  F   UNL A   1      44.700  32.808  37.915  1.00  0.00    -0.203 F 
ATOM     69  C   UNL A   1      46.578  34.139  37.584  1.00  0.00     0.198 A 
ATOM     70  C   UNL A   1      46.707  35.674  35.784  1.00  0.00     0.198 A 
ATOM     71  F   UNL A   1      45.095  35.698  34.126  1.00  0.00    -0.203 F 
ATOM     72  F   UNL A   1      47.138  33.550  38.650  1.00  0.00    -0.200 F 
ATOM     73  C   UNL A   1      47.275  35.120  36.908  1.00  0.00     0.200 A 
ATOM     74  F   UNL A   1      47.362  36.635  35.114  1.00  0.00    -0.200 F 
ATOM     75  F   UNL A   1      48.495  35.499  37.315  1.00  0.00    -0.200 F 
ENDBRANCH  51  65
BRANCH  52  76
ATOM     76  C   UNL A   1      36.071  32.019  30.908  1.00  0.00     0.064 A 
ATOM     77  C   UNL A   1      35.524  32.356  29.645  1.00  0.00     0.173 A 
ATOM     78  C   UNL A   1      36.516  30.698  31.074  1.00  0.00     0.173 A 
ATOM     79  F   UNL A   1      35.157  33.624  29.391  1.00  0.00    -0.203 F 
ATOM     80  C   UNL A   1      35.491  31.446  28.591  1.00  0.00     0.198 A 
ATOM     81  C   UNL A   1      36.491  29.790  30.007  1.00  0.00     0.198 A 
ATOM     82  F   UNL A   1      37.095  30.319  32.220  1.00  0.00    -0.203 F 
ATOM     83  F   UNL A   1      35.089  31.847  27.375  1.00  0.00    -0.200 F 
ATOM     84  C   UNL A   1      35.979  30.163  28.773  1.00  0.00     0.200 A 
ATOM     85  F   UNL A   1      37.036  28.573  30.143  1.00  0.00    -0.200 F 
ATOM     86  F   UNL A   1      36.006  29.299  27.747  1.00  0.00    -0.200 F 
ENDBRANCH  52  76
BRANCH  64  87
ATOM     87  C   UNL A   1      38.324  33.873  37.592  1.00  0.00     0.064 A 
ATOM     88  C   UNL A   1      37.957  32.629  38.126  1.00  0.00     0.173 A 
ATOM     89  C   UNL A   1      38.716  34.848  38.550  1.00  0.00     0.173 A 
ATOM     90  F   UNL A   1      37.736  31.563  37.347  1.00  0.00    -0.203 F 
ATOM     91  C   UNL A   1      37.860  32.419  39.499  1.00  0.00     0.198 A 
ATOM     92  C   UNL A   1      38.749  34.586  39.914  1.00  0.00     0.198 A 
ATOM     93  F   UNL A   1      39.115  36.080  38.201  1.00  0.00    -0.203 F 
ATOM     94  F   UNL A   1      37.382  31.252  39.951  1.00  0.00    -0.200 F 
ATOM     95  C   UNL A   1      38.271  33.389  40.392  1.00  0.00     0.200 A 
ATOM     96  F   UNL A   1      39.254  35.501  40.754  1.00  0.00    -0.200 F 
ATOM     97  F   UNL A   1      38.217  33.164  41.711  1.00  0.00    -0.200 F 
ENDBRANCH  64  87
ENDBRANCH  38  39
ENDBRANCH  31  33
ENDBRANCH  30  31
ENDBRANCH  29  30
ENDBRANCH  28  29
ENDBRANCH  27  28
ENDBRANCH  26  27
ENDBRANCH   1  26
TORSDOF 20
ENDMDL
MODEL 3
REMARK VINA RESULT:     -12.6      6.142     10.047
REMARK SMILES Cc1ccc(Nc2c(F)cccc2I)c(CC(=O)OCCOCCOCCOC(=O)c2ccc(-c3c4nc(c(-c5c(F)c(F)c(F)c(F)c5F)c5ccc([nH]5)c(-c5c(F)c(F)c(F)c(F)c5F)c5nc(c(-c6c(F)c(F)c(F)c(F)c6F)c6ccc3[nH]6)C=C5)C=C4)cc2)c1
REMARK SMILES IDX 23 1 22 2 21 3 20 4 19 5 17 6 18 7 16 8 15 9 1 10 2 11 3 12
REMARK SMILES IDX 94 13 4 14 5 15 6 16 7 18 8 19 13 20 9 21 10 22 12 23 14 24
REMARK SMILES IDX 11 25 24 26 25 27 26 28 27 29 28 30 29 31 30 32 31 33 32 34
REMARK SMILES IDX 93 35 33 36 92 37 34 38 35 39 36 40 86 41 37 42 91 43 85 44
REMARK SMILES IDX 87 45 38 46 90 47 84 48 83 49 39 51 71 52 51 53 70 54 52 55
REMARK SMILES IDX 55 56 69 57 88 58 53 59 54 60 68 62 89 63 56 64 40 65 41 66
REMARK SMILES IDX 49 67 42 68 43 69 47 70 50 71 44 72 45 73 48 74 46 75 72 76
REMARK SMILES IDX 73 77 81 78 74 79 75 80 79 81 82 82 76 83 77 84 80 85 78 86
REMARK SMILES IDX 57 87 58 88 66 89 59 90 60 91 64 92 67 93 61 94 62 95 65 96
REMARK SMILES IDX 63 97
REMARK H PARENT 6 17 87 50 55 61
REMARK Flexibility Score: inf
ROOT
ATOM      1  C   UNL A   1      35.014  32.682  31.274  1.00  0.00     0.188 C 
ENDROOT
BRANCH   1   2
ATOM      2  O   UNL A   1      34.368  32.483  30.046  1.00  0.00    -0.376 OA
BRANCH   2   3
ATOM      3  C   UNL A   1      35.032  31.852  28.981  1.00  0.00     0.202 C 
BRANCH   3   4
ATOM      4  C   UNL A   1      34.469  30.973  27.751  1.00  0.00     0.261 C 
BRANCH   4   5
ATOM      5  O   UNL A   1      33.676  29.369  27.512  1.00  0.00    -0.463 OA
BRANCH   5   6
ATOM      6  C   UNL A   1      32.290  28.558  27.218  1.00  0.00     0.310 C 
ATOM      7  O   UNL A   1      31.499  27.901  27.908  1.00  0.00    -0.252 OA
BRANCH   6   8
ATOM      8  C   UNL A   1      31.723  28.871  25.946  1.00  0.00     0.160 C 
BRANCH   8   9
ATOM      9  C   UNL A   1      31.573  27.505  25.371  1.00  0.00    -0.013 A 
ATOM     10  C   UNL A   1      28.882  28.207  22.749  1.00  0.00     0.044 C 
ATOM     11  C   UNL A   1      30.168  27.755  23.363  1.00  0.00    -0.051 A 
ATOM     12  C   UNL A   1      31.327  27.543  22.651  1.00  0.00     0.005 A 
ATOM     13  C   UNL A   1      30.272  27.644  24.728  1.00  0.00     0.009 A 
ATOM     14  C   UNL A   1      32.542  27.205  23.326  1.00  0.00     0.026 A 
ATOM     15  C   UNL A   1      32.787  26.945  24.894  1.00  0.00     0.042 A 
BRANCH  15  16
ATOM     16  N   UNL A   1      34.209  25.731  25.661  1.00  0.00    -0.352 N 
ATOM     17  H   UNL A   1      34.854  26.212  26.227  1.00  0.00     0.167 HD
BRANCH  16  18
ATOM     18  C   UNL A   1      34.569  23.943  25.545  1.00  0.00     0.088 A 
ATOM     19  C   UNL A   1      35.977  23.350  25.829  1.00  0.00     0.147 A 
ATOM     20  C   UNL A   1      33.741  22.965  24.937  1.00  0.00     0.040 A 
ATOM     21  F   UNL A   1      37.086  24.065  26.134  1.00  0.00    -0.205 F 
ATOM     22  C   UNL A   1      36.401  22.039  25.612  1.00  0.00     0.041 A 
ATOM     23  C   UNL A   1      34.283  21.635  24.669  1.00  0.00     0.017 A 
ATOM     24  I   UNL A   1      31.792  22.852  24.292  1.00  0.00    -0.042 I 
ATOM     25  C   UNL A   1      35.559  21.176  24.991  1.00  0.00     0.004 A 
ENDBRANCH  16  18
ENDBRANCH  15  16
ENDBRANCH   8   9
ENDBRANCH   6   8
ENDBRANCH   5   6
ENDBRANCH   4   5
ENDBRANCH   3   4
ENDBRANCH   2   3
ENDBRANCH   1   2
BRANCH   1  26
ATOM     26  C   UNL A   1      35.190  34.066  31.911  1.00  0.00     0.188 C 
BRANCH  26  27
ATOM     27  O   UNL A   1      36.515  34.460  32.176  1.00  0.00    -0.376 OA
BRANCH  27  28
ATOM     28  C   UNL A   1      36.904  34.392  33.553  1.00  0.00     0.202 C 
BRANCH  28  29
ATOM     29  C   UNL A   1      36.611  33.081  34.410  1.00  0.00     0.261 C 
BRANCH  29  30
ATOM     30  O   UNL A   1      37.031  33.105  35.839  1.00  0.00    -0.460 OA
BRANCH  30  31
ATOM     31  C   UNL A   1      38.027  32.257  36.370  1.00  0.00     0.338 C 
ATOM     32  O   UNL A   1      37.775  31.073  36.499  1.00  0.00    -0.246 OA
BRANCH  31  33
ATOM     33  C   UNL A   1      39.359  33.136  36.872  1.00  0.00     0.060 A 
ATOM     34  C   UNL A   1      39.822  34.916  37.556  1.00  0.00     0.016 A 
ATOM     35  C   UNL A   1      40.187  32.717  35.327  1.00  0.00     0.016 A 
ATOM     36  C   UNL A   1      40.862  36.058  36.460  1.00  0.00     0.010 A 
ATOM     37  C   UNL A   1      41.055  33.901  34.390  1.00  0.00     0.010 A 
ATOM     38  C   UNL A   1      41.484  35.584  34.803  1.00  0.00    -0.014 A 
BRANCH  38  39
ATOM     39  C   UNL A   1      42.674  36.335  33.552  1.00  0.00     0.031 A 
ATOM     40  C   UNL A   1      43.293  38.139  33.399  1.00  0.00     0.074 A 
ATOM     41  C   UNL A   1      43.494  35.560  32.804  1.00  0.00     0.049 A 
ATOM     42  N   UNL A   1      43.208  38.952  32.360  1.00  0.00    -0.248 NA
ATOM     43  C   UNL A   1      43.600  39.235  34.613  1.00  0.00     0.031 C 
ATOM     44  C   UNL A   1      44.749  35.989  32.155  1.00  0.00     0.029 A 
ATOM     45  N   UNL A   1      43.461  34.187  32.533  1.00  0.00    -0.354 N 
ATOM     46  C   UNL A   1      43.496  40.290  32.821  1.00  0.00     0.074 A 
ATOM     47  C   UNL A   1      43.164  40.391  34.178  1.00  0.00     0.031 C 
ATOM     48  C   UNL A   1      45.173  35.018  31.323  1.00  0.00     0.029 A 
ATOM     49  C   UNL A   1      44.115  34.027  31.289  1.00  0.00     0.049 A 
ATOM     50  H   UNL A   1      43.065  33.481  33.092  1.00  0.00     0.167 HD
ATOM     51  C   UNL A   1      44.499  41.070  32.311  1.00  0.00     0.037 A 
ATOM     52  C   UNL A   1      43.353  33.725  30.202  1.00  0.00     0.037 A 
ATOM     53  C   UNL A   1      45.102  40.296  31.262  1.00  0.00     0.049 A 
ATOM     54  C   UNL A   1      43.308  34.902  29.252  1.00  0.00     0.074 A 
ATOM     55  C   UNL A   1      46.204  39.463  31.209  1.00  0.00     0.029 A 
ATOM     56  N   UNL A   1      44.238  39.877  30.273  1.00  0.00    -0.354 N 
ATOM     57  N   UNL A   1      43.572  36.136  29.603  1.00  0.00    -0.248 NA
ATOM     58  C   UNL A   1      43.094  34.769  27.817  1.00  0.00     0.031 C 
ATOM     59  C   UNL A   1      45.956  38.505  30.175  1.00  0.00     0.029 A 
ATOM     60  C   UNL A   1      44.714  38.770  29.618  1.00  0.00     0.049 A 
ATOM     61  H   UNL A   1      43.384  40.318  30.063  1.00  0.00     0.167 HD
ATOM     62  C   UNL A   1      43.610  36.933  28.499  1.00  0.00     0.074 A 
ATOM     63  C   UNL A   1      43.296  36.034  27.406  1.00  0.00     0.031 C 
ATOM     64  C   UNL A   1      43.907  38.264  28.524  1.00  0.00     0.037 A 
BRANCH  51  65
ATOM     65  C   UNL A   1      45.125  42.298  33.010  1.00  0.00     0.064 A 
ATOM     66  C   UNL A   1      44.437  43.527  33.024  1.00  0.00     0.173 A 
ATOM     67  C   UNL A   1      46.374  42.342  33.692  1.00  0.00     0.173 A 
ATOM     68  F   UNL A   1      43.220  43.640  32.478  1.00  0.00    -0.203 F 
ATOM     69  C   UNL A   1      44.958  44.692  33.610  1.00  0.00     0.198 A 
ATOM     70  C   UNL A   1      46.932  43.526  34.207  1.00  0.00     0.198 A 
ATOM     71  F   UNL A   1      47.083  41.233  33.944  1.00  0.00    -0.203 F 
ATOM     72  F   UNL A   1      44.223  45.813  33.621  1.00  0.00    -0.200 F 
ATOM     73  C   UNL A   1      46.215  44.699  34.179  1.00  0.00     0.200 A 
ATOM     74  F   UNL A   1      48.160  43.511  34.748  1.00  0.00    -0.200 F 
ATOM     75  F   UNL A   1      46.714  45.818  34.726  1.00  0.00    -0.200 F 
ENDBRANCH  51  65
BRANCH  52  76
ATOM     76  C   UNL A   1      42.288  32.748  30.587  1.00  0.00     0.064 A 
ATOM     77  C   UNL A   1      40.970  33.261  30.685  1.00  0.00     0.173 A 
ATOM     78  C   UNL A   1      42.416  31.371  30.350  1.00  0.00     0.173 A 
ATOM     79  F   UNL A   1      40.776  34.583  30.825  1.00  0.00    -0.203 F 
ATOM     80  C   UNL A   1      39.851  32.456  30.485  1.00  0.00     0.198 A 
ATOM     81  C   UNL A   1      41.287  30.568  30.140  1.00  0.00     0.198 A 
ATOM     82  F   UNL A   1      43.627  30.822  30.191  1.00  0.00    -0.203 F 
ATOM     83  F   UNL A   1      38.628  33.008  30.453  1.00  0.00    -0.200 F 
ATOM     84  C   UNL A   1      40.012  31.108  30.209  1.00  0.00     0.200 A 
ATOM     85  F   UNL A   1      41.430  29.281  29.788  1.00  0.00    -0.200 F 
ATOM     86  F   UNL A   1      38.943  30.339  29.957  1.00  0.00    -0.200 F 
ENDBRANCH  52  76
BRANCH  64  87
ATOM     87  C   UNL A   1      43.410  39.255  27.490  1.00  0.00     0.064 A 
ATOM     88  C   UNL A   1      42.101  39.758  27.484  1.00  0.00     0.173 A 
ATOM     89  C   UNL A   1      44.303  39.890  26.585  1.00  0.00     0.173 A 
ATOM     90  F   UNL A   1      41.197  39.385  28.399  1.00  0.00    -0.203 F 
ATOM     91  C   UNL A   1      41.685  40.715  26.562  1.00  0.00     0.198 A 
ATOM     92  C   UNL A   1      43.914  40.942  25.763  1.00  0.00     0.198 A 
ATOM     93  F   UNL A   1      45.595  39.542  26.483  1.00  0.00    -0.203 F 
ATOM     94  F   UNL A   1      40.393  41.065  26.518  1.00  0.00    -0.200 F 
ATOM     95  C   UNL A   1      42.593  41.319  25.715  1.00  0.00     0.200 A 
ATOM     96  F   UNL A   1      44.833  41.586  25.030  1.00  0.00    -0.200 F 
ATOM     97  F   UNL A   1      42.196  42.271  24.862  1.00  0.00    -0.200 F 
ENDBRANCH  64  87
ENDBRANCH  38  39
ENDBRANCH  31  33
ENDBRANCH  30  31
ENDBRANCH  29  30
ENDBRANCH  28  29
ENDBRANCH  27  28
ENDBRANCH  26  27
ENDBRANCH   1  26
TORSDOF 20
ENDMDL
