MODEL 1
REMARK VINA RESULT:     -11.4      0.000      0.000
REMARK SMILES O=C(OCCOCCOCCOC(=O)[C@@H]1CN(Cc2ccccc2)c2ccccc2O1)c1ccc(-c2c3nc(c(-c4c(F)c(F)c(F)c(F)c4F)c4ccc([nH]4)c(-c4c(F)c(F)c(F)c(F)c4F)c4nc(c(-c5c(F)c(F)c(F)c(F)c5F)c5ccc2[nH]5)C=C4)C=C3)cc1
REMARK SMILES IDX 7 1 6 2 5 3 4 4 3 5 2 6 1 7 32 8 33 9 94 10 34 11 93 12
REMARK SMILES IDX 35 13 36 14 37 15 87 16 38 17 92 18 86 19 88 20 39 21 91 22
REMARK SMILES IDX 85 23 84 24 40 26 72 27 52 28 71 29 53 30 56 31 70 32 89 33
REMARK SMILES IDX 54 34 55 35 69 37 90 38 57 39 41 40 42 41 50 42 43 43 44 44
REMARK SMILES IDX 48 45 51 46 45 47 46 48 49 49 47 50 73 51 74 52 82 53 75 54
REMARK SMILES IDX 76 55 80 56 83 57 77 58 78 59 81 60 79 61 58 62 59 63 67 64
REMARK SMILES IDX 60 65 61 66 65 67 68 68 62 69 63 70 66 71 64 72 8 73 9 74
REMARK SMILES IDX 10 75 11 76 12 77 13 78 14 79 15 80 16 81 31 82 17 83 30 84
REMARK SMILES IDX 25 85 29 86 26 87 28 88 27 89 18 90 19 91 20 92 24 93 21 94
REMARK SMILES IDX 23 95 22 96
REMARK H PARENT 88 25 56 36
REMARK Flexibility Score: inf
ROOT
ATOM      1  C   UNL A   1      34.290  20.761  24.811  1.00  0.00     0.188 C 
ENDROOT
BRANCH   1   2
ATOM      2  O   UNL A   1      34.479  22.073  24.278  1.00  0.00    -0.376 OA
BRANCH   2   3
ATOM      3  C   UNL A   1      35.750  22.655  24.587  1.00  0.00     0.202 C 
BRANCH   3   4
ATOM      4  C   UNL A   1      36.965  21.713  24.514  1.00  0.00     0.261 C 
BRANCH   4   5
ATOM      5  O   UNL A   1      37.611  21.471  25.777  1.00  0.00    -0.460 OA
BRANCH   5   6
ATOM      6  C   UNL A   1      38.909  21.656  26.123  1.00  0.00     0.338 C 
ATOM      7  O   UNL A   1      39.692  20.714  26.013  1.00  0.00    -0.246 OA
BRANCH   6   8
ATOM      8  C   UNL A   1      39.448  22.945  26.643  1.00  0.00     0.060 A 
ATOM      9  C   UNL A   1      38.906  24.197  26.365  1.00  0.00     0.016 A 
ATOM     10  C   UNL A   1      40.527  22.879  27.541  1.00  0.00     0.016 A 
ATOM     11  C   UNL A   1      39.474  25.360  26.855  1.00  0.00     0.010 A 
ATOM     12  C   UNL A   1      41.078  24.042  28.084  1.00  0.00     0.010 A 
ATOM     13  C   UNL A   1      40.573  25.289  27.702  1.00  0.00    -0.014 A 
BRANCH  13  14
ATOM     14  C   UNL A   1      41.251  26.551  28.035  1.00  0.00     0.031 A 
ATOM     15  C   UNL A   1      42.630  26.768  27.500  1.00  0.00     0.074 A 
ATOM     16  C   UNL A   1      40.571  27.519  28.672  1.00  0.00     0.049 A 
ATOM     17  N   UNL A   1      43.434  27.782  27.665  1.00  0.00    -0.248 NA
ATOM     18  C   UNL A   1      43.180  25.692  26.657  1.00  0.00     0.031 C 
ATOM     19  C   UNL A   1      39.185  27.402  29.128  1.00  0.00     0.029 A 
ATOM     20  N   UNL A   1      40.930  28.794  29.013  1.00  0.00    -0.354 N 
ATOM     21  C   UNL A   1      44.601  27.442  26.997  1.00  0.00     0.074 A 
ATOM     22  C   UNL A   1      44.402  26.135  26.414  1.00  0.00     0.031 C 
ATOM     23  C   UNL A   1      38.800  28.571  29.660  1.00  0.00     0.029 A 
ATOM     24  C   UNL A   1      39.927  29.494  29.638  1.00  0.00     0.049 A 
ATOM     25  H   UNL A   1      41.820  29.172  28.828  1.00  0.00     0.167 HD
ATOM     26  C   UNL A   1      45.741  28.162  26.905  1.00  0.00     0.037 A 
ATOM     27  C   UNL A   1      39.942  30.735  30.158  1.00  0.00     0.037 A 
ATOM     28  C   UNL A   1      45.889  29.462  27.502  1.00  0.00     0.049 A 
ATOM     29  C   UNL A   1      41.234  31.503  30.074  1.00  0.00     0.074 A 
ATOM     30  C   UNL A   1      47.002  30.279  27.540  1.00  0.00     0.029 A 
ATOM     31  N   UNL A   1      44.872  30.133  28.174  1.00  0.00    -0.354 N 
ATOM     32  N   UNL A   1      42.364  31.157  29.500  1.00  0.00    -0.248 NA
ATOM     33  C   UNL A   1      41.268  32.816  30.727  1.00  0.00     0.031 C 
ATOM     34  C   UNL A   1      46.674  31.419  28.284  1.00  0.00     0.029 A 
ATOM     35  C   UNL A   1      45.336  31.345  28.652  1.00  0.00     0.049 A 
ATOM     36  H   UNL A   1      43.955  29.795  28.292  1.00  0.00     0.167 HD
ATOM     37  C   UNL A   1      43.246  32.203  29.724  1.00  0.00     0.074 A 
ATOM     38  C   UNL A   1      42.504  33.214  30.454  1.00  0.00     0.031 C 
ATOM     39  C   UNL A   1      44.553  32.317  29.377  1.00  0.00     0.037 A 
BRANCH  26  40
ATOM     40  C   UNL A   1      46.911  27.503  26.235  1.00  0.00     0.064 A 
ATOM     41  C   UNL A   1      47.873  26.771  26.947  1.00  0.00     0.173 A 
ATOM     42  C   UNL A   1      47.109  27.672  24.855  1.00  0.00     0.173 A 
ATOM     43  F   UNL A   1      47.752  26.609  28.274  1.00  0.00    -0.203 F 
ATOM     44  C   UNL A   1      49.011  26.274  26.313  1.00  0.00     0.198 A 
ATOM     45  C   UNL A   1      48.229  27.145  24.219  1.00  0.00     0.198 A 
ATOM     46  F   UNL A   1      46.227  28.372  24.126  1.00  0.00    -0.203 F 
ATOM     47  F   UNL A   1      49.957  25.649  27.029  1.00  0.00    -0.200 F 
ATOM     48  C   UNL A   1      49.186  26.459  24.949  1.00  0.00     0.200 A 
ATOM     49  F   UNL A   1      48.395  27.323  22.900  1.00  0.00    -0.200 F 
ATOM     50  F   UNL A   1      50.288  25.993  24.344  1.00  0.00    -0.200 F 
ENDBRANCH  26  40
BRANCH  27  51
ATOM     51  C   UNL A   1      38.730  31.284  30.827  1.00  0.00     0.064 A 
ATOM     52  C   UNL A   1      38.482  31.062  32.188  1.00  0.00     0.173 A 
ATOM     53  C   UNL A   1      37.794  32.059  30.120  1.00  0.00     0.173 A 
ATOM     54  F   UNL A   1      39.330  30.312  32.909  1.00  0.00    -0.203 F 
ATOM     55  C   UNL A   1      37.346  31.579  32.811  1.00  0.00     0.198 A 
ATOM     56  C   UNL A   1      36.678  32.605  30.751  1.00  0.00     0.198 A 
ATOM     57  F   UNL A   1      37.971  32.298  28.813  1.00  0.00    -0.203 F 
ATOM     58  F   UNL A   1      37.112  31.307  34.103  1.00  0.00    -0.200 F 
ATOM     59  C   UNL A   1      36.449  32.358  32.095  1.00  0.00     0.200 A 
ATOM     60  F   UNL A   1      35.820  33.363  30.054  1.00  0.00    -0.200 F 
ATOM     61  F   UNL A   1      35.359  32.853  32.696  1.00  0.00    -0.200 F 
ENDBRANCH  27  51
BRANCH  39  62
ATOM     62  C   UNL A   1      45.246  33.585  29.774  1.00  0.00     0.064 A 
ATOM     63  C   UNL A   1      45.949  33.690  30.984  1.00  0.00     0.173 A 
ATOM     64  C   UNL A   1      45.257  34.686  28.904  1.00  0.00     0.173 A 
ATOM     65  F   UNL A   1      45.956  32.668  31.852  1.00  0.00    -0.203 F 
ATOM     66  C   UNL A   1      46.618  34.863  31.319  1.00  0.00     0.198 A 
ATOM     67  C   UNL A   1      45.956  35.843  29.227  1.00  0.00     0.198 A 
ATOM     68  F   UNL A   1      44.607  34.628  27.732  1.00  0.00    -0.203 F 
ATOM     69  F   UNL A   1      47.244  34.960  32.499  1.00  0.00    -0.200 F 
ATOM     70  C   UNL A   1      46.630  35.933  30.436  1.00  0.00     0.200 A 
ATOM     71  F   UNL A   1      45.982  36.869  28.367  1.00  0.00    -0.200 F 
ATOM     72  F   UNL A   1      47.287  37.057  30.754  1.00  0.00    -0.200 F 
ENDBRANCH  39  62
ENDBRANCH  13  14
ENDBRANCH   6   8
ENDBRANCH   5   6
ENDBRANCH   4   5
ENDBRANCH   3   4
ENDBRANCH   2   3
ENDBRANCH   1   2
BRANCH   1  73
ATOM     73  C   UNL A   1      33.369  20.748  26.023  1.00  0.00     0.188 C 
BRANCH  73  74
ATOM     74  O   UNL A   1      33.844  21.347  27.223  1.00  0.00    -0.376 OA
BRANCH  74  75
ATOM     75  C   UNL A   1      33.098  22.407  27.808  1.00  0.00     0.202 C 
BRANCH  75  76
ATOM     76  C   UNL A   1      31.930  23.026  27.022  1.00  0.00     0.261 C 
BRANCH  76  77
ATOM     77  O   UNL A   1      31.728  24.436  27.178  1.00  0.00    -0.460 OA
BRANCH  77  78
ATOM     78  C   UNL A   1      30.907  24.977  26.232  1.00  0.00     0.349 C 
ATOM     79  O   UNL A   1      29.779  25.384  26.471  1.00  0.00    -0.248 OA
BRANCH  78  80
ATOM     80  C   UNL A   1      31.609  25.110  24.881  1.00  0.00     0.301 C 
ATOM     81  C   UNL A   1      32.853  26.004  24.978  1.00  0.00     0.174 C 
ATOM     82  O   UNL A   1      30.732  25.552  23.846  1.00  0.00    -0.475 OA
ATOM     83  N   UNL A   1      32.487  27.398  25.289  1.00  0.00    -0.360 N 
ATOM     84  C   UNL A   1      30.550  26.916  23.838  1.00  0.00     0.144 A 
ATOM     85  C   UNL A   1      31.397  27.829  24.507  1.00  0.00     0.080 A 
ATOM     86  C   UNL A   1      29.443  27.349  23.102  1.00  0.00     0.049 A 
ATOM     87  C   UNL A   1      31.107  29.188  24.346  1.00  0.00     0.030 A 
ATOM     88  C   UNL A   1      29.145  28.704  23.021  1.00  0.00     0.004 A 
ATOM     89  C   UNL A   1      29.983  29.626  23.638  1.00  0.00     0.002 A 
BRANCH  83  90
ATOM     90  C   UNL A   1      32.493  27.761  26.729  1.00  0.00     0.152 C 
BRANCH  90  91
ATOM     91  C   UNL A   1      33.395  28.909  27.101  1.00  0.00    -0.029 A 
ATOM     92  C   UNL A   1      34.767  28.716  27.301  1.00  0.00     0.005 A 
ATOM     93  C   UNL A   1      32.851  30.190  27.284  1.00  0.00     0.005 A 
ATOM     94  C   UNL A   1      35.585  29.798  27.627  1.00  0.00     0.000 A 
ATOM     95  C   UNL A   1      33.674  31.275  27.570  1.00  0.00     0.000 A 
ATOM     96  C   UNL A   1      35.042  31.079  27.737  1.00  0.00     0.000 A 
ENDBRANCH  90  91
ENDBRANCH  83  90
ENDBRANCH  78  80
ENDBRANCH  77  78
ENDBRANCH  76  77
ENDBRANCH  75  76
ENDBRANCH  74  75
ENDBRANCH  73  74
ENDBRANCH   1  73
TORSDOF 19
ENDMDL
MODEL 2
REMARK VINA RESULT:     -11.3      4.027      7.577
REMARK SMILES O=C(OCCOCCOCCOC(=O)[C@@H]1CN(Cc2ccccc2)c2ccccc2O1)c1ccc(-c2c3nc(c(-c4c(F)c(F)c(F)c(F)c4F)c4ccc([nH]4)c(-c4c(F)c(F)c(F)c(F)c4F)c4nc(c(-c5c(F)c(F)c(F)c(F)c5F)c5ccc2[nH]5)C=C4)C=C3)cc1
REMARK SMILES IDX 7 1 6 2 5 3 4 4 3 5 2 6 1 7 32 8 33 9 94 10 34 11 93 12
REMARK SMILES IDX 35 13 36 14 37 15 87 16 38 17 92 18 86 19 88 20 39 21 91 22
REMARK SMILES IDX 85 23 84 24 40 26 72 27 52 28 71 29 53 30 56 31 70 32 89 33
REMARK SMILES IDX 54 34 55 35 69 37 90 38 57 39 41 40 42 41 50 42 43 43 44 44
REMARK SMILES IDX 48 45 51 46 45 47 46 48 49 49 47 50 73 51 74 52 82 53 75 54
REMARK SMILES IDX 76 55 80 56 83 57 77 58 78 59 81 60 79 61 58 62 59 63 67 64
REMARK SMILES IDX 60 65 61 66 65 67 68 68 62 69 63 70 66 71 64 72 8 73 9 74
REMARK SMILES IDX 10 75 11 76 12 77 13 78 14 79 15 80 16 81 31 82 17 83 30 84
REMARK SMILES IDX 25 85 29 86 26 87 28 88 27 89 18 90 19 91 20 92 24 93 21 94
REMARK SMILES IDX 23 95 22 96
REMARK H PARENT 88 25 56 36
REMARK Flexibility Score: inf
ROOT
ATOM      1  C   UNL A   1      32.703  27.798  23.863  1.00  0.00     0.188 C 
ENDROOT
BRANCH   1   2
ATOM      2  O   UNL A   1      32.784  28.976  24.668  1.00  0.00    -0.376 OA
BRANCH   2   3
ATOM      3  C   UNL A   1      31.548  29.351  25.286  1.00  0.00     0.202 C 
BRANCH   3   4
ATOM      4  C   UNL A   1      31.636  30.427  26.385  1.00  0.00     0.261 C 
BRANCH   4   5
ATOM      5  O   UNL A   1      32.761  31.316  26.263  1.00  0.00    -0.460 OA
BRANCH   5   6
ATOM      6  C   UNL A   1      33.440  31.975  27.234  1.00  0.00     0.338 C 
ATOM      7  O   UNL A   1      33.027  33.072  27.606  1.00  0.00    -0.246 OA
BRANCH   6   8
ATOM      8  C   UNL A   1      34.675  31.447  27.880  1.00  0.00     0.060 A 
ATOM      9  C   UNL A   1      34.876  30.114  28.230  1.00  0.00     0.016 A 
ATOM     10  C   UNL A   1      35.738  32.345  28.071  1.00  0.00     0.016 A 
ATOM     11  C   UNL A   1      36.035  29.693  28.856  1.00  0.00     0.010 A 
ATOM     12  C   UNL A   1      36.935  31.923  28.656  1.00  0.00     0.010 A 
ATOM     13  C   UNL A   1      37.063  30.599  29.089  1.00  0.00    -0.014 A 
BRANCH  13  14
ATOM     14  C   UNL A   1      38.186  30.147  29.925  1.00  0.00     0.031 A 
ATOM     15  C   UNL A   1      39.227  29.282  29.290  1.00  0.00     0.074 A 
ATOM     16  C   UNL A   1      38.323  30.637  31.168  1.00  0.00     0.049 A 
ATOM     17  N   UNL A   1      40.294  28.747  29.817  1.00  0.00    -0.248 NA
ATOM     18  C   UNL A   1      39.041  28.977  27.861  1.00  0.00     0.031 C 
ATOM     19  C   UNL A   1      37.391  31.569  31.805  1.00  0.00     0.029 A 
ATOM     20  N   UNL A   1      39.306  30.454  32.102  1.00  0.00    -0.354 N 
ATOM     21  C   UNL A   1      40.873  28.000  28.801  1.00  0.00     0.074 A 
ATOM     22  C   UNL A   1      40.049  28.155  27.625  1.00  0.00     0.031 C 
ATOM     23  C   UNL A   1      37.866  31.903  33.014  1.00  0.00     0.029 A 
ATOM     24  C   UNL A   1      39.097  31.164  33.260  1.00  0.00     0.049 A 
ATOM     25  H   UNL A   1      40.087  29.873  31.958  1.00  0.00     0.167 HD
ATOM     26  C   UNL A   1      41.988  27.238  28.868  1.00  0.00     0.037 A 
ATOM     27  C   UNL A   1      39.814  31.180  34.398  1.00  0.00     0.037 A 
ATOM     28  C   UNL A   1      42.777  27.118  30.064  1.00  0.00     0.049 A 
ATOM     29  C   UNL A   1      41.032  30.296  34.459  1.00  0.00     0.074 A 
ATOM     30  C   UNL A   1      43.893  26.339  30.295  1.00  0.00     0.029 A 
ATOM     31  N   UNL A   1      42.517  27.811  31.244  1.00  0.00    -0.354 N 
ATOM     32  N   UNL A   1      41.546  29.534  33.520  1.00  0.00    -0.248 NA
ATOM     33  C   UNL A   1      41.753  30.249  35.735  1.00  0.00     0.031 C 
ATOM     34  C   UNL A   1      44.274  26.516  31.629  1.00  0.00     0.029 A 
ATOM     35  C   UNL A   1      43.438  27.459  32.214  1.00  0.00     0.049 A 
ATOM     36  H   UNL A   1      41.785  28.456  31.369  1.00  0.00     0.167 HD
ATOM     37  C   UNL A   1      42.647  28.913  34.090  1.00  0.00     0.074 A 
ATOM     38  C   UNL A   1      42.747  29.420  35.445  1.00  0.00     0.031 C 
ATOM     39  C   UNL A   1      43.491  27.995  33.554  1.00  0.00     0.037 A 
BRANCH  26  40
ATOM     40  C   UNL A   1      42.325  26.418  27.658  1.00  0.00     0.064 A 
ATOM     41  C   UNL A   1      41.729  25.175  27.400  1.00  0.00     0.173 A 
ATOM     42  C   UNL A   1      43.324  26.859  26.774  1.00  0.00     0.173 A 
ATOM     43  F   UNL A   1      40.794  24.689  28.231  1.00  0.00    -0.203 F 
ATOM     44  C   UNL A   1      42.151  24.384  26.332  1.00  0.00     0.198 A 
ATOM     45  C   UNL A   1      43.719  26.082  25.689  1.00  0.00     0.198 A 
ATOM     46  F   UNL A   1      43.936  28.035  26.978  1.00  0.00    -0.203 F 
ATOM     47  F   UNL A   1      41.625  23.164  26.154  1.00  0.00    -0.200 F 
ATOM     48  C   UNL A   1      43.144  24.840  25.476  1.00  0.00     0.200 A 
ATOM     49  F   UNL A   1      44.677  26.525  24.863  1.00  0.00    -0.200 F 
ATOM     50  F   UNL A   1      43.559  24.072  24.459  1.00  0.00    -0.200 F 
ENDBRANCH  26  40
BRANCH  27  51
ATOM     51  C   UNL A   1      39.374  32.012  35.551  1.00  0.00     0.064 A 
ATOM     52  C   UNL A   1      38.519  31.500  36.537  1.00  0.00     0.173 A 
ATOM     53  C   UNL A   1      39.811  33.339  35.704  1.00  0.00     0.173 A 
ATOM     54  F   UNL A   1      38.052  30.247  36.434  1.00  0.00    -0.203 F 
ATOM     55  C   UNL A   1      38.110  32.283  37.617  1.00  0.00     0.198 A 
ATOM     56  C   UNL A   1      39.431  34.108  36.803  1.00  0.00     0.198 A 
ATOM     57  F   UNL A   1      40.624  33.888  34.789  1.00  0.00    -0.203 F 
ATOM     58  F   UNL A   1      37.252  31.781  38.516  1.00  0.00    -0.200 F 
ATOM     59  C   UNL A   1      38.573  33.583  37.755  1.00  0.00     0.200 A 
ATOM     60  F   UNL A   1      39.889  35.361  36.932  1.00  0.00    -0.200 F 
ATOM     61  F   UNL A   1      38.178  34.331  38.793  1.00  0.00    -0.200 F 
ENDBRANCH  27  51
BRANCH  39  62
ATOM     62  C   UNL A   1      44.597  27.500  34.437  1.00  0.00     0.064 A 
ATOM     63  C   UNL A   1      44.452  26.343  35.216  1.00  0.00     0.173 A 
ATOM     64  C   UNL A   1      45.834  28.160  34.455  1.00  0.00     0.173 A 
ATOM     65  F   UNL A   1      43.283  25.686  35.240  1.00  0.00    -0.203 F 
ATOM     66  C   UNL A   1      45.502  25.878  36.001  1.00  0.00     0.198 A 
ATOM     67  C   UNL A   1      46.892  27.672  35.214  1.00  0.00     0.198 A 
ATOM     68  F   UNL A   1      46.022  29.266  33.718  1.00  0.00    -0.203 F 
ATOM     69  F   UNL A   1      45.329  24.797  36.774  1.00  0.00    -0.200 F 
ATOM     70  C   UNL A   1      46.723  26.536  35.991  1.00  0.00     0.200 A 
ATOM     71  F   UNL A   1      48.075  28.298  35.189  1.00  0.00    -0.200 F 
ATOM     72  F   UNL A   1      47.737  26.078  36.737  1.00  0.00    -0.200 F 
ENDBRANCH  39  62
ENDBRANCH  13  14
ENDBRANCH   6   8
ENDBRANCH   5   6
ENDBRANCH   4   5
ENDBRANCH   3   4
ENDBRANCH   2   3
ENDBRANCH   1   2
BRANCH   1  73
ATOM     73  C   UNL A   1      31.284  27.259  23.753  1.00  0.00     0.188 C 
BRANCH  73  74
ATOM     74  O   UNL A   1      31.054  25.911  24.147  1.00  0.00    -0.376 OA
BRANCH  74  75
ATOM     75  C   UNL A   1      30.435  25.656  25.401  1.00  0.00     0.202 C 
BRANCH  75  76
ATOM     76  C   UNL A   1      31.229  24.923  26.496  1.00  0.00     0.261 C 
BRANCH  76  77
ATOM     77  O   UNL A   1      31.883  23.709  26.111  1.00  0.00    -0.460 OA
BRANCH  77  78
ATOM     78  C   UNL A   1      33.240  23.754  26.246  1.00  0.00     0.349 C 
ATOM     79  O   UNL A   1      33.828  23.431  27.268  1.00  0.00    -0.248 OA
BRANCH  78  80
ATOM     80  C   UNL A   1      33.926  24.147  24.939  1.00  0.00     0.301 C 
ATOM     81  C   UNL A   1      33.792  23.046  23.878  1.00  0.00     0.174 C 
ATOM     82  O   UNL A   1      35.291  24.524  25.125  1.00  0.00    -0.475 OA
ATOM     83  N   UNL A   1      34.526  21.829  24.274  1.00  0.00    -0.360 N 
ATOM     84  C   UNL A   1      36.144  23.448  25.200  1.00  0.00     0.144 A 
ATOM     85  C   UNL A   1      35.806  22.143  24.774  1.00  0.00     0.080 A 
ATOM     86  C   UNL A   1      37.401  23.739  25.738  1.00  0.00     0.049 A 
ATOM     87  C   UNL A   1      36.811  21.173  24.862  1.00  0.00     0.030 A 
ATOM     88  C   UNL A   1      38.352  22.735  25.875  1.00  0.00     0.004 A 
ATOM     89  C   UNL A   1      38.059  21.452  25.429  1.00  0.00     0.002 A 
BRANCH  83  90
ATOM     90  C   UNL A   1      33.732  20.803  24.997  1.00  0.00     0.152 C 
BRANCH  90  91
ATOM     91  C   UNL A   1      33.612  19.473  24.300  1.00  0.00    -0.029 A 
ATOM     92  C   UNL A   1      32.598  19.234  23.365  1.00  0.00     0.005 A 
ATOM     93  C   UNL A   1      34.509  18.439  24.614  1.00  0.00     0.005 A 
ATOM     94  C   UNL A   1      32.519  18.000  22.719  1.00  0.00     0.000 A 
ATOM     95  C   UNL A   1      34.453  17.223  23.941  1.00  0.00     0.000 A 
ATOM     96  C   UNL A   1      33.459  17.006  22.989  1.00  0.00     0.000 A 
ENDBRANCH  90  91
ENDBRANCH  83  90
ENDBRANCH  78  80
ENDBRANCH  77  78
ENDBRANCH  76  77
ENDBRANCH  75  76
ENDBRANCH  74  75
ENDBRANCH  73  74
ENDBRANCH   1  73
TORSDOF 19
ENDMDL
MODEL 3
REMARK VINA RESULT:     -11.3      3.949      9.654
REMARK SMILES O=C(OCCOCCOCCOC(=O)[C@@H]1CN(Cc2ccccc2)c2ccccc2O1)c1ccc(-c2c3nc(c(-c4c(F)c(F)c(F)c(F)c4F)c4ccc([nH]4)c(-c4c(F)c(F)c(F)c(F)c4F)c4nc(c(-c5c(F)c(F)c(F)c(F)c5F)c5ccc2[nH]5)C=C4)C=C3)cc1
REMARK SMILES IDX 7 1 6 2 5 3 4 4 3 5 2 6 1 7 32 8 33 9 94 10 34 11 93 12
REMARK SMILES IDX 35 13 36 14 37 15 87 16 38 17 92 18 86 19 88 20 39 21 91 22
REMARK SMILES IDX 85 23 84 24 40 26 72 27 52 28 71 29 53 30 56 31 70 32 89 33
REMARK SMILES IDX 54 34 55 35 69 37 90 38 57 39 41 40 42 41 50 42 43 43 44 44
REMARK SMILES IDX 48 45 51 46 45 47 46 48 49 49 47 50 73 51 74 52 82 53 75 54
REMARK SMILES IDX 76 55 80 56 83 57 77 58 78 59 81 60 79 61 58 62 59 63 67 64
REMARK SMILES IDX 60 65 61 66 65 67 68 68 62 69 63 70 66 71 64 72 8 73 9 74
REMARK SMILES IDX 10 75 11 76 12 77 13 78 14 79 15 80 16 81 31 82 17 83 30 84
REMARK SMILES IDX 25 85 29 86 26 87 28 88 27 89 18 90 19 91 20 92 24 93 21 94
REMARK SMILES IDX 23 95 22 96
REMARK H PARENT 88 25 56 36
REMARK Flexibility Score: inf
ROOT
ATOM      1  C   UNL A   1      31.859  28.034  24.846  1.00  0.00     0.188 C 
ENDROOT
BRANCH   1   2
ATOM      2  O   UNL A   1      31.565  27.716  26.208  1.00  0.00    -0.376 OA
BRANCH   2   3
ATOM      3  C   UNL A   1      31.799  28.789  27.126  1.00  0.00     0.202 C 
BRANCH   3   4
ATOM      4  C   UNL A   1      31.712  30.212  26.544  1.00  0.00     0.261 C 
BRANCH   4   5
ATOM      5  O   UNL A   1      32.976  30.889  26.429  1.00  0.00    -0.460 OA
BRANCH   5   6
ATOM      6  C   UNL A   1      33.679  31.558  27.376  1.00  0.00     0.338 C 
ATOM      7  O   UNL A   1      33.234  32.620  27.806  1.00  0.00    -0.246 OA
BRANCH   6   8
ATOM      8  C   UNL A   1      34.978  31.080  27.931  1.00  0.00     0.060 A 
ATOM      9  C   UNL A   1      35.269  29.750  28.228  1.00  0.00     0.016 A 
ATOM     10  C   UNL A   1      36.003  32.027  28.083  1.00  0.00     0.016 A 
ATOM     11  C   UNL A   1      36.485  29.376  28.770  1.00  0.00     0.010 A 
ATOM     12  C   UNL A   1      37.255  31.655  28.581  1.00  0.00     0.010 A 
ATOM     13  C   UNL A   1      37.477  30.329  28.966  1.00  0.00    -0.014 A 
BRANCH  13  14
ATOM     14  C   UNL A   1      38.672  29.916  29.719  1.00  0.00     0.031 A 
ATOM     15  C   UNL A   1      38.807  30.387  31.131  1.00  0.00     0.074 A 
ATOM     16  C   UNL A   1      39.516  29.021  29.179  1.00  0.00     0.049 A 
ATOM     17  N   UNL A   1      39.767  30.173  31.988  1.00  0.00    -0.248 NA
ATOM     18  C   UNL A   1      37.705  31.215  31.652  1.00  0.00     0.031 C 
ATOM     19  C   UNL A   1      39.377  28.445  27.841  1.00  0.00     0.029 A 
ATOM     20  N   UNL A   1      40.628  28.413  29.693  1.00  0.00    -0.354 N 
ATOM     21  C   UNL A   1      39.412  30.884  33.126  1.00  0.00     0.074 A 
ATOM     22  C   UNL A   1      38.147  31.528  32.858  1.00  0.00     0.031 C 
ATOM     23  C   UNL A   1      40.349  27.540  27.651  1.00  0.00     0.029 A 
ATOM     24  C   UNL A   1      41.211  27.520  28.826  1.00  0.00     0.049 A 
ATOM     25  H   UNL A   1      40.977  28.596  30.595  1.00  0.00     0.167 HD
ATOM     26  C   UNL A   1      40.106  30.995  34.280  1.00  0.00     0.037 A 
ATOM     27  C   UNL A   1      42.335  26.795  28.968  1.00  0.00     0.037 A 
ATOM     28  C   UNL A   1      41.363  30.332  34.499  1.00  0.00     0.049 A 
ATOM     29  C   UNL A   1      43.108  26.963  30.249  1.00  0.00     0.074 A 
ATOM     30  C   UNL A   1      42.203  30.400  35.593  1.00  0.00     0.029 A 
ATOM     31  N   UNL A   1      41.959  29.468  33.585  1.00  0.00    -0.354 N 
ATOM     32  N   UNL A   1      42.810  27.689  31.303  1.00  0.00    -0.248 NA
ATOM     33  C   UNL A   1      44.381  26.242  30.355  1.00  0.00     0.031 C 
ATOM     34  C   UNL A   1      43.334  29.623  35.316  1.00  0.00     0.029 A 
ATOM     35  C   UNL A   1      43.169  29.014  34.079  1.00  0.00     0.049 A 
ATOM     36  H   UNL A   1      41.576  29.216  32.714  1.00  0.00     0.167 HD
ATOM     37  C   UNL A   1      43.856  27.517  32.197  1.00  0.00     0.074 A 
ATOM     38  C   UNL A   1      44.777  26.585  31.574  1.00  0.00     0.031 C 
ATOM     39  C   UNL A   1      44.051  28.085  33.414  1.00  0.00     0.037 A 
BRANCH  26  40
ATOM     40  C   UNL A   1      39.564  31.941  35.312  1.00  0.00     0.064 A 
ATOM     41  C   UNL A   1      39.958  33.286  35.382  1.00  0.00     0.173 A 
ATOM     42  C   UNL A   1      38.683  31.466  36.297  1.00  0.00     0.173 A 
ATOM     43  F   UNL A   1      40.826  33.783  34.487  1.00  0.00    -0.203 F 
ATOM     44  C   UNL A   1      39.528  34.106  36.424  1.00  0.00     0.198 A 
ATOM     45  C   UNL A   1      38.229  32.298  37.317  1.00  0.00     0.198 A 
ATOM     46  F   UNL A   1      38.281  30.187  36.285  1.00  0.00    -0.203 F 
ATOM     47  F   UNL A   1      39.983  35.364  36.517  1.00  0.00    -0.200 F 
ATOM     48  C   UNL A   1      38.662  33.612  37.389  1.00  0.00     0.200 A 
ATOM     49  F   UNL A   1      37.390  31.818  38.247  1.00  0.00    -0.200 F 
ATOM     50  F   UNL A   1      38.261  34.397  38.398  1.00  0.00    -0.200 F 
ENDBRANCH  26  40
BRANCH  27  51
ATOM     51  C   UNL A   1      42.799  25.904  27.868  1.00  0.00     0.064 A 
ATOM     52  C   UNL A   1      43.678  26.364  26.878  1.00  0.00     0.173 A 
ATOM     53  C   UNL A   1      42.384  24.564  27.789  1.00  0.00     0.173 A 
ATOM     54  F   UNL A   1      44.093  27.640  26.890  1.00  0.00    -0.203 F 
ATOM     55  C   UNL A   1      44.112  25.526  25.850  1.00  0.00     0.198 A 
ATOM     56  C   UNL A   1      42.845  23.718  26.782  1.00  0.00     0.198 A 
ATOM     57  F   UNL A   1      41.536  24.069  28.702  1.00  0.00    -0.203 F 
ATOM     58  F   UNL A   1      44.913  26.009  24.890  1.00  0.00    -0.200 F 
ATOM     59  C   UNL A   1      43.702  24.202  25.807  1.00  0.00     0.200 A 
ATOM     60  F   UNL A   1      42.451  22.437  26.753  1.00  0.00    -0.200 F 
ATOM     61  F   UNL A   1      44.120  23.400  24.819  1.00  0.00    -0.200 F 
ENDBRANCH  27  51
BRANCH  39  62
ATOM     62  C   UNL A   1      45.302  27.698  34.144  1.00  0.00     0.064 A 
ATOM     63  C   UNL A   1      46.485  28.443  34.021  1.00  0.00     0.173 A 
ATOM     64  C   UNL A   1      45.295  26.606  35.024  1.00  0.00     0.173 A 
ATOM     65  F   UNL A   1      46.542  29.488  33.182  1.00  0.00    -0.203 F 
ATOM     66  C   UNL A   1      47.625  28.090  34.736  1.00  0.00     0.198 A 
ATOM     67  C   UNL A   1      46.427  26.278  35.763  1.00  0.00     0.198 A 
ATOM     68  F   UNL A   1      44.184  25.871  35.181  1.00  0.00    -0.203 F 
ATOM     69  F   UNL A   1      48.758  28.785  34.569  1.00  0.00    -0.200 F 
ATOM     70  C   UNL A   1      47.591  27.015  35.613  1.00  0.00     0.200 A 
ATOM     71  F   UNL A   1      46.388  25.252  36.623  1.00  0.00    -0.200 F 
ATOM     72  F   UNL A   1      48.687  26.687  36.311  1.00  0.00    -0.200 F 
ENDBRANCH  39  62
ENDBRANCH  13  14
ENDBRANCH   6   8
ENDBRANCH   5   6
ENDBRANCH   4   5
ENDBRANCH   3   4
ENDBRANCH   2   3
ENDBRANCH   1   2
BRANCH   1  73
ATOM     73  C   UNL A   1      31.511  26.900  23.891  1.00  0.00     0.188 C 
BRANCH  73  74
ATOM     74  O   UNL A   1      30.406  26.067  24.224  1.00  0.00    -0.376 OA
BRANCH  74  75
ATOM     75  C   UNL A   1      30.648  24.720  24.607  1.00  0.00     0.202 C 
BRANCH  75  76
ATOM     76  C   UNL A   1      32.014  24.341  25.205  1.00  0.00     0.261 C 
BRANCH  76  77
ATOM     77  O   UNL A   1      32.903  23.604  24.357  1.00  0.00    -0.460 OA
BRANCH  77  78
ATOM     78  C   UNL A   1      32.489  22.328  24.110  1.00  0.00     0.349 C 
ATOM     79  O   UNL A   1      32.327  21.877  22.986  1.00  0.00    -0.248 OA
BRANCH  78  80
ATOM     80  C   UNL A   1      32.362  21.515  25.398  1.00  0.00     0.301 C 
ATOM     81  C   UNL A   1      33.685  21.481  26.175  1.00  0.00     0.174 C 
ATOM     82  O   UNL A   1      31.860  20.199  25.170  1.00  0.00    -0.475 OA
ATOM     83  N   UNL A   1      34.724  20.745  25.430  1.00  0.00    -0.360 N 
ATOM     84  C   UNL A   1      32.829  19.314  24.757  1.00  0.00     0.144 A 
ATOM     85  C   UNL A   1      34.217  19.545  24.893  1.00  0.00     0.080 A 
ATOM     86  C   UNL A   1      32.335  18.140  24.180  1.00  0.00     0.049 A 
ATOM     87  C   UNL A   1      35.069  18.516  24.477  1.00  0.00     0.030 A 
ATOM     88  C   UNL A   1      33.213  17.168  23.714  1.00  0.00     0.004 A 
ATOM     89  C   UNL A   1      34.582  17.353  23.870  1.00  0.00     0.002 A 
BRANCH  83  90
ATOM     90  C   UNL A   1      35.607  21.571  24.569  1.00  0.00     0.152 C 
BRANCH  90  91
ATOM     91  C   UNL A   1      36.826  22.137  25.250  1.00  0.00    -0.029 A 
ATOM     92  C   UNL A   1      37.968  21.355  25.457  1.00  0.00     0.005 A 
ATOM     93  C   UNL A   1      36.811  23.462  25.715  1.00  0.00     0.005 A 
ATOM     94  C   UNL A   1      39.091  21.907  26.074  1.00  0.00     0.000 A 
ATOM     95  C   UNL A   1      37.945  24.023  26.295  1.00  0.00     0.000 A 
ATOM     96  C   UNL A   1      39.087  23.246  26.469  1.00  0.00     0.000 A 
ENDBRANCH  90  91
ENDBRANCH  83  90
ENDBRANCH  78  80
ENDBRANCH  77  78
ENDBRANCH  76  77
ENDBRANCH  75  76
ENDBRANCH  74  75
ENDBRANCH  73  74
ENDBRANCH   1  73
TORSDOF 19
ENDMDL
