MODEL 1
REMARK VINA RESULT:     -11.6      0.000      0.000
REMARK SMILES Cc1ccc(C(=O)N[C@@H]2C=C[C@H](C(=O)OCCOCCOCCOC(=O)c3ccc(-c4c5nc(c(-c6c(F)c(F)c(F)c(F)c6F)c6ccc([nH]6)c(-c6c(F)c(F)c(F)c(F)c6F)c6nc(c(-c7c(F)c(F)c(F)c(F)c7F)c7ccc4[nH]7)C=C6)C=C5)cc3)C2)c(F)c1
REMARK SMILES IDX 19 1 18 2 17 3 16 4 15 5 13 6 14 7 12 8 9 9 10 10 90 11
REMARK SMILES IDX 11 12 8 13 6 14 7 15 5 17 1 18 2 19 3 20 93 21 4 22 91 23
REMARK SMILES IDX 92 24 20 25 21 26 22 27 23 28 24 29 25 30 26 31 27 32 28 33
REMARK SMILES IDX 89 34 29 35 88 36 30 37 31 38 32 39 82 40 33 41 87 42 81 43
REMARK SMILES IDX 83 44 34 45 86 46 80 47 79 48 35 50 67 51 47 52 66 53 48 54
REMARK SMILES IDX 51 55 65 56 84 57 49 58 50 59 64 61 85 62 52 63 36 64 37 65
REMARK SMILES IDX 45 66 38 67 39 68 43 69 46 70 40 71 41 72 44 73 42 74 68 75
REMARK SMILES IDX 69 76 77 77 70 78 71 79 75 80 78 81 72 82 73 83 76 84 74 85
REMARK SMILES IDX 53 86 54 87 62 88 55 89 56 90 60 91 63 92 57 93 58 94 61 95
REMARK SMILES IDX 59 96
REMARK H PARENT 8 16 83 49 51 60
REMARK Flexibility Score: inf
ROOT
ATOM      1  C   UNL A   1      42.097  19.409  27.511  1.00  0.00     0.188 C 
ENDROOT
BRANCH   1   2
ATOM      2  O   UNL A   1      40.826  20.034  27.606  1.00  0.00    -0.376 OA
BRANCH   2   3
ATOM      3  C   UNL A   1      40.697  21.395  27.253  1.00  0.00     0.202 C 
BRANCH   3   4
ATOM      4  C   UNL A   1      39.879  21.696  25.997  1.00  0.00     0.261 C 
BRANCH   4   5
ATOM      5  O   UNL A   1      38.485  21.978  26.199  1.00  0.00    -0.463 OA
BRANCH   5   6
ATOM      6  C   UNL A   1      38.113  23.270  25.946  1.00  0.00     0.312 C 
ATOM      7  O   UNL A   1      38.548  24.249  26.538  1.00  0.00    -0.252 OA
BRANCH   6   8
ATOM      8  C   UNL A   1      36.978  23.301  24.922  1.00  0.00     0.124 C 
ATOM      9  C   UNL A   1      34.527  23.117  25.252  1.00  0.00     0.106 C 
ATOM     10  C   UNL A   1      35.136  21.823  24.843  1.00  0.00    -0.006 C 
ATOM     11  C   UNL A   1      35.738  24.055  25.409  1.00  0.00     0.048 C 
ATOM     12  C   UNL A   1      36.453  21.924  24.646  1.00  0.00    -0.014 C 
BRANCH   9  13
ATOM     13  N   UNL A   1      33.755  22.911  26.460  1.00  0.00    -0.346 N 
ATOM     14  C   UNL A   1      32.522  23.441  26.750  1.00  0.00     0.254 C 
ATOM     15  O   UNL A   1      31.894  23.116  27.754  1.00  0.00    -0.269 OA
ATOM     16  H   UNL A   1      34.156  22.328  27.144  1.00  0.00     0.164 HD
BRANCH  14  17
ATOM     17  C   UNL A   1      32.014  24.503  25.876  1.00  0.00     0.075 A 
ATOM     18  C   UNL A   1      29.699  27.412  23.745  1.00  0.00     0.044 C 
ATOM     19  C   UNL A   1      30.575  26.408  24.431  1.00  0.00    -0.048 A 
ATOM     20  C   UNL A   1      31.541  26.805  25.368  1.00  0.00     0.004 A 
ATOM     21  C   UNL A   1      30.412  25.051  24.158  1.00  0.00     0.043 A 
ATOM     22  C   UNL A   1      32.278  25.853  26.084  1.00  0.00     0.017 A 
ATOM     23  C   UNL A   1      31.096  24.114  24.915  1.00  0.00     0.136 A 
ATOM     24  F   UNL A   1      30.724  22.834  24.853  1.00  0.00    -0.206 F 
ENDBRANCH  14  17
ENDBRANCH   9  13
ENDBRANCH   6   8
ENDBRANCH   5   6
ENDBRANCH   4   5
ENDBRANCH   3   4
ENDBRANCH   2   3
ENDBRANCH   1   2
BRANCH   1  25
ATOM     25  C   UNL A   1      42.600  18.750  26.213  1.00  0.00     0.188 C 
BRANCH  25  26
ATOM     26  O   UNL A   1      43.829  18.039  26.324  1.00  0.00    -0.376 OA
BRANCH  26  27
ATOM     27  C   UNL A   1      44.887  18.534  25.511  1.00  0.00     0.202 C 
BRANCH  27  28
ATOM     28  C   UNL A   1      44.323  19.189  24.246  1.00  0.00     0.261 C 
BRANCH  28  29
ATOM     29  O   UNL A   1      44.947  20.437  23.921  1.00  0.00    -0.460 OA
BRANCH  29  30
ATOM     30  C   UNL A   1      44.470  21.452  24.656  1.00  0.00     0.338 C 
ATOM     31  O   UNL A   1      43.323  21.875  24.691  1.00  0.00    -0.246 OA
BRANCH  30  32
ATOM     32  C   UNL A   1      45.555  22.123  25.378  1.00  0.00     0.060 A 
ATOM     33  C   UNL A   1      45.324  22.205  26.754  1.00  0.00     0.016 A 
ATOM     34  C   UNL A   1      46.028  23.215  24.664  1.00  0.00     0.016 A 
ATOM     35  C   UNL A   1      45.141  23.438  27.343  1.00  0.00     0.010 A 
ATOM     36  C   UNL A   1      45.908  24.449  25.259  1.00  0.00     0.010 A 
ATOM     37  C   UNL A   1      45.355  24.553  26.549  1.00  0.00    -0.014 A 
BRANCH  37  38
ATOM     38  C   UNL A   1      45.179  25.903  27.038  1.00  0.00     0.031 A 
ATOM     39  C   UNL A   1      43.858  26.531  26.883  1.00  0.00     0.074 A 
ATOM     40  C   UNL A   1      46.138  26.408  27.837  1.00  0.00     0.049 A 
ATOM     41  N   UNL A   1      43.579  27.757  27.171  1.00  0.00    -0.248 NA
ATOM     42  C   UNL A   1      42.733  25.808  26.292  1.00  0.00     0.031 C 
ATOM     43  C   UNL A   1      45.935  27.319  28.950  1.00  0.00     0.029 A 
ATOM     44  N   UNL A   1      47.527  26.237  27.764  1.00  0.00    -0.354 N 
ATOM     45  C   UNL A   1      42.205  27.870  27.142  1.00  0.00     0.074 A 
ATOM     46  C   UNL A   1      41.755  26.702  26.429  1.00  0.00     0.031 C 
ATOM     47  C   UNL A   1      47.125  27.784  29.359  1.00  0.00     0.029 A 
ATOM     48  C   UNL A   1      48.108  27.370  28.373  1.00  0.00     0.049 A 
ATOM     49  H   UNL A   1      48.004  25.474  27.365  1.00  0.00     0.167 HD
ATOM     50  C   UNL A   1      41.613  28.824  27.919  1.00  0.00     0.037 A 
ATOM     51  C   UNL A   1      48.852  28.262  27.647  1.00  0.00     0.037 A 
ATOM     52  C   UNL A   1      42.629  29.694  28.517  1.00  0.00     0.049 A 
ATOM     53  C   UNL A   1      48.256  29.642  27.558  1.00  0.00     0.074 A 
ATOM     54  C   UNL A   1      43.239  29.680  29.762  1.00  0.00     0.029 A 
ATOM     55  N   UNL A   1      43.407  30.516  27.706  1.00  0.00    -0.354 N 
ATOM     56  N   UNL A   1      46.997  29.898  27.769  1.00  0.00    -0.248 NA
ATOM     57  C   UNL A   1      49.019  30.831  27.187  1.00  0.00     0.031 C 
ATOM     58  C   UNL A   1      44.432  30.436  29.673  1.00  0.00     0.029 A 
ATOM     59  C   UNL A   1      44.534  30.936  28.387  1.00  0.00     0.049 A 
ATOM     60  H   UNL A   1      43.185  30.763  26.779  1.00  0.00     0.167 HD
ATOM     61  C   UNL A   1      46.769  31.231  27.586  1.00  0.00     0.074 A 
ATOM     62  C   UNL A   1      48.066  31.778  27.228  1.00  0.00     0.031 C 
ATOM     63  C   UNL A   1      45.531  31.777  27.745  1.00  0.00     0.037 A 
BRANCH  50  64
ATOM     64  C   UNL A   1      40.190  28.717  28.452  1.00  0.00     0.064 A 
ATOM     65  C   UNL A   1      39.107  29.188  27.675  1.00  0.00     0.173 A 
ATOM     66  C   UNL A   1      39.821  28.271  29.736  1.00  0.00     0.173 A 
ATOM     67  F   UNL A   1      39.261  29.518  26.386  1.00  0.00    -0.203 F 
ATOM     68  C   UNL A   1      37.814  29.337  28.187  1.00  0.00     0.198 A 
ATOM     69  C   UNL A   1      38.539  28.456  30.265  1.00  0.00     0.198 A 
ATOM     70  F   UNL A   1      40.658  27.577  30.511  1.00  0.00    -0.203 F 
ATOM     71  F   UNL A   1      36.840  29.819  27.403  1.00  0.00    -0.200 F 
ATOM     72  C   UNL A   1      37.538  29.008  29.497  1.00  0.00     0.200 A 
ATOM     73  F   UNL A   1      38.283  28.088  31.529  1.00  0.00    -0.200 F 
ATOM     74  F   UNL A   1      36.311  29.186  30.001  1.00  0.00    -0.200 F 
ENDBRANCH  50  64
BRANCH  51  75
ATOM     75  C   UNL A   1      49.608  27.622  26.544  1.00  0.00     0.064 A 
ATOM     76  C   UNL A   1      49.029  27.642  25.266  1.00  0.00     0.173 A 
ATOM     77  C   UNL A   1      50.999  27.492  26.647  1.00  0.00     0.173 A 
ATOM     78  F   UNL A   1      47.696  27.723  25.131  1.00  0.00    -0.203 F 
ATOM     79  C   UNL A   1      49.825  27.728  24.133  1.00  0.00     0.198 A 
ATOM     80  C   UNL A   1      51.792  27.598  25.511  1.00  0.00     0.198 A 
ATOM     81  F   UNL A   1      51.590  27.418  27.847  1.00  0.00    -0.203 F 
ATOM     82  F   UNL A   1      49.265  27.864  22.923  1.00  0.00    -0.200 F 
ATOM     83  C   UNL A   1      51.202  27.771  24.266  1.00  0.00     0.200 A 
ATOM     84  F   UNL A   1      53.126  27.621  25.637  1.00  0.00    -0.200 F 
ATOM     85  F   UNL A   1      51.949  28.030  23.187  1.00  0.00    -0.200 F 
ENDBRANCH  51  75
BRANCH  63  86
ATOM     86  C   UNL A   1      45.186  33.198  27.421  1.00  0.00     0.064 A 
ATOM     87  C   UNL A   1      44.378  33.566  26.334  1.00  0.00     0.173 A 
ATOM     88  C   UNL A   1      45.578  34.240  28.291  1.00  0.00     0.173 A 
ATOM     89  F   UNL A   1      43.859  32.643  25.513  1.00  0.00    -0.203 F 
ATOM     90  C   UNL A   1      44.050  34.899  26.088  1.00  0.00     0.198 A 
ATOM     91  C   UNL A   1      45.205  35.562  28.072  1.00  0.00     0.198 A 
ATOM     92  F   UNL A   1      46.322  33.996  29.379  1.00  0.00    -0.203 F 
ATOM     93  F   UNL A   1      43.321  35.215  25.009  1.00  0.00    -0.200 F 
ATOM     94  C   UNL A   1      44.458  35.895  26.959  1.00  0.00     0.200 A 
ATOM     95  F   UNL A   1      45.564  36.509  28.949  1.00  0.00    -0.200 F 
ATOM     96  F   UNL A   1      44.118  37.171  26.734  1.00  0.00    -0.200 F 
ENDBRANCH  63  86
ENDBRANCH  37  38
ENDBRANCH  30  32
ENDBRANCH  29  30
ENDBRANCH  28  29
ENDBRANCH  27  28
ENDBRANCH  26  27
ENDBRANCH  25  26
ENDBRANCH   1  25
TORSDOF 19
ENDMDL
MODEL 2
REMARK VINA RESULT:     -11.4      1.575      2.291
REMARK SMILES Cc1ccc(C(=O)N[C@@H]2C=C[C@H](C(=O)OCCOCCOCCOC(=O)c3ccc(-c4c5nc(c(-c6c(F)c(F)c(F)c(F)c6F)c6ccc([nH]6)c(-c6c(F)c(F)c(F)c(F)c6F)c6nc(c(-c7c(F)c(F)c(F)c(F)c7F)c7ccc4[nH]7)C=C6)C=C5)cc3)C2)c(F)c1
REMARK SMILES IDX 19 1 18 2 17 3 16 4 15 5 13 6 14 7 12 8 9 9 10 10 90 11
REMARK SMILES IDX 11 12 8 13 6 14 7 15 5 17 1 18 2 19 3 20 93 21 4 22 91 23
REMARK SMILES IDX 92 24 20 25 21 26 22 27 23 28 24 29 25 30 26 31 27 32 28 33
REMARK SMILES IDX 89 34 29 35 88 36 30 37 31 38 32 39 82 40 33 41 87 42 81 43
REMARK SMILES IDX 83 44 34 45 86 46 80 47 79 48 35 50 67 51 47 52 66 53 48 54
REMARK SMILES IDX 51 55 65 56 84 57 49 58 50 59 64 61 85 62 52 63 36 64 37 65
REMARK SMILES IDX 45 66 38 67 39 68 43 69 46 70 40 71 41 72 44 73 42 74 68 75
REMARK SMILES IDX 69 76 77 77 70 78 71 79 75 80 78 81 72 82 73 83 76 84 74 85
REMARK SMILES IDX 53 86 54 87 62 88 55 89 56 90 60 91 63 92 57 93 58 94 61 95
REMARK SMILES IDX 59 96
REMARK H PARENT 8 16 83 49 51 60
REMARK Flexibility Score: inf
ROOT
ATOM      1  C   UNL A   1      41.288  19.892  26.209  1.00  0.00     0.188 C 
ENDROOT
BRANCH   1   2
ATOM      2  O   UNL A   1      39.979  19.534  25.790  1.00  0.00    -0.376 OA
BRANCH   2   3
ATOM      3  C   UNL A   1      39.012  20.545  25.606  1.00  0.00     0.202 C 
BRANCH   3   4
ATOM      4  C   UNL A   1      37.682  20.110  24.988  1.00  0.00     0.261 C 
BRANCH   4   5
ATOM      5  O   UNL A   1      36.731  21.154  24.729  1.00  0.00    -0.463 OA
BRANCH   5   6
ATOM      6  C   UNL A   1      35.436  20.849  25.048  1.00  0.00     0.312 C 
ATOM      7  O   UNL A   1      34.872  19.804  24.748  1.00  0.00    -0.252 OA
BRANCH   6   8
ATOM      8  C   UNL A   1      34.756  22.052  25.702  1.00  0.00     0.124 C 
ATOM      9  C   UNL A   1      33.796  24.095  24.676  1.00  0.00     0.106 C 
ATOM     10  C   UNL A   1      35.168  24.324  25.203  1.00  0.00    -0.006 C 
ATOM     11  C   UNL A   1      33.566  22.589  24.903  1.00  0.00     0.048 C 
ATOM     12  C   UNL A   1      35.680  23.231  25.773  1.00  0.00    -0.014 C 
BRANCH   9  13
ATOM     13  N   UNL A   1      33.748  24.517  23.292  1.00  0.00    -0.346 N 
ATOM     14  C   UNL A   1      33.563  25.795  22.826  1.00  0.00     0.254 C 
ATOM     15  O   UNL A   1      33.652  26.072  21.633  1.00  0.00    -0.269 OA
ATOM     16  H   UNL A   1      33.860  23.813  22.613  1.00  0.00     0.164 HD
BRANCH  14  17
ATOM     17  C   UNL A   1      33.143  26.818  23.790  1.00  0.00     0.075 A 
ATOM     18  C   UNL A   1      31.793  29.059  27.183  1.00  0.00     0.044 C 
ATOM     19  C   UNL A   1      32.253  28.348  25.946  1.00  0.00    -0.048 A 
ATOM     20  C   UNL A   1      33.584  28.438  25.509  1.00  0.00     0.004 A 
ATOM     21  C   UNL A   1      31.355  27.561  25.229  1.00  0.00     0.043 A 
ATOM     22  C   UNL A   1      34.032  27.685  24.417  1.00  0.00     0.017 A 
ATOM     23  C   UNL A   1      31.819  26.769  24.191  1.00  0.00     0.136 A 
ATOM     24  F   UNL A   1      31.028  25.810  23.705  1.00  0.00    -0.206 F 
ENDBRANCH  14  17
ENDBRANCH   9  13
ENDBRANCH   6   8
ENDBRANCH   5   6
ENDBRANCH   4   5
ENDBRANCH   3   4
ENDBRANCH   2   3
ENDBRANCH   1   2
BRANCH   1  25
ATOM     25  C   UNL A   1      42.312  18.852  26.702  1.00  0.00     0.188 C 
BRANCH  25  26
ATOM     26  O   UNL A   1      42.985  18.124  25.681  1.00  0.00    -0.376 OA
BRANCH  26  27
ATOM     27  C   UNL A   1      44.403  18.080  25.807  1.00  0.00     0.202 C 
BRANCH  27  28
ATOM     28  C   UNL A   1      45.053  19.061  24.826  1.00  0.00     0.261 C 
BRANCH  28  29
ATOM     29  O   UNL A   1      45.751  20.135  25.469  1.00  0.00    -0.460 OA
BRANCH  29  30
ATOM     30  C   UNL A   1      45.594  21.302  24.827  1.00  0.00     0.338 C 
ATOM     31  O   UNL A   1      46.394  21.862  24.091  1.00  0.00    -0.246 OA
BRANCH  30  32
ATOM     32  C   UNL A   1      44.329  21.936  25.207  1.00  0.00     0.060 A 
ATOM     33  C   UNL A   1      43.946  22.955  24.331  1.00  0.00     0.016 A 
ATOM     34  C   UNL A   1      44.251  22.107  26.583  1.00  0.00     0.016 A 
ATOM     35  C   UNL A   1      43.900  24.258  24.777  1.00  0.00     0.010 A 
ATOM     36  C   UNL A   1      44.146  23.396  27.047  1.00  0.00     0.010 A 
ATOM     37  C   UNL A   1      44.091  24.466  26.134  1.00  0.00    -0.014 A 
BRANCH  37  38
ATOM     38  C   UNL A   1      44.087  25.785  26.727  1.00  0.00     0.031 A 
ATOM     39  C   UNL A   1      42.815  26.524  26.770  1.00  0.00     0.074 A 
ATOM     40  C   UNL A   1      45.169  26.154  27.439  1.00  0.00     0.049 A 
ATOM     41  N   UNL A   1      42.676  27.743  27.167  1.00  0.00    -0.248 NA
ATOM     42  C   UNL A   1      41.574  25.936  26.268  1.00  0.00     0.031 C 
ATOM     43  C   UNL A   1      45.170  26.992  28.625  1.00  0.00     0.029 A 
ATOM     44  N   UNL A   1      46.521  25.881  27.193  1.00  0.00    -0.354 N 
ATOM     45  C   UNL A   1      41.322  27.964  27.306  1.00  0.00     0.074 A 
ATOM     46  C   UNL A   1      40.697  26.891  26.577  1.00  0.00     0.031 C 
ATOM     47  C   UNL A   1      46.433  27.332  28.921  1.00  0.00     0.029 A 
ATOM     48  C   UNL A   1      47.261  26.917  27.802  1.00  0.00     0.049 A 
ATOM     49  H   UNL A   1      46.883  25.115  26.692  1.00  0.00     0.167 HD
ATOM     50  C   UNL A   1      40.904  28.901  28.208  1.00  0.00     0.037 A 
ATOM     51  C   UNL A   1      47.993  27.800  27.053  1.00  0.00     0.037 A 
ATOM     52  C   UNL A   1      42.051  29.642  28.738  1.00  0.00     0.049 A 
ATOM     53  C   UNL A   1      47.512  29.225  27.124  1.00  0.00     0.074 A 
ATOM     54  C   UNL A   1      42.793  29.489  29.900  1.00  0.00     0.029 A 
ATOM     55  N   UNL A   1      42.802  30.459  27.897  1.00  0.00    -0.354 N 
ATOM     56  N   UNL A   1      46.310  29.562  27.498  1.00  0.00    -0.248 NA
ATOM     57  C   UNL A   1      48.328  30.375  26.745  1.00  0.00     0.031 C 
ATOM     58  C   UNL A   1      44.030  30.154  29.721  1.00  0.00     0.029 A 
ATOM     59  C   UNL A   1      44.030  30.739  28.467  1.00  0.00     0.049 A 
ATOM     60  H   UNL A   1      42.500  30.791  27.021  1.00  0.00     0.167 HD
ATOM     61  C   UNL A   1      46.179  30.918  27.430  1.00  0.00     0.074 A 
ATOM     62  C   UNL A   1      47.470  31.387  26.959  1.00  0.00     0.031 C 
ATOM     63  C   UNL A   1      45.017  31.546  27.768  1.00  0.00     0.037 A 
BRANCH  50  64
ATOM     64  C   UNL A   1      39.546  28.866  28.896  1.00  0.00     0.064 A 
ATOM     65  C   UNL A   1      38.406  29.382  28.238  1.00  0.00     0.173 A 
ATOM     66  C   UNL A   1      39.302  28.447  30.219  1.00  0.00     0.173 A 
ATOM     67  F   UNL A   1      38.432  29.694  26.935  1.00  0.00    -0.203 F 
ATOM     68  C   UNL A   1      37.187  29.596  28.888  1.00  0.00     0.198 A 
ATOM     69  C   UNL A   1      38.095  28.697  30.884  1.00  0.00     0.198 A 
ATOM     70  F   UNL A   1      40.186  27.720  30.905  1.00  0.00    -0.203 F 
ATOM     71  F   UNL A   1      36.155  30.118  28.210  1.00  0.00    -0.200 F 
ATOM     72  C   UNL A   1      37.042  29.290  30.224  1.00  0.00     0.200 A 
ATOM     73  F   UNL A   1      37.965  28.350  32.173  1.00  0.00    -0.200 F 
ATOM     74  F   UNL A   1      35.889  29.530  30.859  1.00  0.00    -0.200 F 
ENDBRANCH  50  64
BRANCH  51  75
ATOM     75  C   UNL A   1      48.564  27.187  25.830  1.00  0.00     0.064 A 
ATOM     76  C   UNL A   1      47.895  27.419  24.618  1.00  0.00     0.173 A 
ATOM     77  C   UNL A   1      49.927  26.866  25.791  1.00  0.00     0.173 A 
ATOM     78  F   UNL A   1      46.581  27.687  24.614  1.00  0.00    -0.203 F 
ATOM     79  C   UNL A   1      48.605  27.519  23.430  1.00  0.00     0.198 A 
ATOM     80  C   UNL A   1      50.636  26.987  24.602  1.00  0.00     0.198 A 
ATOM     81  F   UNL A   1      50.593  26.588  26.920  1.00  0.00    -0.203 F 
ATOM     82  F   UNL A   1      47.976  27.855  22.295  1.00  0.00    -0.200 F 
ATOM     83  C   UNL A   1      49.980  27.367  23.439  1.00  0.00     0.200 A 
ATOM     84  F   UNL A   1      51.965  26.821  24.607  1.00  0.00    -0.200 F 
ATOM     85  F   UNL A   1      50.669  27.638  22.326  1.00  0.00    -0.200 F 
ENDBRANCH  51  75
BRANCH  63  86
ATOM     86  C   UNL A   1      44.761  33.009  27.581  1.00  0.00     0.064 A 
ATOM     87  C   UNL A   1      45.171  33.986  28.501  1.00  0.00     0.173 A 
ATOM     88  C   UNL A   1      44.184  33.481  26.381  1.00  0.00     0.173 A 
ATOM     89  F   UNL A   1      45.831  33.652  29.618  1.00  0.00    -0.203 F 
ATOM     90  C   UNL A   1      44.946  35.343  28.271  1.00  0.00     0.198 A 
ATOM     91  C   UNL A   1      44.009  34.839  26.132  1.00  0.00     0.198 A 
ATOM     92  F   UNL A   1      43.787  32.637  25.418  1.00  0.00    -0.203 F 
ATOM     93  F   UNL A   1      45.304  36.241  29.200  1.00  0.00    -0.200 F 
ATOM     94  C   UNL A   1      44.371  35.769  27.086  1.00  0.00     0.200 A 
ATOM     95  F   UNL A   1      43.497  35.241  24.962  1.00  0.00    -0.200 F 
ATOM     96  F   UNL A   1      44.181  37.075  26.858  1.00  0.00    -0.200 F 
ENDBRANCH  63  86
ENDBRANCH  37  38
ENDBRANCH  30  32
ENDBRANCH  29  30
ENDBRANCH  28  29
ENDBRANCH  27  28
ENDBRANCH  26  27
ENDBRANCH  25  26
ENDBRANCH   1  25
TORSDOF 19
ENDMDL
MODEL 3
REMARK VINA RESULT:     -11.1      6.214     11.769
REMARK SMILES Cc1ccc(C(=O)N[C@@H]2C=C[C@H](C(=O)OCCOCCOCCOC(=O)c3ccc(-c4c5nc(c(-c6c(F)c(F)c(F)c(F)c6F)c6ccc([nH]6)c(-c6c(F)c(F)c(F)c(F)c6F)c6nc(c(-c7c(F)c(F)c(F)c(F)c7F)c7ccc4[nH]7)C=C6)C=C5)cc3)C2)c(F)c1
REMARK SMILES IDX 19 1 18 2 17 3 16 4 15 5 13 6 14 7 12 8 9 9 10 10 90 11
REMARK SMILES IDX 11 12 8 13 6 14 7 15 5 17 1 18 2 19 3 20 93 21 4 22 91 23
REMARK SMILES IDX 92 24 20 25 21 26 22 27 23 28 24 29 25 30 26 31 27 32 28 33
REMARK SMILES IDX 89 34 29 35 88 36 30 37 31 38 32 39 82 40 33 41 87 42 81 43
REMARK SMILES IDX 83 44 34 45 86 46 80 47 79 48 35 50 67 51 47 52 66 53 48 54
REMARK SMILES IDX 51 55 65 56 84 57 49 58 50 59 64 61 85 62 52 63 36 64 37 65
REMARK SMILES IDX 45 66 38 67 39 68 43 69 46 70 40 71 41 72 44 73 42 74 68 75
REMARK SMILES IDX 69 76 77 77 70 78 71 79 75 80 78 81 72 82 73 83 76 84 74 85
REMARK SMILES IDX 53 86 54 87 62 88 55 89 56 90 60 91 63 92 57 93 58 94 61 95
REMARK SMILES IDX 59 96
REMARK H PARENT 8 16 83 49 51 60
REMARK Flexibility Score: inf
ROOT
ATOM      1  C   UNL A   1      34.691  30.630  27.229  1.00  0.00     0.188 C 
ENDROOT
BRANCH   1   2
ATOM      2  O   UNL A   1      33.356  30.376  27.639  1.00  0.00    -0.376 OA
BRANCH   2   3
ATOM      3  C   UNL A   1      32.294  30.663  26.755  1.00  0.00     0.202 C 
BRANCH   3   4
ATOM      4  C   UNL A   1      31.979  29.598  25.703  1.00  0.00     0.261 C 
BRANCH   4   5
ATOM      5  O   UNL A   1      32.322  28.246  26.048  1.00  0.00    -0.463 OA
BRANCH   5   6
ATOM      6  C   UNL A   1      31.399  27.595  26.820  1.00  0.00     0.312 C 
ATOM      7  O   UNL A   1      31.162  27.857  27.992  1.00  0.00    -0.252 OA
BRANCH   6   8
ATOM      8  C   UNL A   1      30.814  26.407  26.055  1.00  0.00     0.124 C 
ATOM      9  C   UNL A   1      31.892  24.860  24.444  1.00  0.00     0.106 C 
ATOM     10  C   UNL A   1      31.131  25.939  23.760  1.00  0.00    -0.006 C 
ATOM     11  C   UNL A   1      31.777  25.223  25.936  1.00  0.00     0.048 C 
ATOM     12  C   UNL A   1      30.533  26.762  24.625  1.00  0.00    -0.014 C 
BRANCH   9  13
ATOM     13  N   UNL A   1      33.244  24.837  23.924  1.00  0.00    -0.346 N 
ATOM     14  C   UNL A   1      33.976  23.729  23.579  1.00  0.00     0.254 C 
ATOM     15  O   UNL A   1      35.074  23.817  23.037  1.00  0.00    -0.269 OA
ATOM     16  H   UNL A   1      33.683  25.710  23.806  1.00  0.00     0.164 HD
BRANCH  14  17
ATOM     17  C   UNL A   1      33.454  22.417  23.977  1.00  0.00     0.075 A 
ATOM     18  C   UNL A   1      32.497  18.266  24.443  1.00  0.00     0.044 C 
ATOM     19  C   UNL A   1      32.762  19.737  24.333  1.00  0.00    -0.048 A 
ATOM     20  C   UNL A   1      33.500  20.419  25.312  1.00  0.00     0.004 A 
ATOM     21  C   UNL A   1      32.293  20.441  23.225  1.00  0.00     0.043 A 
ATOM     22  C   UNL A   1      33.836  21.768  25.147  1.00  0.00     0.017 A 
ATOM     23  C   UNL A   1      32.684  21.757  23.036  1.00  0.00     0.136 A 
ATOM     24  F   UNL A   1      32.479  22.328  21.847  1.00  0.00    -0.206 F 
ENDBRANCH  14  17
ENDBRANCH   9  13
ENDBRANCH   6   8
ENDBRANCH   5   6
ENDBRANCH   4   5
ENDBRANCH   3   4
ENDBRANCH   2   3
ENDBRANCH   1   2
BRANCH   1  25
ATOM     25  C   UNL A   1      35.629  31.577  28.002  1.00  0.00     0.188 C 
BRANCH  25  26
ATOM     26  O   UNL A   1      35.514  32.956  27.671  1.00  0.00    -0.376 OA
BRANCH  26  27
ATOM     27  C   UNL A   1      35.469  33.841  28.785  1.00  0.00     0.202 C 
BRANCH  27  28
ATOM     28  C   UNL A   1      34.081  33.812  29.431  1.00  0.00     0.261 C 
BRANCH  28  29
ATOM     29  O   UNL A   1      34.098  33.414  30.807  1.00  0.00    -0.460 OA
BRANCH  29  30
ATOM     30  C   UNL A   1      33.732  34.407  31.631  1.00  0.00     0.338 C 
ATOM     31  O   UNL A   1      32.825  35.212  31.472  1.00  0.00    -0.246 OA
BRANCH  30  32
ATOM     32  C   UNL A   1      34.659  34.511  32.762  1.00  0.00     0.060 A 
ATOM     33  C   UNL A   1      35.836  35.192  32.440  1.00  0.00     0.016 A 
ATOM     34  C   UNL A   1      34.689  33.330  33.490  1.00  0.00     0.016 A 
ATOM     35  C   UNL A   1      37.038  34.518  32.450  1.00  0.00     0.010 A 
ATOM     36  C   UNL A   1      35.894  32.672  33.561  1.00  0.00     0.010 A 
ATOM     37  C   UNL A   1      37.030  33.221  32.936  1.00  0.00    -0.014 A 
BRANCH  37  38
ATOM     38  C   UNL A   1      38.218  32.399  32.982  1.00  0.00     0.031 A 
ATOM     39  C   UNL A   1      38.190  31.097  32.296  1.00  0.00     0.074 A 
ATOM     40  C   UNL A   1      39.358  32.971  33.415  1.00  0.00     0.049 A 
ATOM     41  N   UNL A   1      39.128  30.214  32.338  1.00  0.00    -0.248 NA
ATOM     42  C   UNL A   1      37.015  30.655  31.548  1.00  0.00     0.031 C 
ATOM     43  C   UNL A   1      40.698  32.681  32.936  1.00  0.00     0.029 A 
ATOM     44  N   UNL A   1      39.539  33.912  34.437  1.00  0.00    -0.354 N 
ATOM     45  C   UNL A   1      38.839  29.280  31.366  1.00  0.00     0.074 A 
ATOM     46  C   UNL A   1      37.454  29.503  31.041  1.00  0.00     0.031 C 
ATOM     47  C   UNL A   1      41.591  33.265  33.750  1.00  0.00     0.029 A 
ATOM     48  C   UNL A   1      40.860  33.751  34.908  1.00  0.00     0.049 A 
ATOM     49  H   UNL A   1      38.874  34.560  34.763  1.00  0.00     0.167 HD
ATOM     50  C   UNL A   1      39.872  28.586  30.802  1.00  0.00     0.037 A 
ATOM     51  C   UNL A   1      41.110  33.312  36.181  1.00  0.00     0.037 A 
ATOM     52  C   UNL A   1      41.120  28.865  31.515  1.00  0.00     0.049 A 
ATOM     53  C   UNL A   1      41.802  31.976  36.254  1.00  0.00     0.074 A 
ATOM     54  C   UNL A   1      42.153  29.754  31.256  1.00  0.00     0.029 A 
ATOM     55  N   UNL A   1      41.273  28.460  32.838  1.00  0.00    -0.354 N 
ATOM     56  N   UNL A   1      41.807  31.113  35.278  1.00  0.00    -0.248 NA
ATOM     57  C   UNL A   1      42.505  31.492  37.438  1.00  0.00     0.031 C 
ATOM     58  C   UNL A   1      42.881  29.942  32.455  1.00  0.00     0.029 A 
ATOM     59  C   UNL A   1      42.315  29.146  33.435  1.00  0.00     0.049 A 
ATOM     60  H   UNL A   1      40.718  27.781  33.286  1.00  0.00     0.167 HD
ATOM     61  C   UNL A   1      42.491  29.998  35.664  1.00  0.00     0.074 A 
ATOM     62  C   UNL A   1      42.917  30.282  37.023  1.00  0.00     0.031 C 
ATOM     63  C   UNL A   1      42.655  28.930  34.832  1.00  0.00     0.037 A 
BRANCH  50  64
ATOM     64  C   UNL A   1      39.828  27.998  29.398  1.00  0.00     0.064 A 
ATOM     65  C   UNL A   1      39.322  26.693  29.193  1.00  0.00     0.173 A 
ATOM     66  C   UNL A   1      40.353  28.596  28.236  1.00  0.00     0.173 A 
ATOM     67  F   UNL A   1      38.664  26.038  30.158  1.00  0.00    -0.203 F 
ATOM     68  C   UNL A   1      39.465  26.005  27.984  1.00  0.00     0.198 A 
ATOM     69  C   UNL A   1      40.534  27.898  27.037  1.00  0.00     0.198 A 
ATOM     70  F   UNL A   1      40.649  29.897  28.184  1.00  0.00    -0.203 F 
ATOM     71  F   UNL A   1      38.988  24.759  27.867  1.00  0.00    -0.200 F 
ATOM     72  C   UNL A   1      40.108  26.594  26.916  1.00  0.00     0.200 A 
ATOM     73  F   UNL A   1      41.124  28.506  25.997  1.00  0.00    -0.200 F 
ATOM     74  F   UNL A   1      40.281  25.924  25.770  1.00  0.00    -0.200 F 
ENDBRANCH  50  64
BRANCH  51  75
ATOM     75  C   UNL A   1      40.092  33.763  37.159  1.00  0.00     0.064 A 
ATOM     76  C   UNL A   1      39.107  32.839  37.540  1.00  0.00     0.173 A 
ATOM     77  C   UNL A   1      40.394  34.817  38.031  1.00  0.00     0.173 A 
ATOM     78  F   UNL A   1      38.763  31.841  36.711  1.00  0.00    -0.203 F 
ATOM     79  C   UNL A   1      38.585  32.856  38.825  1.00  0.00     0.198 A 
ATOM     80  C   UNL A   1      39.883  34.818  39.323  1.00  0.00     0.198 A 
ATOM     81  F   UNL A   1      41.292  35.751  37.686  1.00  0.00    -0.203 F 
ATOM     82  F   UNL A   1      37.731  31.900  39.218  1.00  0.00    -0.200 F 
ATOM     83  C   UNL A   1      39.024  33.806  39.730  1.00  0.00     0.200 A 
ATOM     84  F   UNL A   1      40.293  35.749  40.194  1.00  0.00    -0.200 F 
ATOM     85  F   UNL A   1      38.648  33.704  41.009  1.00  0.00    -0.200 F 
ENDBRANCH  51  75
BRANCH  63  86
ATOM     86  C   UNL A   1      43.268  27.627  35.240  1.00  0.00     0.064 A 
ATOM     87  C   UNL A   1      44.642  27.462  35.475  1.00  0.00     0.173 A 
ATOM     88  C   UNL A   1      42.447  26.513  35.522  1.00  0.00     0.173 A 
ATOM     89  F   UNL A   1      45.494  28.489  35.348  1.00  0.00    -0.203 F 
ATOM     90  C   UNL A   1      45.169  26.239  35.890  1.00  0.00     0.198 A 
ATOM     91  C   UNL A   1      42.970  25.311  35.987  1.00  0.00     0.198 A 
ATOM     92  F   UNL A   1      41.116  26.570  35.366  1.00  0.00    -0.203 F 
ATOM     93  F   UNL A   1      46.493  26.109  36.052  1.00  0.00    -0.200 F 
ATOM     94  C   UNL A   1      44.333  25.167  36.151  1.00  0.00     0.200 A 
ATOM     95  F   UNL A   1      42.147  24.296  36.283  1.00  0.00    -0.200 F 
ATOM     96  F   UNL A   1      44.841  24.002  36.575  1.00  0.00    -0.200 F 
ENDBRANCH  63  86
ENDBRANCH  37  38
ENDBRANCH  30  32
ENDBRANCH  29  30
ENDBRANCH  28  29
ENDBRANCH  27  28
ENDBRANCH  26  27
ENDBRANCH  25  26
ENDBRANCH   1  25
TORSDOF 19
ENDMDL
