MODEL 1
REMARK VINA RESULT:      -8.2      0.000      0.000
REMARK SMILES COc1ccc([C@H]2CC(c3ccc(S(C)(=O)=O)cc3)=NN2c2ccc(C(=O)OCCOCCOCCOC(=O)c3ccc(-c4c5nc(c(-c6c(F)c(F)c(F)c(F)c6F)c6ccc([nH]6)c(-c6c(F)c(F)c(F)c(F)c6F)c6nc(c(-c7c(F)c(F)c(F)c(F)c7F)c7ccc4[nH]7)C=C6)C=C5)cc3)cc2)cc1OC
REMARK SMILES IDX 32 1 31 2 30 3 29 4 28 5 26 6 27 7 25 8 22 9 23 10 104 11
REMARK SMILES IDX 24 12 103 13 21 14 7 15 8 16 9 17 20 18 6 19 3 20 4 21
REMARK SMILES IDX 106 22 5 23 105 24 2 25 1 26 107 27 108 28 10 29 11 30 19 31
REMARK SMILES IDX 12 32 18 33 13 34 14 35 15 36 16 37 17 38 33 39 34 40 35 41
REMARK SMILES IDX 36 42 37 43 38 44 39 45 40 46 41 47 102 48 42 49 101 50
REMARK SMILES IDX 43 51 44 52 45 53 95 54 46 55 100 56 94 57 96 58 47 59 99 60
REMARK SMILES IDX 93 61 92 62 48 64 80 65 60 66 79 67 61 68 64 69 78 70 97 71
REMARK SMILES IDX 62 72 63 73 77 75 98 76 65 77 49 78 50 79 58 80 51 81 52 82
REMARK SMILES IDX 56 83 59 84 53 85 54 86 57 87 55 88 81 89 82 90 90 91 83 92
REMARK SMILES IDX 84 93 88 94 91 95 85 96 86 97 89 98 87 99 66 100 67 101
REMARK SMILES IDX 75 102 68 103 69 104 73 105 76 106 70 107 71 108 74 109
REMARK SMILES IDX 72 110
REMARK H PARENT 96 63 64 74
REMARK Flexibility Score: inf
ROOT
ATOM      1  C   UNL A   1      44.098  23.906  25.814  1.00  0.00     0.188 C 
ENDROOT
BRANCH   1   2
ATOM      2  O   UNL A   1      43.915  25.255  26.232  1.00  0.00    -0.376 OA
BRANCH   2   3
ATOM      3  C   UNL A   1      44.513  26.316  25.498  1.00  0.00     0.202 C 
BRANCH   3   4
ATOM      4  C   UNL A   1      43.880  27.713  25.531  1.00  0.00     0.261 C 
BRANCH   4   5
ATOM      5  O   UNL A   1      44.014  28.399  26.785  1.00  0.00    -0.460 OA
BRANCH   5   6
ATOM      6  C   UNL A   1      45.169  29.090  26.947  1.00  0.00     0.338 C 
ATOM      7  O   UNL A   1      46.305  28.657  26.824  1.00  0.00    -0.246 OA
BRANCH   6   8
ATOM      8  C   UNL A   1      44.880  30.527  27.136  1.00  0.00     0.060 A 
ATOM      9  C   UNL A   1      44.572  33.286  27.552  1.00  0.00     0.060 A 
ATOM     10  C   UNL A   1      45.344  32.814  26.483  1.00  0.00     0.029 A 
ATOM     11  C   UNL A   1      43.871  32.357  28.337  1.00  0.00     0.029 A 
ATOM     12  C   UNL A   1      45.530  31.443  26.299  1.00  0.00     0.018 A 
ATOM     13  C   UNL A   1      44.006  30.982  28.125  1.00  0.00     0.018 A 
BRANCH   9  14
ATOM     14  N   UNL A   1      44.634  34.626  27.945  1.00  0.00    -0.257 N 
ATOM     15  C   UNL A   1      45.401  34.997  29.147  1.00  0.00     0.144 C 
ATOM     16  C   UNL A   1      45.524  36.515  29.012  1.00  0.00     0.091 C 
ATOM     17  C   UNL A   1      44.911  36.717  27.652  1.00  0.00     0.071 C 
ATOM     18  N   UNL A   1      44.460  35.651  27.063  1.00  0.00    -0.176 NA
BRANCH  15  19
ATOM     19  C   UNL A   1      46.747  34.282  29.234  1.00  0.00    -0.019 A 
ATOM     20  C   UNL A   1      49.141  32.787  29.230  1.00  0.00     0.160 A 
ATOM     21  C   UNL A   1      48.096  32.456  30.103  1.00  0.00     0.051 A 
ATOM     22  C   UNL A   1      49.000  33.860  28.344  1.00  0.00     0.161 A 
ATOM     23  C   UNL A   1      46.912  33.199  30.108  1.00  0.00     0.010 A 
ATOM     24  C   UNL A   1      47.809  34.601  28.367  1.00  0.00     0.056 A 
BRANCH  20  25
ATOM     25  O   UNL A   1      50.233  31.962  29.193  1.00  0.00    -0.493 OA
ATOM     26  C   UNL A   1      51.212  32.328  30.164  1.00  0.00     0.278 C 
ENDBRANCH  20  25
BRANCH  22  27
ATOM     27  O   UNL A   1      49.876  34.303  27.388  1.00  0.00    -0.493 OA
ATOM     28  C   UNL A   1      50.811  35.310  27.738  1.00  0.00     0.278 C 
ENDBRANCH  22  27
ENDBRANCH  15  19
BRANCH  17  29
ATOM     29  C   UNL A   1      44.770  38.076  27.105  1.00  0.00    -0.002 A 
ATOM     30  C   UNL A   1      45.837  38.620  26.379  1.00  0.00     0.011 A 
ATOM     31  C   UNL A   1      43.567  38.778  27.230  1.00  0.00     0.011 A 
ATOM     32  C   UNL A   1      45.694  39.861  25.754  1.00  0.00     0.021 A 
ATOM     33  C   UNL A   1      43.430  40.032  26.626  1.00  0.00     0.021 A 
ATOM     34  C   UNL A   1      44.492  40.564  25.888  1.00  0.00     0.067 A 
BRANCH  34  35
ATOM     35  S   UNL A   1      44.303  42.129  25.063  1.00  0.00     0.175 S 
ATOM     36  C   UNL A   1      42.670  42.071  24.376  1.00  0.00     0.163 C 
ATOM     37  O   UNL A   1      44.333  43.150  26.093  1.00  0.00    -0.224 OA
ATOM     38  O   UNL A   1      45.242  42.157  23.957  1.00  0.00    -0.224 OA
ENDBRANCH  34  35
ENDBRANCH  17  29
ENDBRANCH   9  14
ENDBRANCH   6   8
ENDBRANCH   5   6
ENDBRANCH   4   5
ENDBRANCH   3   4
ENDBRANCH   2   3
ENDBRANCH   1   2
BRANCH   1  39
ATOM     39  C   UNL A   1      42.987  23.179  25.026  1.00  0.00     0.188 C 
BRANCH  39  40
ATOM     40  O   UNL A   1      42.661  21.905  25.527  1.00  0.00    -0.376 OA
BRANCH  40  41
ATOM     41  C   UNL A   1      41.552  21.738  26.391  1.00  0.00     0.202 C 
BRANCH  41  42
ATOM     42  C   UNL A   1      40.084  21.654  25.929  1.00  0.00     0.261 C 
BRANCH  42  43
ATOM     43  O   UNL A   1      39.092  22.334  26.700  1.00  0.00    -0.460 OA
BRANCH  43  44
ATOM     44  C   UNL A   1      38.630  23.503  26.201  1.00  0.00     0.338 C 
ATOM     45  O   UNL A   1      37.779  23.662  25.346  1.00  0.00    -0.246 OA
BRANCH  44  46
ATOM     46  C   UNL A   1      39.237  24.603  26.978  1.00  0.00     0.060 A 
ATOM     47  C   UNL A   1      38.927  24.721  28.338  1.00  0.00     0.016 A 
ATOM     48  C   UNL A   1      40.085  25.524  26.360  1.00  0.00     0.016 A 
ATOM     49  C   UNL A   1      39.444  25.784  29.080  1.00  0.00     0.010 A 
ATOM     50  C   UNL A   1      40.589  26.597  27.101  1.00  0.00     0.010 A 
ATOM     51  C   UNL A   1      40.248  26.748  28.457  1.00  0.00    -0.014 A 
BRANCH  51  52
ATOM     52  C   UNL A   1      40.600  27.997  29.177  1.00  0.00     0.031 A 
ATOM     53  C   UNL A   1      41.975  28.123  29.773  1.00  0.00     0.074 A 
ATOM     54  C   UNL A   1      39.716  29.002  29.302  1.00  0.00     0.049 A 
ATOM     55  N   UNL A   1      42.489  29.093  30.486  1.00  0.00    -0.248 NA
ATOM     56  C   UNL A   1      42.896  26.999  29.536  1.00  0.00     0.031 C 
ATOM     57  C   UNL A   1      38.363  29.011  28.753  1.00  0.00     0.029 A 
ATOM     58  N   UNL A   1      39.826  30.209  29.950  1.00  0.00    -0.354 N 
ATOM     59  C   UNL A   1      43.784  28.694  30.788  1.00  0.00     0.074 A 
ATOM     60  C   UNL A   1      43.974  27.384  30.203  1.00  0.00     0.031 C 
ATOM     61  C   UNL A   1      37.757  30.159  29.105  1.00  0.00     0.029 A 
ATOM     62  C   UNL A   1      38.671  30.951  29.928  1.00  0.00     0.049 A 
ATOM     63  H   UNL A   1      40.653  30.511  30.389  1.00  0.00     0.167 HD
ATOM     64  C   UNL A   1      44.730  29.362  31.489  1.00  0.00     0.037 A 
ATOM     65  C   UNL A   1      38.380  32.122  30.528  1.00  0.00     0.037 A 
ATOM     66  C   UNL A   1      44.546  30.668  32.064  1.00  0.00     0.049 A 
ATOM     67  C   UNL A   1      39.439  32.823  31.342  1.00  0.00     0.074 A 
ATOM     68  C   UNL A   1      45.461  31.443  32.753  1.00  0.00     0.029 A 
ATOM     69  N   UNL A   1      43.360  31.386  32.027  1.00  0.00    -0.354 N 
ATOM     70  N   UNL A   1      40.677  32.463  31.580  1.00  0.00    -0.248 NA
ATOM     71  C   UNL A   1      39.059  34.099  31.967  1.00  0.00     0.031 C 
ATOM     72  C   UNL A   1      44.814  32.607  33.180  1.00  0.00     0.029 A 
ATOM     73  C   UNL A   1      43.512  32.582  32.708  1.00  0.00     0.049 A 
ATOM     74  H   UNL A   1      42.532  31.088  31.583  1.00  0.00     0.167 HD
ATOM     75  C   UNL A   1      41.230  33.477  32.353  1.00  0.00     0.074 A 
ATOM     76  C   UNL A   1      40.198  34.476  32.532  1.00  0.00     0.031 C 
ATOM     77  C   UNL A   1      42.480  33.574  32.868  1.00  0.00     0.037 A 
BRANCH  64  78
ATOM     78  C   UNL A   1      46.052  28.684  31.696  1.00  0.00     0.064 A 
ATOM     79  C   UNL A   1      47.110  28.836  30.788  1.00  0.00     0.173 A 
ATOM     80  C   UNL A   1      46.281  27.922  32.852  1.00  0.00     0.173 A 
ATOM     81  F   UNL A   1      46.938  29.545  29.662  1.00  0.00    -0.203 F 
ATOM     82  C   UNL A   1      48.345  28.236  31.022  1.00  0.00     0.198 A 
ATOM     83  C   UNL A   1      47.525  27.346  33.096  1.00  0.00     0.198 A 
ATOM     84  F   UNL A   1      45.302  27.750  33.753  1.00  0.00    -0.203 F 
ATOM     85  F   UNL A   1      49.333  28.366  30.125  1.00  0.00    -0.200 F 
ATOM     86  C   UNL A   1      48.554  27.500  32.179  1.00  0.00     0.200 A 
ATOM     87  F   UNL A   1      47.728  26.647  34.221  1.00  0.00    -0.200 F 
ATOM     88  F   UNL A   1      49.747  26.936  32.410  1.00  0.00    -0.200 F 
ENDBRANCH  64  78
BRANCH  65  89
ATOM     89  C   UNL A   1      37.016  32.704  30.408  1.00  0.00     0.064 A 
ATOM     90  C   UNL A   1      36.669  33.526  29.325  1.00  0.00     0.173 A 
ATOM     91  C   UNL A   1      36.047  32.487  31.399  1.00  0.00     0.173 A 
ATOM     92  F   UNL A   1      37.570  33.790  28.369  1.00  0.00    -0.203 F 
ATOM     93  C   UNL A   1      35.414  34.129  29.254  1.00  0.00     0.198 A 
ATOM     94  C   UNL A   1      34.782  33.066  31.310  1.00  0.00     0.198 A 
ATOM     95  F   UNL A   1      36.330  31.715  32.457  1.00  0.00    -0.203 F 
ATOM     96  F   UNL A   1      35.130  34.960  28.241  1.00  0.00    -0.200 F 
ATOM     97  C   UNL A   1      34.471  33.895  30.244  1.00  0.00     0.200 A 
ATOM     98  F   UNL A   1      33.872  32.833  32.265  1.00  0.00    -0.200 F 
ATOM     99  F   UNL A   1      33.269  34.482  30.177  1.00  0.00    -0.200 F 
ENDBRANCH  65  89
BRANCH  77 100
ATOM    100  C   UNL A   1      42.819  34.817  33.640  1.00  0.00     0.064 A 
ATOM    101  C   UNL A   1      43.256  35.987  33.002  1.00  0.00     0.173 A 
ATOM    102  C   UNL A   1      42.659  34.851  35.034  1.00  0.00     0.173 A 
ATOM    103  F   UNL A   1      43.436  36.003  31.672  1.00  0.00    -0.203 F 
ATOM    104  C   UNL A   1      43.547  37.136  33.734  1.00  0.00     0.198 A 
ATOM    105  C   UNL A   1      42.921  36.010  35.759  1.00  0.00     0.198 A 
ATOM    106  F   UNL A   1      42.235  33.762  35.693  1.00  0.00    -0.203 F 
ATOM    107  F   UNL A   1      44.009  38.227  33.108  1.00  0.00    -0.200 F 
ATOM    108  C   UNL A   1      43.372  37.148  35.110  1.00  0.00     0.200 A 
ATOM    109  F   UNL A   1      42.736  36.025  37.086  1.00  0.00    -0.200 F 
ATOM    110  F   UNL A   1      43.645  38.257  35.811  1.00  0.00    -0.200 F 
ENDBRANCH  77 100
ENDBRANCH  51  52
ENDBRANCH  44  46
ENDBRANCH  43  44
ENDBRANCH  42  43
ENDBRANCH  41  42
ENDBRANCH  40  41
ENDBRANCH  39  40
ENDBRANCH   1  39
TORSDOF 23
ENDMDL
MODEL 2
REMARK VINA RESULT:      -7.6      1.323      2.091
REMARK SMILES COc1ccc([C@H]2CC(c3ccc(S(C)(=O)=O)cc3)=NN2c2ccc(C(=O)OCCOCCOCCOC(=O)c3ccc(-c4c5nc(c(-c6c(F)c(F)c(F)c(F)c6F)c6ccc([nH]6)c(-c6c(F)c(F)c(F)c(F)c6F)c6nc(c(-c7c(F)c(F)c(F)c(F)c7F)c7ccc4[nH]7)C=C6)C=C5)cc3)cc2)cc1OC
REMARK SMILES IDX 32 1 31 2 30 3 29 4 28 5 26 6 27 7 25 8 22 9 23 10 104 11
REMARK SMILES IDX 24 12 103 13 21 14 7 15 8 16 9 17 20 18 6 19 3 20 4 21
REMARK SMILES IDX 106 22 5 23 105 24 2 25 1 26 107 27 108 28 10 29 11 30 19 31
REMARK SMILES IDX 12 32 18 33 13 34 14 35 15 36 16 37 17 38 33 39 34 40 35 41
REMARK SMILES IDX 36 42 37 43 38 44 39 45 40 46 41 47 102 48 42 49 101 50
REMARK SMILES IDX 43 51 44 52 45 53 95 54 46 55 100 56 94 57 96 58 47 59 99 60
REMARK SMILES IDX 93 61 92 62 48 64 80 65 60 66 79 67 61 68 64 69 78 70 97 71
REMARK SMILES IDX 62 72 63 73 77 75 98 76 65 77 49 78 50 79 58 80 51 81 52 82
REMARK SMILES IDX 56 83 59 84 53 85 54 86 57 87 55 88 81 89 82 90 90 91 83 92
REMARK SMILES IDX 84 93 88 94 91 95 85 96 86 97 89 98 87 99 66 100 67 101
REMARK SMILES IDX 75 102 68 103 69 104 73 105 76 106 70 107 71 108 74 109
REMARK SMILES IDX 72 110
REMARK H PARENT 96 63 64 74
REMARK Flexibility Score: inf
ROOT
ATOM      1  C   UNL A   1      44.431  23.941  25.393  1.00  0.00     0.188 C 
ENDROOT
BRANCH   1   2
ATOM      2  O   UNL A   1      44.361  25.205  26.042  1.00  0.00    -0.376 OA
BRANCH   2   3
ATOM      3  C   UNL A   1      44.796  26.379  25.366  1.00  0.00     0.202 C 
BRANCH   3   4
ATOM      4  C   UNL A   1      44.337  27.756  25.865  1.00  0.00     0.261 C 
BRANCH   4   5
ATOM      5  O   UNL A   1      45.310  28.460  26.651  1.00  0.00    -0.460 OA
BRANCH   5   6
ATOM      6  C   UNL A   1      45.908  29.507  26.032  1.00  0.00     0.338 C 
ATOM      7  O   UNL A   1      46.444  29.500  24.933  1.00  0.00    -0.246 OA
BRANCH   6   8
ATOM      8  C   UNL A   1      45.682  30.750  26.800  1.00  0.00     0.060 A 
ATOM      9  C   UNL A   1      45.497  33.110  28.308  1.00  0.00     0.060 A 
ATOM     10  C   UNL A   1      46.195  33.100  27.094  1.00  0.00     0.029 A 
ATOM     11  C   UNL A   1      44.803  31.952  28.695  1.00  0.00     0.029 A 
ATOM     12  C   UNL A   1      46.322  31.917  26.363  1.00  0.00     0.018 A 
ATOM     13  C   UNL A   1      44.877  30.778  27.940  1.00  0.00     0.018 A 
BRANCH   9  14
ATOM     14  N   UNL A   1      45.628  34.177  29.201  1.00  0.00    -0.257 N 
ATOM     15  C   UNL A   1      46.567  34.068  30.331  1.00  0.00     0.144 C 
ATOM     16  C   UNL A   1      46.681  35.514  30.813  1.00  0.00     0.091 C 
ATOM     17  C   UNL A   1      45.876  36.218  29.754  1.00  0.00     0.071 C 
ATOM     18  N   UNL A   1      45.334  35.460  28.848  1.00  0.00    -0.176 NA
BRANCH  15  19
ATOM     19  C   UNL A   1      47.904  33.451  29.932  1.00  0.00    -0.019 A 
ATOM     20  C   UNL A   1      50.259  32.217  28.985  1.00  0.00     0.160 A 
ATOM     21  C   UNL A   1      49.345  31.500  29.767  1.00  0.00     0.051 A 
ATOM     22  C   UNL A   1      50.006  33.553  28.658  1.00  0.00     0.161 A 
ATOM     23  C   UNL A   1      48.180  32.112  30.240  1.00  0.00     0.010 A 
ATOM     24  C   UNL A   1      48.837  34.156  29.148  1.00  0.00     0.056 A 
BRANCH  20  25
ATOM     25  O   UNL A   1      51.327  31.538  28.461  1.00  0.00    -0.493 OA
ATOM     26  C   UNL A   1      51.001  30.904  27.224  1.00  0.00     0.278 C 
ENDBRANCH  20  25
BRANCH  22  27
ATOM     27  O   UNL A   1      50.742  34.398  27.871  1.00  0.00    -0.493 OA
ATOM     28  C   UNL A   1      50.737  35.784  28.171  1.00  0.00     0.278 C 
ENDBRANCH  22  27
ENDBRANCH  15  19
BRANCH  17  29
ATOM     29  C   UNL A   1      45.668  37.673  29.835  1.00  0.00    -0.002 A 
ATOM     30  C   UNL A   1      46.758  38.489  30.163  1.00  0.00     0.011 A 
ATOM     31  C   UNL A   1      44.432  38.239  29.507  1.00  0.00     0.011 A 
ATOM     32  C   UNL A   1      46.621  39.878  30.140  1.00  0.00     0.021 A 
ATOM     33  C   UNL A   1      44.285  39.630  29.508  1.00  0.00     0.021 A 
ATOM     34  C   UNL A   1      45.381  40.441  29.820  1.00  0.00     0.067 A 
BRANCH  34  35
ATOM     35  S   UNL A   1      45.219  42.212  29.760  1.00  0.00     0.175 S 
ATOM     36  C   UNL A   1      43.628  42.534  30.473  1.00  0.00     0.163 C 
ATOM     37  O   UNL A   1      46.236  42.754  30.641  1.00  0.00    -0.224 OA
ATOM     38  O   UNL A   1      45.160  42.600  28.363  1.00  0.00    -0.224 OA
ENDBRANCH  34  35
ENDBRANCH  17  29
ENDBRANCH   9  14
ENDBRANCH   6   8
ENDBRANCH   5   6
ENDBRANCH   4   5
ENDBRANCH   3   4
ENDBRANCH   2   3
ENDBRANCH   1   2
BRANCH   1  39
ATOM     39  C   UNL A   1      43.147  23.274  24.851  1.00  0.00     0.188 C 
BRANCH  39  40
ATOM     40  O   UNL A   1      42.890  21.997  25.384  1.00  0.00    -0.376 OA
BRANCH  40  41
ATOM     41  C   UNL A   1      41.796  21.794  26.259  1.00  0.00     0.202 C 
BRANCH  41  42
ATOM     42  C   UNL A   1      40.322  21.703  25.816  1.00  0.00     0.261 C 
BRANCH  42  43
ATOM     43  O   UNL A   1      39.326  22.293  26.652  1.00  0.00    -0.460 OA
BRANCH  43  44
ATOM     44  C   UNL A   1      38.781  23.453  26.221  1.00  0.00     0.338 C 
ATOM     45  O   UNL A   1      37.872  23.597  25.426  1.00  0.00    -0.246 OA
BRANCH  44  46
ATOM     46  C   UNL A   1      39.384  24.557  26.996  1.00  0.00     0.060 A 
ATOM     47  C   UNL A   1      39.041  24.703  28.345  1.00  0.00     0.016 A 
ATOM     48  C   UNL A   1      40.262  25.455  26.384  1.00  0.00     0.016 A 
ATOM     49  C   UNL A   1      39.555  25.771  29.082  1.00  0.00     0.010 A 
ATOM     50  C   UNL A   1      40.763  26.533  27.120  1.00  0.00     0.010 A 
ATOM     51  C   UNL A   1      40.389  26.712  28.464  1.00  0.00    -0.014 A 
BRANCH  51  52
ATOM     52  C   UNL A   1      40.742  27.967  29.172  1.00  0.00     0.031 A 
ATOM     53  C   UNL A   1      42.113  28.093  29.778  1.00  0.00     0.074 A 
ATOM     54  C   UNL A   1      39.863  28.979  29.277  1.00  0.00     0.049 A 
ATOM     55  N   UNL A   1      42.626  29.069  30.484  1.00  0.00    -0.248 NA
ATOM     56  C   UNL A   1      43.029  26.962  29.563  1.00  0.00     0.031 C 
ATOM     57  C   UNL A   1      38.514  28.988  28.716  1.00  0.00     0.029 A 
ATOM     58  N   UNL A   1      39.973  30.192  29.912  1.00  0.00    -0.354 N 
ATOM     59  C   UNL A   1      43.916  28.666  30.803  1.00  0.00     0.074 A 
ATOM     60  C   UNL A   1      44.104  27.349  30.235  1.00  0.00     0.031 C 
ATOM     61  C   UNL A   1      37.912  30.144  29.049  1.00  0.00     0.029 A 
ATOM     62  C   UNL A   1      38.823  30.941  29.871  1.00  0.00     0.049 A 
ATOM     63  H   UNL A   1      40.799  30.496  30.354  1.00  0.00     0.167 HD
ATOM     64  C   UNL A   1      44.860  29.338  31.503  1.00  0.00     0.037 A 
ATOM     65  C   UNL A   1      38.533  32.121  30.454  1.00  0.00     0.037 A 
ATOM     66  C   UNL A   1      44.677  30.652  32.061  1.00  0.00     0.049 A 
ATOM     67  C   UNL A   1      39.589  32.825  31.269  1.00  0.00     0.074 A 
ATOM     68  C   UNL A   1      45.591  31.430  32.749  1.00  0.00     0.029 A 
ATOM     69  N   UNL A   1      43.496  31.375  32.005  1.00  0.00    -0.354 N 
ATOM     70  N   UNL A   1      40.823  32.462  31.522  1.00  0.00    -0.248 NA
ATOM     71  C   UNL A   1      39.211  34.111  31.875  1.00  0.00     0.031 C 
ATOM     72  C   UNL A   1      44.947  32.603  33.156  1.00  0.00     0.029 A 
ATOM     73  C   UNL A   1      43.649  32.579  32.673  1.00  0.00     0.049 A 
ATOM     74  H   UNL A   1      42.670  31.077  31.558  1.00  0.00     0.167 HD
ATOM     75  C   UNL A   1      41.374  33.482  32.287  1.00  0.00     0.074 A 
ATOM     76  C   UNL A   1      40.347  34.488  32.446  1.00  0.00     0.031 C 
ATOM     77  C   UNL A   1      42.621  33.578  32.812  1.00  0.00     0.037 A 
BRANCH  64  78
ATOM     78  C   UNL A   1      46.176  28.656  31.730  1.00  0.00     0.064 A 
ATOM     79  C   UNL A   1      46.464  27.989  32.930  1.00  0.00     0.173 A 
ATOM     80  C   UNL A   1      47.137  28.617  30.708  1.00  0.00     0.173 A 
ATOM     81  F   UNL A   1      45.583  28.006  33.942  1.00  0.00    -0.203 F 
ATOM     82  C   UNL A   1      47.674  27.321  33.104  1.00  0.00     0.198 A 
ATOM     83  C   UNL A   1      48.334  27.926  30.876  1.00  0.00     0.198 A 
ATOM     84  F   UNL A   1      46.907  29.236  29.541  1.00  0.00    -0.203 F 
ATOM     85  F   UNL A   1      47.943  26.718  34.271  1.00  0.00    -0.200 F 
ATOM     86  C   UNL A   1      48.603  27.282  32.075  1.00  0.00     0.200 A 
ATOM     87  F   UNL A   1      49.223  27.879  29.876  1.00  0.00    -0.200 F 
ATOM     88  F   UNL A   1      49.760  26.627  32.238  1.00  0.00    -0.200 F 
ENDBRANCH  64  78
BRANCH  65  89
ATOM     89  C   UNL A   1      37.174  32.708  30.315  1.00  0.00     0.064 A 
ATOM     90  C   UNL A   1      36.179  32.475  31.275  1.00  0.00     0.173 A 
ATOM     91  C   UNL A   1      36.829  33.478  29.193  1.00  0.00     0.173 A 
ATOM     92  F   UNL A   1      36.449  31.719  32.349  1.00  0.00    -0.203 F 
ATOM     93  C   UNL A   1      34.885  32.965  31.105  1.00  0.00     0.198 A 
ATOM     94  C   UNL A   1      35.543  33.993  29.040  1.00  0.00     0.198 A 
ATOM     95  F   UNL A   1      37.740  33.724  28.242  1.00  0.00    -0.203 F 
ATOM     96  F   UNL A   1      33.937  32.675  32.007  1.00  0.00    -0.200 F 
ATOM     97  C   UNL A   1      34.570  33.727  29.990  1.00  0.00     0.200 A 
ATOM     98  F   UNL A   1      35.244  34.733  27.964  1.00  0.00    -0.200 F 
ATOM     99  F   UNL A   1      33.324  34.191  29.824  1.00  0.00    -0.200 F 
ENDBRANCH  65  89
BRANCH  77 100
ATOM    100  C   UNL A   1      42.960  34.829  33.572  1.00  0.00     0.064 A 
ATOM    101  C   UNL A   1      43.240  36.037  32.918  1.00  0.00     0.173 A 
ATOM    102  C   UNL A   1      42.958  34.827  34.976  1.00  0.00     0.173 A 
ATOM    103  F   UNL A   1      43.265  36.090  31.578  1.00  0.00    -0.203 F 
ATOM    104  C   UNL A   1      43.533  37.191  33.642  1.00  0.00     0.198 A 
ATOM    105  C   UNL A   1      43.221  35.989  35.696  1.00  0.00     0.198 A 
ATOM    106  F   UNL A   1      42.687  33.700  35.651  1.00  0.00    -0.203 F 
ATOM    107  F   UNL A   1      43.845  38.323  32.995  1.00  0.00    -0.200 F 
ATOM    108  C   UNL A   1      43.516  37.168  35.028  1.00  0.00     0.200 A 
ATOM    109  F   UNL A   1      43.188  35.968  37.035  1.00  0.00    -0.200 F 
ATOM    110  F   UNL A   1      43.790  38.281  35.722  1.00  0.00    -0.200 F 
ENDBRANCH  77 100
ENDBRANCH  51  52
ENDBRANCH  44  46
ENDBRANCH  43  44
ENDBRANCH  42  43
ENDBRANCH  41  42
ENDBRANCH  40  41
ENDBRANCH  39  40
ENDBRANCH   1  39
TORSDOF 23
ENDMDL
MODEL 3
REMARK VINA RESULT:      -7.4      3.844      9.200
REMARK SMILES COc1ccc([C@H]2CC(c3ccc(S(C)(=O)=O)cc3)=NN2c2ccc(C(=O)OCCOCCOCCOC(=O)c3ccc(-c4c5nc(c(-c6c(F)c(F)c(F)c(F)c6F)c6ccc([nH]6)c(-c6c(F)c(F)c(F)c(F)c6F)c6nc(c(-c7c(F)c(F)c(F)c(F)c7F)c7ccc4[nH]7)C=C6)C=C5)cc3)cc2)cc1OC
REMARK SMILES IDX 32 1 31 2 30 3 29 4 28 5 26 6 27 7 25 8 22 9 23 10 104 11
REMARK SMILES IDX 24 12 103 13 21 14 7 15 8 16 9 17 20 18 6 19 3 20 4 21
REMARK SMILES IDX 106 22 5 23 105 24 2 25 1 26 107 27 108 28 10 29 11 30 19 31
REMARK SMILES IDX 12 32 18 33 13 34 14 35 15 36 16 37 17 38 33 39 34 40 35 41
REMARK SMILES IDX 36 42 37 43 38 44 39 45 40 46 41 47 102 48 42 49 101 50
REMARK SMILES IDX 43 51 44 52 45 53 95 54 46 55 100 56 94 57 96 58 47 59 99 60
REMARK SMILES IDX 93 61 92 62 48 64 80 65 60 66 79 67 61 68 64 69 78 70 97 71
REMARK SMILES IDX 62 72 63 73 77 75 98 76 65 77 49 78 50 79 58 80 51 81 52 82
REMARK SMILES IDX 56 83 59 84 53 85 54 86 57 87 55 88 81 89 82 90 90 91 83 92
REMARK SMILES IDX 84 93 88 94 91 95 85 96 86 97 89 98 87 99 66 100 67 101
REMARK SMILES IDX 75 102 68 103 69 104 73 105 76 106 70 107 71 108 74 109
REMARK SMILES IDX 72 110
REMARK H PARENT 96 63 64 74
REMARK Flexibility Score: inf
ROOT
ATOM      1  C   UNL A   1      54.082  27.340  30.702  1.00  0.00     0.188 C 
ENDROOT
BRANCH   1   2
ATOM      2  O   UNL A   1      52.694  27.572  30.482  1.00  0.00    -0.376 OA
BRANCH   2   3
ATOM      3  C   UNL A   1      51.779  26.483  30.496  1.00  0.00     0.202 C 
BRANCH   3   4
ATOM      4  C   UNL A   1      51.135  26.016  29.184  1.00  0.00     0.261 C 
BRANCH   4   5
ATOM      5  O   UNL A   1      49.814  25.473  29.329  1.00  0.00    -0.460 OA
BRANCH   5   6
ATOM      6  C   UNL A   1      49.219  25.081  28.176  1.00  0.00     0.338 C 
ATOM      7  O   UNL A   1      49.592  24.193  27.424  1.00  0.00    -0.246 OA
BRANCH   6   8
ATOM      8  C   UNL A   1      47.922  25.771  28.012  1.00  0.00     0.060 A 
ATOM      9  C   UNL A   1      45.372  26.871  27.602  1.00  0.00     0.060 A 
ATOM     10  C   UNL A   1      45.556  25.839  28.530  1.00  0.00     0.029 A 
ATOM     11  C   UNL A   1      46.501  27.414  26.967  1.00  0.00     0.029 A 
ATOM     12  C   UNL A   1      46.815  25.264  28.706  1.00  0.00     0.018 A 
ATOM     13  C   UNL A   1      47.776  26.883  27.179  1.00  0.00     0.018 A 
BRANCH   9  14
ATOM     14  N   UNL A   1      44.091  27.234  27.178  1.00  0.00    -0.257 N 
ATOM     15  C   UNL A   1      43.548  26.666  25.932  1.00  0.00     0.144 C 
ATOM     16  C   UNL A   1      42.060  27.004  26.028  1.00  0.00     0.091 C 
ATOM     17  C   UNL A   1      42.005  27.594  27.412  1.00  0.00     0.071 C 
ATOM     18  N   UNL A   1      43.136  27.675  28.046  1.00  0.00    -0.176 NA
BRANCH  15  19
ATOM     19  C   UNL A   1      43.824  25.171  25.794  1.00  0.00    -0.019 A 
ATOM     20  C   UNL A   1      44.509  22.434  25.727  1.00  0.00     0.160 A 
ATOM     21  C   UNL A   1      45.245  23.370  24.988  1.00  0.00     0.051 A 
ATOM     22  C   UNL A   1      43.431  22.853  26.512  1.00  0.00     0.161 A 
ATOM     23  C   UNL A   1      44.904  24.726  25.018  1.00  0.00     0.010 A 
ATOM     24  C   UNL A   1      43.095  24.215  26.525  1.00  0.00     0.056 A 
BRANCH  20  25
ATOM     25  O   UNL A   1      44.953  21.139  25.745  1.00  0.00    -0.493 OA
ATOM     26  C   UNL A   1      45.882  20.877  24.694  1.00  0.00     0.278 C 
ENDBRANCH  20  25
BRANCH  22  27
ATOM     27  O   UNL A   1      42.630  22.107  27.337  1.00  0.00    -0.493 OA
ATOM     28  C   UNL A   1      41.325  22.581  27.627  1.00  0.00     0.278 C 
ENDBRANCH  22  27
ENDBRANCH  15  19
BRANCH  17  29
ATOM     29  C   UNL A   1      40.733  28.118  27.937  1.00  0.00    -0.002 A 
ATOM     30  C   UNL A   1      40.228  29.310  27.404  1.00  0.00     0.011 A 
ATOM     31  C   UNL A   1      40.000  27.399  28.886  1.00  0.00     0.011 A 
ATOM     32  C   UNL A   1      38.973  29.775  27.801  1.00  0.00     0.021 A 
ATOM     33  C   UNL A   1      38.753  27.875  29.304  1.00  0.00     0.021 A 
ATOM     34  C   UNL A   1      38.245  29.058  28.756  1.00  0.00     0.067 A 
BRANCH  34  35
ATOM     35  S   UNL A   1      36.632  29.636  29.235  1.00  0.00     0.175 S 
ATOM     36  C   UNL A   1      36.747  31.402  29.126  1.00  0.00     0.163 C 
ATOM     37  O   UNL A   1      35.704  29.172  28.221  1.00  0.00    -0.224 OA
ATOM     38  O   UNL A   1      36.441  29.296  30.633  1.00  0.00    -0.224 OA
ENDBRANCH  34  35
ENDBRANCH  17  29
ENDBRANCH   9  14
ENDBRANCH   6   8
ENDBRANCH   5   6
ENDBRANCH   4   5
ENDBRANCH   3   4
ENDBRANCH   2   3
ENDBRANCH   1   2
BRANCH   1  39
ATOM     39  C   UNL A   1      55.073  27.384  29.518  1.00  0.00     0.188 C 
BRANCH  39  40
ATOM     40  O   UNL A   1      54.973  26.289  28.639  1.00  0.00    -0.376 OA
BRANCH  40  41
ATOM     41  C   UNL A   1      54.168  26.374  27.479  1.00  0.00     0.202 C 
BRANCH  41  42
ATOM     42  C   UNL A   1      53.739  27.689  26.801  1.00  0.00     0.261 C 
BRANCH  42  43
ATOM     43  O   UNL A   1      52.567  28.349  27.284  1.00  0.00    -0.460 OA
BRANCH  43  44
ATOM     44  C   UNL A   1      52.182  29.465  26.625  1.00  0.00     0.338 C 
ATOM     45  O   UNL A   1      52.660  29.928  25.606  1.00  0.00    -0.246 OA
BRANCH  44  46
ATOM     46  C   UNL A   1      50.959  29.980  27.273  1.00  0.00     0.060 A 
ATOM     47  C   UNL A   1      51.028  30.401  28.606  1.00  0.00     0.016 A 
ATOM     48  C   UNL A   1      49.750  30.022  26.575  1.00  0.00     0.016 A 
ATOM     49  C   UNL A   1      49.874  30.840  29.257  1.00  0.00     0.010 A 
ATOM     50  C   UNL A   1      48.593  30.447  27.233  1.00  0.00     0.010 A 
ATOM     51  C   UNL A   1      48.643  30.830  28.585  1.00  0.00    -0.014 A 
BRANCH  51  52
ATOM     52  C   UNL A   1      47.386  31.067  29.339  1.00  0.00     0.031 A 
ATOM     53  C   UNL A   1      46.845  29.963  30.204  1.00  0.00     0.074 A 
ATOM     54  C   UNL A   1      46.735  32.240  29.256  1.00  0.00     0.049 A 
ATOM     55  N   UNL A   1      45.744  29.921  30.910  1.00  0.00    -0.248 NA
ATOM     56  C   UNL A   1      47.655  28.736  30.281  1.00  0.00     0.031 C 
ATOM     57  C   UNL A   1      47.167  33.394  28.471  1.00  0.00     0.029 A 
ATOM     58  N   UNL A   1      45.556  32.647  29.833  1.00  0.00    -0.354 N 
ATOM     59  C   UNL A   1      45.724  28.666  31.505  1.00  0.00     0.074 A 
ATOM     60  C   UNL A   1      46.911  27.966  31.061  1.00  0.00     0.031 C 
ATOM     61  C   UNL A   1      46.254  34.373  28.597  1.00  0.00     0.029 A 
ATOM     62  C   UNL A   1      45.161  33.904  29.449  1.00  0.00     0.049 A 
ATOM     63  H   UNL A   1      45.044  32.089  30.462  1.00  0.00     0.167 HD
ATOM     64  C   UNL A   1      44.801  28.147  32.348  1.00  0.00     0.037 A 
ATOM     65  C   UNL A   1      44.033  34.584  29.731  1.00  0.00     0.037 A 
ATOM     66  C   UNL A   1      43.626  28.845  32.796  1.00  0.00     0.049 A 
ATOM     67  C   UNL A   1      42.998  33.962  30.636  1.00  0.00     0.074 A 
ATOM     68  C   UNL A   1      42.655  28.417  33.685  1.00  0.00     0.029 A 
ATOM     69  N   UNL A   1      43.255  30.115  32.380  1.00  0.00    -0.354 N 
ATOM     70  N   UNL A   1      43.011  32.796  31.235  1.00  0.00    -0.248 NA
ATOM     71  C   UNL A   1      41.791  34.757  30.908  1.00  0.00     0.031 C 
ATOM     72  C   UNL A   1      41.669  29.405  33.765  1.00  0.00     0.029 A 
ATOM     73  C   UNL A   1      42.055  30.473  32.970  1.00  0.00     0.049 A 
ATOM     74  H   UNL A   1      43.769  30.678  31.755  1.00  0.00     0.167 HD
ATOM     75  C   UNL A   1      41.837  32.731  31.975  1.00  0.00     0.074 A 
ATOM     76  C   UNL A   1      41.139  33.981  31.763  1.00  0.00     0.031 C 
ATOM     77  C   UNL A   1      41.377  31.726  32.760  1.00  0.00     0.037 A 
BRANCH  64  78
ATOM     78  C   UNL A   1      45.008  26.741  32.828  1.00  0.00     0.064 A 
ATOM     79  C   UNL A   1      45.722  26.460  34.002  1.00  0.00     0.173 A 
ATOM     80  C   UNL A   1      44.432  25.666  32.134  1.00  0.00     0.173 A 
ATOM     81  F   UNL A   1      46.302  27.452  34.694  1.00  0.00    -0.203 F 
ATOM     82  C   UNL A   1      45.864  25.152  34.456  1.00  0.00     0.198 A 
ATOM     83  C   UNL A   1      44.553  24.362  32.606  1.00  0.00     0.198 A 
ATOM     84  F   UNL A   1      43.736  25.883  31.008  1.00  0.00    -0.203 F 
ATOM     85  F   UNL A   1      46.578  24.901  35.563  1.00  0.00    -0.200 F 
ATOM     86  C   UNL A   1      45.272  24.105  33.764  1.00  0.00     0.200 A 
ATOM     87  F   UNL A   1      43.969  23.355  31.943  1.00  0.00    -0.200 F 
ATOM     88  F   UNL A   1      45.397  22.848  34.210  1.00  0.00    -0.200 F 
ENDBRANCH  64  78
BRANCH  65  89
ATOM     89  C   UNL A   1      43.800  35.926  29.133  1.00  0.00     0.064 A 
ATOM     90  C   UNL A   1      43.119  36.071  27.915  1.00  0.00     0.173 A 
ATOM     91  C   UNL A   1      44.294  37.087  29.746  1.00  0.00     0.173 A 
ATOM     92  F   UNL A   1      42.656  34.988  27.274  1.00  0.00    -0.203 F 
ATOM     93  C   UNL A   1      42.968  37.322  27.320  1.00  0.00     0.198 A 
ATOM     94  C   UNL A   1      44.115  38.341  29.165  1.00  0.00     0.198 A 
ATOM     95  F   UNL A   1      44.958  37.003  30.907  1.00  0.00    -0.203 F 
ATOM     96  F   UNL A   1      42.369  37.425  26.126  1.00  0.00    -0.200 F 
ATOM     97  C   UNL A   1      43.462  38.457  27.948  1.00  0.00     0.200 A 
ATOM     98  F   UNL A   1      44.588  39.435  29.777  1.00  0.00    -0.200 F 
ATOM     99  F   UNL A   1      43.322  39.658  27.371  1.00  0.00    -0.200 F 
ENDBRANCH  65  89
BRANCH  77 100
ATOM    100  C   UNL A   1      40.078  31.948  33.483  1.00  0.00     0.064 A 
ATOM    101  C   UNL A   1      40.027  32.590  34.729  1.00  0.00     0.173 A 
ATOM    102  C   UNL A   1      38.866  31.554  32.896  1.00  0.00     0.173 A 
ATOM    103  F   UNL A   1      41.159  32.976  35.336  1.00  0.00    -0.203 F 
ATOM    104  C   UNL A   1      38.811  32.804  35.374  1.00  0.00     0.198 A 
ATOM    105  C   UNL A   1      37.650  31.797  33.529  1.00  0.00     0.198 A 
ATOM    106  F   UNL A   1      38.858  30.945  31.701  1.00  0.00    -0.203 F 
ATOM    107  F   UNL A   1      38.789  33.375  36.585  1.00  0.00    -0.200 F 
ATOM    108  C   UNL A   1      37.624  32.414  34.770  1.00  0.00     0.200 A 
ATOM    109  F   UNL A   1      36.504  31.435  32.938  1.00  0.00    -0.200 F 
ATOM    110  F   UNL A   1      36.455  32.629  35.389  1.00  0.00    -0.200 F 
ENDBRANCH  77 100
ENDBRANCH  51  52
ENDBRANCH  44  46
ENDBRANCH  43  44
ENDBRANCH  42  43
ENDBRANCH  41  42
ENDBRANCH  40  41
ENDBRANCH  39  40
ENDBRANCH   1  39
TORSDOF 23
ENDMDL
