MODEL 1
REMARK VINA RESULT:     -11.6      0.000      0.000
REMARK SMILES COc1cc([N+](=O)[O-])cc([C@H]2[NH2+][C@H](C(=O)OCCOCCOCCOC(=O)c3ccc(-c4c5nc(c(-c6c(F)c(F)c(F)c(F)c6F)c6ccc([nH]6)c(-c6c(F)c(F)c(F)c(F)c6F)c6nc(c(-c7c(F)c(F)c(F)c(F)c7F)c7ccc4[nH]7)C=C6)C=C5)cc3)CS2)c1O
REMARK SMILES IDX 20 1 19 2 18 3 17 4 16 5 14 6 15 7 13 8 11 9 12 10 92 11
REMARK SMILES IDX 91 14 10 15 3 16 4 17 93 18 5 19 9 20 2 21 1 22 94 23 6 25
REMARK SMILES IDX 7 26 8 27 21 28 22 29 23 30 24 31 25 32 26 33 27 34 28 35
REMARK SMILES IDX 29 36 90 37 30 38 89 39 31 40 32 41 33 42 83 43 34 44 88 45
REMARK SMILES IDX 82 46 84 47 35 48 87 49 81 50 80 51 36 53 68 54 48 55 67 56
REMARK SMILES IDX 49 57 52 58 66 59 85 60 50 61 51 62 65 64 86 65 53 66 37 67
REMARK SMILES IDX 38 68 46 69 39 70 40 71 44 72 47 73 41 74 42 75 45 76 43 77
REMARK SMILES IDX 69 78 70 79 78 80 71 81 72 82 76 83 79 84 73 85 74 86 77 87
REMARK SMILES IDX 75 88 54 89 55 90 63 91 56 92 57 93 61 94 64 95 58 96 59 97
REMARK SMILES IDX 62 98 60 99
REMARK H PARENT 12 12 12 13 94 24 84 52 52 63
REMARK Flexibility Score: inf
ROOT
ATOM      1  C   UNL A   1      44.606  19.111  24.300  1.00  0.00     0.188 C 
ENDROOT
BRANCH   1   2
ATOM      2  O   UNL A   1      43.234  19.028  24.667  1.00  0.00    -0.376 OA
BRANCH   2   3
ATOM      3  C   UNL A   1      42.879  18.689  26.003  1.00  0.00     0.202 C 
BRANCH   3   4
ATOM      4  C   UNL A   1      42.049  19.694  26.811  1.00  0.00     0.261 C 
BRANCH   4   5
ATOM      5  O   UNL A   1      40.882  20.182  26.124  1.00  0.00    -0.459 OA
BRANCH   5   6
ATOM      6  C   UNL A   1      40.248  21.231  26.704  1.00  0.00     0.365 C 
ATOM      7  O   UNL A   1      40.470  21.625  27.847  1.00  0.00    -0.245 OA
BRANCH   6   8
ATOM      8  C   UNL A   1      39.302  21.997  25.772  1.00  0.00     0.304 C 
ATOM      9  C   UNL A   1      36.907  21.794  25.989  1.00  0.00     0.278 C 
ATOM     10  N   UNL A   1      38.076  21.253  25.298  1.00  0.00    -0.319 N 
ATOM     11  S   UNL A   1      37.249  23.594  26.018  1.00  0.00    -0.087 SA
ATOM     12  H   UNL A   1      37.967  21.376  24.291  1.00  0.00     0.348 HD
ATOM     13  H   UNL A   1      38.172  20.258  25.501  1.00  0.00     0.348 HD
ATOM     14  C   UNL A   1      38.950  23.311  26.471  1.00  0.00     0.153 C 
BRANCH   9  15
ATOM     15  C   UNL A   1      35.539  21.530  25.371  1.00  0.00     0.073 A 
ATOM     16  C   UNL A   1      33.931  19.863  24.518  1.00  0.00     0.167 A 
ATOM     17  C   UNL A   1      32.996  20.867  24.286  1.00  0.00     0.136 A 
ATOM     18  C   UNL A   1      35.205  20.210  24.982  1.00  0.00     0.168 A 
ATOM     19  C   UNL A   1      33.329  22.198  24.563  1.00  0.00     0.273 A 
ATOM     20  C   UNL A   1      34.582  22.535  25.121  1.00  0.00     0.100 A 
BRANCH  16  21
ATOM     21  O   UNL A   1      33.491  18.591  24.257  1.00  0.00    -0.493 OA
ATOM     22  C   UNL A   1      32.718  17.985  25.294  1.00  0.00     0.278 C 
ENDBRANCH  16  21
BRANCH  18  23
ATOM     23  O   UNL A   1      36.168  19.232  25.023  1.00  0.00    -0.504 OA
ATOM     24  H   UNL A   1      35.993  18.418  25.454  1.00  0.00     0.293 HD
ENDBRANCH  18  23
BRANCH  19  25
ATOM     25  N   UNL A   1      32.344  23.251  24.267  1.00  0.00     0.062 N 
ATOM     26  O   UNL A   1      31.888  23.903  25.217  1.00  0.00    -0.258 OA
ATOM     27  O   UNL A   1      32.029  23.425  23.081  1.00  0.00    -0.258 OA
ENDBRANCH  19  25
ENDBRANCH   9  15
ENDBRANCH   6   8
ENDBRANCH   5   6
ENDBRANCH   4   5
ENDBRANCH   3   4
ENDBRANCH   2   3
ENDBRANCH   1   2
BRANCH   1  28
ATOM     28  C   UNL A   1      45.662  19.559  25.330  1.00  0.00     0.188 C 
BRANCH  28  29
ATOM     29  O   UNL A   1      45.983  20.932  25.273  1.00  0.00    -0.376 OA
BRANCH  29  30
ATOM     30  C   UNL A   1      45.167  21.742  24.444  1.00  0.00     0.202 C 
BRANCH  30  31
ATOM     31  C   UNL A   1      43.990  22.450  25.133  1.00  0.00     0.261 C 
BRANCH  31  32
ATOM     32  O   UNL A   1      43.601  23.716  24.569  1.00  0.00    -0.460 OA
BRANCH  32  33
ATOM     33  C   UNL A   1      44.271  24.805  24.993  1.00  0.00     0.338 C 
ATOM     34  O   UNL A   1      45.376  25.181  24.619  1.00  0.00    -0.246 OA
BRANCH  33  35
ATOM     35  C   UNL A   1      43.374  25.612  25.847  1.00  0.00     0.060 A 
ATOM     36  C   UNL A   1      43.629  26.984  25.982  1.00  0.00     0.016 A 
ATOM     37  C   UNL A   1      42.313  25.021  26.541  1.00  0.00     0.016 A 
ATOM     38  C   UNL A   1      42.866  27.755  26.860  1.00  0.00     0.010 A 
ATOM     39  C   UNL A   1      41.561  25.791  27.435  1.00  0.00     0.010 A 
ATOM     40  C   UNL A   1      41.868  27.148  27.636  1.00  0.00    -0.014 A 
BRANCH  40  41
ATOM     41  C   UNL A   1      41.355  27.864  28.833  1.00  0.00     0.031 A 
ATOM     42  C   UNL A   1      42.113  27.706  30.126  1.00  0.00     0.074 A 
ATOM     43  C   UNL A   1      40.288  28.679  28.778  1.00  0.00     0.049 A 
ATOM     44  N   UNL A   1      41.892  28.243  31.299  1.00  0.00    -0.248 NA
ATOM     45  C   UNL A   1      43.288  26.820  30.083  1.00  0.00     0.031 C 
ATOM     46  C   UNL A   1      39.495  28.958  27.585  1.00  0.00     0.029 A 
ATOM     47  N   UNL A   1      39.694  29.430  29.764  1.00  0.00    -0.354 N 
ATOM     48  C   UNL A   1      42.898  27.763  32.128  1.00  0.00     0.074 A 
ATOM     49  C   UNL A   1      43.705  26.859  31.338  1.00  0.00     0.031 C 
ATOM     50  C   UNL A   1      38.518  29.826  27.906  1.00  0.00     0.029 A 
ATOM     51  C   UNL A   1      38.603  30.143  29.331  1.00  0.00     0.049 A 
ATOM     52  H   UNL A   1      40.019  29.454  30.692  1.00  0.00     0.167 HD
ATOM     53  C   UNL A   1      43.144  28.059  33.427  1.00  0.00     0.037 A 
ATOM     54  C   UNL A   1      37.772  30.955  30.015  1.00  0.00     0.037 A 
ATOM     55  C   UNL A   1      42.337  28.944  34.222  1.00  0.00     0.049 A 
ATOM     56  C   UNL A   1      38.010  31.199  31.485  1.00  0.00     0.074 A 
ATOM     57  C   UNL A   1      42.492  29.299  35.550  1.00  0.00     0.029 A 
ATOM     58  N   UNL A   1      41.210  29.609  33.759  1.00  0.00    -0.354 N 
ATOM     59  N   UNL A   1      38.975  30.759  32.255  1.00  0.00    -0.248 NA
ATOM     60  C   UNL A   1      37.041  32.063  32.176  1.00  0.00     0.031 C 
ATOM     61  C   UNL A   1      41.432  30.142  35.904  1.00  0.00     0.029 A 
ATOM     62  C   UNL A   1      40.650  30.360  34.781  1.00  0.00     0.049 A 
ATOM     63  H   UNL A   1      40.860  29.557  32.841  1.00  0.00     0.167 HD
ATOM     64  C   UNL A   1      38.757  31.328  33.506  1.00  0.00     0.074 A 
ATOM     65  C   UNL A   1      37.569  32.147  33.389  1.00  0.00     0.031 C 
ATOM     66  C   UNL A   1      39.480  31.189  34.646  1.00  0.00     0.037 A 
BRANCH  53  67
ATOM     67  C   UNL A   1      44.324  27.386  34.066  1.00  0.00     0.064 A 
ATOM     68  C   UNL A   1      44.211  26.131  34.685  1.00  0.00     0.173 A 
ATOM     69  C   UNL A   1      45.580  28.009  34.074  1.00  0.00     0.173 A 
ATOM     70  F   UNL A   1      43.026  25.501  34.724  1.00  0.00    -0.203 F 
ATOM     71  C   UNL A   1      45.301  25.544  35.322  1.00  0.00     0.198 A 
ATOM     72  C   UNL A   1      46.677  27.405  34.682  1.00  0.00     0.198 A 
ATOM     73  F   UNL A   1      45.744  29.209  33.495  1.00  0.00    -0.203 F 
ATOM     74  F   UNL A   1      45.153  24.377  35.963  1.00  0.00    -0.200 F 
ATOM     75  C   UNL A   1      46.534  26.179  35.315  1.00  0.00     0.200 A 
ATOM     76  F   UNL A   1      47.870  28.015  34.666  1.00  0.00    -0.200 F 
ATOM     77  F   UNL A   1      47.582  25.616  35.931  1.00  0.00    -0.200 F 
ENDBRANCH  53  67
BRANCH  54  78
ATOM     78  C   UNL A   1      36.641  31.624  29.318  1.00  0.00     0.064 A 
ATOM     79  C   UNL A   1      36.662  33.004  29.073  1.00  0.00     0.173 A 
ATOM     80  C   UNL A   1      35.506  30.907  28.911  1.00  0.00     0.173 A 
ATOM     81  F   UNL A   1      37.712  33.739  29.469  1.00  0.00    -0.203 F 
ATOM     82  C   UNL A   1      35.584  33.646  28.465  1.00  0.00     0.198 A 
ATOM     83  C   UNL A   1      34.440  31.545  28.278  1.00  0.00     0.198 A 
ATOM     84  F   UNL A   1      35.433  29.586  29.128  1.00  0.00    -0.203 F 
ATOM     85  F   UNL A   1      35.611  34.974  28.287  1.00  0.00    -0.200 F 
ATOM     86  C   UNL A   1      34.477  32.914  28.063  1.00  0.00     0.200 A 
ATOM     87  F   UNL A   1      33.376  30.833  27.885  1.00  0.00    -0.200 F 
ATOM     88  F   UNL A   1      33.441  33.530  27.476  1.00  0.00    -0.200 F 
ENDBRANCH  54  78
BRANCH  66  89
ATOM     89  C   UNL A   1      39.049  31.991  35.842  1.00  0.00     0.064 A 
ATOM     90  C   UNL A   1      39.442  33.324  36.025  1.00  0.00     0.173 A 
ATOM     91  C   UNL A   1      38.205  31.418  36.806  1.00  0.00     0.173 A 
ATOM     92  F   UNL A   1      40.257  33.916  35.141  1.00  0.00    -0.203 F 
ATOM     93  C   UNL A   1      39.033  34.043  37.146  1.00  0.00     0.198 A 
ATOM     94  C   UNL A   1      37.772  32.150  37.908  1.00  0.00     0.198 A 
ATOM     95  F   UNL A   1      37.791  30.148  36.675  1.00  0.00    -0.203 F 
ATOM     96  F   UNL A   1      39.467  35.299  37.329  1.00  0.00    -0.200 F 
ATOM     97  C   UNL A   1      38.194  33.458  38.083  1.00  0.00     0.200 A 
ATOM     98  F   UNL A   1      36.949  31.587  38.804  1.00  0.00    -0.200 F 
ATOM     99  F   UNL A   1      37.801  34.152  39.160  1.00  0.00    -0.200 F 
ENDBRANCH  66  89
ENDBRANCH  40  41
ENDBRANCH  33  35
ENDBRANCH  32  33
ENDBRANCH  31  32
ENDBRANCH  30  31
ENDBRANCH  29  30
ENDBRANCH  28  29
ENDBRANCH   1  28
TORSDOF 21
ENDMDL
MODEL 2
REMARK VINA RESULT:     -10.6      4.081      5.006
REMARK SMILES COc1cc([N+](=O)[O-])cc([C@H]2[NH2+][C@H](C(=O)OCCOCCOCCOC(=O)c3ccc(-c4c5nc(c(-c6c(F)c(F)c(F)c(F)c6F)c6ccc([nH]6)c(-c6c(F)c(F)c(F)c(F)c6F)c6nc(c(-c7c(F)c(F)c(F)c(F)c7F)c7ccc4[nH]7)C=C6)C=C5)cc3)CS2)c1O
REMARK SMILES IDX 20 1 19 2 18 3 17 4 16 5 14 6 15 7 13 8 11 9 12 10 92 11
REMARK SMILES IDX 91 14 10 15 3 16 4 17 93 18 5 19 9 20 2 21 1 22 94 23 6 25
REMARK SMILES IDX 7 26 8 27 21 28 22 29 23 30 24 31 25 32 26 33 27 34 28 35
REMARK SMILES IDX 29 36 90 37 30 38 89 39 31 40 32 41 33 42 83 43 34 44 88 45
REMARK SMILES IDX 82 46 84 47 35 48 87 49 81 50 80 51 36 53 68 54 48 55 67 56
REMARK SMILES IDX 49 57 52 58 66 59 85 60 50 61 51 62 65 64 86 65 53 66 37 67
REMARK SMILES IDX 38 68 46 69 39 70 40 71 44 72 47 73 41 74 42 75 45 76 43 77
REMARK SMILES IDX 69 78 70 79 78 80 71 81 72 82 76 83 79 84 73 85 74 86 77 87
REMARK SMILES IDX 75 88 54 89 55 90 63 91 56 92 57 93 61 94 64 95 58 96 59 97
REMARK SMILES IDX 62 98 60 99
REMARK H PARENT 12 12 12 13 94 24 84 52 52 63
REMARK Flexibility Score: inf
ROOT
ATOM      1  C   UNL A   1      44.627  19.064  24.304  1.00  0.00     0.188 C 
ENDROOT
BRANCH   1   2
ATOM      2  O   UNL A   1      43.302  19.286  24.773  1.00  0.00    -0.376 OA
BRANCH   2   3
ATOM      3  C   UNL A   1      42.872  18.682  25.988  1.00  0.00     0.202 C 
BRANCH   3   4
ATOM      4  C   UNL A   1      41.957  19.489  26.917  1.00  0.00     0.261 C 
BRANCH   4   5
ATOM      5  O   UNL A   1      40.853  20.126  26.249  1.00  0.00    -0.459 OA
BRANCH   5   6
ATOM      6  C   UNL A   1      40.340  21.220  26.862  1.00  0.00     0.365 C 
ATOM      7  O   UNL A   1      40.530  21.503  28.044  1.00  0.00    -0.245 OA
BRANCH   6   8
ATOM      8  C   UNL A   1      39.594  22.181  25.929  1.00  0.00     0.304 C 
ATOM      9  C   UNL A   1      37.182  22.273  25.908  1.00  0.00     0.278 C 
ATOM     10  N   UNL A   1      38.342  21.648  25.275  1.00  0.00    -0.319 N 
ATOM     11  S   UNL A   1      37.734  24.004  26.146  1.00  0.00    -0.087 SA
ATOM     12  H   UNL A   1      38.352  21.871  24.280  1.00  0.00     0.348 HD
ATOM     13  H   UNL A   1      38.295  20.635  25.386  1.00  0.00     0.348 HD
ATOM     14  C   UNL A   1      39.334  23.464  26.721  1.00  0.00     0.153 C 
BRANCH   9  15
ATOM     15  C   UNL A   1      35.862  22.245  25.146  1.00  0.00     0.073 A 
ATOM     16  C   UNL A   1      33.926  20.912  24.394  1.00  0.00     0.167 A 
ATOM     17  C   UNL A   1      33.353  22.045  23.826  1.00  0.00     0.136 A 
ATOM     18  C   UNL A   1      35.195  21.007  24.976  1.00  0.00     0.168 A 
ATOM     19  C   UNL A   1      34.032  23.266  23.885  1.00  0.00     0.273 A 
ATOM     20  C   UNL A   1      35.270  23.380  24.556  1.00  0.00     0.100 A 
BRANCH  16  21
ATOM     21  O   UNL A   1      33.160  19.777  24.322  1.00  0.00    -0.493 OA
ATOM     22  C   UNL A   1      32.386  19.635  23.130  1.00  0.00     0.278 C 
ENDBRANCH  16  21
BRANCH  18  23
ATOM     23  O   UNL A   1      35.822  19.847  25.359  1.00  0.00    -0.504 OA
ATOM     24  H   UNL A   1      36.601  19.568  24.920  1.00  0.00     0.293 HD
ENDBRANCH  18  23
BRANCH  19  25
ATOM     25  N   UNL A   1      33.432  24.443  23.236  1.00  0.00     0.062 N 
ATOM     26  O   UNL A   1      32.330  24.834  23.648  1.00  0.00    -0.258 OA
ATOM     27  O   UNL A   1      34.066  24.976  22.315  1.00  0.00    -0.258 OA
ENDBRANCH  19  25
ENDBRANCH   9  15
ENDBRANCH   6   8
ENDBRANCH   5   6
ENDBRANCH   4   5
ENDBRANCH   3   4
ENDBRANCH   2   3
ENDBRANCH   1   2
BRANCH   1  28
ATOM     28  C   UNL A   1      45.826  19.188  25.266  1.00  0.00     0.188 C 
BRANCH  28  29
ATOM     29  O   UNL A   1      46.658  20.300  25.016  1.00  0.00    -0.376 OA
BRANCH  29  30
ATOM     30  C   UNL A   1      46.009  21.536  24.766  1.00  0.00     0.202 C 
BRANCH  30  31
ATOM     31  C   UNL A   1      45.602  22.352  26.003  1.00  0.00     0.261 C 
BRANCH  31  32
ATOM     32  O   UNL A   1      44.215  22.273  26.378  1.00  0.00    -0.460 OA
BRANCH  32  33
ATOM     33  C   UNL A   1      43.335  22.949  25.612  1.00  0.00     0.338 C 
ATOM     34  O   UNL A   1      42.792  22.548  24.590  1.00  0.00    -0.246 OA
BRANCH  33  35
ATOM     35  C   UNL A   1      42.959  24.196  26.309  1.00  0.00     0.060 A 
ATOM     36  C   UNL A   1      42.747  25.354  25.548  1.00  0.00     0.016 A 
ATOM     37  C   UNL A   1      42.849  24.240  27.703  1.00  0.00     0.016 A 
ATOM     38  C   UNL A   1      42.492  26.572  26.181  1.00  0.00     0.010 A 
ATOM     39  C   UNL A   1      42.612  25.465  28.337  1.00  0.00     0.010 A 
ATOM     40  C   UNL A   1      42.484  26.644  27.581  1.00  0.00    -0.014 A 
BRANCH  40  41
ATOM     41  C   UNL A   1      42.622  27.972  28.233  1.00  0.00     0.031 A 
ATOM     42  C   UNL A   1      44.007  28.552  28.361  1.00  0.00     0.074 A 
ATOM     43  C   UNL A   1      41.558  28.680  28.647  1.00  0.00     0.049 A 
ATOM     44  N   UNL A   1      44.392  29.698  28.861  1.00  0.00    -0.248 NA
ATOM     45  C   UNL A   1      45.107  27.719  27.849  1.00  0.00     0.031 C 
ATOM     46  C   UNL A   1      40.165  28.259  28.540  1.00  0.00     0.029 A 
ATOM     47  N   UNL A   1      41.493  29.918  29.242  1.00  0.00    -0.354 N 
ATOM     48  C   UNL A   1      45.774  29.724  28.719  1.00  0.00     0.074 A 
ATOM     49  C   UNL A   1      46.165  28.464  28.129  1.00  0.00     0.031 C 
ATOM     50  C   UNL A   1      39.378  29.226  29.047  1.00  0.00     0.029 A 
ATOM     51  C   UNL A   1      40.215  30.321  29.536  1.00  0.00     0.049 A 
ATOM     52  H   UNL A   1      42.288  30.462  29.438  1.00  0.00     0.167 HD
ATOM     53  C   UNL A   1      46.644  30.714  29.036  1.00  0.00     0.037 A 
ATOM     54  C   UNL A   1      39.777  31.448  30.135  1.00  0.00     0.037 A 
ATOM     55  C   UNL A   1      46.263  31.963  29.639  1.00  0.00     0.049 A 
ATOM     56  C   UNL A   1      40.772  32.498  30.563  1.00  0.00     0.074 A 
ATOM     57  C   UNL A   1      47.068  33.024  30.011  1.00  0.00     0.029 A 
ATOM     58  N   UNL A   1      44.961  32.313  29.966  1.00  0.00    -0.354 N 
ATOM     59  N   UNL A   1      42.074  32.525  30.407  1.00  0.00    -0.248 NA
ATOM     60  C   UNL A   1      40.229  33.682  31.246  1.00  0.00     0.031 C 
ATOM     61  C   UNL A   1      46.259  33.998  30.608  1.00  0.00     0.029 A 
ATOM     62  C   UNL A   1      44.943  33.569  30.553  1.00  0.00     0.049 A 
ATOM     63  H   UNL A   1      44.168  31.753  29.806  1.00  0.00     0.167 HD
ATOM     64  C   UNL A   1      42.498  33.742  30.928  1.00  0.00     0.074 A 
ATOM     65  C   UNL A   1      41.314  34.428  31.402  1.00  0.00     0.031 C 
ATOM     66  C   UNL A   1      43.755  34.249  31.001  1.00  0.00     0.037 A 
BRANCH  53  67
ATOM     67  C   UNL A   1      48.096  30.458  28.757  1.00  0.00     0.064 A 
ATOM     68  C   UNL A   1      48.907  29.753  29.662  1.00  0.00     0.173 A 
ATOM     69  C   UNL A   1      48.690  30.934  27.579  1.00  0.00     0.173 A 
ATOM     70  F   UNL A   1      48.394  29.294  30.813  1.00  0.00    -0.203 F 
ATOM     71  C   UNL A   1      50.266  29.572  29.415  1.00  0.00     0.198 A 
ATOM     72  C   UNL A   1      50.041  30.721  27.319  1.00  0.00     0.198 A 
ATOM     73  F   UNL A   1      47.959  31.612  26.680  1.00  0.00    -0.203 F 
ATOM     74  F   UNL A   1      51.033  28.954  30.324  1.00  0.00    -0.200 F 
ATOM     75  C   UNL A   1      50.830  30.051  28.242  1.00  0.00     0.200 A 
ATOM     76  F   UNL A   1      50.582  31.176  26.181  1.00  0.00    -0.200 F 
ATOM     77  F   UNL A   1      52.137  29.879  28.007  1.00  0.00    -0.200 F 
ENDBRANCH  53  67
BRANCH  54  78
ATOM     78  C   UNL A   1      38.321  31.662  30.350  1.00  0.00     0.064 A 
ATOM     79  C   UNL A   1      37.573  32.457  29.471  1.00  0.00     0.173 A 
ATOM     80  C   UNL A   1      37.656  31.105  31.452  1.00  0.00     0.173 A 
ATOM     81  F   UNL A   1      38.171  33.036  28.420  1.00  0.00    -0.203 F 
ATOM     82  C   UNL A   1      36.220  32.703  29.695  1.00  0.00     0.198 A 
ATOM     83  C   UNL A   1      36.295  31.328  31.660  1.00  0.00     0.198 A 
ATOM     84  F   UNL A   1      38.327  30.341  32.326  1.00  0.00    -0.203 F 
ATOM     85  F   UNL A   1      35.541  33.506  28.864  1.00  0.00    -0.200 F 
ATOM     86  C   UNL A   1      35.581  32.134  30.785  1.00  0.00     0.200 A 
ATOM     87  F   UNL A   1      35.680  30.770  32.711  1.00  0.00    -0.200 F 
ATOM     88  F   UNL A   1      34.279  32.368  31.000  1.00  0.00    -0.200 F 
ENDBRANCH  54  78
BRANCH  66  89
ATOM     89  C   UNL A   1      43.910  35.639  31.552  1.00  0.00     0.064 A 
ATOM     90  C   UNL A   1      43.899  36.773  30.727  1.00  0.00     0.173 A 
ATOM     91  C   UNL A   1      44.045  35.837  32.935  1.00  0.00     0.173 A 
ATOM     92  F   UNL A   1      43.786  36.640  29.398  1.00  0.00    -0.203 F 
ATOM     93  C   UNL A   1      44.052  38.050  31.264  1.00  0.00     0.198 A 
ATOM     94  C   UNL A   1      44.164  37.116  33.471  1.00  0.00     0.198 A 
ATOM     95  F   UNL A   1      44.053  34.787  33.771  1.00  0.00    -0.203 F 
ATOM     96  F   UNL A   1      44.095  39.115  30.451  1.00  0.00    -0.200 F 
ATOM     97  C   UNL A   1      44.178  38.221  32.634  1.00  0.00     0.200 A 
ATOM     98  F   UNL A   1      44.270  37.279  34.797  1.00  0.00    -0.200 F 
ATOM     99  F   UNL A   1      44.323  39.450  33.148  1.00  0.00    -0.200 F 
ENDBRANCH  66  89
ENDBRANCH  40  41
ENDBRANCH  33  35
ENDBRANCH  32  33
ENDBRANCH  31  32
ENDBRANCH  30  31
ENDBRANCH  29  30
ENDBRANCH  28  29
ENDBRANCH   1  28
TORSDOF 21
ENDMDL
MODEL 3
REMARK VINA RESULT:     -10.3      3.672      9.433
REMARK SMILES COc1cc([N+](=O)[O-])cc([C@H]2[NH2+][C@H](C(=O)OCCOCCOCCOC(=O)c3ccc(-c4c5nc(c(-c6c(F)c(F)c(F)c(F)c6F)c6ccc([nH]6)c(-c6c(F)c(F)c(F)c(F)c6F)c6nc(c(-c7c(F)c(F)c(F)c(F)c7F)c7ccc4[nH]7)C=C6)C=C5)cc3)CS2)c1O
REMARK SMILES IDX 20 1 19 2 18 3 17 4 16 5 14 6 15 7 13 8 11 9 12 10 92 11
REMARK SMILES IDX 91 14 10 15 3 16 4 17 93 18 5 19 9 20 2 21 1 22 94 23 6 25
REMARK SMILES IDX 7 26 8 27 21 28 22 29 23 30 24 31 25 32 26 33 27 34 28 35
REMARK SMILES IDX 29 36 90 37 30 38 89 39 31 40 32 41 33 42 83 43 34 44 88 45
REMARK SMILES IDX 82 46 84 47 35 48 87 49 81 50 80 51 36 53 68 54 48 55 67 56
REMARK SMILES IDX 49 57 52 58 66 59 85 60 50 61 51 62 65 64 86 65 53 66 37 67
REMARK SMILES IDX 38 68 46 69 39 70 40 71 44 72 47 73 41 74 42 75 45 76 43 77
REMARK SMILES IDX 69 78 70 79 78 80 71 81 72 82 76 83 79 84 73 85 74 86 77 87
REMARK SMILES IDX 75 88 54 89 55 90 63 91 56 92 57 93 61 94 64 95 58 96 59 97
REMARK SMILES IDX 62 98 60 99
REMARK H PARENT 12 12 12 13 94 24 84 52 52 63
REMARK Flexibility Score: inf
ROOT
ATOM      1  C   UNL A   1      33.232  28.057  26.370  1.00  0.00     0.188 C 
ENDROOT
BRANCH   1   2
ATOM      2  O   UNL A   1      34.156  28.124  25.290  1.00  0.00    -0.376 OA
BRANCH   2   3
ATOM      3  C   UNL A   1      33.678  28.108  23.950  1.00  0.00     0.202 C 
BRANCH   3   4
ATOM      4  C   UNL A   1      32.439  28.946  23.610  1.00  0.00     0.261 C 
BRANCH   4   5
ATOM      5  O   UNL A   1      31.196  28.368  24.049  1.00  0.00    -0.459 OA
BRANCH   5   6
ATOM      6  C   UNL A   1      30.540  27.610  23.137  1.00  0.00     0.365 C 
ATOM      7  O   UNL A   1      30.259  27.985  22.001  1.00  0.00    -0.245 OA
BRANCH   6   8
ATOM      8  C   UNL A   1      30.277  26.166  23.582  1.00  0.00     0.304 C 
ATOM      9  C   UNL A   1      32.022  24.837  24.589  1.00  0.00     0.278 C 
ATOM     10  N   UNL A   1      31.380  25.169  23.318  1.00  0.00    -0.319 N 
ATOM     11  S   UNL A   1      30.605  24.739  25.746  1.00  0.00    -0.087 SA
ATOM     12  H   UNL A   1      30.988  24.325  22.901  1.00  0.00     0.348 HD
ATOM     13  H   UNL A   1      32.064  25.569  22.676  1.00  0.00     0.348 HD
ATOM     14  C   UNL A   1      29.881  26.217  25.058  1.00  0.00     0.153 C 
BRANCH   9  15
ATOM     15  C   UNL A   1      32.838  23.551  24.651  1.00  0.00     0.073 A 
ATOM     16  C   UNL A   1      35.043  22.507  25.028  1.00  0.00     0.167 A 
ATOM     17  C   UNL A   1      34.482  21.243  24.876  1.00  0.00     0.136 A 
ATOM     18  C   UNL A   1      34.239  23.638  24.842  1.00  0.00     0.168 A 
ATOM     19  C   UNL A   1      33.119  21.123  24.584  1.00  0.00     0.273 A 
ATOM     20  C   UNL A   1      32.290  22.263  24.491  1.00  0.00     0.100 A 
BRANCH  16  21
ATOM     21  O   UNL A   1      36.374  22.514  25.357  1.00  0.00    -0.493 OA
ATOM     22  C   UNL A   1      37.192  21.605  24.619  1.00  0.00     0.278 C 
ENDBRANCH  16  21
BRANCH  18  23
ATOM     23  O   UNL A   1      34.848  24.868  24.809  1.00  0.00    -0.504 OA
ATOM     24  H   UNL A   1      35.447  25.113  25.488  1.00  0.00     0.293 HD
ENDBRANCH  18  23
BRANCH  19  25
ATOM     25  N   UNL A   1      32.554  19.779  24.379  1.00  0.00     0.062 N 
ATOM     26  O   UNL A   1      32.507  19.340  23.221  1.00  0.00    -0.258 OA
ATOM     27  O   UNL A   1      32.158  19.164  25.379  1.00  0.00    -0.258 OA
ENDBRANCH  19  25
ENDBRANCH   9  15
ENDBRANCH   6   8
ENDBRANCH   5   6
ENDBRANCH   4   5
ENDBRANCH   3   4
ENDBRANCH   2   3
ENDBRANCH   1   2
BRANCH   1  28
ATOM     28  C   UNL A   1      32.993  29.287  27.269  1.00  0.00     0.188 C 
BRANCH  28  29
ATOM     29  O   UNL A   1      31.871  30.062  26.905  1.00  0.00    -0.376 OA
BRANCH  29  30
ATOM     30  C   UNL A   1      32.053  31.468  26.868  1.00  0.00     0.202 C 
BRANCH  30  31
ATOM     31  C   UNL A   1      33.274  32.014  27.627  1.00  0.00     0.261 C 
BRANCH  31  32
ATOM     32  O   UNL A   1      33.602  33.393  27.377  1.00  0.00    -0.460 OA
BRANCH  32  33
ATOM     33  C   UNL A   1      33.470  34.249  28.410  1.00  0.00     0.338 C 
ATOM     34  O   UNL A   1      32.528  35.001  28.625  1.00  0.00    -0.246 OA
BRANCH  33  35
ATOM     35  C   UNL A   1      34.560  33.998  29.376  1.00  0.00     0.060 A 
ATOM     36  C   UNL A   1      35.885  34.170  28.954  1.00  0.00     0.016 A 
ATOM     37  C   UNL A   1      34.286  33.561  30.676  1.00  0.00     0.016 A 
ATOM     38  C   UNL A   1      36.940  33.843  29.808  1.00  0.00     0.010 A 
ATOM     39  C   UNL A   1      35.344  33.215  31.525  1.00  0.00     0.010 A 
ATOM     40  C   UNL A   1      36.673  33.306  31.076  1.00  0.00    -0.014 A 
BRANCH  40  41
ATOM     41  C   UNL A   1      37.759  32.593  31.797  1.00  0.00     0.031 A 
ATOM     42  C   UNL A   1      38.393  31.406  31.119  1.00  0.00     0.074 A 
ATOM     43  C   UNL A   1      38.221  33.009  32.988  1.00  0.00     0.049 A 
ATOM     44  N   UNL A   1      39.371  30.635  31.520  1.00  0.00    -0.248 NA
ATOM     45  C   UNL A   1      37.844  31.044  29.802  1.00  0.00     0.031 C 
ATOM     46  C   UNL A   1      37.732  34.167  33.730  1.00  0.00     0.029 A 
ATOM     47  N   UNL A   1      39.220  32.496  33.781  1.00  0.00    -0.354 N 
ATOM     48  C   UNL A   1      39.556  29.703  30.506  1.00  0.00     0.074 A 
ATOM     49  C   UNL A   1      38.562  29.976  29.492  1.00  0.00     0.031 C 
ATOM     50  C   UNL A   1      38.436  34.282  34.870  1.00  0.00     0.029 A 
ATOM     51  C   UNL A   1      39.408  33.192  34.949  1.00  0.00     0.049 A 
ATOM     52  H   UNL A   1      39.749  31.705  33.534  1.00  0.00     0.167 HD
ATOM     53  C   UNL A   1      40.481  28.717  30.414  1.00  0.00     0.037 A 
ATOM     54  C   UNL A   1      40.268  32.966  35.963  1.00  0.00     0.037 A 
ATOM     55  C   UNL A   1      41.461  28.430  31.426  1.00  0.00     0.049 A 
ATOM     56  C   UNL A   1      41.228  31.805  35.882  1.00  0.00     0.074 A 
ATOM     57  C   UNL A   1      42.432  27.445  31.436  1.00  0.00     0.029 A 
ATOM     58  N   UNL A   1      41.587  29.129  32.619  1.00  0.00    -0.354 N 
ATOM     59  N   UNL A   1      41.411  30.943  34.911  1.00  0.00    -0.248 NA
ATOM     60  C   UNL A   1      42.109  31.595  37.040  1.00  0.00     0.031 C 
ATOM     61  C   UNL A   1      43.115  27.517  32.656  1.00  0.00     0.029 A 
ATOM     62  C   UNL A   1      42.609  28.584  33.380  1.00  0.00     0.049 A 
ATOM     63  H   UNL A   1      41.033  29.897  32.885  1.00  0.00     0.167 HD
ATOM     64  C   UNL A   1      42.454  30.119  35.321  1.00  0.00     0.074 A 
ATOM     65  C   UNL A   1      42.867  30.588  36.627  1.00  0.00     0.031 C 
ATOM     66  C   UNL A   1      43.024  29.074  34.670  1.00  0.00     0.037 A 
BRANCH  53  67
ATOM     67  C   UNL A   1      40.443  27.862  29.181  1.00  0.00     0.064 A 
ATOM     68  C   UNL A   1      39.650  26.706  29.109  1.00  0.00     0.173 A 
ATOM     69  C   UNL A   1      41.219  28.194  28.061  1.00  0.00     0.173 A 
ATOM     70  F   UNL A   1      38.905  26.332  30.161  1.00  0.00    -0.203 F 
ATOM     71  C   UNL A   1      39.668  25.893  27.979  1.00  0.00     0.198 A 
ATOM     72  C   UNL A   1      41.209  27.398  26.919  1.00  0.00     0.198 A 
ATOM     73  F   UNL A   1      41.993  29.291  28.075  1.00  0.00    -0.203 F 
ATOM     74  F   UNL A   1      38.955  24.759  27.960  1.00  0.00    -0.200 F 
ATOM     75  C   UNL A   1      40.443  26.243  26.883  1.00  0.00     0.200 A 
ATOM     76  F   UNL A   1      41.951  27.743  25.857  1.00  0.00    -0.200 F 
ATOM     77  F   UNL A   1      40.463  25.458  25.797  1.00  0.00    -0.200 F 
ENDBRANCH  53  67
BRANCH  54  78
ATOM     78  C   UNL A   1      40.284  33.871  37.144  1.00  0.00     0.064 A 
ATOM     79  C   UNL A   1      39.415  33.661  38.224  1.00  0.00     0.173 A 
ATOM     80  C   UNL A   1      41.142  34.979  37.203  1.00  0.00     0.173 A 
ATOM     81  F   UNL A   1      38.555  32.632  38.200  1.00  0.00    -0.203 F 
ATOM     82  C   UNL A   1      39.390  34.533  39.310  1.00  0.00     0.198 A 
ATOM     83  C   UNL A   1      41.136  35.835  38.303  1.00  0.00     0.198 A 
ATOM     84  F   UNL A   1      41.988  35.228  36.194  1.00  0.00    -0.203 F 
ATOM     85  F   UNL A   1      38.516  34.335  40.306  1.00  0.00    -0.200 F 
ATOM     86  C   UNL A   1      40.255  35.616  39.351  1.00  0.00     0.200 A 
ATOM     87  F   UNL A   1      41.979  36.876  38.343  1.00  0.00    -0.200 F 
ATOM     88  F   UNL A   1      40.233  36.455  40.397  1.00  0.00    -0.200 F 
ENDBRANCH  54  78
BRANCH  66  89
ATOM     89  C   UNL A   1      44.199  28.406  35.326  1.00  0.00     0.064 A 
ATOM     90  C   UNL A   1      44.048  27.310  36.187  1.00  0.00     0.173 A 
ATOM     91  C   UNL A   1      45.503  28.858  35.065  1.00  0.00     0.173 A 
ATOM     92  F   UNL A   1      42.825  26.846  36.481  1.00  0.00    -0.203 F 
ATOM     93  C   UNL A   1      45.155  26.713  36.788  1.00  0.00     0.198 A 
ATOM     94  C   UNL A   1      46.608  28.239  35.641  1.00  0.00     0.198 A 
ATOM     95  F   UNL A   1      45.706  29.898  34.241  1.00  0.00    -0.203 F 
ATOM     96  F   UNL A   1      44.981  25.702  37.652  1.00  0.00    -0.200 F 
ATOM     97  C   UNL A   1      46.433  27.173  36.510  1.00  0.00     0.200 A 
ATOM     98  F   UNL A   1      47.843  28.676  35.358  1.00  0.00    -0.200 F 
ATOM     99  F   UNL A   1      47.495  26.597  37.087  1.00  0.00    -0.200 F 
ENDBRANCH  66  89
ENDBRANCH  40  41
ENDBRANCH  33  35
ENDBRANCH  32  33
ENDBRANCH  31  32
ENDBRANCH  30  31
ENDBRANCH  29  30
ENDBRANCH  28  29
ENDBRANCH   1  28
TORSDOF 21
ENDMDL
