MODEL 1
REMARK VINA RESULT:     -11.9      0.000      0.000
REMARK SMILES Cc1c(-c2nn(-c3ccccc3)cc2/C=N/O)nnn1-c1ccc(C(=O)OCCOCCOCCOC(=O)c2ccc(-c3c4nc(c(-c5c(F)c(F)c(F)c(F)c5F)c5ccc([nH]5)c(-c5c(F)c(F)c(F)c(F)c5F)c5nc(c(-c6c(F)c(F)c(F)c(F)c6F)c6ccc3[nH]6)C=C5)C=C4)cc2)cc1
REMARK SMILES IDX 31 1 30 2 29 3 28 4 27 5 25 6 26 7 24 8 21 9 22 10 103 11
REMARK SMILES IDX 23 12 102 13 20 14 1 15 2 16 3 17 18 18 19 19 4 20 5 21
REMARK SMILES IDX 14 22 6 23 13 24 15 25 16 26 17 27 7 29 8 30 12 31 9 32
REMARK SMILES IDX 11 33 10 34 32 35 33 36 34 37 35 38 36 39 37 40 38 41 39 42
REMARK SMILES IDX 40 43 101 44 41 45 100 46 42 47 43 48 44 49 94 50 45 51
REMARK SMILES IDX 99 52 93 53 95 54 46 55 98 56 92 57 91 58 47 60 79 61 59 62
REMARK SMILES IDX 78 63 60 64 63 65 77 66 96 67 61 68 62 69 76 71 97 72 64 73
REMARK SMILES IDX 48 74 49 75 57 76 50 77 51 78 55 79 58 80 52 81 53 82 56 83
REMARK SMILES IDX 54 84 80 85 81 86 89 87 82 88 83 89 87 90 90 91 84 92 85 93
REMARK SMILES IDX 88 94 86 95 65 96 66 97 74 98 67 99 68 100 72 101 75 102
REMARK SMILES IDX 69 103 70 104 73 105 71 106
REMARK H PARENT 17 28 95 59 63 70
REMARK Flexibility Score: inf
ROOT
ATOM      1  C   UNL A   1      45.474  22.537  24.635  1.00  0.00     0.188 C 
ENDROOT
BRANCH   1   2
ATOM      2  O   UNL A   1      45.280  22.107  25.972  1.00  0.00    -0.376 OA
BRANCH   2   3
ATOM      3  C   UNL A   1      43.921  22.112  26.412  1.00  0.00     0.202 C 
BRANCH   3   4
ATOM      4  C   UNL A   1      42.897  21.656  25.360  1.00  0.00     0.261 C 
BRANCH   4   5
ATOM      5  O   UNL A   1      42.451  20.297  25.498  1.00  0.00    -0.460 OA
BRANCH   5   6
ATOM      6  C   UNL A   1      41.586  20.041  26.505  1.00  0.00     0.338 C 
ATOM      7  O   UNL A   1      41.860  19.559  27.588  1.00  0.00    -0.246 OA
BRANCH   6   8
ATOM      8  C   UNL A   1      40.249  20.579  26.146  1.00  0.00     0.060 A 
ATOM      9  C   UNL A   1      37.706  21.622  25.625  1.00  0.00     0.067 A 
ATOM     10  C   UNL A   1      38.670  22.422  26.249  1.00  0.00     0.029 A 
ATOM     11  C   UNL A   1      38.048  20.342  25.167  1.00  0.00     0.029 A 
ATOM     12  C   UNL A   1      39.929  21.886  26.538  1.00  0.00     0.018 A 
ATOM     13  C   UNL A   1      39.322  19.824  25.419  1.00  0.00     0.018 A 
BRANCH   9  14
ATOM     14  N   UNL A   1      36.376  22.099  25.525  1.00  0.00    -0.217 N 
ATOM     15  C   UNL A   1      36.408  23.215  23.215  1.00  0.00     0.069 C 
ATOM     16  C   UNL A   1      35.802  22.857  24.519  1.00  0.00     0.071 A 
ATOM     17  C   UNL A   1      34.498  23.020  24.946  1.00  0.00     0.137 A 
ATOM     18  N   UNL A   1      34.287  22.334  26.102  1.00  0.00    -0.128 NA
ATOM     19  N   UNL A   1      35.424  21.720  26.417  1.00  0.00    -0.061 NA
BRANCH  17  20
ATOM     20  C   UNL A   1      33.428  23.712  24.230  1.00  0.00     0.124 A 
ATOM     21  N   UNL A   1      33.294  25.046  24.270  1.00  0.00    -0.165 NA
ATOM     22  C   UNL A   1      32.344  23.079  23.580  1.00  0.00     0.044 A 
ATOM     23  N   UNL A   1      32.069  25.278  23.749  1.00  0.00    -0.240 N 
ATOM     24  C   UNL A   1      31.465  24.115  23.326  1.00  0.00     0.125 A 
BRANCH  22  25
ATOM     25  C   UNL A   1      32.101  21.700  23.244  1.00  0.00     0.166 C 
ATOM     26  N   UNL A   1      32.084  21.326  22.009  1.00  0.00    -0.097 NA
BRANCH  26  27
ATOM     27  O   UNL A   1      31.789  19.960  21.943  1.00  0.00    -0.411 OA
ATOM     28  H   UNL A   1      31.618  19.556  21.115  1.00  0.00     0.330 HD
ENDBRANCH  26  27
ENDBRANCH  22  25
BRANCH  23  29
ATOM     29  C   UNL A   1      31.521  26.584  23.712  1.00  0.00     0.065 A 
ATOM     30  C   UNL A   1      32.254  27.655  24.239  1.00  0.00     0.028 A 
ATOM     31  C   UNL A   1      30.254  26.807  23.155  1.00  0.00     0.028 A 
ATOM     32  C   UNL A   1      31.737  28.950  24.167  1.00  0.00     0.002 A 
ATOM     33  C   UNL A   1      29.725  28.100  23.132  1.00  0.00     0.002 A 
ATOM     34  C   UNL A   1      30.472  29.171  23.623  1.00  0.00     0.000 A 
ENDBRANCH  23  29
ENDBRANCH  17  20
ENDBRANCH   9  14
ENDBRANCH   6   8
ENDBRANCH   5   6
ENDBRANCH   4   5
ENDBRANCH   3   4
ENDBRANCH   2   3
ENDBRANCH   1   2
BRANCH   1  35
ATOM     35  C   UNL A   1      46.539  23.635  24.430  1.00  0.00     0.188 C 
BRANCH  35  36
ATOM     36  O   UNL A   1      46.672  24.739  25.318  1.00  0.00    -0.376 OA
BRANCH  36  37
ATOM     37  C   UNL A   1      45.707  25.779  25.353  1.00  0.00     0.202 C 
BRANCH  37  38
ATOM     38  C   UNL A   1      45.131  26.229  26.693  1.00  0.00     0.261 C 
BRANCH  38  39
ATOM     39  O   UNL A   1      43.989  25.487  27.105  1.00  0.00    -0.460 OA
BRANCH  39  40
ATOM     40  C   UNL A   1      43.973  25.195  28.424  1.00  0.00     0.338 C 
ATOM     41  O   UNL A   1      44.614  24.329  28.993  1.00  0.00    -0.246 OA
BRANCH  40  42
ATOM     42  C   UNL A   1      43.019  26.074  29.119  1.00  0.00     0.060 A 
ATOM     43  C   UNL A   1      41.887  26.463  28.397  1.00  0.00     0.016 A 
ATOM     44  C   UNL A   1      43.337  26.660  30.352  1.00  0.00     0.016 A 
ATOM     45  C   UNL A   1      41.194  27.588  28.795  1.00  0.00     0.010 A 
ATOM     46  C   UNL A   1      42.644  27.788  30.752  1.00  0.00     0.010 A 
ATOM     47  C   UNL A   1      41.650  28.296  29.909  1.00  0.00    -0.014 A 
BRANCH  47  48
ATOM     48  C   UNL A   1      41.226  29.682  30.028  1.00  0.00     0.031 A 
ATOM     49  C   UNL A   1      42.196  30.748  29.701  1.00  0.00     0.074 A 
ATOM     50  C   UNL A   1      39.942  29.960  30.334  1.00  0.00     0.049 A 
ATOM     51  N   UNL A   1      42.504  31.788  30.407  1.00  0.00    -0.248 NA
ATOM     52  C   UNL A   1      42.915  30.647  28.425  1.00  0.00     0.031 C 
ATOM     53  C   UNL A   1      38.818  29.017  30.389  1.00  0.00     0.029 A 
ATOM     54  N   UNL A   1      39.346  31.170  30.540  1.00  0.00    -0.354 N 
ATOM     55  C   UNL A   1      43.332  32.562  29.601  1.00  0.00     0.074 A 
ATOM     56  C   UNL A   1      43.621  31.778  28.427  1.00  0.00     0.031 C 
ATOM     57  C   UNL A   1      37.660  29.710  30.396  1.00  0.00     0.029 A 
ATOM     58  C   UNL A   1      37.963  31.130  30.456  1.00  0.00     0.049 A 
ATOM     59  H   UNL A   1      39.851  31.993  30.730  1.00  0.00     0.167 HD
ATOM     60  C   UNL A   1      43.563  33.876  29.861  1.00  0.00     0.037 A 
ATOM     61  C   UNL A   1      37.125  32.187  30.349  1.00  0.00     0.037 A 
ATOM     62  C   UNL A   1      43.353  34.206  31.244  1.00  0.00     0.049 A 
ATOM     63  C   UNL A   1      37.850  33.401  30.794  1.00  0.00     0.074 A 
ATOM     64  C   UNL A   1      43.878  33.744  32.438  1.00  0.00     0.029 A 
ATOM     65  N   UNL A   1      42.276  34.977  31.599  1.00  0.00    -0.354 N 
ATOM     66  N   UNL A   1      38.173  33.668  32.028  1.00  0.00    -0.248 NA
ATOM     67  C   UNL A   1      38.543  34.187  29.782  1.00  0.00     0.031 C 
ATOM     68  C   UNL A   1      42.822  33.866  33.389  1.00  0.00     0.029 A 
ATOM     69  C   UNL A   1      41.725  34.396  32.711  1.00  0.00     0.049 A 
ATOM     70  H   UNL A   1      41.962  35.790  31.142  1.00  0.00     0.167 HD
ATOM     71  C   UNL A   1      39.377  34.348  31.937  1.00  0.00     0.074 A 
ATOM     72  C   UNL A   1      39.487  34.747  30.541  1.00  0.00     0.031 C 
ATOM     73  C   UNL A   1      40.305  34.278  32.935  1.00  0.00     0.037 A 
BRANCH  60  74
ATOM     74  C   UNL A   1      43.696  34.916  28.781  1.00  0.00     0.064 A 
ATOM     75  C   UNL A   1      44.934  35.552  28.568  1.00  0.00     0.173 A 
ATOM     76  C   UNL A   1      42.585  35.509  28.141  1.00  0.00     0.173 A 
ATOM     77  F   UNL A   1      46.046  35.097  29.163  1.00  0.00    -0.203 F 
ATOM     78  C   UNL A   1      45.040  36.721  27.809  1.00  0.00     0.198 A 
ATOM     79  C   UNL A   1      42.704  36.643  27.340  1.00  0.00     0.198 A 
ATOM     80  F   UNL A   1      41.334  35.079  28.354  1.00  0.00    -0.203 F 
ATOM     81  F   UNL A   1      46.217  37.356  27.729  1.00  0.00    -0.200 F 
ATOM     82  C   UNL A   1      43.926  37.265  27.197  1.00  0.00     0.200 A 
ATOM     83  F   UNL A   1      41.608  37.168  26.774  1.00  0.00    -0.200 F 
ATOM     84  F   UNL A   1      44.017  38.414  26.513  1.00  0.00    -0.200 F 
ENDBRANCH  60  74
BRANCH  61  85
ATOM     85  C   UNL A   1      35.821  32.242  29.651  1.00  0.00     0.064 A 
ATOM     86  C   UNL A   1      34.893  33.256  29.927  1.00  0.00     0.173 A 
ATOM     87  C   UNL A   1      35.552  31.435  28.528  1.00  0.00     0.173 A 
ATOM     88  F   UNL A   1      35.102  34.107  30.942  1.00  0.00    -0.203 F 
ATOM     89  C   UNL A   1      33.762  33.451  29.127  1.00  0.00     0.198 A 
ATOM     90  C   UNL A   1      34.415  31.617  27.741  1.00  0.00     0.198 A 
ATOM     91  F   UNL A   1      36.431  30.510  28.113  1.00  0.00    -0.203 F 
ATOM     92  F   UNL A   1      32.927  34.465  29.387  1.00  0.00    -0.200 F 
ATOM     93  C   UNL A   1      33.525  32.631  28.035  1.00  0.00     0.200 A 
ATOM     94  F   UNL A   1      34.217  30.838  26.668  1.00  0.00    -0.200 F 
ATOM     95  F   UNL A   1      32.465  32.844  27.244  1.00  0.00    -0.200 F 
ENDBRANCH  61  85
BRANCH  73  96
ATOM     96  C   UNL A   1      39.867  33.738  34.262  1.00  0.00     0.064 A 
ATOM     97  C   UNL A   1      39.413  34.550  35.316  1.00  0.00     0.173 A 
ATOM     98  C   UNL A   1      39.774  32.350  34.426  1.00  0.00     0.173 A 
ATOM     99  F   UNL A   1      39.372  35.884  35.188  1.00  0.00    -0.203 F 
ATOM    100  C   UNL A   1      38.940  33.992  36.501  1.00  0.00     0.198 A 
ATOM    101  C   UNL A   1      39.268  31.796  35.599  1.00  0.00     0.198 A 
ATOM    102  F   UNL A   1      40.133  31.529  33.427  1.00  0.00    -0.203 F 
ATOM    103  F   UNL A   1      38.528  34.787  37.500  1.00  0.00    -0.200 F 
ATOM    104  C   UNL A   1      38.864  32.616  36.640  1.00  0.00     0.200 A 
ATOM    105  F   UNL A   1      39.149  30.465  35.711  1.00  0.00    -0.200 F 
ATOM    106  F   UNL A   1      38.374  32.080  37.767  1.00  0.00    -0.200 F 
ENDBRANCH  73  96
ENDBRANCH  47  48
ENDBRANCH  40  42
ENDBRANCH  39  40
ENDBRANCH  38  39
ENDBRANCH  37  38
ENDBRANCH  36  37
ENDBRANCH  35  36
ENDBRANCH   1  35
TORSDOF 22
ENDMDL
MODEL 2
REMARK VINA RESULT:     -11.5      3.741      8.417
REMARK SMILES Cc1c(-c2nn(-c3ccccc3)cc2/C=N/O)nnn1-c1ccc(C(=O)OCCOCCOCCOC(=O)c2ccc(-c3c4nc(c(-c5c(F)c(F)c(F)c(F)c5F)c5ccc([nH]5)c(-c5c(F)c(F)c(F)c(F)c5F)c5nc(c(-c6c(F)c(F)c(F)c(F)c6F)c6ccc3[nH]6)C=C5)C=C4)cc2)cc1
REMARK SMILES IDX 31 1 30 2 29 3 28 4 27 5 25 6 26 7 24 8 21 9 22 10 103 11
REMARK SMILES IDX 23 12 102 13 20 14 1 15 2 16 3 17 18 18 19 19 4 20 5 21
REMARK SMILES IDX 14 22 6 23 13 24 15 25 16 26 17 27 7 29 8 30 12 31 9 32
REMARK SMILES IDX 11 33 10 34 32 35 33 36 34 37 35 38 36 39 37 40 38 41 39 42
REMARK SMILES IDX 40 43 101 44 41 45 100 46 42 47 43 48 44 49 94 50 45 51
REMARK SMILES IDX 99 52 93 53 95 54 46 55 98 56 92 57 91 58 47 60 79 61 59 62
REMARK SMILES IDX 78 63 60 64 63 65 77 66 96 67 61 68 62 69 76 71 97 72 64 73
REMARK SMILES IDX 48 74 49 75 57 76 50 77 51 78 55 79 58 80 52 81 53 82 56 83
REMARK SMILES IDX 54 84 80 85 81 86 89 87 82 88 83 89 87 90 90 91 84 92 85 93
REMARK SMILES IDX 88 94 86 95 65 96 66 97 74 98 67 99 68 100 72 101 75 102
REMARK SMILES IDX 69 103 70 104 73 105 71 106
REMARK H PARENT 17 28 95 59 63 70
REMARK Flexibility Score: inf
ROOT
ATOM      1  C   UNL A   1      50.081  27.390  26.070  1.00  0.00     0.188 C 
ENDROOT
BRANCH   1   2
ATOM      2  O   UNL A   1      50.718  28.081  27.132  1.00  0.00    -0.376 OA
BRANCH   2   3
ATOM      3  C   UNL A   1      51.096  27.263  28.239  1.00  0.00     0.202 C 
BRANCH   3   4
ATOM      4  C   UNL A   1      50.513  27.695  29.595  1.00  0.00     0.261 C 
BRANCH   4   5
ATOM      5  O   UNL A   1      49.090  27.535  29.721  1.00  0.00    -0.460 OA
BRANCH   5   6
ATOM      6  C   UNL A   1      48.658  26.430  30.368  1.00  0.00     0.338 C 
ATOM      7  O   UNL A   1      48.880  26.138  31.529  1.00  0.00    -0.246 OA
BRANCH   6   8
ATOM      8  C   UNL A   1      47.730  25.680  29.484  1.00  0.00     0.060 A 
ATOM      9  C   UNL A   1      45.947  24.175  27.941  1.00  0.00     0.067 A 
ATOM     10  C   UNL A   1      45.488  24.835  29.087  1.00  0.00     0.029 A 
ATOM     11  C   UNL A   1      47.268  24.356  27.510  1.00  0.00     0.029 A 
ATOM     12  C   UNL A   1      46.389  25.559  29.874  1.00  0.00     0.018 A 
ATOM     13  C   UNL A   1      48.157  25.117  28.276  1.00  0.00     0.018 A 
BRANCH   9  14
ATOM     14  N   UNL A   1      45.080  23.278  27.269  1.00  0.00    -0.217 N 
ATOM     15  C   UNL A   1      42.841  23.776  28.419  1.00  0.00     0.069 C 
ATOM     16  C   UNL A   1      43.738  23.032  27.504  1.00  0.00     0.071 A 
ATOM     17  C   UNL A   1      43.417  22.078  26.557  1.00  0.00     0.137 A 
ATOM     18  N   UNL A   1      44.488  21.827  25.754  1.00  0.00    -0.128 NA
ATOM     19  N   UNL A   1      45.483  22.612  26.156  1.00  0.00    -0.061 NA
BRANCH  17  20
ATOM     20  C   UNL A   1      42.101  21.488  26.327  1.00  0.00     0.124 A 
ATOM     21  N   UNL A   1      41.057  22.220  25.912  1.00  0.00    -0.165 NA
ATOM     22  C   UNL A   1      41.732  20.166  26.668  1.00  0.00     0.044 A 
ATOM     23  N   UNL A   1      39.986  21.414  26.091  1.00  0.00    -0.240 N 
ATOM     24  C   UNL A   1      40.355  20.170  26.549  1.00  0.00     0.125 A 
BRANCH  22  25
ATOM     25  C   UNL A   1      42.514  19.030  27.083  1.00  0.00     0.166 C 
ATOM     26  N   UNL A   1      43.397  18.526  26.288  1.00  0.00    -0.097 NA
BRANCH  26  27
ATOM     27  O   UNL A   1      43.989  17.415  26.899  1.00  0.00    -0.411 OA
ATOM     28  H   UNL A   1      44.404  16.757  26.376  1.00  0.00     0.330 HD
ENDBRANCH  26  27
ENDBRANCH  22  25
BRANCH  23  29
ATOM     29  C   UNL A   1      38.669  21.878  25.851  1.00  0.00     0.065 A 
ATOM     30  C   UNL A   1      37.704  20.990  25.358  1.00  0.00     0.028 A 
ATOM     31  C   UNL A   1      38.330  23.215  26.102  1.00  0.00     0.028 A 
ATOM     32  C   UNL A   1      36.395  21.432  25.160  1.00  0.00     0.002 A 
ATOM     33  C   UNL A   1      37.029  23.658  25.854  1.00  0.00     0.002 A 
ATOM     34  C   UNL A   1      36.060  22.765  25.399  1.00  0.00     0.000 A 
ENDBRANCH  23  29
ENDBRANCH  17  20
ENDBRANCH   9  14
ENDBRANCH   6   8
ENDBRANCH   5   6
ENDBRANCH   4   5
ENDBRANCH   3   4
ENDBRANCH   2   3
ENDBRANCH   1   2
BRANCH   1  35
ATOM     35  C   UNL A   1      48.606  27.762  25.815  1.00  0.00     0.188 C 
BRANCH  35  36
ATOM     36  O   UNL A   1      47.682  26.850  25.232  1.00  0.00    -0.376 OA
BRANCH  36  37
ATOM     37  C   UNL A   1      46.366  27.254  24.886  1.00  0.00     0.202 C 
BRANCH  37  38
ATOM     38  C   UNL A   1      45.193  26.315  25.157  1.00  0.00     0.261 C 
BRANCH  38  39
ATOM     39  O   UNL A   1      43.925  26.870  24.826  1.00  0.00    -0.460 OA
BRANCH  39  40
ATOM     40  C   UNL A   1      42.880  26.076  25.144  1.00  0.00     0.338 C 
ATOM     41  O   UNL A   1      42.737  24.899  24.861  1.00  0.00    -0.246 OA
BRANCH  40  42
ATOM     42  C   UNL A   1      41.871  26.850  25.884  1.00  0.00     0.060 A 
ATOM     43  C   UNL A   1      41.862  28.232  25.671  1.00  0.00     0.016 A 
ATOM     44  C   UNL A   1      41.112  26.263  26.906  1.00  0.00     0.016 A 
ATOM     45  C   UNL A   1      41.271  29.049  26.613  1.00  0.00     0.010 A 
ATOM     46  C   UNL A   1      40.520  27.081  27.850  1.00  0.00     0.010 A 
ATOM     47  C   UNL A   1      40.700  28.464  27.744  1.00  0.00    -0.014 A 
BRANCH  47  48
ATOM     48  C   UNL A   1      40.520  29.318  28.908  1.00  0.00     0.031 A 
ATOM     49  C   UNL A   1      39.373  30.250  28.929  1.00  0.00     0.074 A 
ATOM     50  C   UNL A   1      41.335  29.173  29.972  1.00  0.00     0.049 A 
ATOM     51  N   UNL A   1      39.380  31.516  29.200  1.00  0.00    -0.248 NA
ATOM     52  C   UNL A   1      38.047  29.706  28.610  1.00  0.00     0.031 C 
ATOM     53  C   UNL A   1      42.312  28.100  30.203  1.00  0.00     0.029 A 
ATOM     54  N   UNL A   1      41.376  29.888  31.133  1.00  0.00    -0.354 N 
ATOM     55  C   UNL A   1      38.044  31.900  29.248  1.00  0.00     0.074 A 
ATOM     56  C   UNL A   1      37.270  30.772  28.797  1.00  0.00     0.031 C 
ATOM     57  C   UNL A   1      42.682  28.111  31.500  1.00  0.00     0.029 A 
ATOM     58  C   UNL A   1      42.059  29.249  32.156  1.00  0.00     0.049 A 
ATOM     59  H   UNL A   1      40.960  30.774  31.234  1.00  0.00     0.167 HD
ATOM     60  C   UNL A   1      37.651  33.056  29.847  1.00  0.00     0.037 A 
ATOM     61  C   UNL A   1      42.043  29.573  33.469  1.00  0.00     0.037 A 
ATOM     62  C   UNL A   1      38.707  34.028  29.907  1.00  0.00     0.049 A 
ATOM     63  C   UNL A   1      41.565  30.970  33.597  1.00  0.00     0.074 A 
ATOM     64  C   UNL A   1      39.513  34.640  28.963  1.00  0.00     0.029 A 
ATOM     65  N   UNL A   1      39.274  34.336  31.117  1.00  0.00    -0.354 N 
ATOM     66  N   UNL A   1      42.247  32.027  33.254  1.00  0.00    -0.248 NA
ATOM     67  C   UNL A   1      40.139  31.185  33.798  1.00  0.00     0.031 C 
ATOM     68  C   UNL A   1      40.759  34.867  29.617  1.00  0.00     0.029 A 
ATOM     69  C   UNL A   1      40.630  34.380  30.918  1.00  0.00     0.049 A 
ATOM     70  H   UNL A   1      38.799  34.494  31.964  1.00  0.00     0.167 HD
ATOM     71  C   UNL A   1      41.296  32.929  32.806  1.00  0.00     0.074 A 
ATOM     72  C   UNL A   1      40.021  32.410  33.282  1.00  0.00     0.031 C 
ATOM     73  C   UNL A   1      41.596  33.856  31.851  1.00  0.00     0.037 A 
BRANCH  60  74
ATOM     74  C   UNL A   1      36.378  33.177  30.641  1.00  0.00     0.064 A 
ATOM     75  C   UNL A   1      35.317  33.961  30.149  1.00  0.00     0.173 A 
ATOM     76  C   UNL A   1      36.272  32.782  31.993  1.00  0.00     0.173 A 
ATOM     77  F   UNL A   1      35.338  34.426  28.892  1.00  0.00    -0.203 F 
ATOM     78  C   UNL A   1      34.255  34.358  30.966  1.00  0.00     0.198 A 
ATOM     79  C   UNL A   1      35.183  33.134  32.789  1.00  0.00     0.198 A 
ATOM     80  F   UNL A   1      37.264  32.136  32.621  1.00  0.00    -0.203 F 
ATOM     81  F   UNL A   1      33.328  35.200  30.489  1.00  0.00    -0.200 F 
ATOM     82  C   UNL A   1      34.189  33.945  32.284  1.00  0.00     0.200 A 
ATOM     83  F   UNL A   1      35.150  32.742  34.071  1.00  0.00    -0.200 F 
ATOM     84  F   UNL A   1      33.199  34.367  33.082  1.00  0.00    -0.200 F 
ENDBRANCH  60  74
BRANCH  61  85
ATOM     85  C   UNL A   1      42.177  28.662  34.629  1.00  0.00     0.064 A 
ATOM     86  C   UNL A   1      41.451  27.464  34.697  1.00  0.00     0.173 A 
ATOM     87  C   UNL A   1      43.196  28.834  35.587  1.00  0.00     0.173 A 
ATOM     88  F   UNL A   1      40.504  27.194  33.789  1.00  0.00    -0.203 F 
ATOM     89  C   UNL A   1      41.729  26.495  35.668  1.00  0.00     0.198 A 
ATOM     90  C   UNL A   1      43.459  27.877  36.566  1.00  0.00     0.198 A 
ATOM     91  F   UNL A   1      44.018  29.892  35.541  1.00  0.00    -0.203 F 
ATOM     92  F   UNL A   1      41.054  25.338  35.668  1.00  0.00    -0.200 F 
ATOM     93  C   UNL A   1      42.732  26.703  36.600  1.00  0.00     0.200 A 
ATOM     94  F   UNL A   1      44.457  28.077  37.440  1.00  0.00    -0.200 F 
ATOM     95  F   UNL A   1      43.027  25.757  37.503  1.00  0.00    -0.200 F 
ENDBRANCH  61  85
BRANCH  73  96
ATOM     96  C   UNL A   1      43.042  34.104  31.546  1.00  0.00     0.064 A 
ATOM     97  C   UNL A   1      43.775  33.357  30.609  1.00  0.00     0.173 A 
ATOM     98  C   UNL A   1      43.669  35.220  32.119  1.00  0.00     0.173 A 
ATOM     99  F   UNL A   1      43.206  32.343  29.942  1.00  0.00    -0.203 F 
ATOM    100  C   UNL A   1      45.094  33.681  30.303  1.00  0.00     0.198 A 
ATOM    101  C   UNL A   1      44.976  35.562  31.785  1.00  0.00     0.198 A 
ATOM    102  F   UNL A   1      42.994  36.006  32.972  1.00  0.00    -0.203 F 
ATOM    103  F   UNL A   1      45.780  32.943  29.417  1.00  0.00    -0.200 F 
ATOM    104  C   UNL A   1      45.692  34.785  30.888  1.00  0.00     0.200 A 
ATOM    105  F   UNL A   1      45.535  36.660  32.315  1.00  0.00    -0.200 F 
ATOM    106  F   UNL A   1      46.950  35.119  30.566  1.00  0.00    -0.200 F 
ENDBRANCH  73  96
ENDBRANCH  47  48
ENDBRANCH  40  42
ENDBRANCH  39  40
ENDBRANCH  38  39
ENDBRANCH  37  38
ENDBRANCH  36  37
ENDBRANCH  35  36
ENDBRANCH   1  35
TORSDOF 22
ENDMDL
MODEL 3
REMARK VINA RESULT:     -11.3      5.054      9.593
REMARK SMILES Cc1c(-c2nn(-c3ccccc3)cc2/C=N/O)nnn1-c1ccc(C(=O)OCCOCCOCCOC(=O)c2ccc(-c3c4nc(c(-c5c(F)c(F)c(F)c(F)c5F)c5ccc([nH]5)c(-c5c(F)c(F)c(F)c(F)c5F)c5nc(c(-c6c(F)c(F)c(F)c(F)c6F)c6ccc3[nH]6)C=C5)C=C4)cc2)cc1
REMARK SMILES IDX 31 1 30 2 29 3 28 4 27 5 25 6 26 7 24 8 21 9 22 10 103 11
REMARK SMILES IDX 23 12 102 13 20 14 1 15 2 16 3 17 18 18 19 19 4 20 5 21
REMARK SMILES IDX 14 22 6 23 13 24 15 25 16 26 17 27 7 29 8 30 12 31 9 32
REMARK SMILES IDX 11 33 10 34 32 35 33 36 34 37 35 38 36 39 37 40 38 41 39 42
REMARK SMILES IDX 40 43 101 44 41 45 100 46 42 47 43 48 44 49 94 50 45 51
REMARK SMILES IDX 99 52 93 53 95 54 46 55 98 56 92 57 91 58 47 60 79 61 59 62
REMARK SMILES IDX 78 63 60 64 63 65 77 66 96 67 61 68 62 69 76 71 97 72 64 73
REMARK SMILES IDX 48 74 49 75 57 76 50 77 51 78 55 79 58 80 52 81 53 82 56 83
REMARK SMILES IDX 54 84 80 85 81 86 89 87 82 88 83 89 87 90 90 91 84 92 85 93
REMARK SMILES IDX 88 94 86 95 65 96 66 97 74 98 67 99 68 100 72 101 75 102
REMARK SMILES IDX 69 103 70 104 73 105 71 106
REMARK H PARENT 17 28 95 59 63 70
REMARK Flexibility Score: inf
ROOT
ATOM      1  C   UNL A   1      48.622  25.236  25.828  1.00  0.00     0.188 C 
ENDROOT
BRANCH   1   2
ATOM      2  O   UNL A   1      48.262  25.508  27.174  1.00  0.00    -0.376 OA
BRANCH   2   3
ATOM      3  C   UNL A   1      48.219  26.893  27.514  1.00  0.00     0.202 C 
BRANCH   3   4
ATOM      4  C   UNL A   1      47.467  27.218  28.815  1.00  0.00     0.261 C 
BRANCH   4   5
ATOM      5  O   UNL A   1      46.102  27.632  28.639  1.00  0.00    -0.460 OA
BRANCH   5   6
ATOM      6  C   UNL A   1      45.197  26.655  28.402  1.00  0.00     0.338 C 
ATOM      7  O   UNL A   1      44.757  26.325  27.316  1.00  0.00    -0.246 OA
BRANCH   6   8
ATOM      8  C   UNL A   1      44.922  25.929  29.667  1.00  0.00     0.060 A 
ATOM      9  C   UNL A   1      44.525  24.639  32.117  1.00  0.00     0.067 A 
ATOM     10  C   UNL A   1      44.438  26.034  32.045  1.00  0.00     0.029 A 
ATOM     11  C   UNL A   1      44.703  23.886  30.948  1.00  0.00     0.029 A 
ATOM     12  C   UNL A   1      44.671  26.677  30.825  1.00  0.00     0.018 A 
ATOM     13  C   UNL A   1      44.891  24.531  29.721  1.00  0.00     0.018 A 
BRANCH   9  14
ATOM     14  N   UNL A   1      44.496  24.012  33.387  1.00  0.00    -0.217 N 
ATOM     15  C   UNL A   1      46.826  24.589  34.293  1.00  0.00     0.069 C 
ATOM     16  C   UNL A   1      45.508  23.912  34.326  1.00  0.00     0.071 A 
ATOM     17  C   UNL A   1      44.919  23.206  35.358  1.00  0.00     0.137 A 
ATOM     18  N   UNL A   1      43.609  22.965  35.081  1.00  0.00    -0.128 NA
ATOM     19  N   UNL A   1      43.341  23.517  33.901  1.00  0.00    -0.061 NA
BRANCH  17  20
ATOM     20  C   UNL A   1      45.535  22.857  36.636  1.00  0.00     0.124 A 
ATOM     21  N   UNL A   1      46.180  21.696  36.820  1.00  0.00    -0.165 NA
ATOM     22  C   UNL A   1      45.383  23.587  37.838  1.00  0.00     0.044 A 
ATOM     23  N   UNL A   1      46.349  21.611  38.159  1.00  0.00    -0.240 N 
ATOM     24  C   UNL A   1      45.877  22.731  38.804  1.00  0.00     0.125 A 
BRANCH  22  25
ATOM     25  C   UNL A   1      44.834  24.891  38.103  1.00  0.00     0.166 C 
ATOM     26  N   UNL A   1      44.684  25.296  39.320  1.00  0.00    -0.097 NA
BRANCH  26  27
ATOM     27  O   UNL A   1      44.099  26.568  39.315  1.00  0.00    -0.411 OA
ATOM     28  H   UNL A   1      43.950  27.013  38.505  1.00  0.00     0.330 HD
ENDBRANCH  26  27
ENDBRANCH  22  25
BRANCH  23  29
ATOM     29  C   UNL A   1      46.915  20.459  38.757  1.00  0.00     0.065 A 
ATOM     30  C   UNL A   1      46.151  19.290  38.864  1.00  0.00     0.028 A 
ATOM     31  C   UNL A   1      48.232  20.484  39.240  1.00  0.00     0.028 A 
ATOM     32  C   UNL A   1      46.719  18.139  39.414  1.00  0.00     0.002 A 
ATOM     33  C   UNL A   1      48.773  19.342  39.833  1.00  0.00     0.002 A 
ATOM     34  C   UNL A   1      48.024  18.167  39.906  1.00  0.00     0.000 A 
ENDBRANCH  23  29
ENDBRANCH  17  20
ENDBRANCH   9  14
ENDBRANCH   6   8
ENDBRANCH   5   6
ENDBRANCH   4   5
ENDBRANCH   3   4
ENDBRANCH   2   3
ENDBRANCH   1   2
BRANCH   1  35
ATOM     35  C   UNL A   1      47.703  25.848  24.751  1.00  0.00     0.188 C 
BRANCH  35  36
ATOM     36  O   UNL A   1      46.453  25.267  24.399  1.00  0.00    -0.376 OA
BRANCH  36  37
ATOM     37  C   UNL A   1      46.163  23.908  24.690  1.00  0.00     0.202 C 
BRANCH  37  38
ATOM     38  C   UNL A   1      44.929  23.561  25.519  1.00  0.00     0.261 C 
BRANCH  38  39
ATOM     39  O   UNL A   1      43.724  24.128  25.019  1.00  0.00    -0.460 OA
BRANCH  39  40
ATOM     40  C   UNL A   1      42.604  23.563  25.521  1.00  0.00     0.338 C 
ATOM     41  O   UNL A   1      42.223  22.417  25.361  1.00  0.00    -0.246 OA
BRANCH  40  42
ATOM     42  C   UNL A   1      41.848  24.558  26.298  1.00  0.00     0.060 A 
ATOM     43  C   UNL A   1      41.392  25.682  25.601  1.00  0.00     0.016 A 
ATOM     44  C   UNL A   1      41.779  24.488  27.696  1.00  0.00     0.016 A 
ATOM     45  C   UNL A   1      41.073  26.822  26.309  1.00  0.00     0.010 A 
ATOM     46  C   UNL A   1      41.460  25.630  28.406  1.00  0.00     0.010 A 
ATOM     47  C   UNL A   1      41.214  26.811  27.698  1.00  0.00    -0.014 A 
BRANCH  47  48
ATOM     48  C   UNL A   1      41.336  28.101  28.358  1.00  0.00     0.031 A 
ATOM     49  C   UNL A   1      42.487  28.963  28.018  1.00  0.00     0.074 A 
ATOM     50  C   UNL A   1      40.354  28.521  29.182  1.00  0.00     0.049 A 
ATOM     51  N   UNL A   1      43.306  29.553  28.828  1.00  0.00    -0.248 NA
ATOM     52  C   UNL A   1      42.762  29.203  26.596  1.00  0.00     0.031 C 
ATOM     53  C   UNL A   1      39.033  27.907  29.375  1.00  0.00     0.029 A 
ATOM     54  N   UNL A   1      40.283  29.658  29.933  1.00  0.00    -0.354 N 
ATOM     55  C   UNL A   1      44.102  30.371  28.033  1.00  0.00     0.074 A 
ATOM     56  C   UNL A   1      43.784  30.056  26.663  1.00  0.00     0.031 C 
ATOM     57  C   UNL A   1      38.227  28.785  30.007  1.00  0.00     0.029 A 
ATOM     58  C   UNL A   1      39.000  29.965  30.357  1.00  0.00     0.049 A 
ATOM     59  H   UNL A   1      41.069  30.208  30.151  1.00  0.00     0.167 HD
ATOM     60  C   UNL A   1      44.828  31.395  28.556  1.00  0.00     0.037 A 
ATOM     61  C   UNL A   1      38.576  31.139  30.877  1.00  0.00     0.037 A 
ATOM     62  C   UNL A   1      45.118  31.204  29.950  1.00  0.00     0.049 A 
ATOM     63  C   UNL A   1      39.761  31.892  31.352  1.00  0.00     0.074 A 
ATOM     64  C   UNL A   1      45.751  30.213  30.679  1.00  0.00     0.029 A 
ATOM     65  N   UNL A   1      44.504  32.000  30.883  1.00  0.00    -0.354 N 
ATOM     66  N   UNL A   1      40.471  31.584  32.400  1.00  0.00    -0.248 NA
ATOM     67  C   UNL A   1      40.385  32.830  30.428  1.00  0.00     0.031 C 
ATOM     68  C   UNL A   1      45.093  30.193  31.943  1.00  0.00     0.029 A 
ATOM     69  C   UNL A   1      44.104  31.175  31.902  1.00  0.00     0.049 A 
ATOM     70  H   UNL A   1      44.375  32.973  30.830  1.00  0.00     0.167 HD
ATOM     71  C   UNL A   1      41.764  31.957  32.071  1.00  0.00     0.074 A 
ATOM     72  C   UNL A   1      41.629  32.827  30.911  1.00  0.00     0.031 C 
ATOM     73  C   UNL A   1      42.842  31.301  32.590  1.00  0.00     0.037 A 
BRANCH  60  74
ATOM     74  C   UNL A   1      45.014  32.712  27.852  1.00  0.00     0.064 A 
ATOM     75  C   UNL A   1      46.303  33.119  27.456  1.00  0.00     0.173 A 
ATOM     76  C   UNL A   1      44.016  33.710  27.806  1.00  0.00     0.173 A 
ATOM     77  F   UNL A   1      47.333  32.264  27.503  1.00  0.00    -0.203 F 
ATOM     78  C   UNL A   1      46.577  34.440  27.088  1.00  0.00     0.198 A 
ATOM     79  C   UNL A   1      44.282  35.012  27.385  1.00  0.00     0.198 A 
ATOM     80  F   UNL A   1      42.776  33.492  28.266  1.00  0.00    -0.203 F 
ATOM     81  F   UNL A   1      47.839  34.809  26.832  1.00  0.00    -0.200 F 
ATOM     82  C   UNL A   1      45.567  35.384  27.054  1.00  0.00     0.200 A 
ATOM     83  F   UNL A   1      43.294  35.918  27.380  1.00  0.00    -0.200 F 
ATOM     84  F   UNL A   1      45.839  36.661  26.752  1.00  0.00    -0.200 F 
ENDBRANCH  60  74
BRANCH  61  85
ATOM     85  C   UNL A   1      37.233  31.751  30.756  1.00  0.00     0.064 A 
ATOM     86  C   UNL A   1      36.354  31.792  31.849  1.00  0.00     0.173 A 
ATOM     87  C   UNL A   1      36.870  32.518  29.631  1.00  0.00     0.173 A 
ATOM     88  F   UNL A   1      36.651  31.138  32.981  1.00  0.00    -0.203 F 
ATOM     89  C   UNL A   1      35.182  32.554  31.816  1.00  0.00     0.198 A 
ATOM     90  C   UNL A   1      35.692  33.263  29.592  1.00  0.00     0.198 A 
ATOM     91  F   UNL A   1      37.693  32.635  28.579  1.00  0.00    -0.203 F 
ATOM     92  F   UNL A   1      34.395  32.614  32.899  1.00  0.00    -0.200 F 
ATOM     93  C   UNL A   1      34.852  33.289  30.688  1.00  0.00     0.200 A 
ATOM     94  F   UNL A   1      35.405  33.996  28.507  1.00  0.00    -0.200 F 
ATOM     95  F   UNL A   1      33.752  34.053  30.673  1.00  0.00    -0.200 F 
ENDBRANCH  61  85
BRANCH  73  96
ATOM     96  C   UNL A   1      42.616  30.405  33.770  1.00  0.00     0.064 A 
ATOM     97  C   UNL A   1      42.667  30.851  35.101  1.00  0.00     0.173 A 
ATOM     98  C   UNL A   1      42.201  29.086  33.542  1.00  0.00     0.173 A 
ATOM     99  F   UNL A   1      42.951  32.129  35.388  1.00  0.00    -0.203 F 
ATOM    100  C   UNL A   1      42.369  29.995  36.158  1.00  0.00     0.198 A 
ATOM    101  C   UNL A   1      41.870  28.243  34.599  1.00  0.00     0.198 A 
ATOM    102  F   UNL A   1      42.073  28.628  32.287  1.00  0.00    -0.203 F 
ATOM    103  F   UNL A   1      42.440  30.438  37.423  1.00  0.00    -0.200 F 
ATOM    104  C   UNL A   1      41.967  28.693  35.906  1.00  0.00     0.200 A 
ATOM    105  F   UNL A   1      41.433  27.000  34.350  1.00  0.00    -0.200 F 
ATOM    106  F   UNL A   1      41.644  27.881  36.923  1.00  0.00    -0.200 F 
ENDBRANCH  73  96
ENDBRANCH  47  48
ENDBRANCH  40  42
ENDBRANCH  39  40
ENDBRANCH  38  39
ENDBRANCH  37  38
ENDBRANCH  36  37
ENDBRANCH  35  36
ENDBRANCH   1  35
TORSDOF 22
ENDMDL
