MODEL 1
REMARK VINA RESULT:     -10.5      0.000      0.000
REMARK SMILES C[C@@H](CC(=O)OCCOCCOCCOC(=O)c1ccc(-c2c3nc(c(-c4c(F)c(F)c(F)c(F)c4F)c4ccc([nH]4)c(-c4c(F)c(F)c(F)c(F)c4F)c4nc(c(-c5c(F)c(F)c(F)c(F)c5F)c5ccc2[nH]5)C=C4)C=C3)cc1)Cc1nnc(C2C(C)(C)C2(C)C)o1
REMARK SMILES IDX 10 1 9 2 8 3 7 4 6 5 4 6 5 7 3 8 2 9 1 10 81 11 82 12 83 13
REMARK SMILES IDX 93 14 84 15 85 16 86 17 87 18 90 19 88 20 89 21 91 22 92 23
REMARK SMILES IDX 11 24 12 25 13 26 14 27 15 28 16 29 17 30 18 31 19 32 80 33
REMARK SMILES IDX 20 34 79 35 21 36 22 37 23 38 73 39 24 40 78 41 72 42 74 43
REMARK SMILES IDX 25 44 77 45 71 46 70 47 26 49 58 50 38 51 57 52 39 53 42 54
REMARK SMILES IDX 56 55 75 56 40 57 41 58 55 60 76 61 43 62 27 63 28 64 36 65
REMARK SMILES IDX 29 66 30 67 34 68 37 69 31 70 32 71 35 72 33 73 59 74 60 75
REMARK SMILES IDX 68 76 61 77 62 78 66 79 69 80 63 81 64 82 67 83 65 84 44 85
REMARK SMILES IDX 45 86 53 87 46 88 47 89 51 90 54 91 48 92 49 93 52 94 50 95
REMARK H PARENT 74 48 42 59
REMARK Flexibility Score: inf
ROOT
ATOM      1  C   UNL A   1      36.839  22.846  25.822  1.00  0.00     0.188 C 
ENDROOT
BRANCH   1   2
ATOM      2  O   UNL A   1      36.641  23.707  24.703  1.00  0.00    -0.376 OA
BRANCH   2   3
ATOM      3  C   UNL A   1      35.312  24.209  24.513  1.00  0.00     0.202 C 
BRANCH   3   4
ATOM      4  C   UNL A   1      34.539  23.634  23.310  1.00  0.00     0.261 C 
BRANCH   4   5
ATOM      5  O   UNL A   1      34.177  22.239  23.460  1.00  0.00    -0.463 OA
BRANCH   5   6
ATOM      6  C   UNL A   1      32.871  21.998  23.748  1.00  0.00     0.306 C 
ATOM      7  O   UNL A   1      31.963  22.037  22.924  1.00  0.00    -0.252 OA
BRANCH   6   8
ATOM      8  C   UNL A   1      32.638  21.505  25.168  1.00  0.00     0.126 C 
BRANCH   8   9
ATOM      9  C   UNL A   1      32.748  22.461  26.382  1.00  0.00     0.006 C 
ATOM     10  C   UNL A   1      33.528  21.876  27.555  1.00  0.00     0.009 C 
BRANCH   9  11
ATOM     11  C   UNL A   1      31.357  22.979  26.784  1.00  0.00     0.103 C 
BRANCH  11  12
ATOM     12  C   UNL A   1      31.103  24.429  26.552  1.00  0.00     0.216 A 
ATOM     13  N   UNL A   1      29.955  25.057  26.416  1.00  0.00    -0.113 NA
ATOM     14  O   UNL A   1      32.163  25.291  26.669  1.00  0.00    -0.425 OA
ATOM     15  N   UNL A   1      30.244  26.406  26.492  1.00  0.00    -0.113 NA
ATOM     16  C   UNL A   1      31.548  26.519  26.676  1.00  0.00     0.220 A 
BRANCH  16  17
ATOM     17  C   UNL A   1      32.211  27.890  26.879  1.00  0.00     0.090 C 
ATOM     18  C   UNL A   1      33.389  28.397  26.032  1.00  0.00    -0.017 C 
ATOM     19  C   UNL A   1      32.022  29.057  25.903  1.00  0.00    -0.017 C 
ATOM     20  C   UNL A   1      34.517  29.073  26.791  1.00  0.00     0.012 C 
ATOM     21  C   UNL A   1      33.937  27.686  24.831  1.00  0.00     0.012 C 
ATOM     22  C   UNL A   1      31.185  28.874  24.653  1.00  0.00     0.012 C 
ATOM     23  C   UNL A   1      31.867  30.453  26.467  1.00  0.00     0.012 C 
ENDBRANCH  16  17
ENDBRANCH  11  12
ENDBRANCH   9  11
ENDBRANCH   8   9
ENDBRANCH   6   8
ENDBRANCH   5   6
ENDBRANCH   4   5
ENDBRANCH   3   4
ENDBRANCH   2   3
ENDBRANCH   1   2
BRANCH   1  24
ATOM     24  C   UNL A   1      36.541  21.364  25.566  1.00  0.00     0.188 C 
BRANCH  24  25
ATOM     25  O   UNL A   1      37.507  20.760  24.720  1.00  0.00    -0.376 OA
BRANCH  25  26
ATOM     26  C   UNL A   1      38.005  19.467  25.037  1.00  0.00     0.202 C 
BRANCH  26  27
ATOM     27  C   UNL A   1      39.434  19.380  25.583  1.00  0.00     0.261 C 
BRANCH  27  28
ATOM     28  O   UNL A   1      40.025  20.629  26.001  1.00  0.00    -0.460 OA
BRANCH  28  29
ATOM     29  C   UNL A   1      40.644  20.684  27.198  1.00  0.00     0.338 C 
ATOM     30  O   UNL A   1      41.064  19.761  27.870  1.00  0.00    -0.246 OA
BRANCH  29  31
ATOM     31  C   UNL A   1      41.007  22.068  27.515  1.00  0.00     0.060 A 
ATOM     32  C   UNL A   1      40.394  23.068  26.746  1.00  0.00     0.016 A 
ATOM     33  C   UNL A   1      41.878  22.386  28.555  1.00  0.00     0.016 A 
ATOM     34  C   UNL A   1      40.669  24.398  27.001  1.00  0.00     0.010 A 
ATOM     35  C   UNL A   1      42.157  23.723  28.812  1.00  0.00     0.010 A 
ATOM     36  C   UNL A   1      41.571  24.723  28.020  1.00  0.00    -0.014 A 
BRANCH  36  37
ATOM     37  C   UNL A   1      42.018  26.117  28.142  1.00  0.00     0.031 A 
ATOM     38  C   UNL A   1      43.333  26.492  27.533  1.00  0.00     0.074 A 
ATOM     39  C   UNL A   1      41.229  27.025  28.736  1.00  0.00     0.049 A 
ATOM     40  N   UNL A   1      43.951  27.642  27.544  1.00  0.00    -0.248 NA
ATOM     41  C   UNL A   1      44.048  25.425  26.812  1.00  0.00     0.031 C 
ATOM     42  C   UNL A   1      39.906  26.754  29.299  1.00  0.00     0.029 A 
ATOM     43  N   UNL A   1      41.429  28.359  28.961  1.00  0.00    -0.354 N 
ATOM     44  C   UNL A   1      45.130  27.435  26.842  1.00  0.00     0.074 A 
ATOM     45  C   UNL A   1      45.157  26.046  26.441  1.00  0.00     0.031 C 
ATOM     46  C   UNL A   1      39.413  27.893  29.812  1.00  0.00     0.029 A 
ATOM     47  C   UNL A   1      40.400  28.956  29.645  1.00  0.00     0.049 A 
ATOM     48  H   UNL A   1      42.231  28.844  28.661  1.00  0.00     0.167 HD
ATOM     49  C   UNL A   1      46.098  28.334  26.556  1.00  0.00     0.037 A 
ATOM     50  C   UNL A   1      40.294  30.217  30.102  1.00  0.00     0.037 A 
ATOM     51  C   UNL A   1      46.049  29.712  26.963  1.00  0.00     0.049 A 
ATOM     52  C   UNL A   1      41.421  31.179  29.830  1.00  0.00     0.074 A 
ATOM     53  C   UNL A   1      46.974  30.714  26.734  1.00  0.00     0.029 A 
ATOM     54  N   UNL A   1      45.011  30.279  27.690  1.00  0.00    -0.354 N 
ATOM     55  N   UNL A   1      42.537  30.982  29.170  1.00  0.00    -0.248 NA
ATOM     56  C   UNL A   1      41.271  32.537  30.367  1.00  0.00     0.031 C 
ATOM     57  C   UNL A   1      46.517  31.877  27.364  1.00  0.00     0.029 A 
ATOM     58  C   UNL A   1      45.283  31.614  27.938  1.00  0.00     0.049 A 
ATOM     59  H   UNL A   1      44.201  29.803  27.985  1.00  0.00     0.167 HD
ATOM     60  C   UNL A   1      43.213  32.194  29.190  1.00  0.00     0.074 A 
ATOM     61  C   UNL A   1      42.371  33.125  29.916  1.00  0.00     0.031 C 
ATOM     62  C   UNL A   1      44.420  32.513  28.659  1.00  0.00     0.037 A 
BRANCH  49  63
ATOM     63  C   UNL A   1      47.296  27.840  25.806  1.00  0.00     0.064 A 
ATOM     64  C   UNL A   1      47.326  27.795  24.404  1.00  0.00     0.173 A 
ATOM     65  C   UNL A   1      48.435  27.408  26.501  1.00  0.00     0.173 A 
ATOM     66  F   UNL A   1      46.252  28.172  23.693  1.00  0.00    -0.203 F 
ATOM     67  C   UNL A   1      48.444  27.315  23.727  1.00  0.00     0.198 A 
ATOM     68  C   UNL A   1      49.562  26.955  25.820  1.00  0.00     0.198 A 
ATOM     69  F   UNL A   1      48.455  27.423  27.842  1.00  0.00    -0.203 F 
ATOM     70  F   UNL A   1      48.432  27.234  22.389  1.00  0.00    -0.200 F 
ATOM     71  C   UNL A   1      49.563  26.902  24.435  1.00  0.00     0.200 A 
ATOM     72  F   UNL A   1      50.644  26.561  26.506  1.00  0.00    -0.200 F 
ATOM     73  F   UNL A   1      50.640  26.444  23.782  1.00  0.00    -0.200 F 
ENDBRANCH  49  63
BRANCH  50  74
ATOM     74  C   UNL A   1      39.094  30.629  30.871  1.00  0.00     0.064 A 
ATOM     75  C   UNL A   1      39.048  30.502  32.265  1.00  0.00     0.173 A 
ATOM     76  C   UNL A   1      37.964  31.153  30.226  1.00  0.00     0.173 A 
ATOM     77  F   UNL A   1      40.096  29.987  32.925  1.00  0.00    -0.203 F 
ATOM     78  C   UNL A   1      37.909  30.862  32.983  1.00  0.00     0.198 A 
ATOM     79  C   UNL A   1      36.837  31.540  30.947  1.00  0.00     0.198 A 
ATOM     80  F   UNL A   1      37.958  31.298  28.892  1.00  0.00    -0.203 F 
ATOM     81  F   UNL A   1      37.873  30.686  34.311  1.00  0.00    -0.200 F 
ATOM     82  C   UNL A   1      36.807  31.387  32.324  1.00  0.00     0.200 A 
ATOM     83  F   UNL A   1      35.780  32.058  30.306  1.00  0.00    -0.200 F 
ATOM     84  F   UNL A   1      35.713  31.735  33.015  1.00  0.00    -0.200 F 
ENDBRANCH  50  74
BRANCH  62  85
ATOM     85  C   UNL A   1      44.879  33.933  28.817  1.00  0.00     0.064 A 
ATOM     86  C   UNL A   1      45.683  34.330  29.895  1.00  0.00     0.173 A 
ATOM     87  C   UNL A   1      44.544  34.896  27.854  1.00  0.00     0.173 A 
ATOM     88  F   UNL A   1      46.017  33.448  30.849  1.00  0.00    -0.203 F 
ATOM     89  C   UNL A   1      46.111  35.648  30.017  1.00  0.00     0.198 A 
ATOM     90  C   UNL A   1      45.001  36.206  27.962  1.00  0.00     0.198 A 
ATOM     91  F   UNL A   1      43.785  34.562  26.799  1.00  0.00    -0.203 F 
ATOM     92  F   UNL A   1      46.838  36.018  31.081  1.00  0.00    -0.200 F 
ATOM     93  C   UNL A   1      45.777  36.582  29.047  1.00  0.00     0.200 A 
ATOM     94  F   UNL A   1      44.689  37.103  27.017  1.00  0.00    -0.200 F 
ATOM     95  F   UNL A   1      46.197  37.849  29.163  1.00  0.00    -0.200 F 
ENDBRANCH  62  85
ENDBRANCH  36  37
ENDBRANCH  29  31
ENDBRANCH  28  29
ENDBRANCH  27  28
ENDBRANCH  26  27
ENDBRANCH  25  26
ENDBRANCH  24  25
ENDBRANCH   1  24
TORSDOF 21
ENDMDL
MODEL 2
REMARK VINA RESULT:     -10.2      1.003      7.395
REMARK SMILES C[C@@H](CC(=O)OCCOCCOCCOC(=O)c1ccc(-c2c3nc(c(-c4c(F)c(F)c(F)c(F)c4F)c4ccc([nH]4)c(-c4c(F)c(F)c(F)c(F)c4F)c4nc(c(-c5c(F)c(F)c(F)c(F)c5F)c5ccc2[nH]5)C=C4)C=C3)cc1)Cc1nnc(C2C(C)(C)C2(C)C)o1
REMARK SMILES IDX 10 1 9 2 8 3 7 4 6 5 4 6 5 7 3 8 2 9 1 10 81 11 82 12 83 13
REMARK SMILES IDX 93 14 84 15 85 16 86 17 87 18 90 19 88 20 89 21 91 22 92 23
REMARK SMILES IDX 11 24 12 25 13 26 14 27 15 28 16 29 17 30 18 31 19 32 80 33
REMARK SMILES IDX 20 34 79 35 21 36 22 37 23 38 73 39 24 40 78 41 72 42 74 43
REMARK SMILES IDX 25 44 77 45 71 46 70 47 26 49 58 50 38 51 57 52 39 53 42 54
REMARK SMILES IDX 56 55 75 56 40 57 41 58 55 60 76 61 43 62 27 63 28 64 36 65
REMARK SMILES IDX 29 66 30 67 34 68 37 69 31 70 32 71 35 72 33 73 59 74 60 75
REMARK SMILES IDX 68 76 61 77 62 78 66 79 69 80 63 81 64 82 67 83 65 84 44 85
REMARK SMILES IDX 45 86 53 87 46 88 47 89 51 90 54 91 48 92 49 93 52 94 50 95
REMARK H PARENT 74 48 42 59
REMARK Flexibility Score: inf
ROOT
ATOM      1  C   UNL A   1      33.582  22.121  27.130  1.00  0.00     0.188 C 
ENDROOT
BRANCH   1   2
ATOM      2  O   UNL A   1      34.296  23.355  27.138  1.00  0.00    -0.376 OA
BRANCH   2   3
ATOM      3  C   UNL A   1      34.006  24.267  26.071  1.00  0.00     0.202 C 
BRANCH   3   4
ATOM      4  C   UNL A   1      35.129  24.474  25.037  1.00  0.00     0.261 C 
BRANCH   4   5
ATOM      5  O   UNL A   1      34.876  23.834  23.762  1.00  0.00    -0.463 OA
BRANCH   5   6
ATOM      6  C   UNL A   1      34.151  24.562  22.872  1.00  0.00     0.306 C 
ATOM      7  O   UNL A   1      34.517  25.629  22.392  1.00  0.00    -0.252 OA
BRANCH   6   8
ATOM      8  C   UNL A   1      32.896  23.856  22.381  1.00  0.00     0.126 C 
BRANCH   8   9
ATOM      9  C   UNL A   1      31.935  23.143  23.364  1.00  0.00     0.006 C 
ATOM     10  C   UNL A   1      31.650  21.689  22.999  1.00  0.00     0.009 C 
BRANCH   9  11
ATOM     11  C   UNL A   1      30.656  23.974  23.560  1.00  0.00     0.103 C 
BRANCH  11  12
ATOM     12  C   UNL A   1      30.642  24.893  24.733  1.00  0.00     0.216 A 
ATOM     13  N   UNL A   1      30.258  24.653  25.969  1.00  0.00    -0.113 NA
ATOM     14  O   UNL A   1      31.272  26.104  24.605  1.00  0.00    -0.425 OA
ATOM     15  N   UNL A   1      30.690  25.729  26.721  1.00  0.00    -0.113 NA
ATOM     16  C   UNL A   1      31.316  26.555  25.901  1.00  0.00     0.220 A 
BRANCH  16  17
ATOM     17  C   UNL A   1      31.993  27.834  26.419  1.00  0.00     0.090 C 
ATOM     18  C   UNL A   1      33.213  28.482  25.743  1.00  0.00    -0.017 C 
ATOM     19  C   UNL A   1      31.862  29.188  25.711  1.00  0.00    -0.017 C 
ATOM     20  C   UNL A   1      34.320  28.950  26.670  1.00  0.00     0.012 C 
ATOM     21  C   UNL A   1      33.796  28.032  24.437  1.00  0.00     0.012 C 
ATOM     22  C   UNL A   1      31.073  29.299  24.422  1.00  0.00     0.012 C 
ATOM     23  C   UNL A   1      31.709  30.434  26.557  1.00  0.00     0.012 C 
ENDBRANCH  16  17
ENDBRANCH  11  12
ENDBRANCH   9  11
ENDBRANCH   8   9
ENDBRANCH   6   8
ENDBRANCH   5   6
ENDBRANCH   4   5
ENDBRANCH   3   4
ENDBRANCH   2   3
ENDBRANCH   1   2
BRANCH   1  24
ATOM     24  C   UNL A   1      34.110  21.068  26.149  1.00  0.00     0.188 C 
BRANCH  24  25
ATOM     25  O   UNL A   1      35.525  21.091  26.047  1.00  0.00    -0.376 OA
BRANCH  25  26
ATOM     26  C   UNL A   1      36.159  20.422  24.964  1.00  0.00     0.202 C 
BRANCH  26  27
ATOM     27  C   UNL A   1      37.688  20.320  25.002  1.00  0.00     0.261 C 
BRANCH  27  28
ATOM     28  O   UNL A   1      38.378  21.428  25.617  1.00  0.00    -0.460 OA
BRANCH  28  29
ATOM     29  C   UNL A   1      39.479  21.178  26.354  1.00  0.00     0.338 C 
ATOM     30  O   UNL A   1      40.053  20.117  26.510  1.00  0.00    -0.246 OA
BRANCH  29  31
ATOM     31  C   UNL A   1      40.100  22.436  26.776  1.00  0.00     0.060 A 
ATOM     32  C   UNL A   1      39.591  23.611  26.202  1.00  0.00     0.016 A 
ATOM     33  C   UNL A   1      41.113  22.478  27.733  1.00  0.00     0.016 A 
ATOM     34  C   UNL A   1      40.111  24.838  26.568  1.00  0.00     0.010 A 
ATOM     35  C   UNL A   1      41.639  23.711  28.100  1.00  0.00     0.010 A 
ATOM     36  C   UNL A   1      41.153  24.884  27.500  1.00  0.00    -0.014 A 
BRANCH  36  37
ATOM     37  C   UNL A   1      41.839  26.164  27.720  1.00  0.00     0.031 A 
ATOM     38  C   UNL A   1      41.132  27.217  28.514  1.00  0.00     0.074 A 
ATOM     39  C   UNL A   1      43.088  26.342  27.262  1.00  0.00     0.049 A 
ATOM     40  N   UNL A   1      41.517  28.431  28.806  1.00  0.00    -0.248 NA
ATOM     41  C   UNL A   1      39.811  26.853  29.054  1.00  0.00     0.031 C 
ATOM     42  C   UNL A   1      43.870  25.343  26.534  1.00  0.00     0.029 A 
ATOM     43  N   UNL A   1      43.915  27.428  27.346  1.00  0.00    -0.354 N 
ATOM     44  C   UNL A   1      40.483  28.977  29.554  1.00  0.00     0.074 A 
ATOM     45  C   UNL A   1      39.444  27.976  29.650  1.00  0.00     0.031 C 
ATOM     46  C   UNL A   1      45.070  25.869  26.233  1.00  0.00     0.029 A 
ATOM     47  C   UNL A   1      45.118  27.247  26.713  1.00  0.00     0.049 A 
ATOM     48  H   UNL A   1      43.671  28.258  27.816  1.00  0.00     0.167 HD
ATOM     49  C   UNL A   1      40.419  30.205  30.113  1.00  0.00     0.037 A 
ATOM     50  C   UNL A   1      46.127  28.117  26.528  1.00  0.00     0.037 A 
ATOM     51  C   UNL A   1      41.466  31.184  30.006  1.00  0.00     0.049 A 
ATOM     52  C   UNL A   1      45.998  29.503  27.102  1.00  0.00     0.074 A 
ATOM     53  C   UNL A   1      41.510  32.463  30.527  1.00  0.00     0.029 A 
ATOM     54  N   UNL A   1      42.659  30.985  29.324  1.00  0.00    -0.354 N 
ATOM     55  N   UNL A   1      45.019  30.021  27.805  1.00  0.00    -0.248 NA
ATOM     56  C   UNL A   1      47.114  30.425  26.854  1.00  0.00     0.031 C 
ATOM     57  C   UNL A   1      42.711  33.056  30.121  1.00  0.00     0.029 A 
ATOM     58  C   UNL A   1      43.438  32.127  29.392  1.00  0.00     0.049 A 
ATOM     59  H   UNL A   1      42.914  30.154  28.860  1.00  0.00     0.167 HD
ATOM     60  C   UNL A   1      45.409  31.319  28.106  1.00  0.00     0.074 A 
ATOM     61  C   UNL A   1      46.722  31.503  27.520  1.00  0.00     0.031 C 
ATOM     62  C   UNL A   1      44.744  32.275  28.802  1.00  0.00     0.037 A 
BRANCH  49  63
ATOM     63  C   UNL A   1      39.164  30.562  30.848  1.00  0.00     0.064 A 
ATOM     64  C   UNL A   1      39.032  30.359  32.230  1.00  0.00     0.173 A 
ATOM     65  C   UNL A   1      38.077  31.120  30.159  1.00  0.00     0.173 A 
ATOM     66  F   UNL A   1      40.033  29.803  32.930  1.00  0.00    -0.203 F 
ATOM     67  C   UNL A   1      37.849  30.681  32.890  1.00  0.00     0.198 A 
ATOM     68  C   UNL A   1      36.906  31.467  30.828  1.00  0.00     0.198 A 
ATOM     69  F   UNL A   1      38.148  31.327  28.836  1.00  0.00    -0.203 F 
ATOM     70  F   UNL A   1      37.726  30.432  34.202  1.00  0.00    -0.200 F 
ATOM     71  C   UNL A   1      36.790  31.241  32.191  1.00  0.00     0.200 A 
ATOM     72  F   UNL A   1      35.886  32.012  30.151  1.00  0.00    -0.200 F 
ATOM     73  F   UNL A   1      35.654  31.554  32.829  1.00  0.00    -0.200 F 
ENDBRANCH  49  63
BRANCH  50  74
ATOM     74  C   UNL A   1      47.328  27.708  25.756  1.00  0.00     0.064 A 
ATOM     75  C   UNL A   1      47.339  27.753  24.356  1.00  0.00     0.173 A 
ATOM     76  C   UNL A   1      48.487  27.257  26.404  1.00  0.00     0.173 A 
ATOM     77  F   UNL A   1      46.247  28.158  23.691  1.00  0.00    -0.203 F 
ATOM     78  C   UNL A   1      48.456  27.341  23.633  1.00  0.00     0.198 A 
ATOM     79  C   UNL A   1      49.614  26.872  25.681  1.00  0.00     0.198 A 
ATOM     80  F   UNL A   1      48.528  27.197  27.744  1.00  0.00    -0.203 F 
ATOM     81  F   UNL A   1      48.424  27.349  22.293  1.00  0.00    -0.200 F 
ATOM     82  C   UNL A   1      49.594  26.907  24.296  1.00  0.00     0.200 A 
ATOM     83  F   UNL A   1      50.715  26.466  26.327  1.00  0.00    -0.200 F 
ATOM     84  F   UNL A   1      50.670  26.513  23.599  1.00  0.00    -0.200 F 
ENDBRANCH  50  74
BRANCH  62  85
ATOM     85  C   UNL A   1      45.444  33.588  28.993  1.00  0.00     0.064 A 
ATOM     86  C   UNL A   1      46.305  33.811  30.077  1.00  0.00     0.173 A 
ATOM     87  C   UNL A   1      45.281  34.619  28.056  1.00  0.00     0.173 A 
ATOM     88  F   UNL A   1      46.481  32.859  31.006  1.00  0.00    -0.203 F 
ATOM     89  C   UNL A   1      46.957  35.030  30.230  1.00  0.00     0.198 A 
ATOM     90  C   UNL A   1      45.960  35.826  28.195  1.00  0.00     0.198 A 
ATOM     91  F   UNL A   1      44.475  34.450  26.997  1.00  0.00    -0.203 F 
ATOM     92  F   UNL A   1      47.738  35.240  31.299  1.00  0.00    -0.200 F 
ATOM     93  C   UNL A   1      46.790  36.033  29.286  1.00  0.00     0.200 A 
ATOM     94  F   UNL A   1      45.809  36.788  27.275  1.00  0.00    -0.200 F 
ATOM     95  F   UNL A   1      47.426  37.204  29.432  1.00  0.00    -0.200 F 
ENDBRANCH  62  85
ENDBRANCH  36  37
ENDBRANCH  29  31
ENDBRANCH  28  29
ENDBRANCH  27  28
ENDBRANCH  26  27
ENDBRANCH  25  26
ENDBRANCH  24  25
ENDBRANCH   1  24
TORSDOF 21
ENDMDL
MODEL 3
REMARK VINA RESULT:     -10.1      4.526      8.788
REMARK SMILES C[C@@H](CC(=O)OCCOCCOCCOC(=O)c1ccc(-c2c3nc(c(-c4c(F)c(F)c(F)c(F)c4F)c4ccc([nH]4)c(-c4c(F)c(F)c(F)c(F)c4F)c4nc(c(-c5c(F)c(F)c(F)c(F)c5F)c5ccc2[nH]5)C=C4)C=C3)cc1)Cc1nnc(C2C(C)(C)C2(C)C)o1
REMARK SMILES IDX 10 1 9 2 8 3 7 4 6 5 4 6 5 7 3 8 2 9 1 10 81 11 82 12 83 13
REMARK SMILES IDX 93 14 84 15 85 16 86 17 87 18 90 19 88 20 89 21 91 22 92 23
REMARK SMILES IDX 11 24 12 25 13 26 14 27 15 28 16 29 17 30 18 31 19 32 80 33
REMARK SMILES IDX 20 34 79 35 21 36 22 37 23 38 73 39 24 40 78 41 72 42 74 43
REMARK SMILES IDX 25 44 77 45 71 46 70 47 26 49 58 50 38 51 57 52 39 53 42 54
REMARK SMILES IDX 56 55 75 56 40 57 41 58 55 60 76 61 43 62 27 63 28 64 36 65
REMARK SMILES IDX 29 66 30 67 34 68 37 69 31 70 32 71 35 72 33 73 59 74 60 75
REMARK SMILES IDX 68 76 61 77 62 78 66 79 69 80 63 81 64 82 67 83 65 84 44 85
REMARK SMILES IDX 45 86 53 87 46 88 47 89 51 90 54 91 48 92 49 93 52 94 50 95
REMARK H PARENT 74 48 42 59
REMARK Flexibility Score: inf
ROOT
ATOM      1  C   UNL A   1      43.795  19.019  25.394  1.00  0.00     0.188 C 
ENDROOT
BRANCH   1   2
ATOM      2  O   UNL A   1      42.576  19.759  25.430  1.00  0.00    -0.376 OA
BRANCH   2   3
ATOM      3  C   UNL A   1      41.483  19.152  26.131  1.00  0.00     0.202 C 
BRANCH   3   4
ATOM      4  C   UNL A   1      40.158  19.939  26.124  1.00  0.00     0.261 C 
BRANCH   4   5
ATOM      5  O   UNL A   1      40.329  21.374  26.227  1.00  0.00    -0.463 OA
BRANCH   5   6
ATOM      6  C   UNL A   1      39.189  22.109  26.161  1.00  0.00     0.306 C 
ATOM      7  O   UNL A   1      39.024  23.184  26.729  1.00  0.00    -0.252 OA
BRANCH   6   8
ATOM      8  C   UNL A   1      38.166  21.564  25.176  1.00  0.00     0.126 C 
BRANCH   8   9
ATOM      9  C   UNL A   1      36.751  22.184  25.057  1.00  0.00     0.006 C 
ATOM     10  C   UNL A   1      35.631  21.247  25.500  1.00  0.00     0.009 C 
BRANCH   9  11
ATOM     11  C   UNL A   1      36.533  22.753  23.645  1.00  0.00     0.103 C 
BRANCH  11  12
ATOM     12  C   UNL A   1      35.246  23.469  23.417  1.00  0.00     0.216 A 
ATOM     13  N   UNL A   1      34.381  23.325  22.436  1.00  0.00    -0.113 NA
ATOM     14  O   UNL A   1      34.767  24.263  24.428  1.00  0.00    -0.425 OA
ATOM     15  N   UNL A   1      33.246  24.013  22.822  1.00  0.00    -0.113 NA
ATOM     16  C   UNL A   1      33.485  24.528  24.015  1.00  0.00     0.220 A 
BRANCH  16  17
ATOM     17  C   UNL A   1      32.402  25.302  24.783  1.00  0.00     0.090 C 
ATOM     18  C   UNL A   1      32.493  26.805  25.096  1.00  0.00    -0.017 C 
ATOM     19  C   UNL A   1      31.453  26.298  24.104  1.00  0.00    -0.017 C 
ATOM     20  C   UNL A   1      32.098  27.219  26.502  1.00  0.00     0.012 C 
ATOM     21  C   UNL A   1      33.567  27.714  24.578  1.00  0.00     0.012 C 
ATOM     22  C   UNL A   1      31.588  26.585  22.622  1.00  0.00     0.012 C 
ATOM     23  C   UNL A   1      30.004  26.327  24.539  1.00  0.00     0.012 C 
ENDBRANCH  16  17
ENDBRANCH  11  12
ENDBRANCH   9  11
ENDBRANCH   8   9
ENDBRANCH   6   8
ENDBRANCH   5   6
ENDBRANCH   4   5
ENDBRANCH   3   4
ENDBRANCH   2   3
ENDBRANCH   1   2
BRANCH   1  24
ATOM     24  C   UNL A   1      44.978  19.743  24.742  1.00  0.00     0.188 C 
BRANCH  24  25
ATOM     25  O   UNL A   1      44.567  20.621  23.706  1.00  0.00    -0.376 OA
BRANCH  25  26
ATOM     26  C   UNL A   1      44.902  22.000  23.784  1.00  0.00     0.202 C 
BRANCH  26  27
ATOM     27  C   UNL A   1      43.804  22.963  24.250  1.00  0.00     0.261 C 
BRANCH  27  28
ATOM     28  O   UNL A   1      44.030  23.605  25.523  1.00  0.00    -0.460 OA
BRANCH  28  29
ATOM     29  C   UNL A   1      44.405  24.900  25.539  1.00  0.00     0.338 C 
ATOM     30  O   UNL A   1      45.039  25.508  24.697  1.00  0.00    -0.246 OA
BRANCH  29  31
ATOM     31  C   UNL A   1      43.720  25.611  26.622  1.00  0.00     0.060 A 
ATOM     32  C   UNL A   1      44.054  26.962  26.794  1.00  0.00     0.016 A 
ATOM     33  C   UNL A   1      42.750  24.997  27.413  1.00  0.00     0.016 A 
ATOM     34  C   UNL A   1      43.433  27.704  27.780  1.00  0.00     0.010 A 
ATOM     35  C   UNL A   1      42.126  25.742  28.406  1.00  0.00     0.010 A 
ATOM     36  C   UNL A   1      42.485  27.085  28.602  1.00  0.00    -0.014 A 
BRANCH  36  37
ATOM     37  C   UNL A   1      41.991  27.818  29.777  1.00  0.00     0.031 A 
ATOM     38  C   UNL A   1      40.724  28.602  29.637  1.00  0.00     0.074 A 
ATOM     39  C   UNL A   1      42.642  27.725  30.946  1.00  0.00     0.049 A 
ATOM     40  N   UNL A   1      40.116  29.354  30.516  1.00  0.00    -0.248 NA
ATOM     41  C   UNL A   1      40.050  28.529  28.330  1.00  0.00     0.031 C 
ATOM     42  C   UNL A   1      43.848  26.931  31.181  1.00  0.00     0.029 A 
ATOM     43  N   UNL A   1      42.374  28.305  32.155  1.00  0.00    -0.354 N 
ATOM     44  C   UNL A   1      38.996  29.849  29.866  1.00  0.00     0.074 A 
ATOM     45  C   UNL A   1      39.018  29.338  28.513  1.00  0.00     0.031 C 
ATOM     46  C   UNL A   1      44.220  27.079  32.464  1.00  0.00     0.029 A 
ATOM     47  C   UNL A   1      43.301  28.004  33.121  1.00  0.00     0.049 A 
ATOM     48  H   UNL A   1      41.592  28.880  32.318  1.00  0.00     0.167 HD
ATOM     49  C   UNL A   1      38.033  30.656  30.365  1.00  0.00     0.037 A 
ATOM     50  C   UNL A   1      43.399  28.455  34.384  1.00  0.00     0.037 A 
ATOM     51  C   UNL A   1      38.029  31.151  31.714  1.00  0.00     0.049 A 
ATOM     52  C   UNL A   1      42.350  29.410  34.891  1.00  0.00     0.074 A 
ATOM     53  C   UNL A   1      37.108  31.978  32.329  1.00  0.00     0.029 A 
ATOM     54  N   UNL A   1      39.005  30.860  32.658  1.00  0.00    -0.354 N 
ATOM     55  N   UNL A   1      41.292  29.882  34.275  1.00  0.00    -0.248 NA
ATOM     56  C   UNL A   1      42.510  29.894  36.268  1.00  0.00     0.031 C 
ATOM     57  C   UNL A   1      37.551  32.226  33.633  1.00  0.00     0.029 A 
ATOM     58  C   UNL A   1      38.719  31.510  33.847  1.00  0.00     0.049 A 
ATOM     59  H   UNL A   1      39.783  30.277  32.506  1.00  0.00     0.167 HD
ATOM     60  C   UNL A   1      40.647  30.698  35.194  1.00  0.00     0.074 A 
ATOM     61  C   UNL A   1      41.426  30.643  36.415  1.00  0.00     0.031 C 
ATOM     62  C   UNL A   1      39.514  31.429  35.046  1.00  0.00     0.037 A 
BRANCH  49  63
ATOM     63  C   UNL A   1      36.938  31.077  29.433  1.00  0.00     0.064 A 
ATOM     64  C   UNL A   1      36.906  32.357  28.859  1.00  0.00     0.173 A 
ATOM     65  C   UNL A   1      35.906  30.185  29.108  1.00  0.00     0.173 A 
ATOM     66  F   UNL A   1      37.855  33.256  29.159  1.00  0.00    -0.203 F 
ATOM     67  C   UNL A   1      35.868  32.734  28.009  1.00  0.00     0.198 A 
ATOM     68  C   UNL A   1      34.886  30.555  28.236  1.00  0.00     0.198 A 
ATOM     69  F   UNL A   1      35.885  28.953  29.637  1.00  0.00    -0.203 F 
ATOM     70  F   UNL A   1      35.831  33.978  27.511  1.00  0.00    -0.200 F 
ATOM     71  C   UNL A   1      34.864  31.831  27.693  1.00  0.00     0.200 A 
ATOM     72  F   UNL A   1      33.918  29.681  27.928  1.00  0.00    -0.200 F 
ATOM     73  F   UNL A   1      33.868  32.194  26.873  1.00  0.00    -0.200 F 
ENDBRANCH  49  63
BRANCH  50  74
ATOM     74  C   UNL A   1      44.532  28.025  35.241  1.00  0.00     0.064 A 
ATOM     75  C   UNL A   1      45.781  28.654  35.159  1.00  0.00     0.173 A 
ATOM     76  C   UNL A   1      44.391  26.970  36.155  1.00  0.00     0.173 A 
ATOM     77  F   UNL A   1      45.971  29.655  34.286  1.00  0.00    -0.203 F 
ATOM     78  C   UNL A   1      46.852  28.230  35.943  1.00  0.00     0.198 A 
ATOM     79  C   UNL A   1      45.454  26.566  36.959  1.00  0.00     0.198 A 
ATOM     80  F   UNL A   1      43.214  26.336  36.273  1.00  0.00    -0.203 F 
ATOM     81  F   UNL A   1      48.049  28.818  35.813  1.00  0.00    -0.200 F 
ATOM     82  C   UNL A   1      46.685  27.191  36.846  1.00  0.00     0.200 A 
ATOM     83  F   UNL A   1      45.284  25.570  37.838  1.00  0.00    -0.200 F 
ATOM     84  F   UNL A   1      47.716  26.785  37.602  1.00  0.00    -0.200 F 
ENDBRANCH  50  74
BRANCH  62  85
ATOM     85  C   UNL A   1      39.037  32.196  36.243  1.00  0.00     0.064 A 
ATOM     86  C   UNL A   1      38.157  31.630  37.177  1.00  0.00     0.173 A 
ATOM     87  C   UNL A   1      39.500  33.499  36.479  1.00  0.00     0.173 A 
ATOM     88  F   UNL A   1      37.677  30.392  36.987  1.00  0.00    -0.203 F 
ATOM     89  C   UNL A   1      37.738  32.352  38.290  1.00  0.00     0.198 A 
ATOM     90  C   UNL A   1      39.103  34.206  37.610  1.00  0.00     0.198 A 
ATOM     91  F   UNL A   1      40.350  34.081  35.619  1.00  0.00    -0.203 F 
ATOM     92  F   UNL A   1      36.859  31.809  39.145  1.00  0.00    -0.200 F 
ATOM     93  C   UNL A   1      38.216  33.635  38.510  1.00  0.00     0.200 A 
ATOM     94  F   UNL A   1      39.578  35.440  37.828  1.00  0.00    -0.200 F 
ATOM     95  F   UNL A   1      37.816  34.325  39.586  1.00  0.00    -0.200 F 
ENDBRANCH  62  85
ENDBRANCH  36  37
ENDBRANCH  29  31
ENDBRANCH  28  29
ENDBRANCH  27  28
ENDBRANCH  26  27
ENDBRANCH  25  26
ENDBRANCH  24  25
ENDBRANCH   1  24
TORSDOF 21
ENDMDL
