MODEL 1
REMARK VINA RESULT:     -10.4      0.000      0.000
REMARK SMILES CN(C)c1oc(/C=N/c2ccc(O)c(C(=O)OCCOCCOCCOC(=O)c3ccc(-c4c5nc(c(-c6c(F)c(F)c(F)c(F)c6F)c6ccc([nH]6)c(-c6c(F)c(F)c(F)c(F)c6F)c6nc(c(-c7c(F)c(F)c(F)c(F)c7F)c7ccc4[nH]7)C=C6)C=C5)cc3)c2)cc1Br
REMARK SMILES IDX 21 1 20 2 19 3 18 4 17 5 15 6 16 7 14 8 9 9 10 10 92 11
REMARK SMILES IDX 11 12 12 13 8 14 7 15 6 16 4 17 5 18 94 19 93 20 95 21 2 22
REMARK SMILES IDX 1 23 3 24 13 25 22 27 23 28 24 29 25 30 26 31 27 32 28 33
REMARK SMILES IDX 29 34 30 35 91 36 31 37 90 38 32 39 33 40 34 41 84 42 35 43
REMARK SMILES IDX 89 44 83 45 85 46 36 47 88 48 82 49 81 50 37 52 69 53 49 54
REMARK SMILES IDX 68 55 50 56 53 57 67 58 86 59 51 60 52 61 66 63 87 64 54 65
REMARK SMILES IDX 38 66 39 67 47 68 40 69 41 70 45 71 48 72 42 73 43 74 46 75
REMARK SMILES IDX 44 76 70 77 71 78 79 79 72 80 73 81 77 82 80 83 74 84 75 85
REMARK SMILES IDX 78 86 76 87 55 88 56 89 64 90 57 91 58 92 62 93 65 94 59 95
REMARK SMILES IDX 60 96 63 97 61 98
REMARK H PARENT 13 26 85 51 53 62
REMARK Flexibility Score: inf
ROOT
ATOM      1  C   UNL A   1      32.776  37.014  32.861  1.00  0.00     0.188 C 
ENDROOT
BRANCH   1   2
ATOM      2  O   UNL A   1      32.006  36.345  31.880  1.00  0.00    -0.376 OA
BRANCH   2   3
ATOM      3  C   UNL A   1      32.522  36.180  30.567  1.00  0.00     0.202 C 
BRANCH   3   4
ATOM      4  C   UNL A   1      33.300  34.919  30.190  1.00  0.00     0.261 C 
BRANCH   4   5
ATOM      5  O   UNL A   1      32.946  34.403  28.902  1.00  0.00    -0.460 OA
BRANCH   5   6
ATOM      6  C   UNL A   1      33.970  34.270  28.022  1.00  0.00     0.342 C 
ATOM      7  O   UNL A   1      34.551  35.172  27.438  1.00  0.00    -0.246 OA
BRANCH   6   8
ATOM      8  C   UNL A   1      34.467  32.879  28.013  1.00  0.00     0.103 A 
ATOM      9  C   UNL A   1      34.034  30.584  27.338  1.00  0.00     0.064 A 
ATOM     10  C   UNL A   1      35.285  30.217  27.845  1.00  0.00     0.032 A 
ATOM     11  C   UNL A   1      33.630  31.916  27.428  1.00  0.00     0.048 A 
ATOM     12  C   UNL A   1      36.123  31.169  28.434  1.00  0.00     0.049 A 
ATOM     13  C   UNL A   1      35.717  32.502  28.509  1.00  0.00     0.130 A 
BRANCH   9  14
ATOM     14  N   UNL A   1      33.236  29.670  26.641  1.00  0.00    -0.253 NA
ATOM     15  C   UNL A   1      32.405  30.142  25.765  1.00  0.00     0.158 C 
BRANCH  15  16
ATOM     16  C   UNL A   1      31.542  29.248  25.046  1.00  0.00     0.149 A 
ATOM     17  C   UNL A   1      29.884  28.741  23.671  1.00  0.00     0.210 A 
ATOM     18  O   UNL A   1      30.640  29.774  24.165  1.00  0.00    -0.438 OA
ATOM     19  C   UNL A   1      30.355  27.561  24.209  1.00  0.00     0.082 A 
ATOM     20  C   UNL A   1      31.419  27.874  25.076  1.00  0.00     0.070 A 
ATOM     21  Br  UNL A   1      29.822  25.791  23.884  1.00  0.00    -0.045 Br
BRANCH  17  22
ATOM     22  N   UNL A   1      28.876  29.080  22.826  1.00  0.00    -0.348 N 
ATOM     23  C   UNL A   1      29.088  30.013  21.736  1.00  0.00     0.146 C 
ATOM     24  C   UNL A   1      27.531  28.597  23.083  1.00  0.00     0.146 C 
ENDBRANCH  17  22
ENDBRANCH  15  16
ENDBRANCH   9  14
BRANCH  13  25
ATOM     25  O   UNL A   1      36.548  33.425  29.076  1.00  0.00    -0.507 OA
ATOM     26  H   UNL A   1      36.367  34.339  28.980  1.00  0.00     0.293 HD
ENDBRANCH  13  25
ENDBRANCH   6   8
ENDBRANCH   5   6
ENDBRANCH   4   5
ENDBRANCH   3   4
ENDBRANCH   2   3
ENDBRANCH   1   2
BRANCH   1  27
ATOM     27  C   UNL A   1      34.317  37.049  32.781  1.00  0.00     0.188 C 
BRANCH  27  28
ATOM     28  O   UNL A   1      35.112  35.933  33.135  1.00  0.00    -0.376 OA
BRANCH  28  29
ATOM     29  C   UNL A   1      34.515  34.680  33.419  1.00  0.00     0.202 C 
BRANCH  29  30
ATOM     30  C   UNL A   1      35.252  33.603  34.219  1.00  0.00     0.261 C 
BRANCH  30  31
ATOM     31  O   UNL A   1      36.087  32.747  33.433  1.00  0.00    -0.460 OA
BRANCH  31  32
ATOM     32  C   UNL A   1      37.165  32.251  34.088  1.00  0.00     0.338 C 
ATOM     33  O   UNL A   1      37.386  32.269  35.285  1.00  0.00    -0.246 OA
BRANCH  32  34
ATOM     34  C   UNL A   1      38.010  31.515  33.135  1.00  0.00     0.060 A 
ATOM     35  C   UNL A   1      38.941  30.601  33.645  1.00  0.00     0.016 A 
ATOM     36  C   UNL A   1      37.929  31.770  31.766  1.00  0.00     0.016 A 
ATOM     37  C   UNL A   1      39.822  29.955  32.782  1.00  0.00     0.010 A 
ATOM     38  C   UNL A   1      38.827  31.138  30.904  1.00  0.00     0.010 A 
ATOM     39  C   UNL A   1      39.796  30.253  31.413  1.00  0.00    -0.014 A 
BRANCH  39  40
ATOM     40  C   UNL A   1      40.889  29.775  30.538  1.00  0.00     0.031 A 
ATOM     41  C   UNL A   1      42.080  30.664  30.323  1.00  0.00     0.074 A 
ATOM     42  C   UNL A   1      40.828  28.568  29.952  1.00  0.00     0.049 A 
ATOM     43  N   UNL A   1      43.134  30.477  29.570  1.00  0.00    -0.248 NA
ATOM     44  C   UNL A   1      42.079  31.940  31.055  1.00  0.00     0.031 C 
ATOM     45  C   UNL A   1      39.746  27.601  30.120  1.00  0.00     0.029 A 
ATOM     46  N   UNL A   1      41.700  27.958  29.088  1.00  0.00    -0.354 N 
ATOM     47  C   UNL A   1      43.916  31.611  29.733  1.00  0.00     0.074 A 
ATOM     48  C   UNL A   1      43.203  32.495  30.630  1.00  0.00     0.031 C 
ATOM     49  C   UNL A   1      40.016  26.516  29.373  1.00  0.00     0.029 A 
ATOM     50  C   UNL A   1      41.270  26.730  28.652  1.00  0.00     0.049 A 
ATOM     51  H   UNL A   1      42.552  28.362  28.806  1.00  0.00     0.167 HD
ATOM     52  C   UNL A   1      45.125  31.889  29.187  1.00  0.00     0.037 A 
ATOM     53  C   UNL A   1      41.821  25.888  27.758  1.00  0.00     0.037 A 
ATOM     54  C   UNL A   1      45.827  31.011  28.289  1.00  0.00     0.049 A 
ATOM     55  C   UNL A   1      43.120  26.259  27.092  1.00  0.00     0.074 A 
ATOM     56  C   UNL A   1      47.069  31.186  27.706  1.00  0.00     0.029 A 
ATOM     57  N   UNL A   1      45.337  29.797  27.829  1.00  0.00    -0.354 N 
ATOM     58  N   UNL A   1      43.875  27.316  27.275  1.00  0.00    -0.248 NA
ATOM     59  C   UNL A   1      43.642  25.317  26.093  1.00  0.00     0.031 C 
ATOM     60  C   UNL A   1      47.305  30.106  26.849  1.00  0.00     0.029 A 
ATOM     61  C   UNL A   1      46.235  29.228  26.941  1.00  0.00     0.049 A 
ATOM     62  H   UNL A   1      44.477  29.399  28.096  1.00  0.00     0.167 HD
ATOM     63  C   UNL A   1      44.973  27.151  26.441  1.00  0.00     0.074 A 
ATOM     64  C   UNL A   1      44.790  25.890  25.755  1.00  0.00     0.031 C 
ATOM     65  C   UNL A   1      46.042  27.969  26.267  1.00  0.00     0.037 A 
BRANCH  52  66
ATOM     66  C   UNL A   1      45.737  33.219  29.519  1.00  0.00     0.064 A 
ATOM     67  C   UNL A   1      45.506  34.357  28.731  1.00  0.00     0.173 A 
ATOM     68  C   UNL A   1      46.571  33.354  30.639  1.00  0.00     0.173 A 
ATOM     69  F   UNL A   1      44.729  34.278  27.640  1.00  0.00    -0.203 F 
ATOM     70  C   UNL A   1      46.118  35.572  29.031  1.00  0.00     0.198 A 
ATOM     71  C   UNL A   1      47.155  34.577  30.954  1.00  0.00     0.198 A 
ATOM     72  F   UNL A   1      46.821  32.298  31.427  1.00  0.00    -0.203 F 
ATOM     73  F   UNL A   1      45.933  36.630  28.231  1.00  0.00    -0.200 F 
ATOM     74  C   UNL A   1      46.939  35.682  30.144  1.00  0.00     0.200 A 
ATOM     75  F   UNL A   1      47.939  34.684  32.037  1.00  0.00    -0.200 F 
ATOM     76  F   UNL A   1      47.530  36.850  30.430  1.00  0.00    -0.200 F 
ENDBRANCH  52  66
BRANCH  53  77
ATOM     77  C   UNL A   1      41.145  24.604  27.442  1.00  0.00     0.064 A 
ATOM     78  C   UNL A   1      41.634  23.393  27.949  1.00  0.00     0.173 A 
ATOM     79  C   UNL A   1      40.004  24.560  26.626  1.00  0.00     0.173 A 
ATOM     80  F   UNL A   1      42.739  23.382  28.708  1.00  0.00    -0.203 F 
ATOM     81  C   UNL A   1      41.010  22.184  27.647  1.00  0.00     0.198 A 
ATOM     82  C   UNL A   1      39.368  23.353  26.345  1.00  0.00     0.198 A 
ATOM     83  F   UNL A   1      39.504  25.693  26.110  1.00  0.00    -0.203 F 
ATOM     84  F   UNL A   1      41.520  21.035  28.113  1.00  0.00    -0.200 F 
ATOM     85  C   UNL A   1      39.875  22.166  26.851  1.00  0.00     0.200 A 
ATOM     86  F   UNL A   1      38.268  23.341  25.581  1.00  0.00    -0.200 F 
ATOM     87  F   UNL A   1      39.274  21.003  26.564  1.00  0.00    -0.200 F 
ENDBRANCH  53  77
BRANCH  65  88
ATOM     88  C   UNL A   1      47.119  27.510  25.325  1.00  0.00     0.064 A 
ATOM     89  C   UNL A   1      47.114  27.864  23.968  1.00  0.00     0.173 A 
ATOM     90  C   UNL A   1      48.194  26.742  25.800  1.00  0.00     0.173 A 
ATOM     91  F   UNL A   1      46.102  28.583  23.461  1.00  0.00    -0.203 F 
ATOM     92  C   UNL A   1      48.134  27.445  23.116  1.00  0.00     0.198 A 
ATOM     93  C   UNL A   1      49.227  26.352  24.951  1.00  0.00     0.198 A 
ATOM     94  F   UNL A   1      48.251  26.382  27.091  1.00  0.00    -0.203 F 
ATOM     95  F   UNL A   1      48.085  27.756  21.813  1.00  0.00    -0.200 F 
ATOM     96  C   UNL A   1      49.192  26.697  23.609  1.00  0.00     0.200 A 
ATOM     97  F   UNL A   1      50.256  25.642  25.433  1.00  0.00    -0.200 F 
ATOM     98  F   UNL A   1      50.177  26.304  22.789  1.00  0.00    -0.200 F 
ENDBRANCH  65  88
ENDBRANCH  39  40
ENDBRANCH  32  34
ENDBRANCH  31  32
ENDBRANCH  30  31
ENDBRANCH  29  30
ENDBRANCH  28  29
ENDBRANCH  27  28
ENDBRANCH   1  27
TORSDOF 21
ENDMDL
MODEL 2
REMARK VINA RESULT:     -10.3      1.311      2.001
REMARK SMILES CN(C)c1oc(/C=N/c2ccc(O)c(C(=O)OCCOCCOCCOC(=O)c3ccc(-c4c5nc(c(-c6c(F)c(F)c(F)c(F)c6F)c6ccc([nH]6)c(-c6c(F)c(F)c(F)c(F)c6F)c6nc(c(-c7c(F)c(F)c(F)c(F)c7F)c7ccc4[nH]7)C=C6)C=C5)cc3)c2)cc1Br
REMARK SMILES IDX 21 1 20 2 19 3 18 4 17 5 15 6 16 7 14 8 9 9 10 10 92 11
REMARK SMILES IDX 11 12 12 13 8 14 7 15 6 16 4 17 5 18 94 19 93 20 95 21 2 22
REMARK SMILES IDX 1 23 3 24 13 25 22 27 23 28 24 29 25 30 26 31 27 32 28 33
REMARK SMILES IDX 29 34 30 35 91 36 31 37 90 38 32 39 33 40 34 41 84 42 35 43
REMARK SMILES IDX 89 44 83 45 85 46 36 47 88 48 82 49 81 50 37 52 69 53 49 54
REMARK SMILES IDX 68 55 50 56 53 57 67 58 86 59 51 60 52 61 66 63 87 64 54 65
REMARK SMILES IDX 38 66 39 67 47 68 40 69 41 70 45 71 48 72 42 73 43 74 46 75
REMARK SMILES IDX 44 76 70 77 71 78 79 79 72 80 73 81 77 82 80 83 74 84 75 85
REMARK SMILES IDX 78 86 76 87 55 88 56 89 64 90 57 91 58 92 62 93 65 94 59 95
REMARK SMILES IDX 60 96 63 97 61 98
REMARK H PARENT 13 26 85 51 53 62
REMARK Flexibility Score: inf
ROOT
ATOM      1  C   UNL A   1      32.510  36.781  32.657  1.00  0.00     0.188 C 
ENDROOT
BRANCH   1   2
ATOM      2  O   UNL A   1      32.074  36.479  31.344  1.00  0.00    -0.376 OA
BRANCH   2   3
ATOM      3  C   UNL A   1      33.026  36.273  30.312  1.00  0.00     0.202 C 
BRANCH   3   4
ATOM      4  C   UNL A   1      33.716  34.919  30.149  1.00  0.00     0.261 C 
BRANCH   4   5
ATOM      5  O   UNL A   1      33.301  34.212  28.974  1.00  0.00    -0.460 OA
BRANCH   5   6
ATOM      6  C   UNL A   1      34.241  34.083  28.005  1.00  0.00     0.342 C 
ATOM      7  O   UNL A   1      34.730  34.983  27.340  1.00  0.00    -0.246 OA
BRANCH   6   8
ATOM      8  C   UNL A   1      34.784  32.709  27.991  1.00  0.00     0.103 A 
ATOM      9  C   UNL A   1      34.322  30.359  27.577  1.00  0.00     0.064 A 
ATOM     10  C   UNL A   1      35.664  30.066  27.845  1.00  0.00     0.032 A 
ATOM     11  C   UNL A   1      33.888  31.682  27.655  1.00  0.00     0.048 A 
ATOM     12  C   UNL A   1      36.562  31.083  28.186  1.00  0.00     0.049 A 
ATOM     13  C   UNL A   1      36.122  32.405  28.250  1.00  0.00     0.130 A 
BRANCH   9  14
ATOM     14  N   UNL A   1      33.440  29.373  27.120  1.00  0.00    -0.253 NA
ATOM     15  C   UNL A   1      33.936  28.394  26.432  1.00  0.00     0.158 C 
BRANCH  15  16
ATOM     16  C   UNL A   1      33.069  27.373  25.914  1.00  0.00     0.149 A 
ATOM     17  C   UNL A   1      32.531  25.304  25.345  1.00  0.00     0.210 A 
ATOM     18  O   UNL A   1      33.483  26.072  25.965  1.00  0.00    -0.438 OA
ATOM     19  C   UNL A   1      31.495  26.127  24.952  1.00  0.00     0.082 A 
ATOM     20  C   UNL A   1      31.824  27.445  25.323  1.00  0.00     0.070 A 
ATOM     21  Br  UNL A   1      29.861  25.701  24.133  1.00  0.00    -0.045 Br
BRANCH  17  22
ATOM     22  N   UNL A   1      32.803  23.978  25.231  1.00  0.00    -0.348 N 
ATOM     23  C   UNL A   1      33.938  23.506  24.461  1.00  0.00     0.146 C 
ATOM     24  C   UNL A   1      31.881  23.005  25.789  1.00  0.00     0.146 C 
ENDBRANCH  17  22
ENDBRANCH  15  16
ENDBRANCH   9  14
BRANCH  13  25
ATOM     25  O   UNL A   1      37.010  33.391  28.572  1.00  0.00    -0.507 OA
ATOM     26  H   UNL A   1      37.876  33.378  28.213  1.00  0.00     0.293 HD
ENDBRANCH  13  25
ENDBRANCH   6   8
ENDBRANCH   5   6
ENDBRANCH   4   5
ENDBRANCH   3   4
ENDBRANCH   2   3
ENDBRANCH   1   2
BRANCH   1  27
ATOM     27  C   UNL A   1      33.987  37.120  32.950  1.00  0.00     0.188 C 
BRANCH  27  28
ATOM     28  O   UNL A   1      34.915  36.135  33.360  1.00  0.00    -0.376 OA
BRANCH  28  29
ATOM     29  C   UNL A   1      34.498  34.802  33.601  1.00  0.00     0.202 C 
BRANCH  29  30
ATOM     30  C   UNL A   1      35.381  33.810  34.360  1.00  0.00     0.261 C 
BRANCH  30  31
ATOM     31  O   UNL A   1      36.291  33.074  33.537  1.00  0.00    -0.460 OA
BRANCH  31  32
ATOM     32  C   UNL A   1      37.577  33.084  33.964  1.00  0.00     0.338 C 
ATOM     33  O   UNL A   1      38.018  33.556  34.996  1.00  0.00    -0.246 OA
BRANCH  32  34
ATOM     34  C   UNL A   1      38.396  32.279  33.045  1.00  0.00     0.060 A 
ATOM     35  C   UNL A   1      39.332  31.394  33.595  1.00  0.00     0.016 A 
ATOM     36  C   UNL A   1      38.287  32.442  31.664  1.00  0.00     0.016 A 
ATOM     37  C   UNL A   1      40.189  30.684  32.759  1.00  0.00     0.010 A 
ATOM     38  C   UNL A   1      39.161  31.745  30.828  1.00  0.00     0.010 A 
ATOM     39  C   UNL A   1      40.135  30.889  31.374  1.00  0.00    -0.014 A 
BRANCH  39  40
ATOM     40  C   UNL A   1      41.205  30.344  30.510  1.00  0.00     0.031 A 
ATOM     41  C   UNL A   1      42.424  31.184  30.257  1.00  0.00     0.074 A 
ATOM     42  C   UNL A   1      41.100  29.120  29.968  1.00  0.00     0.049 A 
ATOM     43  N   UNL A   1      43.466  30.936  29.505  1.00  0.00    -0.248 NA
ATOM     44  C   UNL A   1      42.470  32.484  30.944  1.00  0.00     0.031 C 
ATOM     45  C   UNL A   1      39.988  28.197  30.176  1.00  0.00     0.029 A 
ATOM     46  N   UNL A   1      41.945  28.451  29.120  1.00  0.00    -0.354 N 
ATOM     47  C   UNL A   1      44.287  32.048  29.623  1.00  0.00     0.074 A 
ATOM     48  C   UNL A   1      43.610  32.986  30.493  1.00  0.00     0.031 C 
ATOM     49  C   UNL A   1      40.215  27.078  29.467  1.00  0.00     0.029 A 
ATOM     50  C   UNL A   1      41.471  27.224  28.731  1.00  0.00     0.049 A 
ATOM     51  H   UNL A   1      42.808  28.816  28.820  1.00  0.00     0.167 HD
ATOM     52  C   UNL A   1      45.500  32.266  29.061  1.00  0.00     0.037 A 
ATOM     53  C   UNL A   1      41.987  26.333  27.864  1.00  0.00     0.037 A 
ATOM     54  C   UNL A   1      46.166  31.334  28.190  1.00  0.00     0.049 A 
ATOM     55  C   UNL A   1      43.293  26.636  27.178  1.00  0.00     0.074 A 
ATOM     56  C   UNL A   1      47.409  31.446  27.594  1.00  0.00     0.029 A 
ATOM     57  N   UNL A   1      45.632  30.121  27.776  1.00  0.00    -0.354 N 
ATOM     58  N   UNL A   1      44.084  27.672  27.318  1.00  0.00    -0.248 NA
ATOM     59  C   UNL A   1      43.777  25.642  26.209  1.00  0.00     0.031 C 
ATOM     60  C   UNL A   1      47.603  30.329  26.774  1.00  0.00     0.029 A 
ATOM     61  C   UNL A   1      46.505  29.492  26.904  1.00  0.00     0.049 A 
ATOM     62  H   UNL A   1      44.761  29.762  28.062  1.00  0.00     0.167 HD
ATOM     63  C   UNL A   1      45.171  27.442  26.485  1.00  0.00     0.074 A 
ATOM     64  C   UNL A   1      44.941  26.164  25.845  1.00  0.00     0.031 C 
ATOM     65  C   UNL A   1      46.266  28.217  26.276  1.00  0.00     0.037 A 
BRANCH  52  66
ATOM     66  C   UNL A   1      46.158  33.585  29.342  1.00  0.00     0.064 A 
ATOM     67  C   UNL A   1      47.024  33.763  30.433  1.00  0.00     0.173 A 
ATOM     68  C   UNL A   1      45.914  34.688  28.511  1.00  0.00     0.173 A 
ATOM     69  F   UNL A   1      47.278  32.743  31.267  1.00  0.00    -0.203 F 
ATOM     70  C   UNL A   1      47.590  35.006  30.701  1.00  0.00     0.198 A 
ATOM     71  C   UNL A   1      46.507  35.921  28.765  1.00  0.00     0.198 A 
ATOM     72  F   UNL A   1      45.098  34.571  27.453  1.00  0.00    -0.203 F 
ATOM     73  F   UNL A   1      48.364  35.169  31.783  1.00  0.00    -0.200 F 
ATOM     74  C   UNL A   1      47.335  36.084  29.865  1.00  0.00     0.200 A 
ATOM     75  F   UNL A   1      46.269  36.958  27.949  1.00  0.00    -0.200 F 
ATOM     76  F   UNL A   1      47.879  37.280  30.127  1.00  0.00    -0.200 F 
ENDBRANCH  52  66
BRANCH  53  77
ATOM     77  C   UNL A   1      41.267  25.062  27.597  1.00  0.00     0.064 A 
ATOM     78  C   UNL A   1      41.664  23.870  28.216  1.00  0.00     0.173 A 
ATOM     79  C   UNL A   1      40.174  25.012  26.719  1.00  0.00     0.173 A 
ATOM     80  F   UNL A   1      42.722  23.862  29.039  1.00  0.00    -0.203 F 
ATOM     81  C   UNL A   1      40.998  22.672  27.961  1.00  0.00     0.198 A 
ATOM     82  C   UNL A   1      39.495  23.819  26.484  1.00  0.00     0.198 A 
ATOM     83  F   UNL A   1      39.762  26.126  26.096  1.00  0.00    -0.203 F 
ATOM     84  F   UNL A   1      41.422  21.537  28.536  1.00  0.00    -0.200 F 
ATOM     85  C   UNL A   1      39.911  22.649  27.101  1.00  0.00     0.200 A 
ATOM     86  F   UNL A   1      38.441  23.802  25.657  1.00  0.00    -0.200 F 
ATOM     87  F   UNL A   1      39.270  21.497  26.859  1.00  0.00    -0.200 F 
ENDBRANCH  53  77
BRANCH  65  88
ATOM     88  C   UNL A   1      47.319  27.689  25.345  1.00  0.00     0.064 A 
ATOM     89  C   UNL A   1      47.208  27.817  23.952  1.00  0.00     0.173 A 
ATOM     90  C   UNL A   1      48.479  27.086  25.857  1.00  0.00     0.173 A 
ATOM     91  F   UNL A   1      46.113  28.372  23.411  1.00  0.00    -0.203 F 
ATOM     92  C   UNL A   1      48.206  27.340  23.107  1.00  0.00     0.198 A 
ATOM     93  C   UNL A   1      49.489  26.638  25.010  1.00  0.00     0.198 A 
ATOM     94  F   UNL A   1      48.640  26.945  27.181  1.00  0.00    -0.203 F 
ATOM     95  F   UNL A   1      48.057  27.432  21.778  1.00  0.00    -0.200 F 
ATOM     96  C   UNL A   1      49.348  26.759  23.636  1.00  0.00     0.200 A 
ATOM     97  F   UNL A   1      50.599  26.090  25.524  1.00  0.00    -0.200 F 
ATOM     98  F   UNL A   1      50.313  26.309  22.821  1.00  0.00    -0.200 F 
ENDBRANCH  65  88
ENDBRANCH  39  40
ENDBRANCH  32  34
ENDBRANCH  31  32
ENDBRANCH  30  31
ENDBRANCH  29  30
ENDBRANCH  28  29
ENDBRANCH  27  28
ENDBRANCH   1  27
TORSDOF 21
ENDMDL
MODEL 3
REMARK VINA RESULT:     -10.1      4.820      7.545
REMARK SMILES CN(C)c1oc(/C=N/c2ccc(O)c(C(=O)OCCOCCOCCOC(=O)c3ccc(-c4c5nc(c(-c6c(F)c(F)c(F)c(F)c6F)c6ccc([nH]6)c(-c6c(F)c(F)c(F)c(F)c6F)c6nc(c(-c7c(F)c(F)c(F)c(F)c7F)c7ccc4[nH]7)C=C6)C=C5)cc3)c2)cc1Br
REMARK SMILES IDX 21 1 20 2 19 3 18 4 17 5 15 6 16 7 14 8 9 9 10 10 92 11
REMARK SMILES IDX 11 12 12 13 8 14 7 15 6 16 4 17 5 18 94 19 93 20 95 21 2 22
REMARK SMILES IDX 1 23 3 24 13 25 22 27 23 28 24 29 25 30 26 31 27 32 28 33
REMARK SMILES IDX 29 34 30 35 91 36 31 37 90 38 32 39 33 40 34 41 84 42 35 43
REMARK SMILES IDX 89 44 83 45 85 46 36 47 88 48 82 49 81 50 37 52 69 53 49 54
REMARK SMILES IDX 68 55 50 56 53 57 67 58 86 59 51 60 52 61 66 63 87 64 54 65
REMARK SMILES IDX 38 66 39 67 47 68 40 69 41 70 45 71 48 72 42 73 43 74 46 75
REMARK SMILES IDX 44 76 70 77 71 78 79 79 72 80 73 81 77 82 80 83 74 84 75 85
REMARK SMILES IDX 78 86 76 87 55 88 56 89 64 90 57 91 58 92 62 93 65 94 59 95
REMARK SMILES IDX 60 96 63 97 61 98
REMARK H PARENT 13 26 85 51 53 62
REMARK Flexibility Score: inf
ROOT
ATOM      1  C   UNL A   1      38.510  32.498  36.088  1.00  0.00     0.188 C 
ENDROOT
BRANCH   1   2
ATOM      2  O   UNL A   1      37.676  31.629  35.345  1.00  0.00    -0.376 OA
BRANCH   2   3
ATOM      3  C   UNL A   1      37.546  31.800  33.942  1.00  0.00     0.202 C 
BRANCH   3   4
ATOM      4  C   UNL A   1      38.619  31.271  32.991  1.00  0.00     0.261 C 
BRANCH   4   5
ATOM      5  O   UNL A   1      38.955  29.899  33.226  1.00  0.00    -0.460 OA
BRANCH   5   6
ATOM      6  C   UNL A   1      38.063  28.990  32.760  1.00  0.00     0.342 C 
ATOM      7  O   UNL A   1      37.144  28.482  33.386  1.00  0.00    -0.246 OA
BRANCH   6   8
ATOM      8  C   UNL A   1      38.196  28.837  31.296  1.00  0.00     0.103 A 
ATOM      9  C   UNL A   1      39.584  28.038  29.468  1.00  0.00     0.064 A 
ATOM     10  C   UNL A   1      38.579  28.407  28.567  1.00  0.00     0.032 A 
ATOM     11  C   UNL A   1      39.387  28.259  30.831  1.00  0.00     0.048 A 
ATOM     12  C   UNL A   1      37.392  28.989  29.022  1.00  0.00     0.049 A 
ATOM     13  C   UNL A   1      37.197  29.194  30.388  1.00  0.00     0.130 A 
BRANCH   9  14
ATOM     14  N   UNL A   1      40.725  27.349  29.042  1.00  0.00    -0.253 NA
ATOM     15  C   UNL A   1      40.557  26.186  28.496  1.00  0.00     0.158 C 
BRANCH  15  16
ATOM     16  C   UNL A   1      41.699  25.426  28.070  1.00  0.00     0.149 A 
ATOM     17  C   UNL A   1      42.766  23.958  26.803  1.00  0.00     0.210 A 
ATOM     18  O   UNL A   1      41.585  24.639  26.958  1.00  0.00    -0.438 OA
ATOM     19  C   UNL A   1      43.636  24.364  27.796  1.00  0.00     0.082 A 
ATOM     20  C   UNL A   1      42.967  25.308  28.598  1.00  0.00     0.070 A 
ATOM     21  Br  UNL A   1      45.425  23.886  28.099  1.00  0.00    -0.045 Br
BRANCH  17  22
ATOM     22  N   UNL A   1      42.819  23.064  25.783  1.00  0.00    -0.348 N 
ATOM     23  C   UNL A   1      43.649  23.298  24.618  1.00  0.00     0.146 C 
ATOM     24  C   UNL A   1      41.942  21.906  25.797  1.00  0.00     0.146 C 
ENDBRANCH  17  22
ENDBRANCH  15  16
ENDBRANCH   9  14
BRANCH  13  25
ATOM     25  O   UNL A   1      36.029  29.752  30.822  1.00  0.00    -0.507 OA
ATOM     26  H   UNL A   1      35.726  29.585  31.694  1.00  0.00     0.293 HD
ENDBRANCH  13  25
ENDBRANCH   6   8
ENDBRANCH   5   6
ENDBRANCH   4   5
ENDBRANCH   3   4
ENDBRANCH   2   3
ENDBRANCH   1   2
BRANCH   1  27
ATOM     27  C   UNL A   1      38.110  32.977  37.500  1.00  0.00     0.188 C 
BRANCH  27  28
ATOM     28  O   UNL A   1      39.063  33.154  38.530  1.00  0.00    -0.376 OA
BRANCH  28  29
ATOM     29  C   UNL A   1      38.753  33.920  39.681  1.00  0.00     0.202 C 
BRANCH  29  30
ATOM     30  C   UNL A   1      39.395  35.287  39.932  1.00  0.00     0.261 C 
BRANCH  30  31
ATOM     31  O   UNL A   1      39.348  36.179  38.814  1.00  0.00    -0.460 OA
BRANCH  31  32
ATOM     32  C   UNL A   1      40.527  36.775  38.515  1.00  0.00     0.338 C 
ATOM     33  O   UNL A   1      41.129  37.610  39.165  1.00  0.00    -0.246 OA
BRANCH  32  34
ATOM     34  C   UNL A   1      41.095  36.144  37.314  1.00  0.00     0.060 A 
ATOM     35  C   UNL A   1      40.239  35.879  36.238  1.00  0.00     0.016 A 
ATOM     36  C   UNL A   1      42.436  35.761  37.277  1.00  0.00     0.016 A 
ATOM     37  C   UNL A   1      40.718  35.199  35.122  1.00  0.00     0.010 A 
ATOM     38  C   UNL A   1      42.910  35.060  36.166  1.00  0.00     0.010 A 
ATOM     39  C   UNL A   1      42.045  34.750  35.100  1.00  0.00    -0.014 A 
BRANCH  39  40
ATOM     40  C   UNL A   1      42.483  33.809  34.046  1.00  0.00     0.031 A 
ATOM     41  C   UNL A   1      42.799  34.352  32.682  1.00  0.00     0.074 A 
ATOM     42  C   UNL A   1      42.608  32.496  34.299  1.00  0.00     0.049 A 
ATOM     43  N   UNL A   1      43.159  33.718  31.596  1.00  0.00    -0.248 NA
ATOM     44  C   UNL A   1      42.690  35.810  32.523  1.00  0.00     0.031 C 
ATOM     45  C   UNL A   1      42.372  31.859  35.593  1.00  0.00     0.029 A 
ATOM     46  N   UNL A   1      42.956  31.462  33.468  1.00  0.00    -0.354 N 
ATOM     47  C   UNL A   1      43.313  34.696  30.624  1.00  0.00     0.074 A 
ATOM     48  C   UNL A   1      42.977  35.963  31.239  1.00  0.00     0.031 C 
ATOM     49  C   UNL A   1      42.577  30.536  35.467  1.00  0.00     0.029 A 
ATOM     50  C   UNL A   1      42.924  30.234  34.079  1.00  0.00     0.049 A 
ATOM     51  H   UNL A   1      43.205  31.589  32.525  1.00  0.00     0.167 HD
ATOM     52  C   UNL A   1      43.704  34.552  29.335  1.00  0.00     0.037 A 
ATOM     53  C   UNL A   1      43.132  29.007  33.566  1.00  0.00     0.037 A 
ATOM     54  C   UNL A   1      44.029  33.290  28.725  1.00  0.00     0.049 A 
ATOM     55  C   UNL A   1      43.475  28.863  32.106  1.00  0.00     0.074 A 
ATOM     56  C   UNL A   1      44.466  33.041  27.437  1.00  0.00     0.029 A 
ATOM     57  N   UNL A   1      43.936  32.060  29.360  1.00  0.00    -0.354 N 
ATOM     58  N   UNL A   1      43.654  29.792  31.199  1.00  0.00    -0.248 NA
ATOM     59  C   UNL A   1      43.645  27.493  31.601  1.00  0.00     0.031 C 
ATOM     60  C   UNL A   1      44.580  31.656  27.274  1.00  0.00     0.029 A 
ATOM     61  C   UNL A   1      44.271  31.044  28.480  1.00  0.00     0.049 A 
ATOM     62  H   UNL A   1      43.670  31.929  30.300  1.00  0.00     0.167 HD
ATOM     63  C   UNL A   1      43.988  29.126  30.027  1.00  0.00     0.074 A 
ATOM     64  C   UNL A   1      43.992  27.712  30.339  1.00  0.00     0.031 C 
ATOM     65  C   UNL A   1      44.274  29.640  28.804  1.00  0.00     0.037 A 
BRANCH  52  66
ATOM     66  C   UNL A   1      43.757  35.794  28.493  1.00  0.00     0.064 A 
ATOM     67  C   UNL A   1      44.955  36.493  28.280  1.00  0.00     0.173 A 
ATOM     68  C   UNL A   1      42.590  36.293  27.896  1.00  0.00     0.173 A 
ATOM     69  F   UNL A   1      46.096  36.066  28.842  1.00  0.00    -0.203 F 
ATOM     70  C   UNL A   1      44.975  37.667  27.531  1.00  0.00     0.198 A 
ATOM     71  C   UNL A   1      42.621  37.450  27.122  1.00  0.00     0.198 A 
ATOM     72  F   UNL A   1      41.420  35.661  28.064  1.00  0.00    -0.203 F 
ATOM     73  F   UNL A   1      46.119  38.352  27.392  1.00  0.00    -0.200 F 
ATOM     74  C   UNL A   1      43.809  38.143  26.950  1.00  0.00     0.200 A 
ATOM     75  F   UNL A   1      41.495  37.901  26.551  1.00  0.00    -0.200 F 
ATOM     76  F   UNL A   1      43.830  39.274  26.232  1.00  0.00    -0.200 F 
ENDBRANCH  52  66
BRANCH  53  77
ATOM     77  C   UNL A   1      43.025  27.814  34.442  1.00  0.00     0.064 A 
ATOM     78  C   UNL A   1      44.122  27.377  35.196  1.00  0.00     0.173 A 
ATOM     79  C   UNL A   1      41.830  27.085  34.542  1.00  0.00     0.173 A 
ATOM     80  F   UNL A   1      45.294  28.023  35.109  1.00  0.00    -0.203 F 
ATOM     81  C   UNL A   1      44.031  26.251  36.012  1.00  0.00     0.198 A 
ATOM     82  C   UNL A   1      41.733  25.974  35.377  1.00  0.00     0.198 A 
ATOM     83  F   UNL A   1      40.754  27.460  33.834  1.00  0.00    -0.203 F 
ATOM     84  F   UNL A   1      45.106  25.831  36.693  1.00  0.00    -0.200 F 
ATOM     85  C   UNL A   1      42.835  25.555  36.107  1.00  0.00     0.200 A 
ATOM     86  F   UNL A   1      40.574  25.308  35.471  1.00  0.00    -0.200 F 
ATOM     87  F   UNL A   1      42.748  24.475  36.895  1.00  0.00    -0.200 F 
ENDBRANCH  53  77
BRANCH  65  88
ATOM     88  C   UNL A   1      44.654  28.674  27.718  1.00  0.00     0.064 A 
ATOM     89  C   UNL A   1      43.732  28.252  26.748  1.00  0.00     0.173 A 
ATOM     90  C   UNL A   1      45.971  28.200  27.622  1.00  0.00     0.173 A 
ATOM     91  F   UNL A   1      42.457  28.664  26.804  1.00  0.00    -0.203 F 
ATOM     92  C   UNL A   1      44.111  27.372  25.737  1.00  0.00     0.198 A 
ATOM     93  C   UNL A   1      46.353  27.345  26.590  1.00  0.00     0.198 A 
ATOM     94  F   UNL A   1      46.894  28.578  28.519  1.00  0.00    -0.203 F 
ATOM     95  F   UNL A   1      43.202  26.947  24.848  1.00  0.00    -0.200 F 
ATOM     96  C   UNL A   1      45.421  26.927  25.654  1.00  0.00     0.200 A 
ATOM     97  F   UNL A   1      47.623  26.927  26.504  1.00  0.00    -0.200 F 
ATOM     98  F   UNL A   1      45.784  26.088  24.674  1.00  0.00    -0.200 F 
ENDBRANCH  65  88
ENDBRANCH  39  40
ENDBRANCH  32  34
ENDBRANCH  31  32
ENDBRANCH  30  31
ENDBRANCH  29  30
ENDBRANCH  28  29
ENDBRANCH  27  28
ENDBRANCH   1  27
TORSDOF 21
ENDMDL
