MODEL 1
REMARK VINA RESULT:     -11.3      0.000      0.000
REMARK SMILES O=C(OCCOCCOCCOC(=O)C1CCN(C(=O)CSCc2ccccc2)CC1)c1ccc(-c2c3nc(c(-c4c(F)c(F)c(F)c(F)c4F)c4ccc([nH]4)c(-c4c(F)c(F)c(F)c(F)c4F)c4nc(c(-c5c(F)c(F)c(F)c(F)c5F)c5ccc2[nH]5)C=C4)C=C3)cc1
REMARK SMILES IDX 8 1 7 2 6 3 5 4 4 5 3 6 2 7 1 8 32 9 33 10 94 11 34 12 93 13
REMARK SMILES IDX 35 14 36 15 37 16 87 17 38 18 92 19 86 20 88 21 39 22 91 23
REMARK SMILES IDX 85 24 84 25 40 27 72 28 52 29 71 30 53 31 56 32 70 33 89 34
REMARK SMILES IDX 54 35 55 36 69 38 90 39 57 40 41 41 42 42 50 43 43 44 44 45
REMARK SMILES IDX 48 46 51 47 45 48 46 49 49 50 47 51 73 52 74 53 82 54 75 55
REMARK SMILES IDX 76 56 80 57 83 58 77 59 78 60 81 61 79 62 58 63 59 64 67 65
REMARK SMILES IDX 60 66 61 67 65 68 68 69 62 70 63 71 66 72 64 73 9 74 10 75
REMARK SMILES IDX 11 76 12 77 13 78 14 79 15 80 16 81 31 82 17 83 30 84 18 85
REMARK SMILES IDX 19 86 20 87 21 88 22 89 23 90 24 91 25 92 29 93 26 94 28 95
REMARK SMILES IDX 27 96
REMARK H PARENT 88 26 56 37
REMARK Flexibility Score: inf
ROOT
ATOM      1  C   UNL A   1      43.860  18.742  25.536  1.00  0.00     0.188 C 
ENDROOT
BRANCH   1   2
ATOM      2  C   UNL A   1      44.929  19.362  24.638  1.00  0.00     0.188 C 
BRANCH   2   3
ATOM      3  O   UNL A   1      44.496  20.558  23.976  1.00  0.00    -0.376 OA
BRANCH   3   4
ATOM      4  C   UNL A   1      44.790  21.752  24.715  1.00  0.00     0.202 C 
BRANCH   4   5
ATOM      5  C   UNL A   1      43.594  22.688  24.977  1.00  0.00     0.261 C 
BRANCH   5   6
ATOM      6  O   UNL A   1      43.795  24.037  24.520  1.00  0.00    -0.460 OA
BRANCH   6   7
ATOM      7  C   UNL A   1      44.376  25.082  25.162  1.00  0.00     0.338 C 
ATOM      8  O   UNL A   1      45.542  25.357  24.886  1.00  0.00    -0.246 OA
BRANCH   7   9
ATOM      9  C   UNL A   1      43.696  25.911  26.210  1.00  0.00     0.060 A 
ATOM     10  C   UNL A   1      44.038  27.219  26.547  1.00  0.00     0.016 A 
ATOM     11  C   UNL A   1      42.605  25.335  26.887  1.00  0.00     0.016 A 
ATOM     12  C   UNL A   1      43.412  27.907  27.571  1.00  0.00     0.010 A 
ATOM     13  C   UNL A   1      41.927  26.039  27.889  1.00  0.00     0.010 A 
ATOM     14  C   UNL A   1      42.361  27.320  28.257  1.00  0.00    -0.014 A 
BRANCH  14  15
ATOM     15  C   UNL A   1      41.863  28.002  29.461  1.00  0.00     0.031 A 
ATOM     16  C   UNL A   1      40.655  28.870  29.322  1.00  0.00     0.074 A 
ATOM     17  C   UNL A   1      42.387  27.737  30.673  1.00  0.00     0.049 A 
ATOM     18  N   UNL A   1      40.059  29.600  30.222  1.00  0.00    -0.248 NA
ATOM     19  C   UNL A   1      39.985  28.854  28.010  1.00  0.00     0.031 C 
ATOM     20  C   UNL A   1      43.375  26.702  30.959  1.00  0.00     0.029 A 
ATOM     21  N   UNL A   1      42.189  28.336  31.885  1.00  0.00    -0.354 N 
ATOM     22  C   UNL A   1      38.925  30.099  29.599  1.00  0.00     0.074 A 
ATOM     23  C   UNL A   1      38.945  29.642  28.229  1.00  0.00     0.031 C 
ATOM     24  C   UNL A   1      43.830  26.850  32.212  1.00  0.00     0.029 A 
ATOM     25  C   UNL A   1      43.124  27.963  32.822  1.00  0.00     0.049 A 
ATOM     26  H   UNL A   1      41.457  28.968  32.068  1.00  0.00     0.167 HD
ATOM     27  C   UNL A   1      37.942  30.842  30.150  1.00  0.00     0.037 A 
ATOM     28  C   UNL A   1      43.393  28.496  34.024  1.00  0.00     0.037 A 
ATOM     29  C   UNL A   1      37.978  31.297  31.512  1.00  0.00     0.049 A 
ATOM     30  C   UNL A   1      42.439  29.531  34.540  1.00  0.00     0.074 A 
ATOM     31  C   UNL A   1      37.076  32.100  32.182  1.00  0.00     0.029 A 
ATOM     32  N   UNL A   1      38.995  30.994  32.411  1.00  0.00    -0.354 N 
ATOM     33  N   UNL A   1      41.377  30.027  33.950  1.00  0.00    -0.248 NA
ATOM     34  C   UNL A   1      42.668  30.029  35.898  1.00  0.00     0.031 C 
ATOM     35  C   UNL A   1      37.583  32.338  33.464  1.00  0.00     0.029 A 
ATOM     36  C   UNL A   1      38.765  31.628  33.619  1.00  0.00     0.049 A 
ATOM     37  H   UNL A   1      39.765  30.413  32.216  1.00  0.00     0.167 HD
ATOM     38  C   UNL A   1      40.767  30.841  34.887  1.00  0.00     0.074 A 
ATOM     39  C   UNL A   1      41.595  30.786  36.079  1.00  0.00     0.031 C 
ATOM     40  C   UNL A   1      39.612  31.544  34.784  1.00  0.00     0.037 A 
BRANCH  27  41
ATOM     41  C   UNL A   1      36.806  31.238  29.256  1.00  0.00     0.064 A 
ATOM     42  C   UNL A   1      36.662  32.550  28.778  1.00  0.00     0.173 A 
ATOM     43  C   UNL A   1      35.824  30.301  28.908  1.00  0.00     0.173 A 
ATOM     44  F   UNL A   1      37.555  33.494  29.110  1.00  0.00    -0.203 F 
ATOM     45  C   UNL A   1      35.560  32.914  28.006  1.00  0.00     0.198 A 
ATOM     46  C   UNL A   1      34.739  30.661  28.114  1.00  0.00     0.198 A 
ATOM     47  F   UNL A   1      35.909  29.037  29.351  1.00  0.00    -0.203 F 
ATOM     48  F   UNL A   1      35.409  34.186  27.613  1.00  0.00    -0.200 F 
ATOM     49  C   UNL A   1      34.602  31.968  27.672  1.00  0.00     0.200 A 
ATOM     50  F   UNL A   1      33.816  29.745  27.792  1.00  0.00    -0.200 F 
ATOM     51  F   UNL A   1      33.539  32.320  26.936  1.00  0.00    -0.200 F 
ENDBRANCH  27  41
BRANCH  28  52
ATOM     52  C   UNL A   1      44.586  28.060  34.793  1.00  0.00     0.064 A 
ATOM     53  C   UNL A   1      44.536  26.968  35.668  1.00  0.00     0.173 A 
ATOM     54  C   UNL A   1      45.806  28.747  34.676  1.00  0.00     0.173 A 
ATOM     55  F   UNL A   1      43.395  26.281  35.813  1.00  0.00    -0.203 F 
ATOM     56  C   UNL A   1      45.647  26.601  36.425  1.00  0.00     0.198 A 
ATOM     57  C   UNL A   1      46.922  28.368  35.421  1.00  0.00     0.198 A 
ATOM     58  F   UNL A   1      45.913  29.787  33.833  1.00  0.00    -0.203 F 
ATOM     59  F   UNL A   1      45.559  25.578  37.286  1.00  0.00    -0.200 F 
ATOM     60  C   UNL A   1      46.839  27.302  36.303  1.00  0.00     0.200 A 
ATOM     61  F   UNL A   1      48.074  29.039  35.291  1.00  0.00    -0.200 F 
ATOM     62  F   UNL A   1      47.902  26.952  37.040  1.00  0.00    -0.200 F 
ENDBRANCH  28  52
BRANCH  40  63
ATOM     63  C   UNL A   1      39.153  32.262  36.015  1.00  0.00     0.064 A 
ATOM     64  C   UNL A   1      39.550  33.576  36.295  1.00  0.00     0.173 A 
ATOM     65  C   UNL A   1      38.269  31.630  36.903  1.00  0.00     0.173 A 
ATOM     66  F   UNL A   1      40.410  34.209  35.484  1.00  0.00    -0.203 F 
ATOM     67  C   UNL A   1      39.097  34.225  37.437  1.00  0.00     0.198 A 
ATOM     68  C   UNL A   1      37.788  32.297  38.024  1.00  0.00     0.198 A 
ATOM     69  F   UNL A   1      37.861  30.372  36.675  1.00  0.00    -0.203 F 
ATOM     70  F   UNL A   1      39.532  35.461  37.717  1.00  0.00    -0.200 F 
ATOM     71  C   UNL A   1      38.209  33.591  38.294  1.00  0.00     0.200 A 
ATOM     72  F   UNL A   1      36.918  31.689  38.840  1.00  0.00    -0.200 F 
ATOM     73  F   UNL A   1      37.763  34.225  39.387  1.00  0.00    -0.200 F 
ENDBRANCH  40  63
ENDBRANCH  14  15
ENDBRANCH   7   9
ENDBRANCH   6   7
ENDBRANCH   5   6
ENDBRANCH   4   5
ENDBRANCH   3   4
ENDBRANCH   2   3
ENDBRANCH   1   2
BRANCH   1  74
ATOM     74  O   UNL A   1      42.521  19.176  25.331  1.00  0.00    -0.376 OA
BRANCH  74  75
ATOM     75  C   UNL A   1      41.696  19.327  26.477  1.00  0.00     0.202 C 
BRANCH  75  76
ATOM     76  C   UNL A   1      41.065  20.700  26.740  1.00  0.00     0.261 C 
BRANCH  76  77
ATOM     77  O   UNL A   1      39.817  20.980  26.080  1.00  0.00    -0.463 OA
BRANCH  77  78
ATOM     78  C   UNL A   1      39.290  22.205  26.366  1.00  0.00     0.309 C 
ATOM     79  O   UNL A   1      39.897  23.112  26.927  1.00  0.00    -0.252 OA
BRANCH  78  80
ATOM     80  C   UNL A   1      37.825  22.280  25.981  1.00  0.00     0.103 C 
ATOM     81  C   UNL A   1      37.374  23.743  26.036  1.00  0.00     0.037 C 
ATOM     82  C   UNL A   1      37.521  21.729  24.590  1.00  0.00     0.037 C 
ATOM     83  C   UNL A   1      35.892  23.866  25.746  1.00  0.00     0.120 C 
ATOM     84  C   UNL A   1      36.037  21.885  24.255  1.00  0.00     0.120 C 
ATOM     85  N   UNL A   1      35.509  23.224  24.491  1.00  0.00    -0.342 N 
ATOM     86  C   UNL A   1      34.421  23.775  23.813  1.00  0.00     0.232 C 
ATOM     87  O   UNL A   1      34.021  24.915  24.067  1.00  0.00    -0.274 OA
BRANCH  86  88
ATOM     88  C   UNL A   1      33.645  22.922  22.820  1.00  0.00     0.169 C 
BRANCH  88  89
ATOM     89  S   UNL A   1      32.036  22.292  23.397  1.00  0.00    -0.147 SA
BRANCH  89  90
ATOM     90  C   UNL A   1      32.551  21.013  24.574  1.00  0.00     0.105 C 
BRANCH  90  91
ATOM     91  C   UNL A   1      32.888  19.643  24.036  1.00  0.00    -0.038 A 
ATOM     92  C   UNL A   1      33.970  18.967  24.630  1.00  0.00     0.004 A 
ATOM     93  C   UNL A   1      32.195  18.994  23.005  1.00  0.00     0.004 A 
ATOM     94  C   UNL A   1      34.362  17.704  24.186  1.00  0.00     0.000 A 
ATOM     95  C   UNL A   1      32.599  17.738  22.548  1.00  0.00     0.000 A 
ATOM     96  C   UNL A   1      33.684  17.095  23.135  1.00  0.00     0.000 A 
ENDBRANCH  90  91
ENDBRANCH  89  90
ENDBRANCH  88  89
ENDBRANCH  86  88
ENDBRANCH  78  80
ENDBRANCH  77  78
ENDBRANCH  76  77
ENDBRANCH  75  76
ENDBRANCH  74  75
ENDBRANCH   1  74
TORSDOF 21
ENDMDL
MODEL 2
REMARK VINA RESULT:     -10.8      1.704      3.073
REMARK SMILES O=C(OCCOCCOCCOC(=O)C1CCN(C(=O)CSCc2ccccc2)CC1)c1ccc(-c2c3nc(c(-c4c(F)c(F)c(F)c(F)c4F)c4ccc([nH]4)c(-c4c(F)c(F)c(F)c(F)c4F)c4nc(c(-c5c(F)c(F)c(F)c(F)c5F)c5ccc2[nH]5)C=C4)C=C3)cc1
REMARK SMILES IDX 8 1 7 2 6 3 5 4 4 5 3 6 2 7 1 8 32 9 33 10 94 11 34 12 93 13
REMARK SMILES IDX 35 14 36 15 37 16 87 17 38 18 92 19 86 20 88 21 39 22 91 23
REMARK SMILES IDX 85 24 84 25 40 27 72 28 52 29 71 30 53 31 56 32 70 33 89 34
REMARK SMILES IDX 54 35 55 36 69 38 90 39 57 40 41 41 42 42 50 43 43 44 44 45
REMARK SMILES IDX 48 46 51 47 45 48 46 49 49 50 47 51 73 52 74 53 82 54 75 55
REMARK SMILES IDX 76 56 80 57 83 58 77 59 78 60 81 61 79 62 58 63 59 64 67 65
REMARK SMILES IDX 60 66 61 67 65 68 68 69 62 70 63 71 66 72 64 73 9 74 10 75
REMARK SMILES IDX 11 76 12 77 13 78 14 79 15 80 16 81 31 82 17 83 30 84 18 85
REMARK SMILES IDX 19 86 20 87 21 88 22 89 23 90 24 91 25 92 29 93 26 94 28 95
REMARK SMILES IDX 27 96
REMARK H PARENT 88 26 56 37
REMARK Flexibility Score: inf
ROOT
ATOM      1  C   UNL A   1      42.781  18.822  26.014  1.00  0.00     0.188 C 
ENDROOT
BRANCH   1   2
ATOM      2  C   UNL A   1      44.136  19.179  25.407  1.00  0.00     0.188 C 
BRANCH   2   3
ATOM      3  O   UNL A   1      44.095  20.333  24.555  1.00  0.00    -0.376 OA
BRANCH   3   4
ATOM      4  C   UNL A   1      44.246  21.568  25.269  1.00  0.00     0.202 C 
BRANCH   4   5
ATOM      5  C   UNL A   1      43.162  22.631  25.002  1.00  0.00     0.261 C 
BRANCH   5   6
ATOM      6  O   UNL A   1      43.681  23.901  24.569  1.00  0.00    -0.460 OA
BRANCH   6   7
ATOM      7  C   UNL A   1      44.323  24.855  25.288  1.00  0.00     0.338 C 
ATOM      8  O   UNL A   1      45.531  25.002  25.111  1.00  0.00    -0.246 OA
BRANCH   7   9
ATOM      9  C   UNL A   1      43.660  25.729  26.310  1.00  0.00     0.060 A 
ATOM     10  C   UNL A   1      44.019  27.045  26.597  1.00  0.00     0.016 A 
ATOM     11  C   UNL A   1      42.569  25.191  27.015  1.00  0.00     0.016 A 
ATOM     12  C   UNL A   1      43.408  27.777  27.598  1.00  0.00     0.010 A 
ATOM     13  C   UNL A   1      41.906  25.939  27.996  1.00  0.00     0.010 A 
ATOM     14  C   UNL A   1      42.356  27.228  28.313  1.00  0.00    -0.014 A 
BRANCH  14  15
ATOM     15  C   UNL A   1      41.875  27.959  29.495  1.00  0.00     0.031 A 
ATOM     16  C   UNL A   1      40.666  28.823  29.336  1.00  0.00     0.074 A 
ATOM     17  C   UNL A   1      42.413  27.742  30.709  1.00  0.00     0.049 A 
ATOM     18  N   UNL A   1      40.083  29.590  30.213  1.00  0.00    -0.248 NA
ATOM     19  C   UNL A   1      39.979  28.755  28.034  1.00  0.00     0.031 C 
ATOM     20  C   UNL A   1      43.404  26.717  31.025  1.00  0.00     0.029 A 
ATOM     21  N   UNL A   1      42.232  28.390  31.899  1.00  0.00    -0.354 N 
ATOM     22  C   UNL A   1      38.942  30.065  29.585  1.00  0.00     0.074 A 
ATOM     23  C   UNL A   1      38.943  29.554  28.234  1.00  0.00     0.031 C 
ATOM     24  C   UNL A   1      43.875  26.915  32.265  1.00  0.00     0.029 A 
ATOM     25  C   UNL A   1      43.178  28.053  32.838  1.00  0.00     0.049 A 
ATOM     26  H   UNL A   1      41.503  29.030  32.065  1.00  0.00     0.167 HD
ATOM     27  C   UNL A   1      37.967  30.832  30.118  1.00  0.00     0.037 A 
ATOM     28  C   UNL A   1      43.464  28.634  34.015  1.00  0.00     0.037 A 
ATOM     29  C   UNL A   1      38.021  31.342  31.460  1.00  0.00     0.049 A 
ATOM     30  C   UNL A   1      42.517  29.691  34.500  1.00  0.00     0.074 A 
ATOM     31  C   UNL A   1      37.129  32.174  32.108  1.00  0.00     0.029 A 
ATOM     32  N   UNL A   1      39.049  31.073  32.357  1.00  0.00    -0.354 N 
ATOM     33  N   UNL A   1      41.449  30.164  33.903  1.00  0.00    -0.248 NA
ATOM     34  C   UNL A   1      42.765  30.243  35.833  1.00  0.00     0.031 C 
ATOM     35  C   UNL A   1      37.652  32.462  33.373  1.00  0.00     0.029 A 
ATOM     36  C   UNL A   1      38.835  31.757  33.541  1.00  0.00     0.049 A 
ATOM     37  H   UNL A   1      39.816  30.484  32.177  1.00  0.00     0.167 HD
ATOM     38  C   UNL A   1      40.853  31.017  34.815  1.00  0.00     0.074 A 
ATOM     39  C   UNL A   1      41.695  31.009  35.998  1.00  0.00     0.031 C 
ATOM     40  C   UNL A   1      39.697  31.718  34.698  1.00  0.00     0.037 A 
BRANCH  27  41
ATOM     41  C   UNL A   1      36.820  31.194  29.224  1.00  0.00     0.064 A 
ATOM     42  C   UNL A   1      36.620  32.507  28.769  1.00  0.00     0.173 A 
ATOM     43  C   UNL A   1      35.884  30.221  28.850  1.00  0.00     0.173 A 
ATOM     44  F   UNL A   1      37.468  33.484  29.126  1.00  0.00    -0.203 F 
ATOM     45  C   UNL A   1      35.508  32.836  27.996  1.00  0.00     0.198 A 
ATOM     46  C   UNL A   1      34.788  30.547  28.056  1.00  0.00     0.198 A 
ATOM     47  F   UNL A   1      36.022  28.954  29.271  1.00  0.00    -0.203 F 
ATOM     48  F   UNL A   1      35.303  34.107  27.625  1.00  0.00    -0.200 F 
ATOM     49  C   UNL A   1      34.596  31.854  27.637  1.00  0.00     0.200 A 
ATOM     50  F   UNL A   1      33.909  29.597  27.709  1.00  0.00    -0.200 F 
ATOM     51  F   UNL A   1      33.523  32.173  26.901  1.00  0.00    -0.200 F 
ENDBRANCH  27  41
BRANCH  28  52
ATOM     52  C   UNL A   1      44.666  28.227  34.785  1.00  0.00     0.064 A 
ATOM     53  C   UNL A   1      44.601  27.244  35.779  1.00  0.00     0.173 A 
ATOM     54  C   UNL A   1      45.910  28.835  34.548  1.00  0.00     0.173 A 
ATOM     55  F   UNL A   1      43.437  26.635  36.042  1.00  0.00    -0.203 F 
ATOM     56  C   UNL A   1      45.724  26.908  36.534  1.00  0.00     0.198 A 
ATOM     57  C   UNL A   1      47.037  28.485  35.291  1.00  0.00     0.198 A 
ATOM     58  F   UNL A   1      46.030  29.767  33.589  1.00  0.00    -0.203 F 
ATOM     59  F   UNL A   1      45.624  25.993  37.508  1.00  0.00    -0.200 F 
ATOM     60  C   UNL A   1      46.941  27.530  36.291  1.00  0.00     0.200 A 
ATOM     61  F   UNL A   1      48.212  29.079  35.045  1.00  0.00    -0.200 F 
ATOM     62  F   UNL A   1      48.016  27.212  37.024  1.00  0.00    -0.200 F 
ENDBRANCH  28  52
BRANCH  40  63
ATOM     63  C   UNL A   1      39.255  32.486  35.905  1.00  0.00     0.064 A 
ATOM     64  C   UNL A   1      38.407  31.923  36.867  1.00  0.00     0.173 A 
ATOM     65  C   UNL A   1      39.726  33.791  36.115  1.00  0.00     0.173 A 
ATOM     66  F   UNL A   1      37.917  30.687  36.696  1.00  0.00    -0.203 F 
ATOM     67  C   UNL A   1      38.024  32.652  37.987  1.00  0.00     0.198 A 
ATOM     68  C   UNL A   1      39.372  34.502  37.255  1.00  0.00     0.198 A 
ATOM     69  F   UNL A   1      40.543  34.370  35.220  1.00  0.00    -0.203 F 
ATOM     70  F   UNL A   1      37.166  32.118  38.868  1.00  0.00    -0.200 F 
ATOM     71  C   UNL A   1      38.514  33.934  38.186  1.00  0.00     0.200 A 
ATOM     72  F   UNL A   1      39.860  35.733  37.454  1.00  0.00    -0.200 F 
ATOM     73  F   UNL A   1      38.154  34.629  39.274  1.00  0.00    -0.200 F 
ENDBRANCH  40  63
ENDBRANCH  14  15
ENDBRANCH   7   9
ENDBRANCH   6   7
ENDBRANCH   5   6
ENDBRANCH   4   5
ENDBRANCH   3   4
ENDBRANCH   2   3
ENDBRANCH   1   2
BRANCH   1  74
ATOM     74  O   UNL A   1      41.631  19.366  25.377  1.00  0.00    -0.376 OA
BRANCH  74  75
ATOM     75  C   UNL A   1      40.517  19.693  26.196  1.00  0.00     0.202 C 
BRANCH  75  76
ATOM     76  C   UNL A   1      39.939  21.111  26.102  1.00  0.00     0.261 C 
BRANCH  76  77
ATOM     77  O   UNL A   1      38.555  21.225  25.729  1.00  0.00    -0.463 OA
BRANCH  77  78
ATOM     78  C   UNL A   1      38.061  22.495  25.778  1.00  0.00     0.309 C 
ATOM     79  O   UNL A   1      38.677  23.468  26.201  1.00  0.00    -0.252 OA
BRANCH  78  80
ATOM     80  C   UNL A   1      36.616  22.544  25.322  1.00  0.00     0.103 C 
ATOM     81  C   UNL A   1      36.096  21.111  25.167  1.00  0.00     0.037 C 
ATOM     82  C   UNL A   1      35.691  23.296  26.277  1.00  0.00     0.037 C 
ATOM     83  C   UNL A   1      34.680  21.102  24.627  1.00  0.00     0.120 C 
ATOM     84  C   UNL A   1      34.245  23.260  25.777  1.00  0.00     0.120 C 
ATOM     85  N   UNL A   1      33.771  21.928  25.417  1.00  0.00    -0.342 N 
ATOM     86  C   UNL A   1      32.435  21.530  25.453  1.00  0.00     0.232 C 
ATOM     87  O   UNL A   1      32.101  20.386  25.130  1.00  0.00    -0.274 OA
BRANCH  86  88
ATOM     88  C   UNL A   1      31.356  22.548  25.793  1.00  0.00     0.169 C 
BRANCH  88  89
ATOM     89  S   UNL A   1      31.030  23.817  24.527  1.00  0.00    -0.147 SA
BRANCH  89  90
ATOM     90  C   UNL A   1      30.383  25.176  25.537  1.00  0.00     0.105 C 
BRANCH  90  91
ATOM     91  C   UNL A   1      30.521  26.584  25.011  1.00  0.00    -0.038 A 
ATOM     92  C   UNL A   1      29.752  26.928  23.884  1.00  0.00     0.004 A 
ATOM     93  C   UNL A   1      31.343  27.571  25.571  1.00  0.00     0.004 A 
ATOM     94  C   UNL A   1      29.828  28.202  23.321  1.00  0.00     0.000 A 
ATOM     95  C   UNL A   1      31.434  28.841  24.996  1.00  0.00     0.000 A 
ATOM     96  C   UNL A   1      30.680  29.155  23.870  1.00  0.00     0.000 A 
ENDBRANCH  90  91
ENDBRANCH  89  90
ENDBRANCH  88  89
ENDBRANCH  86  88
ENDBRANCH  78  80
ENDBRANCH  77  78
ENDBRANCH  76  77
ENDBRANCH  75  76
ENDBRANCH  74  75
ENDBRANCH   1  74
TORSDOF 21
ENDMDL
MODEL 3
REMARK VINA RESULT:     -10.7      3.922      9.478
REMARK SMILES O=C(OCCOCCOCCOC(=O)C1CCN(C(=O)CSCc2ccccc2)CC1)c1ccc(-c2c3nc(c(-c4c(F)c(F)c(F)c(F)c4F)c4ccc([nH]4)c(-c4c(F)c(F)c(F)c(F)c4F)c4nc(c(-c5c(F)c(F)c(F)c(F)c5F)c5ccc2[nH]5)C=C4)C=C3)cc1
REMARK SMILES IDX 8 1 7 2 6 3 5 4 4 5 3 6 2 7 1 8 32 9 33 10 94 11 34 12 93 13
REMARK SMILES IDX 35 14 36 15 37 16 87 17 38 18 92 19 86 20 88 21 39 22 91 23
REMARK SMILES IDX 85 24 84 25 40 27 72 28 52 29 71 30 53 31 56 32 70 33 89 34
REMARK SMILES IDX 54 35 55 36 69 38 90 39 57 40 41 41 42 42 50 43 43 44 44 45
REMARK SMILES IDX 48 46 51 47 45 48 46 49 49 50 47 51 73 52 74 53 82 54 75 55
REMARK SMILES IDX 76 56 80 57 83 58 77 59 78 60 81 61 79 62 58 63 59 64 67 65
REMARK SMILES IDX 60 66 61 67 65 68 68 69 62 70 63 71 66 72 64 73 9 74 10 75
REMARK SMILES IDX 11 76 12 77 13 78 14 79 15 80 16 81 31 82 17 83 30 84 18 85
REMARK SMILES IDX 19 86 20 87 21 88 22 89 23 90 24 91 25 92 29 93 26 94 28 95
REMARK SMILES IDX 27 96
REMARK H PARENT 88 26 56 37
REMARK Flexibility Score: inf
ROOT
ATOM      1  C   UNL A   1      33.639  29.897  26.600  1.00  0.00     0.188 C 
ENDROOT
BRANCH   1   2
ATOM      2  C   UNL A   1      32.161  30.144  26.898  1.00  0.00     0.188 C 
BRANCH   2   3
ATOM      3  O   UNL A   1      31.534  31.043  25.973  1.00  0.00    -0.376 OA
BRANCH   3   4
ATOM      4  C   UNL A   1      31.334  32.358  26.510  1.00  0.00     0.202 C 
BRANCH   4   5
ATOM      5  C   UNL A   1      32.539  32.969  27.252  1.00  0.00     0.261 C 
BRANCH   5   6
ATOM      6  O   UNL A   1      32.267  34.242  27.863  1.00  0.00    -0.460 OA
BRANCH   6   7
ATOM      7  C   UNL A   1      32.996  34.926  28.780  1.00  0.00     0.338 C 
ATOM      8  O   UNL A   1      32.675  36.087  29.029  1.00  0.00    -0.246 OA
BRANCH   7   9
ATOM      9  C   UNL A   1      34.189  34.367  29.495  1.00  0.00     0.060 A 
ATOM     10  C   UNL A   1      35.500  34.407  29.024  1.00  0.00     0.016 A 
ATOM     11  C   UNL A   1      33.976  33.783  30.757  1.00  0.00     0.016 A 
ATOM     12  C   UNL A   1      36.549  33.814  29.703  1.00  0.00     0.010 A 
ATOM     13  C   UNL A   1      35.036  33.226  31.481  1.00  0.00     0.010 A 
ATOM     14  C   UNL A   1      36.325  33.210  30.929  1.00  0.00    -0.014 A 
BRANCH  14  15
ATOM     15  C   UNL A   1      37.420  32.422  31.515  1.00  0.00     0.031 A 
ATOM     16  C   UNL A   1      37.974  32.867  32.829  1.00  0.00     0.074 A 
ATOM     17  C   UNL A   1      37.808  31.258  30.961  1.00  0.00     0.049 A 
ATOM     18  N   UNL A   1      38.960  32.365  33.518  1.00  0.00    -0.248 NA
ATOM     19  C   UNL A   1      37.276  33.983  33.491  1.00  0.00     0.031 C 
ATOM     20  C   UNL A   1      37.148  30.592  29.842  1.00  0.00     0.029 A 
ATOM     21  N   UNL A   1      38.870  30.443  31.237  1.00  0.00    -0.354 N 
ATOM     22  C   UNL A   1      38.976  33.075  34.708  1.00  0.00     0.074 A 
ATOM     23  C   UNL A   1      37.945  34.084  34.627  1.00  0.00     0.031 C 
ATOM     24  C   UNL A   1      37.910  29.576  29.412  1.00  0.00     0.029 A 
ATOM     25  C   UNL A   1      39.085  29.499  30.262  1.00  0.00     0.049 A 
ATOM     26  H   UNL A   1      39.422  30.524  32.049  1.00  0.00     0.167 HD
ATOM     27  C   UNL A   1      39.766  32.865  35.783  1.00  0.00     0.037 A 
ATOM     28  C   UNL A   1      40.140  28.692  30.067  1.00  0.00     0.037 A 
ATOM     29  C   UNL A   1      40.798  31.866  35.809  1.00  0.00     0.049 A 
ATOM     30  C   UNL A   1      41.173  28.648  31.152  1.00  0.00     0.074 A 
ATOM     31  C   UNL A   1      41.705  31.583  36.811  1.00  0.00     0.029 A 
ATOM     32  N   UNL A   1      41.067  30.993  34.761  1.00  0.00    -0.354 N 
ATOM     33  N   UNL A   1      41.210  29.333  32.271  1.00  0.00    -0.248 NA
ATOM     34  C   UNL A   1      42.265  27.685  30.992  1.00  0.00     0.031 C 
ATOM     35  C   UNL A   1      42.565  30.585  36.342  1.00  0.00     0.029 A 
ATOM     36  C   UNL A   1      42.154  30.196  35.075  1.00  0.00     0.049 A 
ATOM     37  H   UNL A   1      40.559  30.948  33.919  1.00  0.00     0.167 HD
ATOM     38  C   UNL A   1      42.285  28.834  32.985  1.00  0.00     0.074 A 
ATOM     39  C   UNL A   1      42.885  27.803  32.158  1.00  0.00     0.031 C 
ATOM     40  C   UNL A   1      42.718  29.176  34.224  1.00  0.00     0.037 A 
BRANCH  27  41
ATOM     41  C   UNL A   1      39.566  33.769  36.962  1.00  0.00     0.064 A 
ATOM     42  C   UNL A   1      38.761  33.399  38.051  1.00  0.00     0.173 A 
ATOM     43  C   UNL A   1      40.154  35.040  36.983  1.00  0.00     0.173 A 
ATOM     44  F   UNL A   1      38.147  32.206  38.065  1.00  0.00    -0.203 F 
ATOM     45  C   UNL A   1      38.531  34.282  39.104  1.00  0.00     0.198 A 
ATOM     46  C   UNL A   1      39.945  35.910  38.049  1.00  0.00     0.198 A 
ATOM     47  F   UNL A   1      40.920  35.447  35.959  1.00  0.00    -0.203 F 
ATOM     48  F   UNL A   1      37.710  33.933  40.103  1.00  0.00    -0.200 F 
ATOM     49  C   UNL A   1      39.127  35.535  39.104  1.00  0.00     0.200 A 
ATOM     50  F   UNL A   1      40.521  37.119  38.046  1.00  0.00    -0.200 F 
ATOM     51  F   UNL A   1      38.899  36.386  40.113  1.00  0.00    -0.200 F 
ENDBRANCH  27  41
BRANCH  28  52
ATOM     52  C   UNL A   1      40.254  27.884  28.826  1.00  0.00     0.064 A 
ATOM     53  C   UNL A   1      39.652  26.625  28.713  1.00  0.00     0.173 A 
ATOM     54  C   UNL A   1      40.988  28.358  27.726  1.00  0.00     0.173 A 
ATOM     55  F   UNL A   1      38.940  26.131  29.735  1.00  0.00    -0.203 F 
ATOM     56  C   UNL A   1      39.811  25.852  27.564  1.00  0.00     0.198 A 
ATOM     57  C   UNL A   1      41.131  27.591  26.571  1.00  0.00     0.198 A 
ATOM     58  F   UNL A   1      41.565  29.569  27.775  1.00  0.00    -0.203 F 
ATOM     59  F   UNL A   1      39.258  24.633  27.499  1.00  0.00    -0.200 F 
ATOM     60  C   UNL A   1      40.551  26.334  26.494  1.00  0.00     0.200 A 
ATOM     61  F   UNL A   1      41.836  28.065  25.535  1.00  0.00    -0.200 F 
ATOM     62  F   UNL A   1      40.709  25.585  25.395  1.00  0.00    -0.200 F 
ENDBRANCH  28  52
BRANCH  40  63
ATOM     63  C   UNL A   1      43.862  28.383  34.776  1.00  0.00     0.064 A 
ATOM     64  C   UNL A   1      43.660  27.182  35.469  1.00  0.00     0.173 A 
ATOM     65  C   UNL A   1      45.179  28.817  34.568  1.00  0.00     0.173 A 
ATOM     66  F   UNL A   1      42.417  26.741  35.709  1.00  0.00    -0.203 F 
ATOM     67  C   UNL A   1      44.740  26.456  35.958  1.00  0.00     0.198 A 
ATOM     68  C   UNL A   1      46.257  28.068  35.024  1.00  0.00     0.198 A 
ATOM     69  F   UNL A   1      45.421  29.961  33.907  1.00  0.00    -0.203 F 
ATOM     70  F   UNL A   1      44.525  25.340  36.668  1.00  0.00    -0.200 F 
ATOM     71  C   UNL A   1      46.036  26.893  35.726  1.00  0.00     0.200 A 
ATOM     72  F   UNL A   1      47.508  28.483  34.784  1.00  0.00    -0.200 F 
ATOM     73  F   UNL A   1      47.075  26.183  36.186  1.00  0.00    -0.200 F 
ENDBRANCH  40  63
ENDBRANCH  14  15
ENDBRANCH   7   9
ENDBRANCH   6   7
ENDBRANCH   5   6
ENDBRANCH   4   5
ENDBRANCH   3   4
ENDBRANCH   2   3
ENDBRANCH   1   2
BRANCH   1  74
ATOM     74  O   UNL A   1      33.952  28.737  25.837  1.00  0.00    -0.376 OA
BRANCH  74  75
ATOM     75  C   UNL A   1      33.329  28.596  24.568  1.00  0.00     0.202 C 
BRANCH  75  76
ATOM     76  C   UNL A   1      32.511  27.327  24.299  1.00  0.00     0.261 C 
BRANCH  76  77
ATOM     77  O   UNL A   1      31.165  27.302  24.804  1.00  0.00    -0.463 OA
BRANCH  77  78
ATOM     78  C   UNL A   1      31.008  26.591  25.957  1.00  0.00     0.309 C 
ATOM     79  O   UNL A   1      31.028  27.076  27.084  1.00  0.00    -0.252 OA
BRANCH  78  80
ATOM     80  C   UNL A   1      30.890  25.105  25.680  1.00  0.00     0.103 C 
ATOM     81  C   UNL A   1      31.141  24.858  24.189  1.00  0.00     0.037 C 
ATOM     82  C   UNL A   1      31.863  24.246  26.485  1.00  0.00     0.037 C 
ATOM     83  C   UNL A   1      30.948  23.396  23.840  1.00  0.00     0.120 C 
ATOM     84  C   UNL A   1      31.721  22.769  26.116  1.00  0.00     0.120 C 
ATOM     85  N   UNL A   1      31.746  22.507  24.681  1.00  0.00    -0.342 N 
ATOM     86  C   UNL A   1      32.162  21.306  24.105  1.00  0.00     0.232 C 
ATOM     87  O   UNL A   1      32.153  21.149  22.880  1.00  0.00    -0.274 OA
BRANCH  86  88
ATOM     88  C   UNL A   1      32.530  20.132  24.999  1.00  0.00     0.169 C 
BRANCH  88  89
ATOM     89  S   UNL A   1      33.827  19.021  24.363  1.00  0.00    -0.147 SA
BRANCH  89  90
ATOM     90  C   UNL A   1      35.326  19.816  25.001  1.00  0.00     0.105 C 
BRANCH  90  91
ATOM     91  C   UNL A   1      35.364  21.324  25.064  1.00  0.00    -0.038 A 
ATOM     92  C   UNL A   1      35.320  21.915  26.340  1.00  0.00     0.004 A 
ATOM     93  C   UNL A   1      35.453  22.170  23.951  1.00  0.00     0.004 A 
ATOM     94  C   UNL A   1      35.333  23.302  26.492  1.00  0.00     0.000 A 
ATOM     95  C   UNL A   1      35.447  23.558  24.101  1.00  0.00     0.000 A 
ATOM     96  C   UNL A   1      35.384  24.124  25.371  1.00  0.00     0.000 A 
ENDBRANCH  90  91
ENDBRANCH  89  90
ENDBRANCH  88  89
ENDBRANCH  86  88
ENDBRANCH  78  80
ENDBRANCH  77  78
ENDBRANCH  76  77
ENDBRANCH  75  76
ENDBRANCH  74  75
ENDBRANCH   1  74
TORSDOF 21
ENDMDL
