MODEL 1
REMARK VINA RESULT:     -12.7      0.000      0.000
REMARK SMILES CN1C(=O)C[C@@H](C(=O)OCCOCCOCCOC(=O)c2ccc(-c3c4nc(c(-c5c(F)c(F)c(F)c(F)c5F)c5ccc([nH]5)c(-c5c(F)c(F)c(F)c(F)c5F)c5nc(c(-c6c(F)c(F)c(F)c(F)c6F)c6ccc3[nH]6)C=C5)C=C4)cc2)C12CCN(C(=O)c1cccc3ccccc13)CC2
REMARK SMILES IDX 14 1 13 2 12 3 11 4 10 5 9 6 7 7 8 8 6 9 1 10 2 11 3 12
REMARK SMILES IDX 84 13 4 14 5 15 85 16 101 17 86 18 100 19 87 20 88 21 89 22
REMARK SMILES IDX 90 23 91 24 99 25 92 26 94 27 98 28 93 29 95 30 97 31 96 32
REMARK SMILES IDX 15 33 16 34 17 35 18 36 19 37 20 38 21 39 22 40 83 41 23 42
REMARK SMILES IDX 82 43 24 44 25 45 26 46 76 47 27 48 81 49 75 50 77 51 28 52
REMARK SMILES IDX 80 53 74 54 73 55 29 57 61 58 41 59 60 60 42 61 45 62 59 63
REMARK SMILES IDX 78 64 43 65 44 66 58 68 79 69 46 70 30 71 31 72 39 73 32 74
REMARK SMILES IDX 33 75 37 76 40 77 34 78 35 79 38 80 36 81 62 82 63 83 71 84
REMARK SMILES IDX 64 85 65 86 69 87 72 88 66 89 67 90 70 91 68 92 47 93 48 94
REMARK SMILES IDX 56 95 49 96 50 97 54 98 57 99 51 100 52 101 55 102 53 103
REMARK H PARENT 77 56 45 67
REMARK Flexibility Score: inf
ROOT
ATOM      1  C   UNL A   1      34.797  33.141  29.277  1.00  0.00     0.188 C 
ENDROOT
BRANCH   1   2
ATOM      2  C   UNL A   1      35.779  32.577  28.260  1.00  0.00     0.188 C 
BRANCH   2   3
ATOM      3  O   UNL A   1      35.575  31.260  27.775  1.00  0.00    -0.376 OA
BRANCH   3   4
ATOM      4  C   UNL A   1      34.259  30.832  27.454  1.00  0.00     0.202 C 
BRANCH   4   5
ATOM      5  C   UNL A   1      34.106  29.420  26.852  1.00  0.00     0.261 C 
BRANCH   5   6
ATOM      6  O   UNL A   1      33.634  29.292  25.475  1.00  0.00    -0.463 OA
BRANCH   6   7
ATOM      7  C   UNL A   1      32.315  29.021  25.338  1.00  0.00     0.311 C 
ATOM      8  O   UNL A   1      31.523  29.078  26.279  1.00  0.00    -0.252 OA
BRANCH   7   9
ATOM      9  C   UNL A   1      31.806  28.523  23.981  1.00  0.00     0.134 C 
ATOM     10  C   UNL A   1      28.394  26.992  23.480  1.00  0.00     0.147 C 
ATOM     11  N   UNL A   1      29.592  27.804  23.615  1.00  0.00    -0.339 N 
ATOM     12  C   UNL A   1      29.542  29.191  23.547  1.00  0.00     0.223 C 
ATOM     13  C   UNL A   1      30.961  27.263  23.588  1.00  0.00     0.060 C 
ATOM     14  O   UNL A   1      28.553  29.880  23.501  1.00  0.00    -0.275 OA
ATOM     15  C   UNL A   1      30.956  29.699  23.460  1.00  0.00     0.118 C 
ATOM     16  C   UNL A   1      31.068  25.988  24.446  1.00  0.00     0.051 C 
ATOM     17  C   UNL A   1      31.299  26.863  22.099  1.00  0.00     0.051 C 
ATOM     18  C   UNL A   1      32.379  25.247  24.225  1.00  0.00     0.122 C 
ATOM     19  C   UNL A   1      32.505  25.935  21.902  1.00  0.00     0.122 C 
ATOM     20  N   UNL A   1      32.543  24.824  22.851  1.00  0.00    -0.338 N 
ATOM     21  C   UNL A   1      33.027  23.582  22.395  1.00  0.00     0.254 C 
ATOM     22  O   UNL A   1      33.280  23.413  21.198  1.00  0.00    -0.269 OA
BRANCH  21  23
ATOM     23  C   UNL A   1      33.396  22.433  23.289  1.00  0.00     0.047 A 
ATOM     24  C   UNL A   1      32.309  21.584  23.597  1.00  0.00     0.014 A 
ATOM     25  C   UNL A   1      34.662  22.190  23.895  1.00  0.00    -0.006 A 
ATOM     26  C   UNL A   1      32.447  20.498  24.458  1.00  0.00     0.001 A 
ATOM     27  C   UNL A   1      34.787  21.062  24.765  1.00  0.00    -0.018 A 
ATOM     28  C   UNL A   1      35.826  22.964  23.689  1.00  0.00     0.009 A 
ATOM     29  C   UNL A   1      33.680  20.248  25.046  1.00  0.00     0.009 A 
ATOM     30  C   UNL A   1      36.031  20.721  25.318  1.00  0.00     0.009 A 
ATOM     31  C   UNL A   1      37.070  22.576  24.202  1.00  0.00     0.001 A 
ATOM     32  C   UNL A   1      37.173  21.453  25.012  1.00  0.00     0.001 A 
ENDBRANCH  21  23
ENDBRANCH   7   9
ENDBRANCH   6   7
ENDBRANCH   5   6
ENDBRANCH   4   5
ENDBRANCH   3   4
ENDBRANCH   2   3
ENDBRANCH   1   2
BRANCH   1  33
ATOM     33  O   UNL A   1      33.719  33.865  28.721  1.00  0.00    -0.376 OA
BRANCH  33  34
ATOM     34  C   UNL A   1      33.980  35.248  28.538  1.00  0.00     0.202 C 
BRANCH  34  35
ATOM     35  C   UNL A   1      33.021  36.089  29.393  1.00  0.00     0.261 C 
BRANCH  35  36
ATOM     36  O   UNL A   1      32.346  35.361  30.457  1.00  0.00    -0.460 OA
BRANCH  36  37
ATOM     37  C   UNL A   1      32.592  35.851  31.690  1.00  0.00     0.338 C 
ATOM     38  O   UNL A   1      31.925  36.712  32.231  1.00  0.00    -0.246 OA
BRANCH  37  39
ATOM     39  C   UNL A   1      33.656  35.127  32.415  1.00  0.00     0.060 A 
ATOM     40  C   UNL A   1      34.952  35.648  32.416  1.00  0.00     0.016 A 
ATOM     41  C   UNL A   1      33.444  33.833  32.876  1.00  0.00     0.016 A 
ATOM     42  C   UNL A   1      36.044  34.884  32.814  1.00  0.00     0.010 A 
ATOM     43  C   UNL A   1      34.535  33.078  33.333  1.00  0.00     0.010 A 
ATOM     44  C   UNL A   1      35.848  33.588  33.288  1.00  0.00    -0.014 A 
BRANCH  44  45
ATOM     45  C   UNL A   1      37.013  32.767  33.710  1.00  0.00     0.031 A 
ATOM     46  C   UNL A   1      37.688  33.028  35.026  1.00  0.00     0.074 A 
ATOM     47  C   UNL A   1      37.467  31.782  32.912  1.00  0.00     0.049 A 
ATOM     48  N   UNL A   1      38.830  32.578  35.480  1.00  0.00    -0.248 NA
ATOM     49  C   UNL A   1      36.981  33.920  35.955  1.00  0.00     0.031 C 
ATOM     50  C   UNL A   1      36.855  31.365  31.650  1.00  0.00     0.029 A 
ATOM     51  N   UNL A   1      38.567  30.969  33.034  1.00  0.00    -0.354 N 
ATOM     52  C   UNL A   1      38.998  33.162  36.729  1.00  0.00     0.074 A 
ATOM     53  C   UNL A   1      37.839  33.998  36.962  1.00  0.00     0.031 C 
ATOM     54  C   UNL A   1      37.598  30.392  31.103  1.00  0.00     0.029 A 
ATOM     55  C   UNL A   1      38.779  30.179  31.930  1.00  0.00     0.049 A 
ATOM     56  H   UNL A   1      39.145  30.953  33.831  1.00  0.00     0.167 HD
ATOM     57  C   UNL A   1      40.035  33.022  37.591  1.00  0.00     0.037 A 
ATOM     58  C   UNL A   1      39.839  29.425  31.585  1.00  0.00     0.037 A 
ATOM     59  C   UNL A   1      41.178  32.177  37.349  1.00  0.00     0.049 A 
ATOM     60  C   UNL A   1      41.018  29.348  32.512  1.00  0.00     0.074 A 
ATOM     61  C   UNL A   1      42.278  31.958  38.159  1.00  0.00     0.029 A 
ATOM     62  N   UNL A   1      41.369  31.415  36.204  1.00  0.00    -0.354 N 
ATOM     63  N   UNL A   1      41.197  29.935  33.671  1.00  0.00    -0.248 NA
ATOM     64  C   UNL A   1      42.145  28.513  32.080  1.00  0.00     0.031 C 
ATOM     65  C   UNL A   1      43.164  31.115  37.476  1.00  0.00     0.029 A 
ATOM     66  C   UNL A   1      42.585  30.753  36.270  1.00  0.00     0.049 A 
ATOM     67  H   UNL A   1      40.733  31.354  35.455  1.00  0.00     0.167 HD
ATOM     68  C   UNL A   1      42.448  29.529  34.114  1.00  0.00     0.074 A 
ATOM     69  C   UNL A   1      42.973  28.629  33.108  1.00  0.00     0.031 C 
ATOM     70  C   UNL A   1      43.102  29.871  35.253  1.00  0.00     0.037 A 
BRANCH  57  71
ATOM     71  C   UNL A   1      40.015  33.857  38.841  1.00  0.00     0.064 A 
ATOM     72  C   UNL A   1      40.662  35.098  38.928  1.00  0.00     0.173 A 
ATOM     73  C   UNL A   1      39.323  33.401  39.976  1.00  0.00     0.173 A 
ATOM     74  F   UNL A   1      41.350  35.575  37.880  1.00  0.00    -0.203 F 
ATOM     75  C   UNL A   1      40.650  35.833  40.113  1.00  0.00     0.198 A 
ATOM     76  C   UNL A   1      39.284  34.154  41.147  1.00  0.00     0.198 A 
ATOM     77  F   UNL A   1      38.682  32.223  39.949  1.00  0.00    -0.203 F 
ATOM     78  F   UNL A   1      41.327  36.987  40.192  1.00  0.00    -0.200 F 
ATOM     79  C   UNL A   1      39.957  35.363  41.218  1.00  0.00     0.200 A 
ATOM     80  F   UNL A   1      38.602  33.703  42.209  1.00  0.00    -0.200 F 
ATOM     81  F   UNL A   1      39.947  36.070  42.357  1.00  0.00    -0.200 F 
ENDBRANCH  57  71
BRANCH  58  82
ATOM     82  C   UNL A   1      39.847  28.742  30.264  1.00  0.00     0.064 A 
ATOM     83  C   UNL A   1      40.412  29.349  29.135  1.00  0.00     0.173 A 
ATOM     84  C   UNL A   1      39.315  27.451  30.113  1.00  0.00     0.173 A 
ATOM     85  F   UNL A   1      40.910  30.592  29.222  1.00  0.00    -0.203 F 
ATOM     86  C   UNL A   1      40.440  28.693  27.906  1.00  0.00     0.198 A 
ATOM     87  C   UNL A   1      39.375  26.784  28.893  1.00  0.00     0.198 A 
ATOM     88  F   UNL A   1      38.763  26.826  31.164  1.00  0.00    -0.203 F 
ATOM     89  F   UNL A   1      40.954  29.310  26.833  1.00  0.00    -0.200 F 
ATOM     90  C   UNL A   1      39.933  27.408  27.789  1.00  0.00     0.200 A 
ATOM     91  F   UNL A   1      38.900  25.535  28.791  1.00  0.00    -0.200 F 
ATOM     92  F   UNL A   1      39.977  26.772  26.610  1.00  0.00    -0.200 F 
ENDBRANCH  58  82
BRANCH  70  93
ATOM     93  C   UNL A   1      44.450  29.247  35.478  1.00  0.00     0.064 A 
ATOM     94  C   UNL A   1      44.592  28.009  36.122  1.00  0.00     0.173 A 
ATOM     95  C   UNL A   1      45.615  29.893  35.033  1.00  0.00     0.173 A 
ATOM     96  F   UNL A   1      43.513  27.359  36.582  1.00  0.00    -0.203 F 
ATOM     97  C   UNL A   1      45.852  27.456  36.340  1.00  0.00     0.198 A 
ATOM     98  C   UNL A   1      46.869  29.320  35.223  1.00  0.00     0.198 A 
ATOM     99  F   UNL A   1      45.536  31.076  34.408  1.00  0.00    -0.203 F 
ATOM    100  F   UNL A   1      45.967  26.301  37.011  1.00  0.00    -0.200 F 
ATOM    101  C   UNL A   1      46.988  28.108  35.885  1.00  0.00     0.200 A 
ATOM    102  F   UNL A   1      47.965  29.946  34.770  1.00  0.00    -0.200 F 
ATOM    103  F   UNL A   1      48.200  27.574  36.096  1.00  0.00    -0.200 F 
ENDBRANCH  70  93
ENDBRANCH  44  45
ENDBRANCH  37  39
ENDBRANCH  36  37
ENDBRANCH  35  36
ENDBRANCH  34  35
ENDBRANCH  33  34
ENDBRANCH   1  33
TORSDOF 18
ENDMDL
MODEL 2
REMARK VINA RESULT:     -12.7      6.530     12.422
REMARK SMILES CN1C(=O)C[C@@H](C(=O)OCCOCCOCCOC(=O)c2ccc(-c3c4nc(c(-c5c(F)c(F)c(F)c(F)c5F)c5ccc([nH]5)c(-c5c(F)c(F)c(F)c(F)c5F)c5nc(c(-c6c(F)c(F)c(F)c(F)c6F)c6ccc3[nH]6)C=C5)C=C4)cc2)C12CCN(C(=O)c1cccc3ccccc13)CC2
REMARK SMILES IDX 14 1 13 2 12 3 11 4 10 5 9 6 7 7 8 8 6 9 1 10 2 11 3 12
REMARK SMILES IDX 84 13 4 14 5 15 85 16 101 17 86 18 100 19 87 20 88 21 89 22
REMARK SMILES IDX 90 23 91 24 99 25 92 26 94 27 98 28 93 29 95 30 97 31 96 32
REMARK SMILES IDX 15 33 16 34 17 35 18 36 19 37 20 38 21 39 22 40 83 41 23 42
REMARK SMILES IDX 82 43 24 44 25 45 26 46 76 47 27 48 81 49 75 50 77 51 28 52
REMARK SMILES IDX 80 53 74 54 73 55 29 57 61 58 41 59 60 60 42 61 45 62 59 63
REMARK SMILES IDX 78 64 43 65 44 66 58 68 79 69 46 70 30 71 31 72 39 73 32 74
REMARK SMILES IDX 33 75 37 76 40 77 34 78 35 79 38 80 36 81 62 82 63 83 71 84
REMARK SMILES IDX 64 85 65 86 69 87 72 88 66 89 67 90 70 91 68 92 47 93 48 94
REMARK SMILES IDX 56 95 49 96 50 97 54 98 57 99 51 100 52 101 55 102 53 103
REMARK H PARENT 77 56 45 67
REMARK Flexibility Score: inf
ROOT
ATOM      1  C   UNL A   1      41.579  21.937  26.712  1.00  0.00     0.188 C 
ENDROOT
BRANCH   1   2
ATOM      2  C   UNL A   1      40.359  22.684  27.231  1.00  0.00     0.188 C 
BRANCH   2   3
ATOM      3  O   UNL A   1      39.149  22.604  26.494  1.00  0.00    -0.376 OA
BRANCH   3   4
ATOM      4  C   UNL A   1      38.363  23.774  26.317  1.00  0.00     0.202 C 
BRANCH   4   5
ATOM      5  C   UNL A   1      37.089  23.641  25.458  1.00  0.00     0.261 C 
BRANCH   5   6
ATOM      6  O   UNL A   1      35.865  23.152  26.088  1.00  0.00    -0.463 OA
BRANCH   6   7
ATOM      7  C   UNL A   1      35.512  21.887  25.762  1.00  0.00     0.311 C 
ATOM      8  O   UNL A   1      36.322  21.053  25.355  1.00  0.00    -0.252 OA
BRANCH   7   9
ATOM      9  C   UNL A   1      34.028  21.506  25.803  1.00  0.00     0.134 C 
ATOM     10  C   UNL A   1      32.020  20.650  22.724  1.00  0.00     0.147 C 
ATOM     11  N   UNL A   1      32.840  20.727  23.922  1.00  0.00    -0.339 N 
ATOM     12  C   UNL A   1      33.524  19.620  24.408  1.00  0.00     0.223 C 
ATOM     13  C   UNL A   1      32.837  21.870  24.851  1.00  0.00     0.060 C 
ATOM     14  O   UNL A   1      33.635  18.543  23.874  1.00  0.00    -0.275 OA
ATOM     15  C   UNL A   1      34.048  19.965  25.776  1.00  0.00     0.118 C 
ATOM     16  C   UNL A   1      32.867  23.205  24.084  1.00  0.00     0.051 C 
ATOM     17  C   UNL A   1      31.491  21.825  25.674  1.00  0.00     0.051 C 
ATOM     18  C   UNL A   1      32.585  24.399  24.984  1.00  0.00     0.122 C 
ATOM     19  C   UNL A   1      31.103  23.113  26.411  1.00  0.00     0.122 C 
ATOM     20  N   UNL A   1      31.280  24.319  25.605  1.00  0.00    -0.338 N 
ATOM     21  C   UNL A   1      30.349  25.364  25.766  1.00  0.00     0.254 C 
ATOM     22  O   UNL A   1      29.345  25.202  26.467  1.00  0.00    -0.269 OA
BRANCH  21  23
ATOM     23  C   UNL A   1      30.536  26.758  25.239  1.00  0.00     0.047 A 
ATOM     24  C   UNL A   1      29.904  26.983  23.995  1.00  0.00     0.014 A 
ATOM     25  C   UNL A   1      31.330  27.793  25.813  1.00  0.00    -0.006 A 
ATOM     26  C   UNL A   1      30.016  28.198  23.324  1.00  0.00     0.001 A 
ATOM     27  C   UNL A   1      31.420  29.038  25.116  1.00  0.00    -0.018 A 
ATOM     28  C   UNL A   1      32.026  27.700  27.039  1.00  0.00     0.009 A 
ATOM     29  C   UNL A   1      30.779  29.215  23.881  1.00  0.00     0.009 A 
ATOM     30  C   UNL A   1      32.113  30.122  25.677  1.00  0.00     0.009 A 
ATOM     31  C   UNL A   1      32.662  28.809  27.611  1.00  0.00     0.001 A 
ATOM     32  C   UNL A   1      32.702  30.019  26.932  1.00  0.00     0.001 A 
ENDBRANCH  21  23
ENDBRANCH   7   9
ENDBRANCH   6   7
ENDBRANCH   5   6
ENDBRANCH   4   5
ENDBRANCH   3   4
ENDBRANCH   2   3
ENDBRANCH   1   2
BRANCH   1  33
ATOM     33  O   UNL A   1      41.300  20.687  26.117  1.00  0.00    -0.376 OA
BRANCH  33  34
ATOM     34  C   UNL A   1      41.679  19.569  26.905  1.00  0.00     0.202 C 
BRANCH  34  35
ATOM     35  C   UNL A   1      42.652  18.672  26.125  1.00  0.00     0.261 C 
BRANCH  35  36
ATOM     36  O   UNL A   1      43.023  19.167  24.808  1.00  0.00    -0.460 OA
BRANCH  36  37
ATOM     37  C   UNL A   1      44.352  19.335  24.646  1.00  0.00     0.338 C 
ATOM     38  O   UNL A   1      45.114  18.463  24.277  1.00  0.00    -0.246 OA
BRANCH  37  39
ATOM     39  C   UNL A   1      44.796  20.737  24.795  1.00  0.00     0.060 A 
ATOM     40  C   UNL A   1      45.297  21.163  26.028  1.00  0.00     0.016 A 
ATOM     41  C   UNL A   1      44.495  21.682  23.822  1.00  0.00     0.016 A 
ATOM     42  C   UNL A   1      45.449  22.513  26.326  1.00  0.00     0.010 A 
ATOM     43  C   UNL A   1      44.701  23.043  24.096  1.00  0.00     0.010 A 
ATOM     44  C   UNL A   1      45.161  23.473  25.357  1.00  0.00    -0.014 A 
BRANCH  44  45
ATOM     45  C   UNL A   1      45.318  24.917  25.672  1.00  0.00     0.031 A 
ATOM     46  C   UNL A   1      46.658  25.581  25.538  1.00  0.00     0.074 A 
ATOM     47  C   UNL A   1      44.255  25.637  26.080  1.00  0.00     0.049 A 
ATOM     48  N   UNL A   1      47.051  26.757  25.959  1.00  0.00    -0.248 NA
ATOM     49  C   UNL A   1      47.697  24.816  24.836  1.00  0.00     0.031 C 
ATOM     50  C   UNL A   1      42.882  25.141  26.172  1.00  0.00     0.029 A 
ATOM     51  N   UNL A   1      44.171  26.936  26.517  1.00  0.00    -0.354 N 
ATOM     52  C   UNL A   1      48.392  26.856  25.609  1.00  0.00     0.074 A 
ATOM     53  C   UNL A   1      48.745  25.621  24.939  1.00  0.00     0.031 C 
ATOM     54  C   UNL A   1      42.096  26.113  26.657  1.00  0.00     0.029 A 
ATOM     55  C   UNL A   1      42.924  27.266  26.989  1.00  0.00     0.049 A 
ATOM     56  H   UNL A   1      44.927  27.567  26.495  1.00  0.00     0.167 HD
ATOM     57  C   UNL A   1      49.250  27.880  25.844  1.00  0.00     0.037 A 
ATOM     58  C   UNL A   1      42.507  28.344  27.679  1.00  0.00     0.037 A 
ATOM     59  C   UNL A   1      48.881  29.107  26.503  1.00  0.00     0.049 A 
ATOM     60  C   UNL A   1      43.490  29.432  28.006  1.00  0.00     0.074 A 
ATOM     61  C   UNL A   1      49.669  30.209  26.783  1.00  0.00     0.029 A 
ATOM     62  N   UNL A   1      47.613  29.391  26.993  1.00  0.00    -0.354 N 
ATOM     63  N   UNL A   1      44.766  29.505  27.716  1.00  0.00    -0.248 NA
ATOM     64  C   UNL A   1      42.978  30.580  28.763  1.00  0.00     0.031 C 
ATOM     65  C   UNL A   1      48.896  31.131  27.499  1.00  0.00     0.029 A 
ATOM     66  C   UNL A   1      47.606  30.635  27.605  1.00  0.00     0.049 A 
ATOM     67  H   UNL A   1      46.832  28.796  26.917  1.00  0.00     0.167 HD
ATOM     68  C   UNL A   1      45.207  30.713  28.240  1.00  0.00     0.074 A 
ATOM     69  C   UNL A   1      44.055  31.346  28.848  1.00  0.00     0.031 C 
ATOM     70  C   UNL A   1      46.454  31.247  28.219  1.00  0.00     0.037 A 
BRANCH  57  71
ATOM     71  C   UNL A   1      50.687  27.684  25.449  1.00  0.00     0.064 A 
ATOM     72  C   UNL A   1      51.678  27.320  26.372  1.00  0.00     0.173 A 
ATOM     73  C   UNL A   1      51.075  27.859  24.110  1.00  0.00     0.173 A 
ATOM     74  F   UNL A   1      51.367  27.152  27.666  1.00  0.00    -0.203 F 
ATOM     75  C   UNL A   1      53.008  27.177  25.978  1.00  0.00     0.198 A 
ATOM     76  C   UNL A   1      52.399  27.682  23.714  1.00  0.00     0.198 A 
ATOM     77  F   UNL A   1      50.169  28.203  23.183  1.00  0.00    -0.203 F 
ATOM     78  F   UNL A   1      53.948  26.889  26.889  1.00  0.00    -0.200 F 
ATOM     79  C   UNL A   1      53.366  27.352  24.650  1.00  0.00     0.200 A 
ATOM     80  F   UNL A   1      52.738  27.840  22.427  1.00  0.00    -0.200 F 
ATOM     81  F   UNL A   1      54.645  27.215  24.273  1.00  0.00    -0.200 F 
ENDBRANCH  57  71
BRANCH  58  82
ATOM     82  C   UNL A   1      41.101  28.400  28.162  1.00  0.00     0.064 A 
ATOM     83  C   UNL A   1      40.752  27.941  29.438  1.00  0.00     0.173 A 
ATOM     84  C   UNL A   1      40.083  28.945  27.363  1.00  0.00     0.173 A 
ATOM     85  F   UNL A   1      41.684  27.388  30.229  1.00  0.00    -0.203 F 
ATOM     86  C   UNL A   1      39.438  28.020  29.895  1.00  0.00     0.198 A 
ATOM     87  C   UNL A   1      38.777  29.055  27.834  1.00  0.00     0.198 A 
ATOM     88  F   UNL A   1      40.365  29.399  26.133  1.00  0.00    -0.203 F 
ATOM     89  F   UNL A   1      39.123  27.542  31.106  1.00  0.00    -0.200 F 
ATOM     90  C   UNL A   1      38.455  28.588  29.098  1.00  0.00     0.200 A 
ATOM     91  F   UNL A   1      37.836  29.622  27.066  1.00  0.00    -0.200 F 
ATOM     92  F   UNL A   1      37.196  28.680  29.546  1.00  0.00    -0.200 F 
ENDBRANCH  58  82
BRANCH  70  93
ATOM     93  C   UNL A   1      46.627  32.598  28.854  1.00  0.00     0.064 A 
ATOM     94  C   UNL A   1      46.440  33.784  28.129  1.00  0.00     0.173 A 
ATOM     95  C   UNL A   1      46.974  32.706  30.210  1.00  0.00     0.173 A 
ATOM     96  F   UNL A   1      46.124  33.736  26.826  1.00  0.00    -0.203 F 
ATOM     97  C   UNL A   1      46.624  35.027  28.730  1.00  0.00     0.198 A 
ATOM     98  C   UNL A   1      47.125  33.950  30.815  1.00  0.00     0.198 A 
ATOM     99  F   UNL A   1      47.161  31.603  30.951  1.00  0.00    -0.203 F 
ATOM    100  F   UNL A   1      46.498  36.145  28.002  1.00  0.00    -0.200 F 
ATOM    101  C   UNL A   1      46.960  35.109  30.073  1.00  0.00     0.200 A 
ATOM    102  F   UNL A   1      47.435  34.027  32.117  1.00  0.00    -0.200 F 
ATOM    103  F   UNL A   1      47.137  36.307  30.649  1.00  0.00    -0.200 F 
ENDBRANCH  70  93
ENDBRANCH  44  45
ENDBRANCH  37  39
ENDBRANCH  36  37
ENDBRANCH  35  36
ENDBRANCH  34  35
ENDBRANCH  33  34
ENDBRANCH   1  33
TORSDOF 18
ENDMDL
MODEL 3
REMARK VINA RESULT:     -12.4      6.476     12.354
REMARK SMILES CN1C(=O)C[C@@H](C(=O)OCCOCCOCCOC(=O)c2ccc(-c3c4nc(c(-c5c(F)c(F)c(F)c(F)c5F)c5ccc([nH]5)c(-c5c(F)c(F)c(F)c(F)c5F)c5nc(c(-c6c(F)c(F)c(F)c(F)c6F)c6ccc3[nH]6)C=C5)C=C4)cc2)C12CCN(C(=O)c1cccc3ccccc13)CC2
REMARK SMILES IDX 14 1 13 2 12 3 11 4 10 5 9 6 7 7 8 8 6 9 1 10 2 11 3 12
REMARK SMILES IDX 84 13 4 14 5 15 85 16 101 17 86 18 100 19 87 20 88 21 89 22
REMARK SMILES IDX 90 23 91 24 99 25 92 26 94 27 98 28 93 29 95 30 97 31 96 32
REMARK SMILES IDX 15 33 16 34 17 35 18 36 19 37 20 38 21 39 22 40 83 41 23 42
REMARK SMILES IDX 82 43 24 44 25 45 26 46 76 47 27 48 81 49 75 50 77 51 28 52
REMARK SMILES IDX 80 53 74 54 73 55 29 57 61 58 41 59 60 60 42 61 45 62 59 63
REMARK SMILES IDX 78 64 43 65 44 66 58 68 79 69 46 70 30 71 31 72 39 73 32 74
REMARK SMILES IDX 33 75 37 76 40 77 34 78 35 79 38 80 36 81 62 82 63 83 71 84
REMARK SMILES IDX 64 85 65 86 69 87 72 88 66 89 67 90 70 91 68 92 47 93 48 94
REMARK SMILES IDX 56 95 49 96 50 97 54 98 57 99 51 100 52 101 55 102 53 103
REMARK H PARENT 77 56 45 67
REMARK Flexibility Score: inf
ROOT
ATOM      1  C   UNL A   1      41.298  21.588  26.206  1.00  0.00     0.188 C 
ENDROOT
BRANCH   1   2
ATOM      2  C   UNL A   1      40.004  22.039  26.869  1.00  0.00     0.188 C 
BRANCH   2   3
ATOM      3  O   UNL A   1      38.818  22.075  26.092  1.00  0.00    -0.376 OA
BRANCH   3   4
ATOM      4  C   UNL A   1      38.041  23.263  26.062  1.00  0.00     0.202 C 
BRANCH   4   5
ATOM      5  C   UNL A   1      36.551  23.120  25.692  1.00  0.00     0.261 C 
BRANCH   5   6
ATOM      6  O   UNL A   1      35.733  22.162  26.433  1.00  0.00    -0.463 OA
BRANCH   6   7
ATOM      7  C   UNL A   1      35.226  21.145  25.699  1.00  0.00     0.311 C 
ATOM      8  O   UNL A   1      35.933  20.382  25.040  1.00  0.00    -0.252 OA
BRANCH   7   9
ATOM      9  C   UNL A   1      33.704  20.999  25.601  1.00  0.00     0.134 C 
ATOM     10  C   UNL A   1      31.819  21.059  22.331  1.00  0.00     0.147 C 
ATOM     11  N   UNL A   1      32.554  20.782  23.555  1.00  0.00    -0.339 N 
ATOM     12  C   UNL A   1      33.033  19.510  23.842  1.00  0.00     0.223 C 
ATOM     13  C   UNL A   1      32.648  21.716  24.689  1.00  0.00     0.060 C 
ATOM     14  O   UNL A   1      33.025  18.549  23.111  1.00  0.00    -0.275 OA
ATOM     15  C   UNL A   1      33.503  19.506  25.272  1.00  0.00     0.118 C 
ATOM     16  C   UNL A   1      32.926  23.150  24.202  1.00  0.00     0.051 C 
ATOM     17  C   UNL A   1      31.255  21.727  25.430  1.00  0.00     0.051 C 
ATOM     18  C   UNL A   1      32.756  24.183  25.306  1.00  0.00     0.122 C 
ATOM     19  C   UNL A   1      31.005  22.898  26.389  1.00  0.00     0.122 C 
ATOM     20  N   UNL A   1      31.412  24.192  25.844  1.00  0.00    -0.338 N 
ATOM     21  C   UNL A   1      30.632  25.320  26.167  1.00  0.00     0.254 C 
ATOM     22  O   UNL A   1      29.568  25.187  26.779  1.00  0.00    -0.269 OA
BRANCH  21  23
ATOM     23  C   UNL A   1      31.056  26.742  25.934  1.00  0.00     0.047 A 
ATOM     24  C   UNL A   1      31.620  27.358  27.074  1.00  0.00     0.014 A 
ATOM     25  C   UNL A   1      30.866  27.510  24.750  1.00  0.00    -0.006 A 
ATOM     26  C   UNL A   1      32.020  28.692  27.065  1.00  0.00     0.001 A 
ATOM     27  C   UNL A   1      31.296  28.874  24.756  1.00  0.00    -0.018 A 
ATOM     28  C   UNL A   1      30.303  27.028  23.547  1.00  0.00     0.009 A 
ATOM     29  C   UNL A   1      31.847  29.446  25.912  1.00  0.00     0.009 A 
ATOM     30  C   UNL A   1      31.217  29.653  23.591  1.00  0.00     0.009 A 
ATOM     31  C   UNL A   1      30.286  27.801  22.380  1.00  0.00     0.001 A 
ATOM     32  C   UNL A   1      30.746  29.110  22.401  1.00  0.00     0.001 A 
ENDBRANCH  21  23
ENDBRANCH   7   9
ENDBRANCH   6   7
ENDBRANCH   5   6
ENDBRANCH   4   5
ENDBRANCH   3   4
ENDBRANCH   2   3
ENDBRANCH   1   2
BRANCH   1  33
ATOM     33  O   UNL A   1      41.857  20.405  26.740  1.00  0.00    -0.376 OA
BRANCH  33  34
ATOM     34  C   UNL A   1      41.744  19.274  25.891  1.00  0.00     0.202 C 
BRANCH  34  35
ATOM     35  C   UNL A   1      43.120  18.624  25.683  1.00  0.00     0.261 C 
BRANCH  35  36
ATOM     36  O   UNL A   1      43.679  18.782  24.349  1.00  0.00    -0.460 OA
BRANCH  36  37
ATOM     37  C   UNL A   1      44.841  19.468  24.326  1.00  0.00     0.338 C 
ATOM     38  O   UNL A   1      45.873  19.054  23.834  1.00  0.00    -0.246 OA
BRANCH  37  39
ATOM     39  C   UNL A   1      44.718  20.860  24.807  1.00  0.00     0.060 A 
ATOM     40  C   UNL A   1      44.386  21.866  23.897  1.00  0.00     0.016 A 
ATOM     41  C   UNL A   1      45.164  21.213  26.075  1.00  0.00     0.016 A 
ATOM     42  C   UNL A   1      44.544  23.212  24.208  1.00  0.00     0.010 A 
ATOM     43  C   UNL A   1      45.271  22.570  26.415  1.00  0.00     0.010 A 
ATOM     44  C   UNL A   1      44.982  23.582  25.479  1.00  0.00    -0.014 A 
BRANCH  44  45
ATOM     45  C   UNL A   1      45.157  25.020  25.815  1.00  0.00     0.031 A 
ATOM     46  C   UNL A   1      46.505  25.669  25.691  1.00  0.00     0.074 A 
ATOM     47  C   UNL A   1      44.102  25.748  26.231  1.00  0.00     0.049 A 
ATOM     48  N   UNL A   1      46.912  26.834  26.129  1.00  0.00    -0.248 NA
ATOM     49  C   UNL A   1      47.535  24.901  24.980  1.00  0.00     0.031 C 
ATOM     50  C   UNL A   1      42.722  25.268  26.315  1.00  0.00     0.029 A 
ATOM     51  N   UNL A   1      44.033  27.042  26.686  1.00  0.00    -0.354 N 
ATOM     52  C   UNL A   1      48.254  26.921  25.781  1.00  0.00     0.074 A 
ATOM     53  C   UNL A   1      48.592  25.692  25.095  1.00  0.00     0.031 C 
ATOM     54  C   UNL A   1      41.948  26.242  26.813  1.00  0.00     0.029 A 
ATOM     55  C   UNL A   1      42.790  27.381  27.161  1.00  0.00     0.049 A 
ATOM     56  H   UNL A   1      44.797  27.663  26.673  1.00  0.00     0.167 HD
ATOM     57  C   UNL A   1      49.124  27.931  26.031  1.00  0.00     0.037 A 
ATOM     58  C   UNL A   1      42.385  28.454  27.866  1.00  0.00     0.037 A 
ATOM     59  C   UNL A   1      48.770  29.154  26.706  1.00  0.00     0.049 A 
ATOM     60  C   UNL A   1      43.381  29.525  28.208  1.00  0.00     0.074 A 
ATOM     61  C   UNL A   1      49.571  30.243  27.002  1.00  0.00     0.029 A 
ATOM     62  N   UNL A   1      47.505  29.447  27.199  1.00  0.00    -0.354 N 
ATOM     63  N   UNL A   1      44.659  29.587  27.920  1.00  0.00    -0.248 NA
ATOM     64  C   UNL A   1      42.882  30.668  28.981  1.00  0.00     0.031 C 
ATOM     65  C   UNL A   1      48.808  31.164  27.730  1.00  0.00     0.029 A 
ATOM     66  C   UNL A   1      47.513  30.682  27.828  1.00  0.00     0.049 A 
ATOM     67  H   UNL A   1      46.717  28.862  27.114  1.00  0.00     0.167 HD
ATOM     68  C   UNL A   1      45.114  30.781  28.462  1.00  0.00     0.074 A 
ATOM     69  C   UNL A   1      43.969  31.420  29.077  1.00  0.00     0.031 C 
ATOM     70  C   UNL A   1      46.367  31.300  28.450  1.00  0.00     0.037 A 
BRANCH  57  71
ATOM     71  C   UNL A   1      50.560  27.723  25.635  1.00  0.00     0.064 A 
ATOM     72  C   UNL A   1      51.536  27.293  26.544  1.00  0.00     0.173 A 
ATOM     73  C   UNL A   1      50.960  27.955  24.308  1.00  0.00     0.173 A 
ATOM     74  F   UNL A   1      51.213  27.070  27.827  1.00  0.00    -0.203 F 
ATOM     75  C   UNL A   1      52.866  27.140  26.151  1.00  0.00     0.198 A 
ATOM     76  C   UNL A   1      52.282  27.768  23.911  1.00  0.00     0.198 A 
ATOM     77  F   UNL A   1      50.068  28.363  23.394  1.00  0.00    -0.203 F 
ATOM     78  F   UNL A   1      53.793  26.787  27.052  1.00  0.00    -0.200 F 
ATOM     79  C   UNL A   1      53.235  27.372  24.835  1.00  0.00     0.200 A 
ATOM     80  F   UNL A   1      52.633  27.981  22.635  1.00  0.00    -0.200 F 
ATOM     81  F   UNL A   1      54.514  27.225  24.459  1.00  0.00    -0.200 F 
ENDBRANCH  57  71
BRANCH  58  82
ATOM     82  C   UNL A   1      40.980  28.520  28.348  1.00  0.00     0.064 A 
ATOM     83  C   UNL A   1      40.630  28.083  29.631  1.00  0.00     0.173 A 
ATOM     84  C   UNL A   1      39.962  29.054  27.540  1.00  0.00     0.173 A 
ATOM     85  F   UNL A   1      41.561  27.541  30.431  1.00  0.00    -0.203 F 
ATOM     86  C   UNL A   1      39.316  28.173  30.087  1.00  0.00     0.198 A 
ATOM     87  C   UNL A   1      38.657  29.175  28.009  1.00  0.00     0.198 A 
ATOM     88  F   UNL A   1      40.245  29.488  26.303  1.00  0.00    -0.203 F 
ATOM     89  F   UNL A   1      39.001  27.714  31.306  1.00  0.00    -0.200 F 
ATOM     90  C   UNL A   1      38.334  28.729  29.281  1.00  0.00     0.200 A 
ATOM     91  F   UNL A   1      37.717  29.731  27.233  1.00  0.00    -0.200 F 
ATOM     92  F   UNL A   1      37.075  28.831  29.728  1.00  0.00    -0.200 F 
ENDBRANCH  58  82
BRANCH  70  93
ATOM     93  C   UNL A   1      46.556  32.640  29.103  1.00  0.00     0.064 A 
ATOM     94  C   UNL A   1      46.927  32.759  30.451  1.00  0.00     0.173 A 
ATOM     95  C   UNL A   1      46.375  33.821  28.366  1.00  0.00     0.173 A 
ATOM     96  F   UNL A   1      47.096  31.661  31.204  1.00  0.00    -0.203 F 
ATOM     97  C   UNL A   1      47.078  34.010  31.045  1.00  0.00     0.198 A 
ATOM     98  C   UNL A   1      46.559  35.069  28.954  1.00  0.00     0.198 A 
ATOM     99  F   UNL A   1      46.025  33.765  27.073  1.00  0.00    -0.203 F 
ATOM    100  F   UNL A   1      47.373  34.098  32.349  1.00  0.00    -0.200 F 
ATOM    101  C   UNL A   1      46.900  35.162  30.295  1.00  0.00     0.200 A 
ATOM    102  F   UNL A   1      46.401  36.182  28.224  1.00  0.00    -0.200 F 
ATOM    103  F   UNL A   1      47.046  36.366  30.868  1.00  0.00    -0.200 F 
ENDBRANCH  70  93
ENDBRANCH  44  45
ENDBRANCH  37  39
ENDBRANCH  36  37
ENDBRANCH  35  36
ENDBRANCH  34  35
ENDBRANCH  33  34
ENDBRANCH   1  33
TORSDOF 18
ENDMDL
