MODEL 1
REMARK VINA RESULT:     -12.0      0.000      0.000
REMARK SMILES C[C@H](C(=O)OCCOCCOCCOC(=O)c1ccc(-c2c3nc(c(-c4c(F)c(F)c(F)c(F)c4F)c4ccc([nH]4)c(-c4c(F)c(F)c(F)c(F)c4F)c4nc(c(-c5c(F)c(F)c(F)c(F)c5F)c5ccc2[nH]5)C=C4)C=C3)cc1)c1ccc2c3cc(Cl)ccc3n(C(=O)c3ccc(Cl)cc3)c2c1
REMARK SMILES IDX 9 1 8 2 7 3 6 4 5 5 3 6 4 7 2 8 1 9 80 10 81 11 102 12 82 13
REMARK SMILES IDX 101 14 83 15 91 16 84 17 90 18 85 19 89 20 86 21 88 22 87 23
REMARK SMILES IDX 92 24 93 25 94 26 95 27 100 28 96 29 99 30 97 31 98 32 10 33
REMARK SMILES IDX 11 34 12 35 13 36 14 37 15 38 16 39 17 40 18 41 79 42 19 43
REMARK SMILES IDX 78 44 20 45 21 46 22 47 72 48 23 49 77 50 71 51 73 52 24 53
REMARK SMILES IDX 76 54 70 55 69 56 25 58 57 59 37 60 56 61 38 62 41 63 55 64
REMARK SMILES IDX 74 65 39 66 40 67 54 69 75 70 42 71 26 72 27 73 35 74 28 75
REMARK SMILES IDX 29 76 33 77 36 78 30 79 31 80 34 81 32 82 58 83 59 84 67 85
REMARK SMILES IDX 60 86 61 87 65 88 68 89 62 90 63 91 66 92 64 93 43 94 44 95
REMARK SMILES IDX 52 96 45 97 46 98 50 99 53 100 47 101 48 102 51 103 49 104
REMARK H PARENT 73 57 41 68
REMARK Flexibility Score: inf
ROOT
ATOM      1  C   UNL A   1      34.120  32.114  28.138  1.00  0.00     0.188 C 
ENDROOT
BRANCH   1   2
ATOM      2  O   UNL A   1      34.545  30.866  27.600  1.00  0.00    -0.376 OA
BRANCH   2   3
ATOM      3  C   UNL A   1      33.539  30.030  27.041  1.00  0.00     0.202 C 
BRANCH   3   4
ATOM      4  C   UNL A   1      34.019  28.979  26.029  1.00  0.00     0.261 C 
BRANCH   4   5
ATOM      5  O   UNL A   1      33.630  27.634  26.385  1.00  0.00    -0.463 OA
BRANCH   5   6
ATOM      6  C   UNL A   1      33.153  26.845  25.380  1.00  0.00     0.313 C 
ATOM      7  O   UNL A   1      33.548  26.885  24.220  1.00  0.00    -0.252 OA
BRANCH   6   8
ATOM      8  C   UNL A   1      32.054  25.888  25.843  1.00  0.00     0.126 C 
ATOM      9  C   UNL A   1      30.738  26.089  25.089  1.00  0.00     0.025 C 
BRANCH   8  10
ATOM     10  C   UNL A   1      32.389  24.406  25.815  1.00  0.00    -0.032 A 
ATOM     11  C   UNL A   1      31.450  23.504  26.335  1.00  0.00     0.005 A 
ATOM     12  C   UNL A   1      33.555  23.909  25.224  1.00  0.00     0.032 A 
ATOM     13  C   UNL A   1      31.595  22.129  26.161  1.00  0.00     0.011 A 
ATOM     14  C   UNL A   1      33.748  22.513  25.146  1.00  0.00     0.057 A 
ATOM     15  C   UNL A   1      32.750  21.632  25.534  1.00  0.00     0.008 A 
ATOM     16  N   UNL A   1      34.851  21.770  24.694  1.00  0.00    -0.276 N 
ATOM     17  C   UNL A   1      33.179  20.327  25.187  1.00  0.00     0.009 A 
ATOM     18  C   UNL A   1      34.514  20.410  24.763  1.00  0.00     0.057 A 
ATOM     19  C   UNL A   1      32.537  19.074  25.281  1.00  0.00     0.031 A 
ATOM     20  C   UNL A   1      35.263  19.229  24.588  1.00  0.00     0.029 A 
ATOM     21  C   UNL A   1      33.264  17.917  25.028  1.00  0.00     0.041 A 
ATOM     22  C   UNL A   1      34.615  17.990  24.717  1.00  0.00     0.023 A 
ATOM     23  Cl  UNL A   1      32.486  16.388  25.161  1.00  0.00    -0.084 Cl
BRANCH  16  24
ATOM     24  C   UNL A   1      36.083  22.388  24.348  1.00  0.00     0.262 C 
ATOM     25  O   UNL A   1      36.156  22.795  23.184  1.00  0.00    -0.268 OA
BRANCH  24  26
ATOM     26  C   UNL A   1      37.322  22.578  25.156  1.00  0.00     0.040 A 
ATOM     27  C   UNL A   1      38.139  21.438  25.328  1.00  0.00     0.015 A 
ATOM     28  C   UNL A   1      37.664  23.744  25.842  1.00  0.00     0.015 A 
ATOM     29  C   UNL A   1      39.284  21.470  26.126  1.00  0.00     0.021 A 
ATOM     30  C   UNL A   1      38.837  23.789  26.614  1.00  0.00     0.021 A 
ATOM     31  C   UNL A   1      39.638  22.655  26.755  1.00  0.00     0.041 A 
ATOM     32  Cl  UNL A   1      41.055  22.711  27.727  1.00  0.00    -0.084 Cl
ENDBRANCH  24  26
ENDBRANCH  16  24
ENDBRANCH   8  10
ENDBRANCH   6   8
ENDBRANCH   5   6
ENDBRANCH   4   5
ENDBRANCH   3   4
ENDBRANCH   2   3
ENDBRANCH   1   2
BRANCH   1  33
ATOM     33  C   UNL A   1      35.029  32.780  29.192  1.00  0.00     0.188 C 
BRANCH  33  34
ATOM     34  O   UNL A   1      34.836  34.171  29.421  1.00  0.00    -0.376 OA
BRANCH  34  35
ATOM     35  C   UNL A   1      33.790  34.807  28.695  1.00  0.00     0.202 C 
BRANCH  35  36
ATOM     36  C   UNL A   1      32.951  35.798  29.509  1.00  0.00     0.261 C 
BRANCH  36  37
ATOM     37  O   UNL A   1      32.342  35.171  30.659  1.00  0.00    -0.460 OA
BRANCH  37  38
ATOM     38  C   UNL A   1      32.600  35.752  31.857  1.00  0.00     0.338 C 
ATOM     39  O   UNL A   1      31.958  36.632  32.401  1.00  0.00    -0.246 OA
BRANCH  38  40
ATOM     40  C   UNL A   1      33.721  35.062  32.537  1.00  0.00     0.060 A 
ATOM     41  C   UNL A   1      34.965  35.702  32.550  1.00  0.00     0.016 A 
ATOM     42  C   UNL A   1      33.592  33.777  33.066  1.00  0.00     0.016 A 
ATOM     43  C   UNL A   1      36.090  35.056  33.068  1.00  0.00     0.010 A 
ATOM     44  C   UNL A   1      34.728  33.117  33.561  1.00  0.00     0.010 A 
ATOM     45  C   UNL A   1      35.988  33.742  33.539  1.00  0.00    -0.014 A 
BRANCH  45  46
ATOM     46  C   UNL A   1      37.222  32.965  33.836  1.00  0.00     0.031 A 
ATOM     47  C   UNL A   1      37.942  33.217  35.134  1.00  0.00     0.074 A 
ATOM     48  C   UNL A   1      37.683  32.025  32.993  1.00  0.00     0.049 A 
ATOM     49  N   UNL A   1      39.072  32.722  35.571  1.00  0.00    -0.248 NA
ATOM     50  C   UNL A   1      37.291  34.148  36.068  1.00  0.00     0.031 C 
ATOM     51  C   UNL A   1      37.045  31.623  31.742  1.00  0.00     0.029 A 
ATOM     52  N   UNL A   1      38.807  31.236  33.068  1.00  0.00    -0.354 N 
ATOM     53  C   UNL A   1      39.276  33.294  36.820  1.00  0.00     0.074 A 
ATOM     54  C   UNL A   1      38.159  34.180  37.068  1.00  0.00     0.031 C 
ATOM     55  C   UNL A   1      37.793  30.669  31.159  1.00  0.00     0.029 A 
ATOM     56  C   UNL A   1      38.983  30.423  31.974  1.00  0.00     0.049 A 
ATOM     57  H   UNL A   1      39.426  31.252  33.832  1.00  0.00     0.167 HD
ATOM     58  C   UNL A   1      40.303  33.101  37.684  1.00  0.00     0.037 A 
ATOM     59  C   UNL A   1      40.003  29.601  31.654  1.00  0.00     0.037 A 
ATOM     60  C   UNL A   1      41.415  32.220  37.444  1.00  0.00     0.049 A 
ATOM     61  C   UNL A   1      41.180  29.473  32.589  1.00  0.00     0.074 A 
ATOM     62  C   UNL A   1      42.505  31.963  38.259  1.00  0.00     0.029 A 
ATOM     63  N   UNL A   1      41.583  31.452  36.302  1.00  0.00    -0.354 N 
ATOM     64  N   UNL A   1      41.374  30.026  33.762  1.00  0.00    -0.248 NA
ATOM     65  C   UNL A   1      42.289  28.611  32.148  1.00  0.00     0.031 C 
ATOM     66  C   UNL A   1      43.356  31.079  37.588  1.00  0.00     0.029 A 
ATOM     67  C   UNL A   1      42.770  30.743  36.379  1.00  0.00     0.049 A 
ATOM     68  H   UNL A   1      40.952  31.418  35.547  1.00  0.00     0.167 HD
ATOM     69  C   UNL A   1      42.605  29.559  34.209  1.00  0.00     0.074 A 
ATOM     70  C   UNL A   1      43.109  28.667  33.188  1.00  0.00     0.031 C 
ATOM     71  C   UNL A   1      43.258  29.846  35.362  1.00  0.00     0.037 A 
BRANCH  58  72
ATOM     72  C   UNL A   1      40.292  33.896  38.956  1.00  0.00     0.064 A 
ATOM     73  C   UNL A   1      39.608  33.456  40.097  1.00  0.00     0.173 A 
ATOM     74  C   UNL A   1      40.999  35.106  39.037  1.00  0.00     0.173 A 
ATOM     75  F   UNL A   1      38.904  32.315  40.066  1.00  0.00    -0.203 F 
ATOM     76  C   UNL A   1      39.611  34.213  41.268  1.00  0.00     0.198 A 
ATOM     77  C   UNL A   1      41.022  35.845  40.216  1.00  0.00     0.198 A 
ATOM     78  F   UNL A   1      41.673  35.568  37.974  1.00  0.00    -0.203 F 
ATOM     79  F   UNL A   1      38.911  33.797  42.333  1.00  0.00    -0.200 F 
ATOM     80  C   UNL A   1      40.321  35.402  41.328  1.00  0.00     0.200 A 
ATOM     81  F   UNL A   1      41.719  36.988  40.275  1.00  0.00    -0.200 F 
ATOM     82  F   UNL A   1      40.326  36.126  42.455  1.00  0.00    -0.200 F 
ENDBRANCH  58  72
BRANCH  59  83
ATOM     83  C   UNL A   1      39.983  28.849  30.370  1.00  0.00     0.064 A 
ATOM     84  C   UNL A   1      39.391  27.581  30.282  1.00  0.00     0.173 A 
ATOM     85  C   UNL A   1      40.596  29.363  29.217  1.00  0.00     0.173 A 
ATOM     86  F   UNL A   1      38.825  27.031  31.365  1.00  0.00    -0.203 F 
ATOM     87  C   UNL A   1      39.426  26.850  29.095  1.00  0.00     0.198 A 
ATOM     88  C   UNL A   1      40.604  28.644  28.023  1.00  0.00     0.198 A 
ATOM     89  F   UNL A   1      41.188  30.566  29.251  1.00  0.00    -0.203 F 
ATOM     90  F   UNL A   1      38.901  25.619  29.054  1.00  0.00    -0.200 F 
ATOM     91  C   UNL A   1      40.027  27.385  27.965  1.00  0.00     0.200 A 
ATOM     92  F   UNL A   1      41.183  29.167  26.934  1.00  0.00    -0.200 F 
ATOM     93  F   UNL A   1      40.065  26.681  26.827  1.00  0.00    -0.200 F 
ENDBRANCH  59  83
BRANCH  71  94
ATOM     94  C   UNL A   1      44.571  29.160  35.607  1.00  0.00     0.064 A 
ATOM     95  C   UNL A   1      45.791  29.753  35.251  1.00  0.00     0.173 A 
ATOM     96  C   UNL A   1      44.611  27.913  36.250  1.00  0.00     0.173 A 
ATOM     97  F   UNL A   1      45.808  30.937  34.622  1.00  0.00    -0.203 F 
ATOM     98  C   UNL A   1      47.001  29.112  35.513  1.00  0.00     0.198 A 
ATOM     99  C   UNL A   1      45.822  27.289  36.535  1.00  0.00     0.198 A 
ATOM    100  F   UNL A   1      43.472  27.306  36.619  1.00  0.00    -0.203 F 
ATOM    101  F   UNL A   1      48.152  29.679  35.126  1.00  0.00    -0.200 F 
ATOM    102  C   UNL A   1      47.016  27.886  36.160  1.00  0.00     0.200 A 
ATOM    103  F   UNL A   1      45.835  26.110  37.173  1.00  0.00    -0.200 F 
ATOM    104  F   UNL A   1      48.181  27.277  36.417  1.00  0.00    -0.200 F 
ENDBRANCH  71  94
ENDBRANCH  45  46
ENDBRANCH  38  40
ENDBRANCH  37  38
ENDBRANCH  36  37
ENDBRANCH  35  36
ENDBRANCH  34  35
ENDBRANCH  33  34
ENDBRANCH   1  33
TORSDOF 20
ENDMDL
MODEL 2
REMARK VINA RESULT:     -11.7      1.587      3.863
REMARK SMILES C[C@H](C(=O)OCCOCCOCCOC(=O)c1ccc(-c2c3nc(c(-c4c(F)c(F)c(F)c(F)c4F)c4ccc([nH]4)c(-c4c(F)c(F)c(F)c(F)c4F)c4nc(c(-c5c(F)c(F)c(F)c(F)c5F)c5ccc2[nH]5)C=C4)C=C3)cc1)c1ccc2c3cc(Cl)ccc3n(C(=O)c3ccc(Cl)cc3)c2c1
REMARK SMILES IDX 9 1 8 2 7 3 6 4 5 5 3 6 4 7 2 8 1 9 80 10 81 11 102 12 82 13
REMARK SMILES IDX 101 14 83 15 91 16 84 17 90 18 85 19 89 20 86 21 88 22 87 23
REMARK SMILES IDX 92 24 93 25 94 26 95 27 100 28 96 29 99 30 97 31 98 32 10 33
REMARK SMILES IDX 11 34 12 35 13 36 14 37 15 38 16 39 17 40 18 41 79 42 19 43
REMARK SMILES IDX 78 44 20 45 21 46 22 47 72 48 23 49 77 50 71 51 73 52 24 53
REMARK SMILES IDX 76 54 70 55 69 56 25 58 57 59 37 60 56 61 38 62 41 63 55 64
REMARK SMILES IDX 74 65 39 66 40 67 54 69 75 70 42 71 26 72 27 73 35 74 28 75
REMARK SMILES IDX 29 76 33 77 36 78 30 79 31 80 34 81 32 82 58 83 59 84 67 85
REMARK SMILES IDX 60 86 61 87 65 88 68 89 62 90 63 91 66 92 64 93 43 94 44 95
REMARK SMILES IDX 52 96 45 97 46 98 50 99 53 100 47 101 48 102 51 103 49 104
REMARK H PARENT 73 57 41 68
REMARK Flexibility Score: inf
ROOT
ATOM      1  C   UNL A   1      33.769  29.365  25.822  1.00  0.00     0.188 C 
ENDROOT
BRANCH   1   2
ATOM      2  O   UNL A   1      33.095  29.036  24.611  1.00  0.00    -0.376 OA
BRANCH   2   3
ATOM      3  C   UNL A   1      31.692  29.269  24.572  1.00  0.00     0.202 C 
BRANCH   3   4
ATOM      4  C   UNL A   1      30.918  28.546  23.461  1.00  0.00     0.261 C 
BRANCH   4   5
ATOM      5  O   UNL A   1      31.201  27.131  23.404  1.00  0.00    -0.463 OA
BRANCH   5   6
ATOM      6  C   UNL A   1      30.359  26.306  24.092  1.00  0.00     0.313 C 
ATOM      7  O   UNL A   1      29.230  26.002  23.722  1.00  0.00    -0.252 OA
BRANCH   6   8
ATOM      8  C   UNL A   1      30.966  25.788  25.397  1.00  0.00     0.126 C 
ATOM      9  C   UNL A   1      30.009  24.885  26.176  1.00  0.00     0.025 C 
BRANCH   8  10
ATOM     10  C   UNL A   1      32.302  25.074  25.286  1.00  0.00    -0.032 A 
ATOM     11  C   UNL A   1      33.466  25.793  25.593  1.00  0.00     0.005 A 
ATOM     12  C   UNL A   1      32.406  23.715  24.970  1.00  0.00     0.032 A 
ATOM     13  C   UNL A   1      34.700  25.157  25.712  1.00  0.00     0.011 A 
ATOM     14  C   UNL A   1      33.675  23.098  24.988  1.00  0.00     0.057 A 
ATOM     15  C   UNL A   1      34.797  23.783  25.430  1.00  0.00     0.008 A 
ATOM     16  N   UNL A   1      34.059  21.796  24.626  1.00  0.00    -0.276 N 
ATOM     17  C   UNL A   1      35.866  22.856  25.480  1.00  0.00     0.009 A 
ATOM     18  C   UNL A   1      35.431  21.660  24.889  1.00  0.00     0.057 A 
ATOM     19  C   UNL A   1      37.200  22.988  25.923  1.00  0.00     0.031 A 
ATOM     20  C   UNL A   1      36.367  20.651  24.590  1.00  0.00     0.029 A 
ATOM     21  C   UNL A   1      38.097  21.953  25.695  1.00  0.00     0.041 A 
ATOM     22  C   UNL A   1      37.696  20.813  25.011  1.00  0.00     0.023 A 
ATOM     23  Cl  UNL A   1      39.728  22.121  26.218  1.00  0.00    -0.084 Cl
BRANCH  16  24
ATOM     24  C   UNL A   1      33.154  20.888  24.013  1.00  0.00     0.262 C 
ATOM     25  O   UNL A   1      32.383  21.393  23.190  1.00  0.00    -0.268 OA
BRANCH  24  26
ATOM     26  C   UNL A   1      32.954  19.429  24.244  1.00  0.00     0.040 A 
ATOM     27  C   UNL A   1      32.848  19.016  25.591  1.00  0.00     0.015 A 
ATOM     28  C   UNL A   1      32.985  18.446  23.254  1.00  0.00     0.015 A 
ATOM     29  C   UNL A   1      32.735  17.669  25.939  1.00  0.00     0.021 A 
ATOM     30  C   UNL A   1      32.832  17.092  23.599  1.00  0.00     0.021 A 
ATOM     31  C   UNL A   1      32.711  16.710  24.936  1.00  0.00     0.041 A 
ATOM     32  Cl  UNL A   1      32.555  15.049  25.351  1.00  0.00    -0.084 Cl
ENDBRANCH  24  26
ENDBRANCH  16  24
ENDBRANCH   8  10
ENDBRANCH   6   8
ENDBRANCH   5   6
ENDBRANCH   4   5
ENDBRANCH   3   4
ENDBRANCH   2   3
ENDBRANCH   1   2
BRANCH   1  33
ATOM     33  C   UNL A   1      32.905  29.561  27.085  1.00  0.00     0.188 C 
BRANCH  33  34
ATOM     34  O   UNL A   1      32.232  30.807  27.216  1.00  0.00    -0.376 OA
BRANCH  34  35
ATOM     35  C   UNL A   1      33.035  31.953  27.478  1.00  0.00     0.202 C 
BRANCH  35  36
ATOM     36  C   UNL A   1      32.269  33.279  27.524  1.00  0.00     0.261 C 
BRANCH  36  37
ATOM     37  O   UNL A   1      33.160  34.416  27.545  1.00  0.00    -0.460 OA
BRANCH  37  38
ATOM     38  C   UNL A   1      33.211  35.106  28.711  1.00  0.00     0.338 C 
ATOM     39  O   UNL A   1      32.420  35.944  29.105  1.00  0.00    -0.246 OA
BRANCH  38  40
ATOM     40  C   UNL A   1      34.309  34.600  29.567  1.00  0.00     0.060 A 
ATOM     41  C   UNL A   1      35.610  34.649  29.051  1.00  0.00     0.016 A 
ATOM     42  C   UNL A   1      34.071  33.999  30.804  1.00  0.00     0.016 A 
ATOM     43  C   UNL A   1      36.674  34.079  29.754  1.00  0.00     0.010 A 
ATOM     44  C   UNL A   1      35.136  33.402  31.497  1.00  0.00     0.010 A 
ATOM     45  C   UNL A   1      36.438  33.414  30.964  1.00  0.00    -0.014 A 
BRANCH  45  46
ATOM     46  C   UNL A   1      37.512  32.583  31.571  1.00  0.00     0.031 A 
ATOM     47  C   UNL A   1      38.021  32.945  32.941  1.00  0.00     0.074 A 
ATOM     48  C   UNL A   1      38.007  31.502  30.943  1.00  0.00     0.049 A 
ATOM     49  N   UNL A   1      39.000  32.419  33.633  1.00  0.00    -0.248 NA
ATOM     50  C   UNL A   1      37.324  34.045  33.623  1.00  0.00     0.031 C 
ATOM     51  C   UNL A   1      37.554  30.991  29.653  1.00  0.00     0.029 A 
ATOM     52  N   UNL A   1      39.009  30.637  31.315  1.00  0.00    -0.354 N 
ATOM     53  C   UNL A   1      39.047  33.135  34.823  1.00  0.00     0.074 A 
ATOM     54  C   UNL A   1      38.005  34.137  34.755  1.00  0.00     0.031 C 
ATOM     55  C   UNL A   1      38.283  29.907  29.332  1.00  0.00     0.029 A 
ATOM     56  C   UNL A   1      39.282  29.673  30.375  1.00  0.00     0.049 A 
ATOM     57  H   UNL A   1      39.487  30.703  32.173  1.00  0.00     0.167 HD
ATOM     58  C   UNL A   1      39.883  32.973  35.877  1.00  0.00     0.037 A 
ATOM     59  C   UNL A   1      40.247  28.731  30.347  1.00  0.00     0.037 A 
ATOM     60  C   UNL A   1      40.919  31.976  35.951  1.00  0.00     0.049 A 
ATOM     61  C   UNL A   1      41.226  28.631  31.491  1.00  0.00     0.074 A 
ATOM     62  C   UNL A   1      41.819  31.740  36.977  1.00  0.00     0.029 A 
ATOM     63  N   UNL A   1      41.196  31.051  34.956  1.00  0.00    -0.354 N 
ATOM     64  N   UNL A   1      41.274  29.319  32.607  1.00  0.00    -0.248 NA
ATOM     65  C   UNL A   1      42.295  27.627  31.366  1.00  0.00     0.031 C 
ATOM     66  C   UNL A   1      42.671  30.705  36.582  1.00  0.00     0.029 A 
ATOM     67  C   UNL A   1      42.269  30.260  35.334  1.00  0.00     0.049 A 
ATOM     68  H   UNL A   1      40.704  30.969  34.108  1.00  0.00     0.167 HD
ATOM     69  C   UNL A   1      42.353  28.813  33.324  1.00  0.00     0.074 A 
ATOM     70  C   UNL A   1      42.925  27.752  32.525  1.00  0.00     0.031 C 
ATOM     71  C   UNL A   1      42.825  29.196  34.536  1.00  0.00     0.037 A 
BRANCH  58  72
ATOM     72  C   UNL A   1      39.740  33.930  37.023  1.00  0.00     0.064 A 
ATOM     73  C   UNL A   1      40.350  35.193  37.012  1.00  0.00     0.173 A 
ATOM     74  C   UNL A   1      38.962  33.585  38.138  1.00  0.00     0.173 A 
ATOM     75  F   UNL A   1      41.118  35.563  35.977  1.00  0.00    -0.203 F 
ATOM     76  C   UNL A   1      40.205  36.065  38.089  1.00  0.00     0.198 A 
ATOM     77  C   UNL A   1      38.796  34.470  39.199  1.00  0.00     0.198 A 
ATOM     78  F   UNL A   1      38.354  32.390  38.194  1.00  0.00    -0.203 F 
ATOM     79  F   UNL A   1      40.835  37.249  38.079  1.00  0.00    -0.200 F 
ATOM     80  C   UNL A   1      39.425  35.705  39.177  1.00  0.00     0.200 A 
ATOM     81  F   UNL A   1      38.033  34.124  40.245  1.00  0.00    -0.200 F 
ATOM     82  F   UNL A   1      39.284  36.547  40.211  1.00  0.00    -0.200 F 
ENDBRANCH  58  72
BRANCH  59  83
ATOM     83  C   UNL A   1      40.367  27.818  29.179  1.00  0.00     0.064 A 
ATOM     84  C   UNL A   1      41.205  28.129  28.099  1.00  0.00     0.173 A 
ATOM     85  C   UNL A   1      39.614  26.637  29.099  1.00  0.00     0.173 A 
ATOM     86  F   UNL A   1      41.918  29.265  28.111  1.00  0.00    -0.203 F 
ATOM     87  C   UNL A   1      41.272  27.304  26.977  1.00  0.00     0.198 A 
ATOM     88  C   UNL A   1      39.704  25.798  27.990  1.00  0.00     0.198 A 
ATOM     89  F   UNL A   1      38.787  26.299  30.100  1.00  0.00    -0.203 F 
ATOM     90  F   UNL A   1      42.038  27.654  25.935  1.00  0.00    -0.200 F 
ATOM     91  C   UNL A   1      40.525  26.136  26.926  1.00  0.00     0.200 A 
ATOM     92  F   UNL A   1      38.984  24.669  27.948  1.00  0.00    -0.200 F 
ATOM     93  F   UNL A   1      40.586  25.346  25.846  1.00  0.00    -0.200 F 
ENDBRANCH  59  83
BRANCH  71  94
ATOM     94  C   UNL A   1      43.995  28.440  35.097  1.00  0.00     0.064 A 
ATOM     95  C   UNL A   1      43.824  27.276  35.860  1.00  0.00     0.173 A 
ATOM     96  C   UNL A   1      45.307  28.859  34.823  1.00  0.00     0.173 A 
ATOM     97  F   UNL A   1      42.592  26.841  36.161  1.00  0.00    -0.203 F 
ATOM     98  C   UNL A   1      44.924  26.572  36.347  1.00  0.00     0.198 A 
ATOM     99  C   UNL A   1      46.403  28.137  35.287  1.00  0.00     0.198 A 
ATOM    100  F   UNL A   1      45.526  29.961  34.090  1.00  0.00    -0.203 F 
ATOM    101  F   UNL A   1      44.736  25.486  37.109  1.00  0.00    -0.200 F 
ATOM    102  C   UNL A   1      46.211  26.998  36.055  1.00  0.00     0.200 A 
ATOM    103  F   UNL A   1      47.646  28.543  34.992  1.00  0.00    -0.200 F 
ATOM    104  F   UNL A   1      47.266  26.314  36.517  1.00  0.00    -0.200 F 
ENDBRANCH  71  94
ENDBRANCH  45  46
ENDBRANCH  38  40
ENDBRANCH  37  38
ENDBRANCH  36  37
ENDBRANCH  35  36
ENDBRANCH  34  35
ENDBRANCH  33  34
ENDBRANCH   1  33
TORSDOF 20
ENDMDL
MODEL 3
REMARK VINA RESULT:     -11.6      1.551      7.684
REMARK SMILES C[C@H](C(=O)OCCOCCOCCOC(=O)c1ccc(-c2c3nc(c(-c4c(F)c(F)c(F)c(F)c4F)c4ccc([nH]4)c(-c4c(F)c(F)c(F)c(F)c4F)c4nc(c(-c5c(F)c(F)c(F)c(F)c5F)c5ccc2[nH]5)C=C4)C=C3)cc1)c1ccc2c3cc(Cl)ccc3n(C(=O)c3ccc(Cl)cc3)c2c1
REMARK SMILES IDX 9 1 8 2 7 3 6 4 5 5 3 6 4 7 2 8 1 9 80 10 81 11 102 12 82 13
REMARK SMILES IDX 101 14 83 15 91 16 84 17 90 18 85 19 89 20 86 21 88 22 87 23
REMARK SMILES IDX 92 24 93 25 94 26 95 27 100 28 96 29 99 30 97 31 98 32 10 33
REMARK SMILES IDX 11 34 12 35 13 36 14 37 15 38 16 39 17 40 18 41 79 42 19 43
REMARK SMILES IDX 78 44 20 45 21 46 22 47 72 48 23 49 77 50 71 51 73 52 24 53
REMARK SMILES IDX 76 54 70 55 69 56 25 58 57 59 37 60 56 61 38 62 41 63 55 64
REMARK SMILES IDX 74 65 39 66 40 67 54 69 75 70 42 71 26 72 27 73 35 74 28 75
REMARK SMILES IDX 29 76 33 77 36 78 30 79 31 80 34 81 32 82 58 83 59 84 67 85
REMARK SMILES IDX 60 86 61 87 65 88 68 89 62 90 63 91 66 92 64 93 43 94 44 95
REMARK SMILES IDX 52 96 45 97 46 98 50 99 53 100 47 101 48 102 51 103 49 104
REMARK H PARENT 73 57 41 68
REMARK Flexibility Score: inf
ROOT
ATOM      1  C   UNL A   1      34.240  28.839  26.037  1.00  0.00     0.188 C 
ENDROOT
BRANCH   1   2
ATOM      2  O   UNL A   1      33.264  28.478  25.065  1.00  0.00    -0.376 OA
BRANCH   2   3
ATOM      3  C   UNL A   1      31.901  28.544  25.468  1.00  0.00     0.202 C 
BRANCH   3   4
ATOM      4  C   UNL A   1      30.874  27.987  24.471  1.00  0.00     0.261 C 
BRANCH   4   5
ATOM      5  O   UNL A   1      31.366  26.848  23.731  1.00  0.00    -0.463 OA
BRANCH   5   6
ATOM      6  C   UNL A   1      30.900  25.622  24.107  1.00  0.00     0.313 C 
ATOM      7  O   UNL A   1      30.070  24.973  23.479  1.00  0.00    -0.252 OA
BRANCH   6   8
ATOM      8  C   UNL A   1      31.520  25.123  25.413  1.00  0.00     0.126 C 
ATOM      9  C   UNL A   1      30.572  24.229  26.213  1.00  0.00     0.025 C 
BRANCH   8  10
ATOM     10  C   UNL A   1      32.856  24.409  25.299  1.00  0.00    -0.032 A 
ATOM     11  C   UNL A   1      34.026  25.160  25.481  1.00  0.00     0.005 A 
ATOM     12  C   UNL A   1      32.958  23.028  25.102  1.00  0.00     0.032 A 
ATOM     13  C   UNL A   1      35.271  24.543  25.595  1.00  0.00     0.011 A 
ATOM     14  C   UNL A   1      34.233  22.422  25.111  1.00  0.00     0.057 A 
ATOM     15  C   UNL A   1      35.368  23.151  25.433  1.00  0.00     0.008 A 
ATOM     16  N   UNL A   1      34.611  21.095  24.849  1.00  0.00    -0.276 N 
ATOM     17  C   UNL A   1      36.448  22.238  25.512  1.00  0.00     0.009 A 
ATOM     18  C   UNL A   1      35.996  20.992  25.054  1.00  0.00     0.057 A 
ATOM     19  C   UNL A   1      37.800  22.417  25.874  1.00  0.00     0.031 A 
ATOM     20  C   UNL A   1      36.926  19.964  24.800  1.00  0.00     0.029 A 
ATOM     21  C   UNL A   1      38.696  21.371  25.694  1.00  0.00     0.041 A 
ATOM     22  C   UNL A   1      38.273  20.172  25.137  1.00  0.00     0.023 A 
ATOM     23  Cl  UNL A   1      40.349  21.595  26.118  1.00  0.00    -0.084 Cl
BRANCH  16  24
ATOM     24  C   UNL A   1      33.686  20.131  24.366  1.00  0.00     0.262 C 
ATOM     25  O   UNL A   1      32.873  20.553  23.538  1.00  0.00    -0.268 OA
BRANCH  24  26
ATOM     26  C   UNL A   1      33.510  18.698  24.740  1.00  0.00     0.040 A 
ATOM     27  C   UNL A   1      34.213  17.754  23.958  1.00  0.00     0.015 A 
ATOM     28  C   UNL A   1      32.626  18.223  25.710  1.00  0.00     0.015 A 
ATOM     29  C   UNL A   1      34.070  16.380  24.161  1.00  0.00     0.021 A 
ATOM     30  C   UNL A   1      32.510  16.842  25.943  1.00  0.00     0.021 A 
ATOM     31  C   UNL A   1      33.228  15.929  25.168  1.00  0.00     0.041 A 
ATOM     32  Cl  UNL A   1      33.057  14.240  25.440  1.00  0.00    -0.084 Cl
ENDBRANCH  24  26
ENDBRANCH  16  24
ENDBRANCH   8  10
ENDBRANCH   6   8
ENDBRANCH   5   6
ENDBRANCH   4   5
ENDBRANCH   3   4
ENDBRANCH   2   3
ENDBRANCH   1   2
BRANCH   1  33
ATOM     33  C   UNL A   1      33.738  29.183  27.455  1.00  0.00     0.188 C 
BRANCH  33  34
ATOM     34  O   UNL A   1      32.941  30.354  27.588  1.00  0.00    -0.376 OA
BRANCH  34  35
ATOM     35  C   UNL A   1      33.621  31.604  27.580  1.00  0.00     0.202 C 
BRANCH  35  36
ATOM     36  C   UNL A   1      32.713  32.830  27.437  1.00  0.00     0.261 C 
BRANCH  36  37
ATOM     37  O   UNL A   1      33.458  34.066  27.524  1.00  0.00    -0.460 OA
BRANCH  37  38
ATOM     38  C   UNL A   1      33.379  34.722  28.707  1.00  0.00     0.338 C 
ATOM     39  O   UNL A   1      32.455  35.408  29.108  1.00  0.00    -0.246 OA
BRANCH  38  40
ATOM     40  C   UNL A   1      34.532  34.378  29.570  1.00  0.00     0.060 A 
ATOM     41  C   UNL A   1      35.812  34.464  29.008  1.00  0.00     0.016 A 
ATOM     42  C   UNL A   1      34.371  33.888  30.867  1.00  0.00     0.016 A 
ATOM     43  C   UNL A   1      36.932  34.039  29.726  1.00  0.00     0.010 A 
ATOM     44  C   UNL A   1      35.494  33.436  31.578  1.00  0.00     0.010 A 
ATOM     45  C   UNL A   1      36.777  33.483  31.001  1.00  0.00    -0.014 A 
BRANCH  45  46
ATOM     46  C   UNL A   1      37.923  32.790  31.649  1.00  0.00     0.031 A 
ATOM     47  C   UNL A   1      38.551  31.616  30.947  1.00  0.00     0.074 A 
ATOM     48  C   UNL A   1      38.429  33.210  32.822  1.00  0.00     0.049 A 
ATOM     49  N   UNL A   1      39.501  30.812  31.352  1.00  0.00    -0.248 NA
ATOM     50  C   UNL A   1      38.040  31.315  29.601  1.00  0.00     0.031 C 
ATOM     51  C   UNL A   1      37.972  34.376  33.572  1.00  0.00     0.029 A 
ATOM     52  N   UNL A   1      39.446  32.693  33.590  1.00  0.00    -0.354 N 
ATOM     53  C   UNL A   1      39.690  29.901  30.320  1.00  0.00     0.074 A 
ATOM     54  C   UNL A   1      38.750  30.246  29.275  1.00  0.00     0.031 C 
ATOM     55  C   UNL A   1      38.698  34.482  34.700  1.00  0.00     0.029 A 
ATOM     56  C   UNL A   1      39.642  33.366  34.771  1.00  0.00     0.049 A 
ATOM     57  H   UNL A   1      39.982  31.913  33.319  1.00  0.00     0.167 HD
ATOM     58  C   UNL A   1      40.566  28.870  30.249  1.00  0.00     0.037 A 
ATOM     59  C   UNL A   1      40.466  33.094  35.804  1.00  0.00     0.037 A 
ATOM     60  C   UNL A   1      41.505  28.524  31.284  1.00  0.00     0.049 A 
ATOM     61  C   UNL A   1      41.367  31.885  35.741  1.00  0.00     0.074 A 
ATOM     62  C   UNL A   1      42.428  27.492  31.304  1.00  0.00     0.029 A 
ATOM     63  N   UNL A   1      41.637  29.200  32.488  1.00  0.00    -0.354 N 
ATOM     64  N   UNL A   1      41.531  31.020  34.769  1.00  0.00    -0.248 NA
ATOM     65  C   UNL A   1      42.191  31.608  36.928  1.00  0.00     0.031 C 
ATOM     66  C   UNL A   1      43.084  27.515  32.538  1.00  0.00     0.029 A 
ATOM     67  C   UNL A   1      42.609  28.592  33.266  1.00  0.00     0.049 A 
ATOM     68  H   UNL A   1      41.117  29.994  32.749  1.00  0.00     0.167 HD
ATOM     69  C   UNL A   1      42.493  30.120  35.214  1.00  0.00     0.074 A 
ATOM     70  C   UNL A   1      42.886  30.549  36.538  1.00  0.00     0.031 C 
ATOM     71  C   UNL A   1      43.002  29.035  34.580  1.00  0.00     0.037 A 
BRANCH  58  72
ATOM     72  C   UNL A   1      40.518  28.008  29.022  1.00  0.00     0.064 A 
ATOM     73  C   UNL A   1      41.266  28.312  27.876  1.00  0.00     0.173 A 
ATOM     74  C   UNL A   1      39.730  26.848  29.005  1.00  0.00     0.173 A 
ATOM     75  F   UNL A   1      42.022  29.419  27.836  1.00  0.00    -0.203 F 
ATOM     76  C   UNL A   1      41.205  27.498  26.746  1.00  0.00     0.198 A 
ATOM     77  C   UNL A   1      39.693  26.022  27.885  1.00  0.00     0.198 A 
ATOM     78  F   UNL A   1      38.999  26.511  30.079  1.00  0.00    -0.203 F 
ATOM     79  F   UNL A   1      41.890  27.833  25.644  1.00  0.00    -0.200 F 
ATOM     80  C   UNL A   1      40.423  26.353  26.754  1.00  0.00     0.200 A 
ATOM     81  F   UNL A   1      38.945  24.910  27.899  1.00  0.00    -0.200 F 
ATOM     82  F   UNL A   1      40.369  25.569  25.668  1.00  0.00    -0.200 F 
ENDBRANCH  58  72
BRANCH  59  83
ATOM     83  C   UNL A   1      40.463  33.962  37.012  1.00  0.00     0.064 A 
ATOM     84  C   UNL A   1      41.383  35.011  37.153  1.00  0.00     0.173 A 
ATOM     85  C   UNL A   1      39.570  33.732  38.070  1.00  0.00     0.173 A 
ATOM     86  F   UNL A   1      42.281  35.247  36.186  1.00  0.00    -0.203 F 
ATOM     87  C   UNL A   1      41.421  35.785  38.312  1.00  0.00     0.198 A 
ATOM     88  C   UNL A   1      39.589  34.526  39.215  1.00  0.00     0.198 A 
ATOM     89  F   UNL A   1      38.679  32.733  37.991  1.00  0.00    -0.203 F 
ATOM     90  F   UNL A   1      42.346  36.745  38.443  1.00  0.00    -0.200 F 
ATOM     91  C   UNL A   1      40.520  35.546  39.339  1.00  0.00     0.200 A 
ATOM     92  F   UNL A   1      38.715  34.293  40.203  1.00  0.00    -0.200 F 
ATOM     93  F   UNL A   1      40.560  36.287  40.454  1.00  0.00    -0.200 F 
ENDBRANCH  59  83
BRANCH  71  94
ATOM     94  C   UNL A   1      44.072  28.254  35.289  1.00  0.00     0.064 A 
ATOM     95  C   UNL A   1      45.434  28.517  35.085  1.00  0.00     0.173 A 
ATOM     96  C   UNL A   1      43.726  27.264  36.222  1.00  0.00     0.173 A 
ATOM     97  F   UNL A   1      45.818  29.443  34.194  1.00  0.00    -0.203 F 
ATOM     98  C   UNL A   1      46.411  27.801  35.775  1.00  0.00     0.198 A 
ATOM     99  C   UNL A   1      44.704  26.572  36.930  1.00  0.00     0.198 A 
ATOM    100  F   UNL A   1      42.437  26.981  36.461  1.00  0.00    -0.203 F 
ATOM    101  F   UNL A   1      47.708  28.039  35.533  1.00  0.00    -0.200 F 
ATOM    102  C   UNL A   1      46.046  26.835  36.701  1.00  0.00     0.200 A 
ATOM    103  F   UNL A   1      44.349  25.648  37.834  1.00  0.00    -0.200 F 
ATOM    104  F   UNL A   1      46.988  26.155  37.368  1.00  0.00    -0.200 F 
ENDBRANCH  71  94
ENDBRANCH  45  46
ENDBRANCH  38  40
ENDBRANCH  37  38
ENDBRANCH  36  37
ENDBRANCH  35  36
ENDBRANCH  34  35
ENDBRANCH  33  34
ENDBRANCH   1  33
TORSDOF 20
ENDMDL
