MODEL 1
REMARK VINA RESULT:     -11.6      0.000      0.000
REMARK SMILES C[C@@H](C(=O)OCCOCCOCCOC(=O)c1ccc(-c2c3nc(c(-c4c(F)c(F)c(F)c(F)c4F)c4ccc([nH]4)c(-c4c(F)c(F)c(F)c(F)c4F)c4nc(c(-c5c(F)c(F)c(F)c(F)c5F)c5ccc2[nH]5)C=C4)C=C3)cc1)c1ccc(-c2ccc3[nH]ccc3c2)cc1
REMARK SMILES IDX 9 1 8 2 7 3 6 4 5 5 3 6 4 7 2 8 1 9 80 10 81 11 94 12 82 13
REMARK SMILES IDX 93 14 83 15 84 16 85 17 92 18 86 19 91 20 87 21 90 22 88 23
REMARK SMILES IDX 89 24 10 26 11 27 12 28 13 29 14 30 15 31 16 32 17 33 18 34
REMARK SMILES IDX 79 35 19 36 78 37 20 38 21 39 22 40 72 41 23 42 77 43 71 44
REMARK SMILES IDX 73 45 24 46 76 47 70 48 69 49 25 51 57 52 37 53 56 54 38 55
REMARK SMILES IDX 41 56 55 57 74 58 39 59 40 60 54 62 75 63 42 64 26 65 27 66
REMARK SMILES IDX 35 67 28 68 29 69 33 70 36 71 30 72 31 73 34 74 32 75 58 76
REMARK SMILES IDX 59 77 67 78 60 79 61 80 65 81 68 82 62 83 63 84 66 85 64 86
REMARK SMILES IDX 43 87 44 88 52 89 45 90 46 91 50 92 53 93 47 94 48 95 51 96
REMARK SMILES IDX 49 97
REMARK H PARENT 88 25 73 50 41 61
REMARK Flexibility Score: inf
ROOT
ATOM      1  C   UNL A   1      32.486  22.659  27.185  1.00  0.00     0.188 C 
ENDROOT
BRANCH   1   2
ATOM      2  O   UNL A   1      31.565  23.697  27.485  1.00  0.00    -0.376 OA
BRANCH   2   3
ATOM      3  C   UNL A   1      31.329  24.712  26.513  1.00  0.00     0.202 C 
BRANCH   3   4
ATOM      4  C   UNL A   1      32.004  26.094  26.630  1.00  0.00     0.261 C 
BRANCH   4   5
ATOM      5  O   UNL A   1      32.755  26.512  25.471  1.00  0.00    -0.463 OA
BRANCH   5   6
ATOM      6  C   UNL A   1      32.063  27.150  24.489  1.00  0.00     0.313 C 
ATOM      7  O   UNL A   1      31.371  28.144  24.689  1.00  0.00    -0.252 OA
BRANCH   6   8
ATOM      8  C   UNL A   1      32.264  26.552  23.080  1.00  0.00     0.126 C 
ATOM      9  C   UNL A   1      31.389  27.205  21.995  1.00  0.00     0.025 C 
BRANCH   8  10
ATOM     10  C   UNL A   1      32.346  25.014  23.035  1.00  0.00    -0.034 A 
ATOM     11  C   UNL A   1      31.184  24.229  23.136  1.00  0.00     0.005 A 
ATOM     12  C   UNL A   1      33.574  24.326  23.042  1.00  0.00     0.005 A 
ATOM     13  C   UNL A   1      31.244  22.834  23.258  1.00  0.00     0.009 A 
ATOM     14  C   UNL A   1      33.633  22.924  23.168  1.00  0.00     0.009 A 
ATOM     15  C   UNL A   1      32.469  22.161  23.296  1.00  0.00    -0.018 A 
BRANCH  15  16
ATOM     16  C   UNL A   1      32.509  20.698  23.418  1.00  0.00    -0.018 A 
ATOM     17  C   UNL A   1      32.154  19.913  22.317  1.00  0.00     0.011 A 
ATOM     18  C   UNL A   1      32.860  20.053  24.623  1.00  0.00     0.019 A 
ATOM     19  C   UNL A   1      32.172  18.518  22.361  1.00  0.00     0.027 A 
ATOM     20  C   UNL A   1      32.806  18.641  24.714  1.00  0.00    -0.000 A 
ATOM     21  C   UNL A   1      32.480  17.913  23.574  1.00  0.00     0.045 A 
ATOM     22  C   UNL A   1      32.993  17.693  25.759  1.00  0.00     0.028 A 
ATOM     23  N   UNL A   1      32.528  16.577  23.901  1.00  0.00    -0.361 N 
ATOM     24  C   UNL A   1      32.779  16.436  25.238  1.00  0.00     0.083 A 
ATOM     25  H   UNL A   1      32.401  15.835  23.267  1.00  0.00     0.166 HD
ENDBRANCH  15  16
ENDBRANCH   8  10
ENDBRANCH   6   8
ENDBRANCH   5   6
ENDBRANCH   4   5
ENDBRANCH   3   4
ENDBRANCH   2   3
ENDBRANCH   1   2
BRANCH   1  26
ATOM     26  C   UNL A   1      33.951  23.031  26.907  1.00  0.00     0.188 C 
BRANCH  26  27
ATOM     27  O   UNL A   1      34.828  21.949  26.711  1.00  0.00    -0.376 OA
BRANCH  27  28
ATOM     28  C   UNL A   1      35.910  22.070  25.804  1.00  0.00     0.202 C 
BRANCH  28  29
ATOM     29  C   UNL A   1      36.993  20.996  25.575  1.00  0.00     0.261 C 
BRANCH  29  30
ATOM     30  O   UNL A   1      38.313  21.416  25.217  1.00  0.00    -0.460 OA
BRANCH  30  31
ATOM     31  C   UNL A   1      39.300  21.187  26.112  1.00  0.00     0.338 C 
ATOM     32  O   UNL A   1      39.867  20.129  26.339  1.00  0.00    -0.246 OA
BRANCH  31  33
ATOM     33  C   UNL A   1      39.721  22.499  26.643  1.00  0.00     0.060 A 
ATOM     34  C   UNL A   1      39.041  23.662  26.253  1.00  0.00     0.016 A 
ATOM     35  C   UNL A   1      40.786  22.569  27.543  1.00  0.00     0.016 A 
ATOM     36  C   UNL A   1      39.439  24.904  26.752  1.00  0.00     0.010 A 
ATOM     37  C   UNL A   1      41.199  23.812  28.021  1.00  0.00     0.010 A 
ATOM     38  C   UNL A   1      40.547  24.987  27.608  1.00  0.00    -0.014 A 
BRANCH  38  39
ATOM     39  C   UNL A   1      41.155  26.300  27.933  1.00  0.00     0.031 A 
ATOM     40  C   UNL A   1      42.504  26.616  27.353  1.00  0.00     0.074 A 
ATOM     41  C   UNL A   1      40.540  27.167  28.755  1.00  0.00     0.049 A 
ATOM     42  N   UNL A   1      43.234  27.693  27.478  1.00  0.00    -0.248 NA
ATOM     43  C   UNL A   1      43.128  25.556  26.543  1.00  0.00     0.031 C 
ATOM     44  C   UNL A   1      39.222  26.964  29.348  1.00  0.00     0.029 A 
ATOM     45  N   UNL A   1      40.917  28.418  29.189  1.00  0.00    -0.354 N 
ATOM     46  C   UNL A   1      44.427  27.414  26.823  1.00  0.00     0.074 A 
ATOM     47  C   UNL A   1      44.315  26.078  26.283  1.00  0.00     0.031 C 
ATOM     48  C   UNL A   1      38.854  28.089  29.983  1.00  0.00     0.029 A 
ATOM     49  C   UNL A   1      39.926  29.080  29.880  1.00  0.00     0.049 A 
ATOM     50  H   UNL A   1      41.809  28.801  29.022  1.00  0.00     0.167 HD
ATOM     51  C   UNL A   1      45.527  28.196  26.714  1.00  0.00     0.037 A 
ATOM     52  C   UNL A   1      39.875  30.362  30.301  1.00  0.00     0.037 A 
ATOM     53  C   UNL A   1      45.615  29.534  27.238  1.00  0.00     0.049 A 
ATOM     54  C   UNL A   1      41.077  31.251  30.067  1.00  0.00     0.074 A 
ATOM     55  C   UNL A   1      46.679  30.415  27.179  1.00  0.00     0.029 A 
ATOM     56  N   UNL A   1      44.594  30.181  27.918  1.00  0.00    -0.354 N 
ATOM     57  N   UNL A   1      42.169  31.013  29.378  1.00  0.00    -0.248 NA
ATOM     58  C   UNL A   1      41.037  32.591  30.671  1.00  0.00     0.031 C 
ATOM     59  C   UNL A   1      46.323  31.572  27.878  1.00  0.00     0.029 A 
ATOM     60  C   UNL A   1      45.013  31.440  28.311  1.00  0.00     0.049 A 
ATOM     61  H   UNL A   1      43.703  29.801  28.095  1.00  0.00     0.167 HD
ATOM     62  C   UNL A   1      42.943  32.164  29.473  1.00  0.00     0.074 A 
ATOM     63  C   UNL A   1      42.157  33.131  30.211  1.00  0.00     0.031 C 
ATOM     64  C   UNL A   1      44.204  32.395  29.027  1.00  0.00     0.037 A 
BRANCH  51  65
ATOM     65  C   UNL A   1      46.746  27.599  26.071  1.00  0.00     0.064 A 
ATOM     66  C   UNL A   1      46.966  27.646  24.687  1.00  0.00     0.173 A 
ATOM     67  C   UNL A   1      47.725  26.984  26.869  1.00  0.00     0.173 A 
ATOM     68  F   UNL A   1      46.055  28.203  23.876  1.00  0.00    -0.203 F 
ATOM     69  C   UNL A   1      48.108  27.078  24.124  1.00  0.00     0.198 A 
ATOM     70  C   UNL A   1      48.880  26.449  26.308  1.00  0.00     0.198 A 
ATOM     71  F   UNL A   1      47.563  26.910  28.200  1.00  0.00    -0.203 F 
ATOM     72  F   UNL A   1      48.273  27.087  22.795  1.00  0.00    -0.200 F 
ATOM     73  C   UNL A   1      49.067  26.488  24.935  1.00  0.00     0.200 A 
ATOM     74  F   UNL A   1      49.811  25.893  27.097  1.00  0.00    -0.200 F 
ATOM     75  F   UNL A   1      50.169  25.953  24.393  1.00  0.00    -0.200 F 
ENDBRANCH  51  65
BRANCH  52  76
ATOM     76  C   UNL A   1      38.616  30.925  30.876  1.00  0.00     0.064 A 
ATOM     77  C   UNL A   1      38.409  30.932  32.267  1.00  0.00     0.173 A 
ATOM     78  C   UNL A   1      37.594  31.459  30.077  1.00  0.00     0.173 A 
ATOM     79  F   UNL A   1      39.329  30.397  33.083  1.00  0.00    -0.203 F 
ATOM     80  C   UNL A   1      37.233  31.430  32.827  1.00  0.00     0.198 A 
ATOM     81  C   UNL A   1      36.440  32.003  30.641  1.00  0.00     0.198 A 
ATOM     82  F   UNL A   1      37.718  31.466  28.741  1.00  0.00    -0.203 F 
ATOM     83  F   UNL A   1      37.040  31.354  34.151  1.00  0.00    -0.200 F 
ATOM     84  C   UNL A   1      36.256  31.980  32.015  1.00  0.00     0.200 A 
ATOM     85  F   UNL A   1      35.504  32.547  29.850  1.00  0.00    -0.200 F 
ATOM     86  F   UNL A   1      35.129  32.469  32.552  1.00  0.00    -0.200 F 
ENDBRANCH  52  76
BRANCH  64  87
ATOM     87  C   UNL A   1      44.817  33.738  29.326  1.00  0.00     0.064 A 
ATOM     88  C   UNL A   1      45.666  33.926  30.428  1.00  0.00     0.173 A 
ATOM     89  C   UNL A   1      44.608  34.828  28.469  1.00  0.00     0.173 A 
ATOM     90  F   UNL A   1      45.900  32.917  31.282  1.00  0.00    -0.203 F 
ATOM     91  C   UNL A   1      46.251  35.164  30.682  1.00  0.00     0.198 A 
ATOM     92  C   UNL A   1      45.227  36.055  28.704  1.00  0.00     0.198 A 
ATOM     93  F   UNL A   1      43.819  34.702  27.392  1.00  0.00    -0.203 F 
ATOM     94  F   UNL A   1      47.012  35.331  31.772  1.00  0.00    -0.200 F 
ATOM     95  C   UNL A   1      46.038  36.224  29.814  1.00  0.00     0.200 A 
ATOM     96  F   UNL A   1      45.037  37.073  27.853  1.00  0.00    -0.200 F 
ATOM     97  F   UNL A   1      46.612  37.411  30.053  1.00  0.00    -0.200 F 
ENDBRANCH  64  87
ENDBRANCH  38  39
ENDBRANCH  31  33
ENDBRANCH  30  31
ENDBRANCH  29  30
ENDBRANCH  28  29
ENDBRANCH  27  28
ENDBRANCH  26  27
ENDBRANCH   1  26
TORSDOF 19
ENDMDL
MODEL 2
REMARK VINA RESULT:     -11.6      6.005     12.088
REMARK SMILES C[C@@H](C(=O)OCCOCCOCCOC(=O)c1ccc(-c2c3nc(c(-c4c(F)c(F)c(F)c(F)c4F)c4ccc([nH]4)c(-c4c(F)c(F)c(F)c(F)c4F)c4nc(c(-c5c(F)c(F)c(F)c(F)c5F)c5ccc2[nH]5)C=C4)C=C3)cc1)c1ccc(-c2ccc3[nH]ccc3c2)cc1
REMARK SMILES IDX 9 1 8 2 7 3 6 4 5 5 3 6 4 7 2 8 1 9 80 10 81 11 94 12 82 13
REMARK SMILES IDX 93 14 83 15 84 16 85 17 92 18 86 19 91 20 87 21 90 22 88 23
REMARK SMILES IDX 89 24 10 26 11 27 12 28 13 29 14 30 15 31 16 32 17 33 18 34
REMARK SMILES IDX 79 35 19 36 78 37 20 38 21 39 22 40 72 41 23 42 77 43 71 44
REMARK SMILES IDX 73 45 24 46 76 47 70 48 69 49 25 51 57 52 37 53 56 54 38 55
REMARK SMILES IDX 41 56 55 57 74 58 39 59 40 60 54 62 75 63 42 64 26 65 27 66
REMARK SMILES IDX 35 67 28 68 29 69 33 70 36 71 30 72 31 73 34 74 32 75 58 76
REMARK SMILES IDX 59 77 67 78 60 79 61 80 65 81 68 82 62 83 63 84 66 85 64 86
REMARK SMILES IDX 43 87 44 88 52 89 45 90 46 91 50 92 53 93 47 94 48 95 51 96
REMARK SMILES IDX 49 97
REMARK H PARENT 88 25 73 50 41 61
REMARK Flexibility Score: inf
ROOT
ATOM      1  C   UNL A   1      32.948  36.537  30.582  1.00  0.00     0.188 C 
ENDROOT
BRANCH   1   2
ATOM      2  O   UNL A   1      33.484  35.691  31.588  1.00  0.00    -0.376 OA
BRANCH   2   3
ATOM      3  C   UNL A   1      34.254  36.270  32.638  1.00  0.00     0.202 C 
BRANCH   3   4
ATOM      4  C   UNL A   1      34.653  35.443  33.876  1.00  0.00     0.261 C 
BRANCH   4   5
ATOM      5  O   UNL A   1      34.500  34.015  33.739  1.00  0.00    -0.463 OA
BRANCH   5   6
ATOM      6  C   UNL A   1      35.626  33.262  33.860  1.00  0.00     0.313 C 
ATOM      7  O   UNL A   1      36.209  33.089  34.926  1.00  0.00    -0.252 OA
BRANCH   6   8
ATOM      8  C   UNL A   1      36.085  32.592  32.548  1.00  0.00     0.126 C 
ATOM      9  C   UNL A   1      36.126  31.055  32.612  1.00  0.00     0.025 C 
BRANCH   8  10
ATOM     10  C   UNL A   1      37.293  33.264  31.866  1.00  0.00    -0.034 A 
ATOM     11  C   UNL A   1      37.441  33.227  30.469  1.00  0.00     0.005 A 
ATOM     12  C   UNL A   1      38.365  33.808  32.599  1.00  0.00     0.005 A 
ATOM     13  C   UNL A   1      38.605  33.688  29.837  1.00  0.00     0.009 A 
ATOM     14  C   UNL A   1      39.534  34.268  31.965  1.00  0.00     0.009 A 
ATOM     15  C   UNL A   1      39.678  34.197  30.575  1.00  0.00    -0.018 A 
BRANCH  15  16
ATOM     16  C   UNL A   1      40.886  34.680  29.893  1.00  0.00    -0.018 A 
ATOM     17  C   UNL A   1      42.127  34.527  30.518  1.00  0.00     0.011 A 
ATOM     18  C   UNL A   1      40.835  35.327  28.642  1.00  0.00     0.019 A 
ATOM     19  C   UNL A   1      43.316  34.960  29.928  1.00  0.00     0.027 A 
ATOM     20  C   UNL A   1      42.017  35.847  28.062  1.00  0.00    -0.000 A 
ATOM     21  C   UNL A   1      43.228  35.632  28.715  1.00  0.00     0.045 A 
ATOM     22  C   UNL A   1      42.315  36.613  26.900  1.00  0.00     0.028 A 
ATOM     23  N   UNL A   1      44.223  36.192  27.948  1.00  0.00    -0.361 N 
ATOM     24  C   UNL A   1      43.674  36.842  26.877  1.00  0.00     0.083 A 
ATOM     25  H   UNL A   1      45.187  36.135  28.142  1.00  0.00     0.166 HD
ENDBRANCH  15  16
ENDBRANCH   8  10
ENDBRANCH   6   8
ENDBRANCH   5   6
ENDBRANCH   4   5
ENDBRANCH   3   4
ENDBRANCH   2   3
ENDBRANCH   1   2
BRANCH   1  26
ATOM     26  C   UNL A   1      32.882  36.016  29.137  1.00  0.00     0.188 C 
BRANCH  26  27
ATOM     27  O   UNL A   1      34.090  36.056  28.418  1.00  0.00    -0.376 OA
BRANCH  27  28
ATOM     28  C   UNL A   1      34.902  34.899  28.332  1.00  0.00     0.202 C 
BRANCH  28  29
ATOM     29  C   UNL A   1      34.373  33.450  28.306  1.00  0.00     0.261 C 
BRANCH  29  30
ATOM     30  O   UNL A   1      35.143  32.450  27.631  1.00  0.00    -0.460 OA
BRANCH  30  31
ATOM     31  C   UNL A   1      34.776  31.161  27.808  1.00  0.00     0.338 C 
ATOM     32  O   UNL A   1      33.695  30.654  27.553  1.00  0.00    -0.246 OA
BRANCH  31  33
ATOM     33  C   UNL A   1      35.989  30.410  28.191  1.00  0.00     0.060 A 
ATOM     34  C   UNL A   1      36.008  29.674  29.384  1.00  0.00     0.016 A 
ATOM     35  C   UNL A   1      37.104  30.428  27.352  1.00  0.00     0.016 A 
ATOM     36  C   UNL A   1      37.155  28.966  29.750  1.00  0.00     0.010 A 
ATOM     37  C   UNL A   1      38.258  29.742  27.730  1.00  0.00     0.010 A 
ATOM     38  C   UNL A   1      38.298  29.031  28.942  1.00  0.00    -0.014 A 
BRANCH  38  39
ATOM     39  C   UNL A   1      39.601  28.520  29.433  1.00  0.00     0.031 A 
ATOM     40  C   UNL A   1      40.204  29.173  30.645  1.00  0.00     0.074 A 
ATOM     41  C   UNL A   1      40.248  27.532  28.792  1.00  0.00     0.049 A 
ATOM     42  N   UNL A   1      41.319  28.901  31.270  1.00  0.00    -0.248 NA
ATOM     43  C   UNL A   1      39.455  30.308  31.211  1.00  0.00     0.031 C 
ATOM     44  C   UNL A   1      39.737  26.820  27.625  1.00  0.00     0.029 A 
ATOM     45  N   UNL A   1      41.448  26.916  29.066  1.00  0.00    -0.354 N 
ATOM     46  C   UNL A   1      41.439  29.872  32.257  1.00  0.00     0.074 A 
ATOM     47  C   UNL A   1      40.275  30.724  32.162  1.00  0.00     0.031 C 
ATOM     48  C   UNL A   1      40.564  25.799  27.343  1.00  0.00     0.029 A 
ATOM     49  C   UNL A   1      41.687  25.808  28.281  1.00  0.00     0.049 A 
ATOM     50  H   UNL A   1      42.075  27.236  29.754  1.00  0.00     0.167 HD
ATOM     51  C   UNL A   1      42.451  30.051  33.139  1.00  0.00     0.037 A 
ATOM     52  C   UNL A   1      42.659  24.875  28.377  1.00  0.00     0.037 A 
ATOM     53  C   UNL A   1      43.594  29.182  33.235  1.00  0.00     0.049 A 
ATOM     54  C   UNL A   1      43.718  25.038  29.445  1.00  0.00     0.074 A 
ATOM     55  C   UNL A   1      44.674  29.268  34.095  1.00  0.00     0.029 A 
ATOM     56  N   UNL A   1      43.801  28.063  32.441  1.00  0.00    -0.354 N 
ATOM     57  N   UNL A   1      43.787  25.908  30.427  1.00  0.00    -0.248 NA
ATOM     58  C   UNL A   1      44.837  24.084  29.419  1.00  0.00     0.031 C 
ATOM     59  C   UNL A   1      45.564  28.237  33.779  1.00  0.00     0.029 A 
ATOM     60  C   UNL A   1      45.006  27.467  32.770  1.00  0.00     0.049 A 
ATOM     61  H   UNL A   1      43.182  27.742  31.746  1.00  0.00     0.167 HD
ATOM     62  C   UNL A   1      44.952  25.610  31.124  1.00  0.00     0.074 A 
ATOM     63  C   UNL A   1      45.513  24.426  30.507  1.00  0.00     0.031 C 
ATOM     64  C   UNL A   1      45.533  26.275  32.156  1.00  0.00     0.037 A 
BRANCH  51  65
ATOM     65  C   UNL A   1      42.406  31.271  34.013  1.00  0.00     0.064 A 
ATOM     66  C   UNL A   1      43.025  32.477  33.656  1.00  0.00     0.173 A 
ATOM     67  C   UNL A   1      41.705  31.231  35.231  1.00  0.00     0.173 A 
ATOM     68  F   UNL A   1      43.724  32.566  32.515  1.00  0.00    -0.203 F 
ATOM     69  C   UNL A   1      42.965  33.589  34.494  1.00  0.00     0.198 A 
ATOM     70  C   UNL A   1      41.618  32.353  36.049  1.00  0.00     0.198 A 
ATOM     71  F   UNL A   1      41.096  30.101  35.623  1.00  0.00    -0.203 F 
ATOM     72  F   UNL A   1      43.608  34.715  34.157  1.00  0.00    -0.200 F 
ATOM     73  C   UNL A   1      42.255  33.529  35.685  1.00  0.00     0.200 A 
ATOM     74  F   UNL A   1      40.919  32.294  37.191  1.00  0.00    -0.200 F 
ATOM     75  F   UNL A   1      42.190  34.601  36.484  1.00  0.00    -0.200 F 
ENDBRANCH  51  65
BRANCH  52  76
ATOM     76  C   UNL A   1      42.622  23.647  27.527  1.00  0.00     0.064 A 
ATOM     77  C   UNL A   1      42.041  22.462  28.012  1.00  0.00     0.173 A 
ATOM     78  C   UNL A   1      43.158  23.609  26.231  1.00  0.00     0.173 A 
ATOM     79  F   UNL A   1      41.548  22.420  29.260  1.00  0.00    -0.203 F 
ATOM     80  C   UNL A   1      42.014  21.296  27.248  1.00  0.00     0.198 A 
ATOM     81  C   UNL A   1      43.086  22.457  25.449  1.00  0.00     0.198 A 
ATOM     82  F   UNL A   1      43.744  24.699  25.714  1.00  0.00    -0.203 F 
ATOM     83  F   UNL A   1      41.518  20.166  27.771  1.00  0.00    -0.200 F 
ATOM     84  C   UNL A   1      42.524  21.298  25.961  1.00  0.00     0.200 A 
ATOM     85  F   UNL A   1      43.568  22.470  24.198  1.00  0.00    -0.200 F 
ATOM     86  F   UNL A   1      42.490  20.181  25.221  1.00  0.00    -0.200 F 
ENDBRANCH  52  76
BRANCH  64  87
ATOM     87  C   UNL A   1      46.841  25.744  32.681  1.00  0.00     0.064 A 
ATOM     88  C   UNL A   1      48.070  26.167  32.149  1.00  0.00     0.173 A 
ATOM     89  C   UNL A   1      46.871  24.856  33.767  1.00  0.00     0.173 A 
ATOM     90  F   UNL A   1      48.100  27.014  31.109  1.00  0.00    -0.203 F 
ATOM     91  C   UNL A   1      49.275  25.692  32.660  1.00  0.00     0.198 A 
ATOM     92  C   UNL A   1      48.080  24.414  34.300  1.00  0.00     0.198 A 
ATOM     93  F   UNL A   1      45.728  24.430  34.325  1.00  0.00    -0.203 F 
ATOM     94  F   UNL A   1      50.432  26.070  32.097  1.00  0.00    -0.200 F 
ATOM     95  C   UNL A   1      49.279  24.824  33.740  1.00  0.00     0.200 A 
ATOM     96  F   UNL A   1      48.083  23.591  35.358  1.00  0.00    -0.200 F 
ATOM     97  F   UNL A   1      50.441  24.378  34.238  1.00  0.00    -0.200 F 
ENDBRANCH  64  87
ENDBRANCH  38  39
ENDBRANCH  31  33
ENDBRANCH  30  31
ENDBRANCH  29  30
ENDBRANCH  28  29
ENDBRANCH  27  28
ENDBRANCH  26  27
ENDBRANCH   1  26
TORSDOF 19
ENDMDL
MODEL 3
REMARK VINA RESULT:     -11.5      6.075     10.667
REMARK SMILES C[C@@H](C(=O)OCCOCCOCCOC(=O)c1ccc(-c2c3nc(c(-c4c(F)c(F)c(F)c(F)c4F)c4ccc([nH]4)c(-c4c(F)c(F)c(F)c(F)c4F)c4nc(c(-c5c(F)c(F)c(F)c(F)c5F)c5ccc2[nH]5)C=C4)C=C3)cc1)c1ccc(-c2ccc3[nH]ccc3c2)cc1
REMARK SMILES IDX 9 1 8 2 7 3 6 4 5 5 3 6 4 7 2 8 1 9 80 10 81 11 94 12 82 13
REMARK SMILES IDX 93 14 83 15 84 16 85 17 92 18 86 19 91 20 87 21 90 22 88 23
REMARK SMILES IDX 89 24 10 26 11 27 12 28 13 29 14 30 15 31 16 32 17 33 18 34
REMARK SMILES IDX 79 35 19 36 78 37 20 38 21 39 22 40 72 41 23 42 77 43 71 44
REMARK SMILES IDX 73 45 24 46 76 47 70 48 69 49 25 51 57 52 37 53 56 54 38 55
REMARK SMILES IDX 41 56 55 57 74 58 39 59 40 60 54 62 75 63 42 64 26 65 27 66
REMARK SMILES IDX 35 67 28 68 29 69 33 70 36 71 30 72 31 73 34 74 32 75 58 76
REMARK SMILES IDX 59 77 67 78 60 79 61 80 65 81 68 82 62 83 63 84 66 85 64 86
REMARK SMILES IDX 43 87 44 88 52 89 45 90 46 91 50 92 53 93 47 94 48 95 51 96
REMARK SMILES IDX 49 97
REMARK H PARENT 88 25 73 50 41 61
REMARK Flexibility Score: inf
ROOT
ATOM      1  C   UNL A   1      33.206  36.831  30.259  1.00  0.00     0.188 C 
ENDROOT
BRANCH   1   2
ATOM      2  O   UNL A   1      32.723  37.336  31.494  1.00  0.00    -0.376 OA
BRANCH   2   3
ATOM      3  C   UNL A   1      33.652  37.595  32.544  1.00  0.00     0.202 C 
BRANCH   3   4
ATOM      4  C   UNL A   1      34.036  36.494  33.552  1.00  0.00     0.261 C 
BRANCH   4   5
ATOM      5  O   UNL A   1      35.197  35.714  33.199  1.00  0.00    -0.463 OA
BRANCH   5   6
ATOM      6  C   UNL A   1      35.101  34.366  33.353  1.00  0.00     0.313 C 
ATOM      7  O   UNL A   1      34.051  33.745  33.213  1.00  0.00    -0.252 OA
BRANCH   6   8
ATOM      8  C   UNL A   1      36.441  33.667  33.668  1.00  0.00     0.126 C 
ATOM      9  C   UNL A   1      36.807  33.662  35.163  1.00  0.00     0.025 C 
BRANCH   8  10
ATOM     10  C   UNL A   1      37.592  34.006  32.700  1.00  0.00    -0.034 A 
ATOM     11  C   UNL A   1      37.437  33.836  31.314  1.00  0.00     0.005 A 
ATOM     12  C   UNL A   1      38.878  34.354  33.154  1.00  0.00     0.005 A 
ATOM     13  C   UNL A   1      38.514  33.984  30.427  1.00  0.00     0.009 A 
ATOM     14  C   UNL A   1      39.959  34.499  32.264  1.00  0.00     0.009 A 
ATOM     15  C   UNL A   1      39.796  34.298  30.890  1.00  0.00    -0.018 A 
BRANCH  15  16
ATOM     16  C   UNL A   1      40.909  34.454  29.944  1.00  0.00    -0.018 A 
ATOM     17  C   UNL A   1      42.091  33.741  30.162  1.00  0.00     0.011 A 
ATOM     18  C   UNL A   1      40.840  35.327  28.839  1.00  0.00     0.019 A 
ATOM     19  C   UNL A   1      43.188  33.838  29.303  1.00  0.00     0.027 A 
ATOM     20  C   UNL A   1      41.967  35.503  28.001  1.00  0.00    -0.000 A 
ATOM     21  C   UNL A   1      43.105  34.739  28.248  1.00  0.00     0.045 A 
ATOM     22  C   UNL A   1      42.277  36.342  26.894  1.00  0.00     0.028 A 
ATOM     23  N   UNL A   1      44.041  35.059  27.292  1.00  0.00    -0.361 N 
ATOM     24  C   UNL A   1      43.571  36.073  26.503  1.00  0.00     0.083 A 
ATOM     25  H   UNL A   1      44.918  34.623  27.190  1.00  0.00     0.166 HD
ENDBRANCH  15  16
ENDBRANCH   8  10
ENDBRANCH   6   8
ENDBRANCH   5   6
ENDBRANCH   4   5
ENDBRANCH   3   4
ENDBRANCH   2   3
ENDBRANCH   1   2
BRANCH   1  26
ATOM     26  C   UNL A   1      33.162  35.314  30.014  1.00  0.00     0.188 C 
BRANCH  26  27
ATOM     27  O   UNL A   1      32.533  34.905  28.825  1.00  0.00    -0.376 OA
BRANCH  27  28
ATOM     28  C   UNL A   1      33.141  33.925  28.002  1.00  0.00     0.202 C 
BRANCH  28  29
ATOM     29  C   UNL A   1      34.475  33.217  28.313  1.00  0.00     0.261 C 
BRANCH  29  30
ATOM     30  O   UNL A   1      34.961  32.232  27.396  1.00  0.00    -0.460 OA
BRANCH  30  31
ATOM     31  C   UNL A   1      34.691  30.937  27.677  1.00  0.00     0.338 C 
ATOM     32  O   UNL A   1      33.681  30.311  27.398  1.00  0.00    -0.246 OA
BRANCH  31  33
ATOM     33  C   UNL A   1      35.930  30.341  28.218  1.00  0.00     0.060 A 
ATOM     34  C   UNL A   1      35.896  29.646  29.436  1.00  0.00     0.016 A 
ATOM     35  C   UNL A   1      37.123  30.462  27.505  1.00  0.00     0.016 A 
ATOM     36  C   UNL A   1      37.066  29.085  29.952  1.00  0.00     0.010 A 
ATOM     37  C   UNL A   1      38.295  29.924  28.033  1.00  0.00     0.010 A 
ATOM     38  C   UNL A   1      38.279  29.256  29.270  1.00  0.00    -0.014 A 
BRANCH  38  39
ATOM     39  C   UNL A   1      39.567  28.912  29.919  1.00  0.00     0.031 A 
ATOM     40  C   UNL A   1      40.420  27.854  29.278  1.00  0.00     0.074 A 
ATOM     41  C   UNL A   1      39.945  29.496  31.069  1.00  0.00     0.049 A 
ATOM     42  N   UNL A   1      41.585  27.389  29.643  1.00  0.00    -0.248 NA
ATOM     43  C   UNL A   1      39.865  27.215  28.073  1.00  0.00     0.031 C 
ATOM     44  C   UNL A   1      39.201  30.547  31.755  1.00  0.00     0.029 A 
ATOM     45  N   UNL A   1      41.077  29.328  31.834  1.00  0.00    -0.354 N 
ATOM     46  C   UNL A   1      41.870  26.358  28.757  1.00  0.00     0.074 A 
ATOM     47  C   UNL A   1      40.768  26.281  27.823  1.00  0.00     0.031 C 
ATOM     48  C   UNL A   1      39.940  31.004  32.780  1.00  0.00     0.029 A 
ATOM     49  C   UNL A   1      41.192  30.251  32.851  1.00  0.00     0.049 A 
ATOM     50  H   UNL A   1      41.739  28.619  31.669  1.00  0.00     0.167 HD
ATOM     51  C   UNL A   1      42.942  25.530  28.748  1.00  0.00     0.037 A 
ATOM     52  C   UNL A   1      42.229  30.497  33.680  1.00  0.00     0.037 A 
ATOM     53  C   UNL A   1      44.042  25.634  29.670  1.00  0.00     0.049 A 
ATOM     54  C   UNL A   1      43.464  29.628  33.576  1.00  0.00     0.074 A 
ATOM     55  C   UNL A   1      45.180  24.852  29.747  1.00  0.00     0.029 A 
ATOM     56  N   UNL A   1      44.138  26.583  30.677  1.00  0.00    -0.354 N 
ATOM     57  N   UNL A   1      43.766  28.710  32.687  1.00  0.00    -0.248 NA
ATOM     58  C   UNL A   1      44.506  29.834  34.593  1.00  0.00     0.031 C 
ATOM     59  C   UNL A   1      45.934  25.289  30.840  1.00  0.00     0.029 A 
ATOM     60  C   UNL A   1      45.302  26.388  31.400  1.00  0.00     0.049 A 
ATOM     61  H   UNL A   1      43.476  27.291  30.851  1.00  0.00     0.167 HD
ATOM     62  C   UNL A   1      45.020  28.228  33.042  1.00  0.00     0.074 A 
ATOM     63  C   UNL A   1      45.462  29.016  34.174  1.00  0.00     0.031 C 
ATOM     64  C   UNL A   1      45.731  27.200  32.511  1.00  0.00     0.037 A 
BRANCH  51  65
ATOM     65  C   UNL A   1      42.940  24.398  27.762  1.00  0.00     0.064 A 
ATOM     66  C   UNL A   1      43.389  24.548  26.442  1.00  0.00     0.173 A 
ATOM     67  C   UNL A   1      42.497  23.126  28.162  1.00  0.00     0.173 A 
ATOM     68  F   UNL A   1      43.804  25.744  26.001  1.00  0.00    -0.203 F 
ATOM     69  C   UNL A   1      43.370  23.474  25.553  1.00  0.00     0.198 A 
ATOM     70  C   UNL A   1      42.512  22.049  27.282  1.00  0.00     0.198 A 
ATOM     71  F   UNL A   1      42.055  22.927  29.414  1.00  0.00    -0.203 F 
ATOM     72  F   UNL A   1      43.753  23.653  24.282  1.00  0.00    -0.200 F 
ATOM     73  C   UNL A   1      42.940  22.225  25.975  1.00  0.00     0.200 A 
ATOM     74  F   UNL A   1      42.110  20.839  27.698  1.00  0.00    -0.200 F 
ATOM     75  F   UNL A   1      42.933  21.192  25.122  1.00  0.00    -0.200 F 
ENDBRANCH  51  65
BRANCH  52  76
ATOM     76  C   UNL A   1      42.207  31.676  34.598  1.00  0.00     0.064 A 
ATOM     77  C   UNL A   1      41.647  31.568  35.884  1.00  0.00     0.173 A 
ATOM     78  C   UNL A   1      42.726  32.927  34.233  1.00  0.00     0.173 A 
ATOM     79  F   UNL A   1      41.095  30.410  36.278  1.00  0.00    -0.203 F 
ATOM     80  C   UNL A   1      41.593  32.659  36.750  1.00  0.00     0.198 A 
ATOM     81  C   UNL A   1      42.717  34.004  35.119  1.00  0.00     0.198 A 
ATOM     82  F   UNL A   1      43.258  33.105  33.014  1.00  0.00    -0.203 F 
ATOM     83  F   UNL A   1      40.986  32.537  37.939  1.00  0.00    -0.200 F 
ATOM     84  C   UNL A   1      42.141  33.873  36.373  1.00  0.00     0.200 A 
ATOM     85  F   UNL A   1      43.262  35.173  34.753  1.00  0.00    -0.200 F 
ATOM     86  F   UNL A   1      42.100  34.920  37.209  1.00  0.00    -0.200 F 
ENDBRANCH  52  76
BRANCH  64  87
ATOM     87  C   UNL A   1      47.055  26.865  33.145  1.00  0.00     0.064 A 
ATOM     88  C   UNL A   1      47.141  25.998  34.246  1.00  0.00     0.173 A 
ATOM     89  C   UNL A   1      48.253  27.359  32.608  1.00  0.00     0.173 A 
ATOM     90  F   UNL A   1      46.027  25.498  34.801  1.00  0.00    -0.203 F 
ATOM     91  C   UNL A   1      48.372  25.672  34.809  1.00  0.00     0.198 A 
ATOM     92  C   UNL A   1      49.486  26.998  33.149  1.00  0.00     0.198 A 
ATOM     93  F   UNL A   1      48.233  28.178  31.546  1.00  0.00    -0.203 F 
ATOM     94  F   UNL A   1      48.422  24.887  35.895  1.00  0.00    -0.200 F 
ATOM     95  C   UNL A   1      49.543  26.164  34.255  1.00  0.00     0.200 A 
ATOM     96  F   UNL A   1      50.618  27.458  32.599  1.00  0.00    -0.200 F 
ATOM     97  F   UNL A   1      50.728  25.838  34.790  1.00  0.00    -0.200 F 
ENDBRANCH  64  87
ENDBRANCH  38  39
ENDBRANCH  31  33
ENDBRANCH  30  31
ENDBRANCH  29  30
ENDBRANCH  28  29
ENDBRANCH  27  28
ENDBRANCH  26  27
ENDBRANCH   1  26
TORSDOF 19
ENDMDL
