MODEL 1
REMARK VINA RESULT:     -11.5      0.000      0.000
REMARK SMILES Cc1ccnc(C(=O)c2[nH]c3ccc(OC(F)(F)F)cc3c2CC(=O)OCCOCCOCCOC(=O)c2ccc(-c3c4nc(c(-c5c(F)c(F)c(F)c(F)c5F)c5ccc([nH]5)c(-c5c(F)c(F)c(F)c(F)c5F)c5nc(c(-c6c(F)c(F)c(F)c(F)c6F)c6ccc3[nH]6)C=C5)C=C4)cc2)c1
REMARK SMILES IDX 30 1 29 2 28 3 27 4 26 5 24 6 25 7 23 8 22 9 9 10 10 11
REMARK SMILES IDX 11 12 21 14 12 15 20 16 13 17 14 18 7 19 8 20 6 21 1 22 2 23
REMARK SMILES IDX 3 24 101 25 4 26 5 27 15 28 16 29 17 30 18 31 19 32 31 33
REMARK SMILES IDX 32 34 33 35 34 36 35 37 36 38 37 39 38 40 39 41 100 42 40 43
REMARK SMILES IDX 99 44 41 45 42 46 43 47 93 48 44 49 98 50 92 51 94 52 45 53
REMARK SMILES IDX 97 54 91 55 90 56 46 58 78 59 58 60 77 61 59 62 62 63 76 64
REMARK SMILES IDX 95 65 60 66 61 67 75 69 96 70 63 71 47 72 48 73 56 74 49 75
REMARK SMILES IDX 50 76 54 77 57 78 51 79 52 80 55 81 53 82 79 83 80 84 88 85
REMARK SMILES IDX 81 86 82 87 86 88 89 89 83 90 84 91 87 92 85 93 64 94 65 95
REMARK SMILES IDX 73 96 66 97 67 98 71 99 74 100 68 101 69 102 72 103 70 104
REMARK H PARENT 10 13 94 57 62 68
REMARK Flexibility Score: inf
ROOT
ATOM      1  C   UNL A   1      33.583  26.797  24.129  1.00  0.00     0.188 C 
ENDROOT
BRANCH   1   2
ATOM      2  O   UNL A   1      32.310  26.282  23.750  1.00  0.00    -0.376 OA
BRANCH   2   3
ATOM      3  C   UNL A   1      32.054  24.907  24.008  1.00  0.00     0.202 C 
BRANCH   3   4
ATOM      4  C   UNL A   1      31.171  24.631  25.226  1.00  0.00     0.261 C 
BRANCH   4   5
ATOM      5  O   UNL A   1      31.945  24.499  26.441  1.00  0.00    -0.463 OA
BRANCH   5   6
ATOM      6  C   UNL A   1      31.785  23.328  27.106  1.00  0.00     0.310 C 
ATOM      7  O   UNL A   1      30.716  22.970  27.598  1.00  0.00    -0.252 OA
BRANCH   6   8
ATOM      8  C   UNL A   1      33.002  22.427  27.183  1.00  0.00     0.161 C 
BRANCH   8   9
ATOM      9  C   UNL A   1      33.842  22.158  25.957  1.00  0.00     0.000 A 
ATOM     10  C   UNL A   1      33.732  21.085  25.062  1.00  0.00     0.093 A 
ATOM     11  N   UNL A   1      34.703  21.260  24.100  1.00  0.00    -0.352 N 
ATOM     12  C   UNL A   1      35.627  22.179  24.526  1.00  0.00     0.046 A 
ATOM     13  H   UNL A   1      34.729  20.795  23.233  1.00  0.00     0.167 HD
ATOM     14  C   UNL A   1      35.104  22.783  25.665  1.00  0.00     0.008 A 
ATOM     15  C   UNL A   1      36.884  22.494  24.004  1.00  0.00     0.030 A 
ATOM     16  C   UNL A   1      35.893  23.746  26.327  1.00  0.00     0.057 A 
ATOM     17  C   UNL A   1      37.671  23.404  24.717  1.00  0.00     0.049 A 
ATOM     18  C   UNL A   1      37.196  24.009  25.881  1.00  0.00     0.130 A 
BRANCH  10  19
ATOM     19  C   UNL A   1      32.804  19.968  25.085  1.00  0.00     0.227 C 
ATOM     20  O   UNL A   1      31.583  20.115  25.106  1.00  0.00    -0.285 OA
BRANCH  19  21
ATOM     21  C   UNL A   1      33.338  18.575  25.135  1.00  0.00     0.113 A 
ATOM     22  C   UNL A   1      32.154  15.035  25.746  1.00  0.00     0.044 C 
ATOM     23  C   UNL A   1      32.998  16.217  25.373  1.00  0.00    -0.047 A 
ATOM     24  C   UNL A   1      34.238  16.027  24.756  1.00  0.00     0.023 A 
ATOM     25  C   UNL A   1      32.527  17.524  25.550  1.00  0.00     0.036 A 
ATOM     26  C   UNL A   1      34.990  17.139  24.421  1.00  0.00     0.112 A 
ATOM     27  N   UNL A   1      34.581  18.408  24.625  1.00  0.00    -0.253 NA
ENDBRANCH  19  21
ENDBRANCH  10  19
BRANCH  18  28
ATOM     28  O   UNL A   1      37.902  24.862  26.683  1.00  0.00    -0.406 OA
BRANCH  28  29
ATOM     29  C   UNL A   1      39.193  24.443  27.094  1.00  0.00     0.573 C 
ATOM     30  F   UNL A   1      39.286  23.096  27.150  1.00  0.00    -0.132 F 
ATOM     31  F   UNL A   1      40.142  24.926  26.265  1.00  0.00    -0.132 F 
ATOM     32  F   UNL A   1      39.432  24.927  28.334  1.00  0.00    -0.132 F 
ENDBRANCH  28  29
ENDBRANCH  18  28
ENDBRANCH   8   9
ENDBRANCH   6   8
ENDBRANCH   5   6
ENDBRANCH   4   5
ENDBRANCH   3   4
ENDBRANCH   2   3
ENDBRANCH   1   2
BRANCH   1  33
ATOM     33  C   UNL A   1      33.625  27.935  25.170  1.00  0.00     0.188 C 
BRANCH  33  34
ATOM     34  O   UNL A   1      33.166  29.225  24.782  1.00  0.00    -0.376 OA
BRANCH  34  35
ATOM     35  C   UNL A   1      31.855  29.593  25.196  1.00  0.00     0.202 C 
BRANCH  35  36
ATOM     36  C   UNL A   1      31.836  30.726  26.215  1.00  0.00     0.261 C 
BRANCH  36  37
ATOM     37  O   UNL A   1      32.784  30.459  27.268  1.00  0.00    -0.460 OA
BRANCH  37  38
ATOM     38  C   UNL A   1      33.587  31.503  27.556  1.00  0.00     0.338 C 
ATOM     39  O   UNL A   1      33.263  32.676  27.632  1.00  0.00    -0.246 OA
BRANCH  38  40
ATOM     40  C   UNL A   1      34.973  31.054  27.803  1.00  0.00     0.060 A 
ATOM     41  C   UNL A   1      35.247  29.715  28.069  1.00  0.00     0.016 A 
ATOM     42  C   UNL A   1      35.963  32.013  28.016  1.00  0.00     0.016 A 
ATOM     43  C   UNL A   1      36.434  29.358  28.714  1.00  0.00     0.010 A 
ATOM     44  C   UNL A   1      37.192  31.636  28.569  1.00  0.00     0.010 A 
ATOM     45  C   UNL A   1      37.412  30.318  29.007  1.00  0.00    -0.014 A 
BRANCH  45  46
ATOM     46  C   UNL A   1      38.586  29.982  29.869  1.00  0.00     0.031 A 
ATOM     47  C   UNL A   1      39.682  29.083  29.339  1.00  0.00     0.074 A 
ATOM     48  C   UNL A   1      38.727  30.511  31.101  1.00  0.00     0.049 A 
ATOM     49  N   UNL A   1      40.690  28.532  29.971  1.00  0.00    -0.248 NA
ATOM     50  C   UNL A   1      39.640  28.761  27.902  1.00  0.00     0.031 C 
ATOM     51  C   UNL A   1      37.815  31.469  31.724  1.00  0.00     0.029 A 
ATOM     52  N   UNL A   1      39.705  30.321  32.051  1.00  0.00    -0.354 N 
ATOM     53  C   UNL A   1      41.370  27.772  29.025  1.00  0.00     0.074 A 
ATOM     54  C   UNL A   1      40.659  27.922  27.774  1.00  0.00     0.031 C 
ATOM     55  C   UNL A   1      38.288  31.805  32.934  1.00  0.00     0.029 A 
ATOM     56  C   UNL A   1      39.481  31.014  33.216  1.00  0.00     0.049 A 
ATOM     57  H   UNL A   1      40.488  29.742  31.909  1.00  0.00     0.167 HD
ATOM     58  C   UNL A   1      42.484  27.016  29.184  1.00  0.00     0.037 A 
ATOM     59  C   UNL A   1      40.125  30.981  34.399  1.00  0.00     0.037 A 
ATOM     60  C   UNL A   1      43.211  26.878  30.418  1.00  0.00     0.049 A 
ATOM     61  C   UNL A   1      41.298  30.056  34.577  1.00  0.00     0.074 A 
ATOM     62  C   UNL A   1      44.326  26.099  30.684  1.00  0.00     0.029 A 
ATOM     63  N   UNL A   1      42.906  27.544  31.594  1.00  0.00    -0.354 N 
ATOM     64  N   UNL A   1      41.879  29.272  33.701  1.00  0.00    -0.248 NA
ATOM     65  C   UNL A   1      41.892  29.995  35.920  1.00  0.00     0.031 C 
ATOM     66  C   UNL A   1      44.670  26.265  32.029  1.00  0.00     0.029 A 
ATOM     67  C   UNL A   1      43.801  27.184  32.591  1.00  0.00     0.049 A 
ATOM     68  H   UNL A   1      42.161  28.180  31.706  1.00  0.00     0.167 HD
ATOM     69  C   UNL A   1      42.907  28.635  34.383  1.00  0.00     0.074 A 
ATOM     70  C   UNL A   1      42.894  29.149  35.737  1.00  0.00     0.031 C 
ATOM     71  C   UNL A   1      43.776  27.698  33.934  1.00  0.00     0.037 A 
BRANCH  58  72
ATOM     72  C   UNL A   1      42.979  26.243  27.995  1.00  0.00     0.064 A 
ATOM     73  C   UNL A   1      43.744  26.847  26.987  1.00  0.00     0.173 A 
ATOM     74  C   UNL A   1      42.742  24.863  27.901  1.00  0.00     0.173 A 
ATOM     75  F   UNL A   1      43.983  28.167  27.020  1.00  0.00    -0.203 F 
ATOM     76  C   UNL A   1      44.247  26.098  25.925  1.00  0.00     0.198 A 
ATOM     77  C   UNL A   1      43.266  24.113  26.851  1.00  0.00     0.198 A 
ATOM     78  F   UNL A   1      42.018  24.237  28.842  1.00  0.00    -0.203 F 
ATOM     79  F   UNL A   1      44.951  26.701  24.957  1.00  0.00    -0.200 F 
ATOM     80  C   UNL A   1      44.015  24.732  25.863  1.00  0.00     0.200 A 
ATOM     81  F   UNL A   1      43.050  22.792  26.800  1.00  0.00    -0.200 F 
ATOM     82  F   UNL A   1      44.513  24.012  24.848  1.00  0.00    -0.200 F 
ENDBRANCH  58  72
BRANCH  59  83
ATOM     83  C   UNL A   1      39.630  31.797  35.540  1.00  0.00     0.064 A 
ATOM     84  C   UNL A   1      38.651  31.307  36.415  1.00  0.00     0.173 A 
ATOM     85  C   UNL A   1      40.102  33.102  35.758  1.00  0.00     0.173 A 
ATOM     86  F   UNL A   1      38.139  30.081  36.227  1.00  0.00    -0.203 F 
ATOM     87  C   UNL A   1      38.150  32.094  37.449  1.00  0.00     0.198 A 
ATOM     88  C   UNL A   1      39.629  33.874  36.815  1.00  0.00     0.198 A 
ATOM     89  F   UNL A   1      41.029  33.626  34.942  1.00  0.00    -0.203 F 
ATOM     90  F   UNL A   1      37.169  31.623  38.232  1.00  0.00    -0.200 F 
ATOM     91  C   UNL A   1      38.646  33.373  37.655  1.00  0.00     0.200 A 
ATOM     92  F   UNL A   1      40.120  35.105  37.014  1.00  0.00    -0.200 F 
ATOM     93  F   UNL A   1      38.165  34.129  38.650  1.00  0.00    -0.200 F 
ENDBRANCH  59  83
BRANCH  71  94
ATOM     94  C   UNL A   1      44.797  27.192  34.912  1.00  0.00     0.064 A 
ATOM     95  C   UNL A   1      44.577  26.028  35.666  1.00  0.00     0.173 A 
ATOM     96  C   UNL A   1      46.001  27.884  35.108  1.00  0.00     0.173 A 
ATOM     97  F   UNL A   1      43.435  25.339  35.526  1.00  0.00    -0.203 F 
ATOM     98  C   UNL A   1      45.506  25.602  36.612  1.00  0.00     0.198 A 
ATOM     99  C   UNL A   1      46.941  27.438  36.033  1.00  0.00     0.198 A 
ATOM    100  F   UNL A   1      46.264  28.997  34.407  1.00  0.00    -0.203 F 
ATOM    101  F   UNL A   1      45.245  24.527  37.367  1.00  0.00    -0.200 F 
ATOM    102  C   UNL A   1      46.688  26.306  36.792  1.00  0.00     0.200 A 
ATOM    103  F   UNL A   1      48.088  28.112  36.199  1.00  0.00    -0.200 F 
ATOM    104  F   UNL A   1      47.577  25.900  37.709  1.00  0.00    -0.200 F 
ENDBRANCH  71  94
ENDBRANCH  45  46
ENDBRANCH  38  40
ENDBRANCH  37  38
ENDBRANCH  36  37
ENDBRANCH  35  36
ENDBRANCH  34  35
ENDBRANCH  33  34
ENDBRANCH   1  33
TORSDOF 22
ENDMDL
MODEL 2
REMARK VINA RESULT:     -10.6      4.424      9.074
REMARK SMILES Cc1ccnc(C(=O)c2[nH]c3ccc(OC(F)(F)F)cc3c2CC(=O)OCCOCCOCCOC(=O)c2ccc(-c3c4nc(c(-c5c(F)c(F)c(F)c(F)c5F)c5ccc([nH]5)c(-c5c(F)c(F)c(F)c(F)c5F)c5nc(c(-c6c(F)c(F)c(F)c(F)c6F)c6ccc3[nH]6)C=C5)C=C4)cc2)c1
REMARK SMILES IDX 30 1 29 2 28 3 27 4 26 5 24 6 25 7 23 8 22 9 9 10 10 11
REMARK SMILES IDX 11 12 21 14 12 15 20 16 13 17 14 18 7 19 8 20 6 21 1 22 2 23
REMARK SMILES IDX 3 24 101 25 4 26 5 27 15 28 16 29 17 30 18 31 19 32 31 33
REMARK SMILES IDX 32 34 33 35 34 36 35 37 36 38 37 39 38 40 39 41 100 42 40 43
REMARK SMILES IDX 99 44 41 45 42 46 43 47 93 48 44 49 98 50 92 51 94 52 45 53
REMARK SMILES IDX 97 54 91 55 90 56 46 58 78 59 58 60 77 61 59 62 62 63 76 64
REMARK SMILES IDX 95 65 60 66 61 67 75 69 96 70 63 71 47 72 48 73 56 74 49 75
REMARK SMILES IDX 50 76 54 77 57 78 51 79 52 80 55 81 53 82 79 83 80 84 88 85
REMARK SMILES IDX 81 86 82 87 86 88 89 89 83 90 84 91 87 92 85 93 64 94 65 95
REMARK SMILES IDX 73 96 66 97 67 98 71 99 74 100 68 101 69 102 72 103 70 104
REMARK H PARENT 10 13 94 57 62 68
REMARK Flexibility Score: inf
ROOT
ATOM      1  C   UNL A   1      34.392  31.829  27.768  1.00  0.00     0.188 C 
ENDROOT
BRANCH   1   2
ATOM      2  O   UNL A   1      34.020  30.791  26.867  1.00  0.00    -0.376 OA
BRANCH   2   3
ATOM      3  C   UNL A   1      32.861  30.029  27.186  1.00  0.00     0.202 C 
BRANCH   3   4
ATOM      4  C   UNL A   1      32.864  28.596  26.650  1.00  0.00     0.261 C 
BRANCH   4   5
ATOM      5  O   UNL A   1      33.974  28.351  25.756  1.00  0.00    -0.463 OA
BRANCH   5   6
ATOM      6  C   UNL A   1      33.666  28.350  24.435  1.00  0.00     0.310 C 
ATOM      7  O   UNL A   1      33.635  29.369  23.748  1.00  0.00    -0.252 OA
BRANCH   6   8
ATOM      8  C   UNL A   1      33.398  26.996  23.809  1.00  0.00     0.161 C 
BRANCH   8   9
ATOM      9  C   UNL A   1      32.031  26.360  23.899  1.00  0.00     0.000 A 
ATOM     10  C   UNL A   1      31.701  25.010  23.721  1.00  0.00     0.093 A 
ATOM     11  N   UNL A   1      30.339  24.900  23.902  1.00  0.00    -0.352 N 
ATOM     12  C   UNL A   1      29.754  26.139  23.841  1.00  0.00     0.046 A 
ATOM     13  H   UNL A   1      29.856  24.056  24.054  1.00  0.00     0.167 HD
ATOM     14  C   UNL A   1      30.783  27.075  23.872  1.00  0.00     0.008 A 
ATOM     15  C   UNL A   1      28.406  26.489  23.735  1.00  0.00     0.030 A 
ATOM     16  C   UNL A   1      30.441  28.440  23.775  1.00  0.00     0.057 A 
ATOM     17  C   UNL A   1      28.101  27.845  23.574  1.00  0.00     0.049 A 
ATOM     18  C   UNL A   1      29.105  28.813  23.569  1.00  0.00     0.130 A 
BRANCH  10  19
ATOM     19  C   UNL A   1      32.570  23.892  23.402  1.00  0.00     0.227 C 
ATOM     20  O   UNL A   1      32.768  23.507  22.251  1.00  0.00    -0.285 OA
BRANCH  19  21
ATOM     21  C   UNL A   1      33.222  23.132  24.510  1.00  0.00     0.113 A 
ATOM     22  C   UNL A   1      35.899  20.517  25.052  1.00  0.00     0.044 C 
ATOM     23  C   UNL A   1      34.869  21.580  25.290  1.00  0.00    -0.047 A 
ATOM     24  C   UNL A   1      34.702  22.122  26.567  1.00  0.00     0.023 A 
ATOM     25  C   UNL A   1      34.123  22.111  24.230  1.00  0.00     0.036 A 
ATOM     26  C   UNL A   1      33.745  23.105  26.752  1.00  0.00     0.112 A 
ATOM     27  N   UNL A   1      32.981  23.600  25.757  1.00  0.00    -0.253 NA
ENDBRANCH  19  21
ENDBRANCH  10  19
BRANCH  18  28
ATOM     28  O   UNL A   1      28.923  30.152  23.361  1.00  0.00    -0.406 OA
BRANCH  28  29
ATOM     29  C   UNL A   1      28.357  30.541  22.121  1.00  0.00     0.573 C 
ATOM     30  F   UNL A   1      27.245  31.289  22.292  1.00  0.00    -0.132 F 
ATOM     31  F   UNL A   1      29.252  31.229  21.379  1.00  0.00    -0.132 F 
ATOM     32  F   UNL A   1      28.009  29.429  21.435  1.00  0.00    -0.132 F 
ENDBRANCH  28  29
ENDBRANCH  18  28
ENDBRANCH   8   9
ENDBRANCH   6   8
ENDBRANCH   5   6
ENDBRANCH   4   5
ENDBRANCH   3   4
ENDBRANCH   2   3
ENDBRANCH   1   2
BRANCH   1  33
ATOM     33  C   UNL A   1      33.372  32.954  28.042  1.00  0.00     0.188 C 
BRANCH  33  34
ATOM     34  O   UNL A   1      33.844  34.176  28.598  1.00  0.00    -0.376 OA
BRANCH  34  35
ATOM     35  C   UNL A   1      34.866  34.082  29.584  1.00  0.00     0.202 C 
BRANCH  35  36
ATOM     36  C   UNL A   1      34.334  33.812  30.986  1.00  0.00     0.261 C 
BRANCH  36  37
ATOM     37  O   UNL A   1      34.418  32.404  31.284  1.00  0.00    -0.460 OA
BRANCH  37  38
ATOM     38  C   UNL A   1      35.403  32.087  32.148  1.00  0.00     0.338 C 
ATOM     39  O   UNL A   1      35.540  32.504  33.286  1.00  0.00    -0.246 OA
BRANCH  38  40
ATOM     40  C   UNL A   1      36.341  31.115  31.551  1.00  0.00     0.060 A 
ATOM     41  C   UNL A   1      37.209  30.382  32.355  1.00  0.00     0.016 A 
ATOM     42  C   UNL A   1      36.526  31.120  30.168  1.00  0.00     0.016 A 
ATOM     43  C   UNL A   1      38.359  29.809  31.805  1.00  0.00     0.010 A 
ATOM     44  C   UNL A   1      37.624  30.457  29.608  1.00  0.00     0.010 A 
ATOM     45  C   UNL A   1      38.603  29.867  30.427  1.00  0.00    -0.014 A 
BRANCH  45  46
ATOM     46  C   UNL A   1      39.918  29.436  29.860  1.00  0.00     0.031 A 
ATOM     47  C   UNL A   1      41.083  30.402  29.835  1.00  0.00     0.074 A 
ATOM     48  C   UNL A   1      40.115  28.177  29.419  1.00  0.00     0.049 A 
ATOM     49  N   UNL A   1      42.246  30.293  29.239  1.00  0.00    -0.248 NA
ATOM     50  C   UNL A   1      40.920  31.660  30.582  1.00  0.00     0.031 C 
ATOM     51  C   UNL A   1      39.130  27.098  29.462  1.00  0.00     0.029 A 
ATOM     52  N   UNL A   1      41.223  27.591  28.851  1.00  0.00    -0.354 N 
ATOM     53  C   UNL A   1      42.929  31.475  29.504  1.00  0.00     0.074 A 
ATOM     54  C   UNL A   1      42.050  32.297  30.307  1.00  0.00     0.031 C 
ATOM     55  C   UNL A   1      39.683  25.977  28.973  1.00  0.00     0.029 A 
ATOM     56  C   UNL A   1      41.025  26.280  28.490  1.00  0.00     0.049 A 
ATOM     57  H   UNL A   1      42.075  28.066  28.715  1.00  0.00     0.167 HD
ATOM     58  C   UNL A   1      44.172  31.845  29.111  1.00  0.00     0.037 A 
ATOM     59  C   UNL A   1      41.809  25.428  27.800  1.00  0.00     0.037 A 
ATOM     60  C   UNL A   1      45.063  31.026  28.331  1.00  0.00     0.049 A 
ATOM     61  C   UNL A   1      43.144  25.899  27.290  1.00  0.00     0.074 A 
ATOM     62  C   UNL A   1      46.325  31.334  27.850  1.00  0.00     0.029 A 
ATOM     63  N   UNL A   1      44.792  29.729  27.926  1.00  0.00    -0.354 N 
ATOM     64  N   UNL A   1      43.743  27.051  27.468  1.00  0.00    -0.248 NA
ATOM     65  C   UNL A   1      43.903  24.953  26.460  1.00  0.00     0.031 C 
ATOM     66  C   UNL A   1      46.800  30.239  27.123  1.00  0.00     0.029 A 
ATOM     67  C   UNL A   1      45.856  29.229  27.190  1.00  0.00     0.049 A 
ATOM     68  H   UNL A   1      43.964  29.234  28.130  1.00  0.00     0.167 HD
ATOM     69  C   UNL A   1      44.947  26.965  26.783  1.00  0.00     0.074 A 
ATOM     70  C   UNL A   1      45.011  25.635  26.214  1.00  0.00     0.031 C 
ATOM     71  C   UNL A   1      45.908  27.907  26.625  1.00  0.00     0.037 A 
BRANCH  58  72
ATOM     72  C   UNL A   1      44.646  33.219  29.493  1.00  0.00     0.064 A 
ATOM     73  C   UNL A   1      44.431  34.331  28.667  1.00  0.00     0.173 A 
ATOM     74  C   UNL A   1      45.264  33.432  30.735  1.00  0.00     0.173 A 
ATOM     75  F   UNL A   1      43.861  34.178  27.462  1.00  0.00    -0.203 F 
ATOM     76  C   UNL A   1      44.823  35.606  29.069  1.00  0.00     0.198 A 
ATOM     77  C   UNL A   1      45.634  34.712  31.143  1.00  0.00     0.198 A 
ATOM     78  F   UNL A   1      45.491  32.401  31.563  1.00  0.00    -0.203 F 
ATOM     79  F   UNL A   1      44.633  36.652  28.252  1.00  0.00    -0.200 F 
ATOM     80  C   UNL A   1      45.415  35.796  30.309  1.00  0.00     0.200 A 
ATOM     81  F   UNL A   1      46.195  34.893  32.345  1.00  0.00    -0.200 F 
ATOM     82  F   UNL A   1      45.778  37.026  30.698  1.00  0.00    -0.200 F 
ENDBRANCH  58  72
BRANCH  59  83
ATOM     83  C   UNL A   1      41.323  24.059  27.481  1.00  0.00     0.064 A 
ATOM     84  C   UNL A   1      40.234  23.855  26.623  1.00  0.00     0.173 A 
ATOM     85  C   UNL A   1      41.915  22.925  28.061  1.00  0.00     0.173 A 
ATOM     86  F   UNL A   1      39.608  24.907  26.075  1.00  0.00    -0.203 F 
ATOM     87  C   UNL A   1      39.746  22.574  26.371  1.00  0.00     0.198 A 
ATOM     88  C   UNL A   1      41.452  21.643  27.778  1.00  0.00     0.198 A 
ATOM     89  F   UNL A   1      42.951  23.064  28.902  1.00  0.00    -0.203 F 
ATOM     90  F   UNL A   1      38.664  22.413  25.596  1.00  0.00    -0.200 F 
ATOM     91  C   UNL A   1      40.360  21.469  26.940  1.00  0.00     0.200 A 
ATOM     92  F   UNL A   1      42.056  20.579  28.323  1.00  0.00    -0.200 F 
ATOM     93  F   UNL A   1      39.891  20.238  26.696  1.00  0.00    -0.200 F 
ENDBRANCH  59  83
BRANCH  71  94
ATOM     94  C   UNL A   1      47.119  27.517  25.828  1.00  0.00     0.064 A 
ATOM     95  C   UNL A   1      47.164  27.682  24.434  1.00  0.00     0.173 A 
ATOM     96  C   UNL A   1      48.240  26.960  26.460  1.00  0.00     0.173 A 
ATOM     97  F   UNL A   1      46.111  28.196  23.781  1.00  0.00    -0.203 F 
ATOM     98  C   UNL A   1      48.270  27.263  23.700  1.00  0.00     0.198 A 
ATOM     99  C   UNL A   1      49.357  26.570  25.726  1.00  0.00     0.198 A 
ATOM    100  F   UNL A   1      48.252  26.789  27.791  1.00  0.00    -0.203 F 
ATOM    101  F   UNL A   1      48.263  27.368  22.364  1.00  0.00    -0.200 F 
ATOM    102  C   UNL A   1      49.366  26.710  24.346  1.00  0.00     0.200 A 
ATOM    103  F   UNL A   1      50.420  26.046  26.352  1.00  0.00    -0.200 F 
ATOM    104  F   UNL A   1      50.425  26.298  23.636  1.00  0.00    -0.200 F 
ENDBRANCH  71  94
ENDBRANCH  45  46
ENDBRANCH  38  40
ENDBRANCH  37  38
ENDBRANCH  36  37
ENDBRANCH  35  36
ENDBRANCH  34  35
ENDBRANCH  33  34
ENDBRANCH   1  33
TORSDOF 22
ENDMDL
MODEL 3
REMARK VINA RESULT:     -10.4      5.453     10.545
REMARK SMILES Cc1ccnc(C(=O)c2[nH]c3ccc(OC(F)(F)F)cc3c2CC(=O)OCCOCCOCCOC(=O)c2ccc(-c3c4nc(c(-c5c(F)c(F)c(F)c(F)c5F)c5ccc([nH]5)c(-c5c(F)c(F)c(F)c(F)c5F)c5nc(c(-c6c(F)c(F)c(F)c(F)c6F)c6ccc3[nH]6)C=C5)C=C4)cc2)c1
REMARK SMILES IDX 30 1 29 2 28 3 27 4 26 5 24 6 25 7 23 8 22 9 9 10 10 11
REMARK SMILES IDX 11 12 21 14 12 15 20 16 13 17 14 18 7 19 8 20 6 21 1 22 2 23
REMARK SMILES IDX 3 24 101 25 4 26 5 27 15 28 16 29 17 30 18 31 19 32 31 33
REMARK SMILES IDX 32 34 33 35 34 36 35 37 36 38 37 39 38 40 39 41 100 42 40 43
REMARK SMILES IDX 99 44 41 45 42 46 43 47 93 48 44 49 98 50 92 51 94 52 45 53
REMARK SMILES IDX 97 54 91 55 90 56 46 58 78 59 58 60 77 61 59 62 62 63 76 64
REMARK SMILES IDX 95 65 60 66 61 67 75 69 96 70 63 71 47 72 48 73 56 74 49 75
REMARK SMILES IDX 50 76 54 77 57 78 51 79 52 80 55 81 53 82 79 83 80 84 88 85
REMARK SMILES IDX 81 86 82 87 86 88 89 89 83 90 84 91 87 92 85 93 64 94 65 95
REMARK SMILES IDX 73 96 66 97 67 98 71 99 74 100 68 101 69 102 72 103 70 104
REMARK H PARENT 10 13 94 57 62 68
REMARK Flexibility Score: inf
ROOT
ATOM      1  C   UNL A   1      37.651  32.851  37.418  1.00  0.00     0.188 C 
ENDROOT
BRANCH   1   2
ATOM      2  O   UNL A   1      37.382  31.867  36.424  1.00  0.00    -0.376 OA
BRANCH   2   3
ATOM      3  C   UNL A   1      38.495  31.183  35.859  1.00  0.00     0.202 C 
BRANCH   3   4
ATOM      4  C   UNL A   1      38.447  31.017  34.340  1.00  0.00     0.261 C 
BRANCH   4   5
ATOM      5  O   UNL A   1      38.785  29.672  33.928  1.00  0.00    -0.463 OA
BRANCH   5   6
ATOM      6  C   UNL A   1      37.871  29.062  33.133  1.00  0.00     0.310 C 
ATOM      7  O   UNL A   1      37.663  27.850  33.151  1.00  0.00    -0.252 OA
BRANCH   6   8
ATOM      8  C   UNL A   1      37.060  29.965  32.226  1.00  0.00     0.161 C 
BRANCH   8   9
ATOM      9  C   UNL A   1      37.622  30.439  30.906  1.00  0.00     0.000 A 
ATOM     10  C   UNL A   1      37.368  31.654  30.254  1.00  0.00     0.093 A 
ATOM     11  N   UNL A   1      38.102  31.647  29.088  1.00  0.00    -0.352 N 
ATOM     12  C   UNL A   1      38.525  30.374  28.804  1.00  0.00     0.046 A 
ATOM     13  H   UNL A   1      38.296  32.441  28.539  1.00  0.00     0.167 HD
ATOM     14  C   UNL A   1      38.271  29.602  29.934  1.00  0.00     0.008 A 
ATOM     15  C   UNL A   1      39.082  29.855  27.634  1.00  0.00     0.030 A 
ATOM     16  C   UNL A   1      38.579  28.227  29.880  1.00  0.00     0.057 A 
ATOM     17  C   UNL A   1      39.317  28.476  27.585  1.00  0.00     0.049 A 
ATOM     18  C   UNL A   1      39.047  27.662  28.685  1.00  0.00     0.130 A 
BRANCH  10  19
ATOM     19  C   UNL A   1      36.507  32.748  30.665  1.00  0.00     0.227 C 
ATOM     20  O   UNL A   1      36.718  33.423  31.671  1.00  0.00    -0.285 OA
BRANCH  19  21
ATOM     21  C   UNL A   1      35.279  33.051  29.871  1.00  0.00     0.113 A 
ATOM     22  C   UNL A   1      32.900  35.910  29.185  1.00  0.00     0.044 C 
ATOM     23  C   UNL A   1      33.613  34.592  29.112  1.00  0.00    -0.047 A 
ATOM     24  C   UNL A   1      33.339  33.705  28.067  1.00  0.00     0.023 A 
ATOM     25  C   UNL A   1      34.621  34.267  30.027  1.00  0.00     0.036 A 
ATOM     26  C   UNL A   1      34.017  32.498  28.026  1.00  0.00     0.112 A 
ATOM     27  N   UNL A   1      34.959  32.140  28.923  1.00  0.00    -0.253 NA
ENDBRANCH  19  21
ENDBRANCH  10  19
BRANCH  18  28
ATOM     28  O   UNL A   1      39.183  26.301  28.723  1.00  0.00    -0.406 OA
BRANCH  28  29
ATOM     29  C   UNL A   1      40.410  25.761  28.264  1.00  0.00     0.573 C 
ATOM     30  F   UNL A   1      40.496  24.436  28.510  1.00  0.00    -0.132 F 
ATOM     31  F   UNL A   1      40.569  25.984  26.942  1.00  0.00    -0.132 F 
ATOM     32  F   UNL A   1      41.424  26.372  28.918  1.00  0.00    -0.132 F 
ENDBRANCH  28  29
ENDBRANCH  18  28
ENDBRANCH   8   9
ENDBRANCH   6   8
ENDBRANCH   5   6
ENDBRANCH   4   5
ENDBRANCH   3   4
ENDBRANCH   2   3
ENDBRANCH   1   2
BRANCH   1  33
ATOM     33  C   UNL A   1      37.477  32.454  38.899  1.00  0.00     0.188 C 
BRANCH  33  34
ATOM     34  O   UNL A   1      38.637  32.379  39.720  1.00  0.00    -0.376 OA
BRANCH  34  35
ATOM     35  C   UNL A   1      39.703  33.270  39.411  1.00  0.00     0.202 C 
BRANCH  35  36
ATOM     36  C   UNL A   1      39.554  34.643  40.056  1.00  0.00     0.261 C 
BRANCH  36  37
ATOM     37  O   UNL A   1      40.508  35.561  39.487  1.00  0.00    -0.460 OA
BRANCH  37  38
ATOM     38  C   UNL A   1      40.001  36.337  38.507  1.00  0.00     0.338 C 
ATOM     39  O   UNL A   1      39.171  37.221  38.631  1.00  0.00    -0.246 OA
BRANCH  38  40
ATOM     40  C   UNL A   1      40.603  36.002  37.200  1.00  0.00     0.060 A 
ATOM     41  C   UNL A   1      39.799  35.633  36.125  1.00  0.00     0.016 A 
ATOM     42  C   UNL A   1      41.983  35.813  37.123  1.00  0.00     0.016 A 
ATOM     43  C   UNL A   1      40.344  34.915  35.057  1.00  0.00     0.010 A 
ATOM     44  C   UNL A   1      42.539  35.184  36.003  1.00  0.00     0.010 A 
ATOM     45  C   UNL A   1      41.718  34.648  34.995  1.00  0.00    -0.014 A 
BRANCH  45  46
ATOM     46  C   UNL A   1      42.275  33.716  33.967  1.00  0.00     0.031 A 
ATOM     47  C   UNL A   1      42.695  34.246  32.614  1.00  0.00     0.074 A 
ATOM     48  C   UNL A   1      42.472  32.409  34.238  1.00  0.00     0.049 A 
ATOM     49  N   UNL A   1      43.037  33.592  31.530  1.00  0.00    -0.248 NA
ATOM     50  C   UNL A   1      42.737  35.709  32.457  1.00  0.00     0.031 C 
ATOM     51  C   UNL A   1      42.214  31.758  35.521  1.00  0.00     0.029 A 
ATOM     52  N   UNL A   1      42.946  31.392  33.441  1.00  0.00    -0.354 N 
ATOM     53  C   UNL A   1      43.292  34.556  30.561  1.00  0.00     0.074 A 
ATOM     54  C   UNL A   1      43.058  35.844  31.177  1.00  0.00     0.031 C 
ATOM     55  C   UNL A   1      42.559  30.464  35.436  1.00  0.00     0.029 A 
ATOM     56  C   UNL A   1      42.968  30.170  34.067  1.00  0.00     0.049 A 
ATOM     57  H   UNL A   1      43.240  31.528  32.511  1.00  0.00     0.167 HD
ATOM     58  C   UNL A   1      43.682  34.386  29.274  1.00  0.00     0.037 A 
ATOM     59  C   UNL A   1      43.232  28.938  33.587  1.00  0.00     0.037 A 
ATOM     60  C   UNL A   1      43.939  33.110  28.658  1.00  0.00     0.049 A 
ATOM     61  C   UNL A   1      43.565  28.768  32.130  1.00  0.00     0.074 A 
ATOM     62  C   UNL A   1      44.298  32.838  27.347  1.00  0.00     0.029 A 
ATOM     63  N   UNL A   1      43.879  31.891  29.312  1.00  0.00    -0.354 N 
ATOM     64  N   UNL A   1      43.715  29.679  31.199  1.00  0.00    -0.248 NA
ATOM     65  C   UNL A   1      43.743  27.389  31.652  1.00  0.00     0.031 C 
ATOM     66  C   UNL A   1      44.415  31.452  27.200  1.00  0.00     0.029 A 
ATOM     67  C   UNL A   1      44.178  30.863  28.430  1.00  0.00     0.049 A 
ATOM     68  H   UNL A   1      43.655  31.771  30.264  1.00  0.00     0.167 HD
ATOM     69  C   UNL A   1      44.012  28.986  30.033  1.00  0.00     0.074 A 
ATOM     70  C   UNL A   1      44.056  27.582  30.380  1.00  0.00     0.031 C 
ATOM     71  C   UNL A   1      44.216  29.469  28.783  1.00  0.00     0.037 A 
BRANCH  58  72
ATOM     72  C   UNL A   1      43.830  35.613  28.420  1.00  0.00     0.064 A 
ATOM     73  C   UNL A   1      42.731  36.209  27.786  1.00  0.00     0.173 A 
ATOM     74  C   UNL A   1      45.081  36.237  28.292  1.00  0.00     0.173 A 
ATOM     75  F   UNL A   1      41.518  35.642  27.861  1.00  0.00    -0.203 F 
ATOM     76  C   UNL A   1      42.881  37.382  27.049  1.00  0.00     0.198 A 
ATOM     77  C   UNL A   1      45.222  37.422  27.575  1.00  0.00     0.198 A 
ATOM     78  F   UNL A   1      46.163  35.707  28.881  1.00  0.00    -0.203 F 
ATOM     79  F   UNL A   1      41.822  37.921  26.427  1.00  0.00    -0.200 F 
ATOM     80  C   UNL A   1      44.123  37.992  26.952  1.00  0.00     0.200 A 
ATOM     81  F   UNL A   1      46.421  38.014  27.492  1.00  0.00    -0.200 F 
ATOM     82  F   UNL A   1      44.261  39.129  26.256  1.00  0.00    -0.200 F 
ENDBRANCH  58  72
BRANCH  59  83
ATOM     83  C   UNL A   1      43.120  27.751  34.477  1.00  0.00     0.064 A 
ATOM     84  C   UNL A   1      41.923  27.029  34.579  1.00  0.00     0.173 A 
ATOM     85  C   UNL A   1      44.199  27.337  35.275  1.00  0.00     0.173 A 
ATOM     86  F   UNL A   1      40.850  27.407  33.867  1.00  0.00    -0.203 F 
ATOM     87  C   UNL A   1      41.805  25.952  35.454  1.00  0.00     0.198 A 
ATOM     88  C   UNL A   1      44.092  26.237  36.120  1.00  0.00     0.198 A 
ATOM     89  F   UNL A   1      45.363  28.002  35.228  1.00  0.00    -0.203 F 
ATOM     90  F   UNL A   1      40.630  25.318  35.577  1.00  0.00    -0.200 F 
ATOM     91  C   UNL A   1      42.891  25.551  36.218  1.00  0.00     0.200 A 
ATOM     92  F   UNL A   1      45.148  25.849  36.847  1.00  0.00    -0.200 F 
ATOM     93  F   UNL A   1      42.777  24.514  37.059  1.00  0.00    -0.200 F 
ENDBRANCH  59  83
BRANCH  71  94
ATOM     94  C   UNL A   1      44.531  28.467  27.711  1.00  0.00     0.064 A 
ATOM     95  C   UNL A   1      45.829  27.963  27.535  1.00  0.00     0.173 A 
ATOM     96  C   UNL A   1      43.527  28.014  26.840  1.00  0.00     0.173 A 
ATOM     97  F   UNL A   1      46.826  28.376  28.332  1.00  0.00    -0.203 F 
ATOM     98  C   UNL A   1      46.120  27.079  26.500  1.00  0.00     0.198 A 
ATOM     99  C   UNL A   1      43.815  27.106  25.825  1.00  0.00     0.198 A 
ATOM    100  F   UNL A   1      42.268  28.458  26.971  1.00  0.00    -0.203 F 
ATOM    101  F   UNL A   1      47.380  26.664  26.310  1.00  0.00    -0.200 F 
ATOM    102  C   UNL A   1      45.113  26.650  25.648  1.00  0.00     0.200 A 
ATOM    103  F   UNL A   1      42.840  26.683  25.009  1.00  0.00    -0.200 F 
ATOM    104  F   UNL A   1      45.396  25.805  24.646  1.00  0.00    -0.200 F 
ENDBRANCH  71  94
ENDBRANCH  45  46
ENDBRANCH  38  40
ENDBRANCH  37  38
ENDBRANCH  36  37
ENDBRANCH  35  36
ENDBRANCH  34  35
ENDBRANCH  33  34
ENDBRANCH   1  33
TORSDOF 22
ENDMDL
