MODEL 1
REMARK VINA RESULT:     -10.3      0.000      0.000
REMARK SMILES CC(C)(C)n1ccnc(N(CC(=O)OCCOCCOCCOC(=O)c2ccc(-c3c4nc(c(-c5c(F)c(F)c(F)c(F)c5F)c5ccc([nH]5)c(-c5c(F)c(F)c(F)c(F)c5F)c5nc(c(-c6c(F)c(F)c(F)c(F)c6F)c6ccc3[nH]6)C=C5)C=C4)cc2)CC(F)(F)F)c1=O
REMARK SMILES IDX 18 1 17 2 16 3 15 4 14 5 12 6 13 7 11 8 10 9 9 10 5 11 6 12
REMARK SMILES IDX 94 13 7 14 95 15 8 16 2 17 1 18 3 19 4 20 89 21 90 22 91 23
REMARK SMILES IDX 92 24 93 25 19 26 20 27 21 28 22 29 23 30 24 31 25 32 26 33
REMARK SMILES IDX 27 34 88 35 28 36 87 37 29 38 30 39 31 40 81 41 32 42 86 43
REMARK SMILES IDX 80 44 82 45 33 46 85 47 79 48 78 49 34 51 66 52 46 53 65 54
REMARK SMILES IDX 47 55 50 56 64 57 83 58 48 59 49 60 63 62 84 63 51 64 35 65
REMARK SMILES IDX 36 66 44 67 37 68 38 69 42 70 45 71 39 72 40 73 43 74 41 75
REMARK SMILES IDX 67 76 68 77 76 78 69 79 70 80 74 81 77 82 71 83 72 84 75 85
REMARK SMILES IDX 73 86 52 87 53 88 61 89 54 90 55 91 59 92 62 93 56 94 57 95
REMARK SMILES IDX 60 96 58 97
REMARK H PARENT 82 50 50 61
REMARK Flexibility Score: inf
ROOT
ATOM      1  C   UNL A   1      33.326  27.376  21.955  1.00  0.00     0.188 C 
ENDROOT
BRANCH   1   2
ATOM      2  O   UNL A   1      33.753  26.060  21.621  1.00  0.00    -0.376 OA
BRANCH   2   3
ATOM      3  C   UNL A   1      32.874  24.970  21.871  1.00  0.00     0.202 C 
BRANCH   3   4
ATOM      4  C   UNL A   1      33.279  24.028  23.019  1.00  0.00     0.261 C 
BRANCH   4   5
ATOM      5  O   UNL A   1      33.309  22.611  22.684  1.00  0.00    -0.462 OA
BRANCH   5   6
ATOM      6  C   UNL A   1      32.263  21.858  23.120  1.00  0.00     0.325 C 
ATOM      7  O   UNL A   1      31.135  22.324  23.287  1.00  0.00    -0.250 OA
BRANCH   6   8
ATOM      8  C   UNL A   1      32.475  20.336  23.184  1.00  0.00     0.241 C 
BRANCH   8   9
ATOM      9  N   UNL A   1      33.074  19.671  24.364  1.00  0.00    -0.332 N 
BRANCH   9  10
ATOM     10  C   UNL A   1      33.729  20.436  25.345  1.00  0.00     0.196 A 
ATOM     11  N   UNL A   1      35.747  21.841  25.822  1.00  0.00    -0.306 N 
ATOM     12  C   UNL A   1      34.957  22.374  26.829  1.00  0.00     0.110 A 
ATOM     13  C   UNL A   1      35.284  20.667  25.237  1.00  0.00     0.294 A 
ATOM     14  C   UNL A   1      33.744  21.875  27.108  1.00  0.00     0.131 A 
ATOM     15  O   UNL A   1      35.963  19.826  24.662  1.00  0.00    -0.265 OA
ATOM     16  N   UNL A   1      33.067  20.962  26.339  1.00  0.00    -0.233 NA
BRANCH  11  17
ATOM     17  C   UNL A   1      36.987  22.544  25.342  1.00  0.00     0.039 C 
ATOM     18  C   UNL A   1      36.795  22.883  23.847  1.00  0.00     0.034 C 
ATOM     19  C   UNL A   1      38.290  21.708  25.443  1.00  0.00     0.034 C 
ATOM     20  C   UNL A   1      37.260  23.845  26.127  1.00  0.00     0.034 C 
ENDBRANCH  11  17
ENDBRANCH   9  10
BRANCH   9  21
ATOM     21  C   UNL A   1      32.609  18.303  24.696  1.00  0.00     0.234 C 
BRANCH  21  22
ATOM     22  C   UNL A   1      33.574  17.172  24.287  1.00  0.00     0.405 C 
ATOM     23  F   UNL A   1      34.288  17.433  23.178  1.00  0.00    -0.169 F 
ATOM     24  F   UNL A   1      34.463  16.953  25.278  1.00  0.00    -0.169 F 
ATOM     25  F   UNL A   1      32.916  16.008  24.077  1.00  0.00    -0.169 F 
ENDBRANCH  21  22
ENDBRANCH   9  21
ENDBRANCH   8   9
ENDBRANCH   6   8
ENDBRANCH   5   6
ENDBRANCH   4   5
ENDBRANCH   3   4
ENDBRANCH   2   3
ENDBRANCH   1   2
BRANCH   1  26
ATOM     26  C   UNL A   1      32.724  27.622  23.336  1.00  0.00     0.188 C 
BRANCH  26  27
ATOM     27  O   UNL A   1      32.347  28.976  23.502  1.00  0.00    -0.376 OA
BRANCH  27  28
ATOM     28  C   UNL A   1      31.312  29.198  24.441  1.00  0.00     0.202 C 
BRANCH  28  29
ATOM     29  C   UNL A   1      31.908  29.266  25.844  1.00  0.00     0.261 C 
BRANCH  29  30
ATOM     30  O   UNL A   1      33.158  29.985  25.916  1.00  0.00    -0.460 OA
BRANCH  30  31
ATOM     31  C   UNL A   1      33.225  31.065  26.721  1.00  0.00     0.338 C 
ATOM     32  O   UNL A   1      32.411  31.972  26.817  1.00  0.00    -0.246 OA
BRANCH  31  33
ATOM     33  C   UNL A   1      34.383  30.888  27.624  1.00  0.00     0.060 A 
ATOM     34  C   UNL A   1      34.612  29.648  28.221  1.00  0.00     0.016 A 
ATOM     35  C   UNL A   1      35.248  31.963  27.877  1.00  0.00     0.016 A 
ATOM     36  C   UNL A   1      35.720  29.476  29.051  1.00  0.00     0.010 A 
ATOM     37  C   UNL A   1      36.354  31.792  28.717  1.00  0.00     0.010 A 
ATOM     38  C   UNL A   1      36.611  30.539  29.290  1.00  0.00    -0.014 A 
BRANCH  38  39
ATOM     39  C   UNL A   1      37.881  30.273  30.012  1.00  0.00     0.031 A 
ATOM     40  C   UNL A   1      38.134  30.802  31.391  1.00  0.00     0.074 A 
ATOM     41  C   UNL A   1      38.808  29.516  29.395  1.00  0.00     0.049 A 
ATOM     42  N   UNL A   1      39.148  30.569  32.186  1.00  0.00    -0.248 NA
ATOM     43  C   UNL A   1      37.127  31.712  31.952  1.00  0.00     0.031 C 
ATOM     44  C   UNL A   1      38.681  28.984  28.036  1.00  0.00     0.029 A 
ATOM     45  N   UNL A   1      40.025  29.049  29.823  1.00  0.00    -0.354 N 
ATOM     46  C   UNL A   1      38.894  31.283  33.349  1.00  0.00     0.074 A 
ATOM     47  C   UNL A   1      37.654  32.001  33.136  1.00  0.00     0.031 C 
ATOM     48  C   UNL A   1      39.758  28.236  27.755  1.00  0.00     0.029 A 
ATOM     49  C   UNL A   1      40.664  28.258  28.898  1.00  0.00     0.049 A 
ATOM     50  H   UNL A   1      40.404  29.261  30.706  1.00  0.00     0.167 HD
ATOM     51  C   UNL A   1      39.621  31.312  34.491  1.00  0.00     0.037 A 
ATOM     52  C   UNL A   1      41.845  27.615  28.968  1.00  0.00     0.037 A 
ATOM     53  C   UNL A   1      40.860  30.600  34.686  1.00  0.00     0.049 A 
ATOM     54  C   UNL A   1      42.644  27.695  30.239  1.00  0.00     0.074 A 
ATOM     55  C   UNL A   1      41.652  30.539  35.821  1.00  0.00     0.029 A 
ATOM     56  N   UNL A   1      41.496  29.832  33.719  1.00  0.00    -0.354 N 
ATOM     57  N   UNL A   1      42.354  28.307  31.362  1.00  0.00    -0.248 NA
ATOM     58  C   UNL A   1      43.930  26.984  30.259  1.00  0.00     0.031 C 
ATOM     59  C   UNL A   1      42.791  29.786  35.523  1.00  0.00     0.029 A 
ATOM     60  C   UNL A   1      42.683  29.320  34.224  1.00  0.00     0.049 A 
ATOM     61  H   UNL A   1      41.154  29.674  32.809  1.00  0.00     0.167 HD
ATOM     62  C   UNL A   1      43.406  28.041  32.226  1.00  0.00     0.074 A 
ATOM     63  C   UNL A   1      44.329  27.186  31.507  1.00  0.00     0.031 C 
ATOM     64  C   UNL A   1      43.595  28.472  33.497  1.00  0.00     0.037 A 
BRANCH  51  65
ATOM     65  C   UNL A   1      39.100  32.126  35.643  1.00  0.00     0.064 A 
ATOM     66  C   UNL A   1      38.332  31.541  36.661  1.00  0.00     0.173 A 
ATOM     67  C   UNL A   1      39.466  33.473  35.791  1.00  0.00     0.173 A 
ATOM     68  F   UNL A   1      37.954  30.257  36.567  1.00  0.00    -0.203 F 
ATOM     69  C   UNL A   1      37.943  32.275  37.778  1.00  0.00     0.198 A 
ATOM     70  C   UNL A   1      39.098  34.196  36.925  1.00  0.00     0.198 A 
ATOM     71  F   UNL A   1      40.210  34.080  34.854  1.00  0.00    -0.203 F 
ATOM     72  F   UNL A   1      37.192  31.699  38.727  1.00  0.00    -0.200 F 
ATOM     73  C   UNL A   1      38.336  33.597  37.916  1.00  0.00     0.200 A 
ATOM     74  F   UNL A   1      39.498  35.468  37.064  1.00  0.00    -0.200 F 
ATOM     75  F   UNL A   1      37.985  34.294  39.006  1.00  0.00    -0.200 F 
ENDBRANCH  51  65
BRANCH  52  76
ATOM     76  C   UNL A   1      42.323  26.819  27.807  1.00  0.00     0.064 A 
ATOM     77  C   UNL A   1      41.918  25.490  27.623  1.00  0.00     0.173 A 
ATOM     78  C   UNL A   1      43.185  27.375  26.849  1.00  0.00     0.173 A 
ATOM     79  F   UNL A   1      41.109  24.907  28.520  1.00  0.00    -0.203 F 
ATOM     80  C   UNL A   1      42.371  24.742  26.539  1.00  0.00     0.198 A 
ATOM     81  C   UNL A   1      43.611  26.637  25.746  1.00  0.00     0.198 A 
ATOM     82  F   UNL A   1      43.599  28.644  26.973  1.00  0.00    -0.203 F 
ATOM     83  F   UNL A   1      42.004  23.459  26.413  1.00  0.00    -0.200 F 
ATOM     84  C   UNL A   1      43.210  25.318  25.596  1.00  0.00     0.200 A 
ATOM     85  F   UNL A   1      44.406  27.204  24.830  1.00  0.00    -0.200 F 
ATOM     86  F   UNL A   1      43.637  24.602  24.548  1.00  0.00    -0.200 F 
ENDBRANCH  52  76
BRANCH  64  87
ATOM     87  C   UNL A   1      44.843  28.020  34.202  1.00  0.00     0.064 A 
ATOM     88  C   UNL A   1      44.886  26.816  34.920  1.00  0.00     0.173 A 
ATOM     89  C   UNL A   1      46.023  28.776  34.120  1.00  0.00     0.173 A 
ATOM     90  F   UNL A   1      43.783  26.061  35.041  1.00  0.00    -0.203 F 
ATOM     91  C   UNL A   1      46.054  26.399  35.553  1.00  0.00     0.198 A 
ATOM     92  C   UNL A   1      47.199  28.338  34.723  1.00  0.00     0.198 A 
ATOM     93  F   UNL A   1      46.041  29.931  33.439  1.00  0.00    -0.203 F 
ATOM     94  F   UNL A   1      46.057  25.271  36.277  1.00  0.00    -0.200 F 
ATOM     95  C   UNL A   1      47.212  27.155  35.446  1.00  0.00     0.200 A 
ATOM     96  F   UNL A   1      48.322  29.060  34.602  1.00  0.00    -0.200 F 
ATOM     97  F   UNL A   1      48.339  26.746  36.045  1.00  0.00    -0.200 F 
ENDBRANCH  64  87
ENDBRANCH  38  39
ENDBRANCH  31  33
ENDBRANCH  30  31
ENDBRANCH  29  30
ENDBRANCH  28  29
ENDBRANCH  27  28
ENDBRANCH  26  27
ENDBRANCH   1  26
TORSDOF 22
ENDMDL
MODEL 2
REMARK VINA RESULT:     -10.1      1.626      2.534
REMARK SMILES CC(C)(C)n1ccnc(N(CC(=O)OCCOCCOCCOC(=O)c2ccc(-c3c4nc(c(-c5c(F)c(F)c(F)c(F)c5F)c5ccc([nH]5)c(-c5c(F)c(F)c(F)c(F)c5F)c5nc(c(-c6c(F)c(F)c(F)c(F)c6F)c6ccc3[nH]6)C=C5)C=C4)cc2)CC(F)(F)F)c1=O
REMARK SMILES IDX 18 1 17 2 16 3 15 4 14 5 12 6 13 7 11 8 10 9 9 10 5 11 6 12
REMARK SMILES IDX 94 13 7 14 95 15 8 16 2 17 1 18 3 19 4 20 89 21 90 22 91 23
REMARK SMILES IDX 92 24 93 25 19 26 20 27 21 28 22 29 23 30 24 31 25 32 26 33
REMARK SMILES IDX 27 34 88 35 28 36 87 37 29 38 30 39 31 40 81 41 32 42 86 43
REMARK SMILES IDX 80 44 82 45 33 46 85 47 79 48 78 49 34 51 66 52 46 53 65 54
REMARK SMILES IDX 47 55 50 56 64 57 83 58 48 59 49 60 63 62 84 63 51 64 35 65
REMARK SMILES IDX 36 66 44 67 37 68 38 69 42 70 45 71 39 72 40 73 43 74 41 75
REMARK SMILES IDX 67 76 68 77 76 78 69 79 70 80 74 81 77 82 71 83 72 84 75 85
REMARK SMILES IDX 73 86 52 87 53 88 61 89 54 90 55 91 59 92 62 93 56 94 57 95
REMARK SMILES IDX 60 96 58 97
REMARK H PARENT 82 50 50 61
REMARK Flexibility Score: inf
ROOT
ATOM      1  C   UNL A   1      33.904  27.819  22.742  1.00  0.00     0.188 C 
ENDROOT
BRANCH   1   2
ATOM      2  O   UNL A   1      33.923  26.881  21.672  1.00  0.00    -0.376 OA
BRANCH   2   3
ATOM      3  C   UNL A   1      32.747  26.126  21.401  1.00  0.00     0.202 C 
BRANCH   3   4
ATOM      4  C   UNL A   1      32.826  24.621  21.711  1.00  0.00     0.261 C 
BRANCH   4   5
ATOM      5  O   UNL A   1      34.082  24.166  22.289  1.00  0.00    -0.462 OA
BRANCH   5   6
ATOM      6  C   UNL A   1      34.037  23.023  23.025  1.00  0.00     0.325 C 
ATOM      7  O   UNL A   1      33.118  22.208  22.930  1.00  0.00    -0.250 OA
BRANCH   6   8
ATOM      8  C   UNL A   1      35.297  22.658  23.828  1.00  0.00     0.241 C 
BRANCH   8   9
ATOM      9  N   UNL A   1      35.545  23.184  25.191  1.00  0.00    -0.332 N 
BRANCH   9  10
ATOM     10  C   UNL A   1      34.500  23.224  26.130  1.00  0.00     0.196 A 
ATOM     11  N   UNL A   1      32.169  24.038  26.552  1.00  0.00    -0.306 N 
ATOM     12  C   UNL A   1      32.145  23.030  27.503  1.00  0.00     0.110 A 
ATOM     13  C   UNL A   1      33.419  24.367  26.039  1.00  0.00     0.294 A 
ATOM     14  C   UNL A   1      33.240  22.309  27.789  1.00  0.00     0.131 A 
ATOM     15  O   UNL A   1      33.739  25.438  25.538  1.00  0.00    -0.265 OA
ATOM     16  N   UNL A   1      34.409  22.325  27.071  1.00  0.00    -0.233 NA
BRANCH  11  17
ATOM     17  C   UNL A   1      30.901  24.674  26.051  1.00  0.00     0.039 C 
ATOM     18  C   UNL A   1      29.710  23.966  26.735  1.00  0.00     0.034 C 
ATOM     19  C   UNL A   1      30.672  24.551  24.522  1.00  0.00     0.034 C 
ATOM     20  C   UNL A   1      30.843  26.184  26.365  1.00  0.00     0.034 C 
ENDBRANCH  11  17
ENDBRANCH   9  10
BRANCH   9  21
ATOM     21  C   UNL A   1      36.950  23.253  25.660  1.00  0.00     0.234 C 
BRANCH  21  22
ATOM     22  C   UNL A   1      37.716  21.916  25.619  1.00  0.00     0.405 C 
ATOM     23  F   UNL A   1      38.211  21.602  24.408  1.00  0.00    -0.169 F 
ATOM     24  F   UNL A   1      38.764  21.967  26.466  1.00  0.00    -0.169 F 
ATOM     25  F   UNL A   1      36.934  20.883  26.013  1.00  0.00    -0.169 F 
ENDBRANCH  21  22
ENDBRANCH   9  21
ENDBRANCH   8   9
ENDBRANCH   6   8
ENDBRANCH   5   6
ENDBRANCH   4   5
ENDBRANCH   3   4
ENDBRANCH   2   3
ENDBRANCH   1   2
BRANCH   1  26
ATOM     26  C   UNL A   1      32.638  27.942  23.587  1.00  0.00     0.188 C 
BRANCH  26  27
ATOM     27  O   UNL A   1      32.272  29.295  23.777  1.00  0.00    -0.376 OA
BRANCH  27  28
ATOM     28  C   UNL A   1      31.191  29.503  24.666  1.00  0.00     0.202 C 
BRANCH  28  29
ATOM     29  C   UNL A   1      31.733  29.847  26.050  1.00  0.00     0.261 C 
BRANCH  29  30
ATOM     30  O   UNL A   1      33.005  30.530  26.028  1.00  0.00    -0.460 OA
BRANCH  30  31
ATOM     31  C   UNL A   1      33.262  31.424  27.005  1.00  0.00     0.338 C 
ATOM     32  O   UNL A   1      32.509  32.278  27.448  1.00  0.00    -0.246 OA
BRANCH  31  33
ATOM     33  C   UNL A   1      34.576  31.087  27.595  1.00  0.00     0.060 A 
ATOM     34  C   UNL A   1      35.456  32.109  27.954  1.00  0.00     0.016 A 
ATOM     35  C   UNL A   1      34.935  29.746  27.793  1.00  0.00     0.016 A 
ATOM     36  C   UNL A   1      36.683  31.790  28.534  1.00  0.00     0.010 A 
ATOM     37  C   UNL A   1      36.170  29.427  28.367  1.00  0.00     0.010 A 
ATOM     38  C   UNL A   1      37.043  30.449  28.765  1.00  0.00    -0.014 A 
BRANCH  38  39
ATOM     39  C   UNL A   1      38.261  30.150  29.561  1.00  0.00     0.031 A 
ATOM     40  C   UNL A   1      38.455  30.694  30.944  1.00  0.00     0.074 A 
ATOM     41  C   UNL A   1      39.192  29.351  29.008  1.00  0.00     0.049 A 
ATOM     42  N   UNL A   1      39.414  30.438  31.798  1.00  0.00    -0.248 NA
ATOM     43  C   UNL A   1      37.451  31.648  31.433  1.00  0.00     0.031 C 
ATOM     44  C   UNL A   1      39.123  28.801  27.653  1.00  0.00     0.029 A 
ATOM     45  N   UNL A   1      40.366  28.849  29.511  1.00  0.00    -0.354 N 
ATOM     46  C   UNL A   1      39.121  31.181  32.934  1.00  0.00     0.074 A 
ATOM     47  C   UNL A   1      37.922  31.938  32.641  1.00  0.00     0.031 C 
ATOM     48  C   UNL A   1      40.186  28.011  27.444  1.00  0.00     0.029 A 
ATOM     49  C   UNL A   1      41.027  28.021  28.636  1.00  0.00     0.049 A 
ATOM     50  H   UNL A   1      40.703  29.063  30.411  1.00  0.00     0.167 HD
ATOM     51  C   UNL A   1      39.784  31.203  34.115  1.00  0.00     0.037 A 
ATOM     52  C   UNL A   1      42.178  27.338  28.782  1.00  0.00     0.037 A 
ATOM     53  C   UNL A   1      40.984  30.451  34.390  1.00  0.00     0.049 A 
ATOM     54  C   UNL A   1      42.908  27.411  30.095  1.00  0.00     0.074 A 
ATOM     55  C   UNL A   1      41.708  30.382  35.568  1.00  0.00     0.029 A 
ATOM     56  N   UNL A   1      41.645  29.645  33.472  1.00  0.00    -0.354 N 
ATOM     57  N   UNL A   1      42.577  28.052  31.190  1.00  0.00    -0.248 NA
ATOM     58  C   UNL A   1      44.164  26.656  30.198  1.00  0.00     0.031 C 
ATOM     59  C   UNL A   1      42.834  29.584  35.347  1.00  0.00     0.029 A 
ATOM     60  C   UNL A   1      42.782  29.101  34.050  1.00  0.00     0.049 A 
ATOM     61  H   UNL A   1      41.349  29.485  32.547  1.00  0.00     0.167 HD
ATOM     62  C   UNL A   1      43.570  27.763  32.116  1.00  0.00     0.074 A 
ATOM     63  C   UNL A   1      44.500  26.865  31.463  1.00  0.00     0.031 C 
ATOM     64  C   UNL A   1      43.702  28.209  33.389  1.00  0.00     0.037 A 
BRANCH  51  65
ATOM     65  C   UNL A   1      39.230  32.055  35.224  1.00  0.00     0.064 A 
ATOM     66  C   UNL A   1      38.473  31.495  36.264  1.00  0.00     0.173 A 
ATOM     67  C   UNL A   1      39.551  33.418  35.309  1.00  0.00     0.173 A 
ATOM     68  F   UNL A   1      38.137  30.197  36.230  1.00  0.00    -0.203 F 
ATOM     69  C   UNL A   1      38.053  32.268  37.342  1.00  0.00     0.198 A 
ATOM     70  C   UNL A   1      39.153  34.183  36.404  1.00  0.00     0.198 A 
ATOM     71  F   UNL A   1      40.283  34.003  34.348  1.00  0.00    -0.203 F 
ATOM     72  F   UNL A   1      37.314  31.715  38.314  1.00  0.00    -0.200 F 
ATOM     73  C   UNL A   1      38.403  33.608  37.419  1.00  0.00     0.200 A 
ATOM     74  F   UNL A   1      39.511  35.472  36.484  1.00  0.00    -0.200 F 
ATOM     75  F   UNL A   1      38.022  34.344  38.471  1.00  0.00    -0.200 F 
ENDBRANCH  51  65
BRANCH  52  76
ATOM     76  C   UNL A   1      42.691  26.506  27.661  1.00  0.00     0.064 A 
ATOM     77  C   UNL A   1      42.228  25.199  27.458  1.00  0.00     0.173 A 
ATOM     78  C   UNL A   1      43.647  27.004  26.763  1.00  0.00     0.173 A 
ATOM     79  F   UNL A   1      41.327  24.670  28.299  1.00  0.00    -0.203 F 
ATOM     80  C   UNL A   1      42.713  24.417  26.412  1.00  0.00     0.198 A 
ATOM     81  C   UNL A   1      44.107  26.234  25.697  1.00  0.00     0.198 A 
ATOM     82  F   UNL A   1      44.120  28.251  26.909  1.00  0.00    -0.203 F 
ATOM     83  F   UNL A   1      42.286  23.155  26.268  1.00  0.00    -0.200 F 
ATOM     84  C   UNL A   1      43.646  24.938  25.527  1.00  0.00     0.200 A 
ATOM     85  F   UNL A   1      44.994  26.749  24.835  1.00  0.00    -0.200 F 
ATOM     86  F   UNL A   1      44.104  24.189  24.515  1.00  0.00    -0.200 F 
ENDBRANCH  52  76
BRANCH  64  87
ATOM     87  C   UNL A   1      44.892  27.725  34.170  1.00  0.00     0.064 A 
ATOM     88  C   UNL A   1      44.853  26.531  34.905  1.00  0.00     0.173 A 
ATOM     89  C   UNL A   1      46.100  28.439  34.146  1.00  0.00     0.173 A 
ATOM     90  F   UNL A   1      43.718  25.817  34.973  1.00  0.00    -0.203 F 
ATOM     91  C   UNL A   1      45.967  26.084  35.609  1.00  0.00     0.198 A 
ATOM     92  C   UNL A   1      47.224  27.970  34.820  1.00  0.00     0.198 A 
ATOM     93  F   UNL A   1      46.197  29.583  33.452  1.00  0.00    -0.203 F 
ATOM     94  F   UNL A   1      45.890  24.968  36.346  1.00  0.00    -0.200 F 
ATOM     95  C   UNL A   1      47.155  26.799  35.558  1.00  0.00     0.200 A 
ATOM     96  F   UNL A   1      48.377  28.652  34.754  1.00  0.00    -0.200 F 
ATOM     97  F   UNL A   1      48.231  26.361  36.225  1.00  0.00    -0.200 F 
ENDBRANCH  64  87
ENDBRANCH  38  39
ENDBRANCH  31  33
ENDBRANCH  30  31
ENDBRANCH  29  30
ENDBRANCH  28  29
ENDBRANCH  27  28
ENDBRANCH  26  27
ENDBRANCH   1  26
TORSDOF 22
ENDMDL
MODEL 3
REMARK VINA RESULT:      -8.9      1.911      3.118
REMARK SMILES CC(C)(C)n1ccnc(N(CC(=O)OCCOCCOCCOC(=O)c2ccc(-c3c4nc(c(-c5c(F)c(F)c(F)c(F)c5F)c5ccc([nH]5)c(-c5c(F)c(F)c(F)c(F)c5F)c5nc(c(-c6c(F)c(F)c(F)c(F)c6F)c6ccc3[nH]6)C=C5)C=C4)cc2)CC(F)(F)F)c1=O
REMARK SMILES IDX 18 1 17 2 16 3 15 4 14 5 12 6 13 7 11 8 10 9 9 10 5 11 6 12
REMARK SMILES IDX 94 13 7 14 95 15 8 16 2 17 1 18 3 19 4 20 89 21 90 22 91 23
REMARK SMILES IDX 92 24 93 25 19 26 20 27 21 28 22 29 23 30 24 31 25 32 26 33
REMARK SMILES IDX 27 34 88 35 28 36 87 37 29 38 30 39 31 40 81 41 32 42 86 43
REMARK SMILES IDX 80 44 82 45 33 46 85 47 79 48 78 49 34 51 66 52 46 53 65 54
REMARK SMILES IDX 47 55 50 56 64 57 83 58 48 59 49 60 63 62 84 63 51 64 35 65
REMARK SMILES IDX 36 66 44 67 37 68 38 69 42 70 45 71 39 72 40 73 43 74 41 75
REMARK SMILES IDX 67 76 68 77 76 78 69 79 70 80 74 81 77 82 71 83 72 84 75 85
REMARK SMILES IDX 73 86 52 87 53 88 61 89 54 90 55 91 59 92 62 93 56 94 57 95
REMARK SMILES IDX 60 96 58 97
REMARK H PARENT 82 50 50 61
REMARK Flexibility Score: inf
ROOT
ATOM      1  C   UNL A   1      33.593  28.468  23.568  1.00  0.00     0.188 C 
ENDROOT
BRANCH   1   2
ATOM      2  O   UNL A   1      32.875  28.107  22.394  1.00  0.00    -0.376 OA
BRANCH   2   3
ATOM      3  C   UNL A   1      32.308  26.803  22.311  1.00  0.00     0.202 C 
BRANCH   3   4
ATOM      4  C   UNL A   1      33.253  25.688  21.831  1.00  0.00     0.261 C 
BRANCH   4   5
ATOM      5  O   UNL A   1      34.077  25.077  22.864  1.00  0.00    -0.462 OA
BRANCH   5   6
ATOM      6  C   UNL A   1      34.448  23.784  22.665  1.00  0.00     0.325 C 
ATOM      7  O   UNL A   1      33.837  23.027  21.909  1.00  0.00    -0.250 OA
BRANCH   6   8
ATOM      8  C   UNL A   1      35.804  23.348  23.244  1.00  0.00     0.241 C 
BRANCH   8   9
ATOM      9  N   UNL A   1      35.917  22.616  24.527  1.00  0.00    -0.332 N 
BRANCH   9  10
ATOM     10  C   UNL A   1      34.781  22.016  25.097  1.00  0.00     0.196 A 
ATOM     11  N   UNL A   1      32.413  22.407  25.813  1.00  0.00    -0.306 N 
ATOM     12  C   UNL A   1      32.300  21.032  25.678  1.00  0.00     0.110 A 
ATOM     13  C   UNL A   1      33.707  22.917  25.816  1.00  0.00     0.294 A 
ATOM     14  C   UNL A   1      33.364  20.263  25.406  1.00  0.00     0.131 A 
ATOM     15  O   UNL A   1      34.069  23.976  26.313  1.00  0.00    -0.265 OA
ATOM     16  N   UNL A   1      34.601  20.725  25.033  1.00  0.00    -0.233 NA
BRANCH  11  17
ATOM     17  C   UNL A   1      31.199  23.293  25.868  1.00  0.00     0.039 C 
ATOM     18  C   UNL A   1      30.790  23.634  24.417  1.00  0.00     0.034 C 
ATOM     19  C   UNL A   1      31.413  24.646  26.597  1.00  0.00     0.034 C 
ATOM     20  C   UNL A   1      30.013  22.613  26.584  1.00  0.00     0.034 C 
ENDBRANCH  11  17
ENDBRANCH   9  10
BRANCH   9  21
ATOM     21  C   UNL A   1      37.267  22.174  24.954  1.00  0.00     0.234 C 
BRANCH  21  22
ATOM     22  C   UNL A   1      37.969  23.108  25.960  1.00  0.00     0.405 C 
ATOM     23  F   UNL A   1      38.908  22.504  26.709  1.00  0.00    -0.169 F 
ATOM     24  F   UNL A   1      38.585  24.108  25.296  1.00  0.00    -0.169 F 
ATOM     25  F   UNL A   1      37.083  23.679  26.810  1.00  0.00    -0.169 F 
ENDBRANCH  21  22
ENDBRANCH   9  21
ENDBRANCH   8   9
ENDBRANCH   6   8
ENDBRANCH   5   6
ENDBRANCH   4   5
ENDBRANCH   3   4
ENDBRANCH   2   3
ENDBRANCH   1   2
BRANCH   1  26
ATOM     26  C   UNL A   1      32.805  28.825  24.827  1.00  0.00     0.188 C 
BRANCH  26  27
ATOM     27  O   UNL A   1      31.992  29.964  24.622  1.00  0.00    -0.376 OA
BRANCH  27  28
ATOM     28  C   UNL A   1      31.365  30.468  25.787  1.00  0.00     0.202 C 
BRANCH  28  29
ATOM     29  C   UNL A   1      32.372  30.491  26.934  1.00  0.00     0.261 C 
BRANCH  29  30
ATOM     30  O   UNL A   1      33.527  31.320  26.684  1.00  0.00    -0.460 OA
BRANCH  30  31
ATOM     31  C   UNL A   1      33.749  32.364  27.509  1.00  0.00     0.338 C 
ATOM     32  O   UNL A   1      33.036  33.341  27.680  1.00  0.00    -0.246 OA
BRANCH  31  33
ATOM     33  C   UNL A   1      34.940  32.051  28.328  1.00  0.00     0.060 A 
ATOM     34  C   UNL A   1      34.849  31.099  29.345  1.00  0.00     0.016 A 
ATOM     35  C   UNL A   1      36.156  32.707  28.083  1.00  0.00     0.016 A 
ATOM     36  C   UNL A   1      35.980  30.786  30.099  1.00  0.00     0.010 A 
ATOM     37  C   UNL A   1      37.287  32.398  28.847  1.00  0.00     0.010 A 
ATOM     38  C   UNL A   1      37.212  31.416  29.844  1.00  0.00    -0.014 A 
BRANCH  38  39
ATOM     39  C   UNL A   1      38.435  30.921  30.525  1.00  0.00     0.031 A 
ATOM     40  C   UNL A   1      38.781  31.327  31.926  1.00  0.00     0.074 A 
ATOM     41  C   UNL A   1      39.229  30.070  29.850  1.00  0.00     0.049 A 
ATOM     42  N   UNL A   1      39.757  30.899  32.687  1.00  0.00    -0.248 NA
ATOM     43  C   UNL A   1      37.929  32.345  32.555  1.00  0.00     0.031 C 
ATOM     44  C   UNL A   1      39.008  29.641  28.467  1.00  0.00     0.029 A 
ATOM     45  N   UNL A   1      40.366  29.402  30.227  1.00  0.00    -0.354 N 
ATOM     46  C   UNL A   1      39.627  31.576  33.892  1.00  0.00     0.074 A 
ATOM     47  C   UNL A   1      38.508  32.483  33.743  1.00  0.00     0.031 C 
ATOM     48  C   UNL A   1      39.956  28.757  28.124  1.00  0.00     0.029 A 
ATOM     49  C   UNL A   1      40.868  28.577  29.249  1.00  0.00     0.049 A 
ATOM     50  H   UNL A   1      40.783  29.504  31.113  1.00  0.00     0.167 HD
ATOM     51  C   UNL A   1      40.363  31.430  35.019  1.00  0.00     0.037 A 
ATOM     52  C   UNL A   1      41.939  27.761  29.260  1.00  0.00     0.037 A 
ATOM     53  C   UNL A   1      41.482  30.529  35.150  1.00  0.00     0.049 A 
ATOM     54  C   UNL A   1      42.755  27.646  30.518  1.00  0.00     0.074 A 
ATOM     55  C   UNL A   1      42.268  30.286  36.264  1.00  0.00     0.029 A 
ATOM     56  N   UNL A   1      41.983  29.731  34.131  1.00  0.00    -0.354 N 
ATOM     57  N   UNL A   1      42.574  28.231  31.677  1.00  0.00    -0.248 NA
ATOM     58  C   UNL A   1      43.919  26.750  30.473  1.00  0.00     0.031 C 
ATOM     59  C   UNL A   1      43.277  29.388  35.903  1.00  0.00     0.029 A 
ATOM     60  C   UNL A   1      43.084  29.018  34.583  1.00  0.00     0.049 A 
ATOM     61  H   UNL A   1      41.611  29.679  33.220  1.00  0.00     0.167 HD
ATOM     62  C   UNL A   1      43.583  27.761  32.504  1.00  0.00     0.074 A 
ATOM     63  C   UNL A   1      44.358  26.819  31.722  1.00  0.00     0.031 C 
ATOM     64  C   UNL A   1      43.849  28.086  33.793  1.00  0.00     0.037 A 
BRANCH  51  65
ATOM     65  C   UNL A   1      39.985  32.247  36.224  1.00  0.00     0.064 A 
ATOM     66  C   UNL A   1      40.677  33.421  36.555  1.00  0.00     0.173 A 
ATOM     67  C   UNL A   1      38.854  31.917  36.987  1.00  0.00     0.173 A 
ATOM     68  F   UNL A   1      41.766  33.781  35.860  1.00  0.00    -0.203 F 
ATOM     69  C   UNL A   1      40.257  34.229  37.608  1.00  0.00     0.198 A 
ATOM     70  C   UNL A   1      38.420  32.743  38.021  1.00  0.00     0.198 A 
ATOM     71  F   UNL A   1      38.147  30.810  36.706  1.00  0.00    -0.203 F 
ATOM     72  F   UNL A   1      40.946  35.336  37.917  1.00  0.00    -0.200 F 
ATOM     73  C   UNL A   1      39.122  33.897  38.332  1.00  0.00     0.200 A 
ATOM     74  F   UNL A   1      37.310  32.429  38.706  1.00  0.00    -0.200 F 
ATOM     75  F   UNL A   1      38.702  34.691  39.326  1.00  0.00    -0.200 F 
ENDBRANCH  51  65
BRANCH  52  76
ATOM     76  C   UNL A   1      42.277  26.969  28.048  1.00  0.00     0.064 A 
ATOM     77  C   UNL A   1      43.214  27.436  27.116  1.00  0.00     0.173 A 
ATOM     78  C   UNL A   1      41.679  25.724  27.800  1.00  0.00     0.173 A 
ATOM     79  F   UNL A   1      43.801  28.628  27.297  1.00  0.00    -0.203 F 
ATOM     80  C   UNL A   1      43.527  26.698  25.976  1.00  0.00     0.198 A 
ATOM     81  C   UNL A   1      42.017  24.971  26.678  1.00  0.00     0.198 A 
ATOM     82  F   UNL A   1      40.780  25.228  28.663  1.00  0.00    -0.203 F 
ATOM     83  F   UNL A   1      44.392  27.189  25.079  1.00  0.00    -0.200 F 
ATOM     84  C   UNL A   1      42.934  25.462  25.762  1.00  0.00     0.200 A 
ATOM     85  F   UNL A   1      41.455  23.770  26.486  1.00  0.00    -0.200 F 
ATOM     86  F   UNL A   1      43.242  24.748  24.671  1.00  0.00    -0.200 F 
ENDBRANCH  52  76
BRANCH  64  87
ATOM     87  C   UNL A   1      45.022  27.411  34.448  1.00  0.00     0.064 A 
ATOM     88  C   UNL A   1      44.883  26.195  35.133  1.00  0.00     0.173 A 
ATOM     89  C   UNL A   1      46.310  27.963  34.350  1.00  0.00     0.173 A 
ATOM     90  F   UNL A   1      43.673  25.631  35.268  1.00  0.00    -0.203 F 
ATOM     91  C   UNL A   1      45.981  25.571  35.718  1.00  0.00     0.198 A 
ATOM     92  C   UNL A   1      47.411  27.317  34.904  1.00  0.00     0.198 A 
ATOM     93  F   UNL A   1      46.502  29.119  33.698  1.00  0.00    -0.203 F 
ATOM     94  F   UNL A   1      45.814  24.436  36.412  1.00  0.00    -0.200 F 
ATOM     95  C   UNL A   1      47.245  26.128  35.596  1.00  0.00     0.200 A 
ATOM     96  F   UNL A   1      48.635  27.847  34.767  1.00  0.00    -0.200 F 
ATOM     97  F   UNL A   1      48.304  25.519  36.149  1.00  0.00    -0.200 F 
ENDBRANCH  64  87
ENDBRANCH  38  39
ENDBRANCH  31  33
ENDBRANCH  30  31
ENDBRANCH  29  30
ENDBRANCH  28  29
ENDBRANCH  27  28
ENDBRANCH  26  27
ENDBRANCH   1  26
TORSDOF 22
ENDMDL
