MODEL 1
REMARK VINA RESULT:     -11.6      0.000      0.000
REMARK SMILES CCc1ccc2c(c1)C=C(C(=O)OCCOCCOCCOC(=O)c1ccc(-c3c4nc(c(-c5c(F)c(F)c(F)c(F)c5F)c5ccc([nH]5)c(-c5c(F)c(F)c(F)c(F)c5F)c5nc(c(-c6c(F)c(F)c(F)c(F)c6F)c6ccc3[nH]6)C=C5)C=C4)cc1)[C@H](C(F)(F)F)O2
REMARK SMILES IDX 18 1 17 2 16 3 15 4 14 5 13 6 11 7 12 8 10 9 3 10 4 11 8 12
REMARK SMILES IDX 5 13 7 14 6 15 9 16 93 17 88 18 2 19 1 20 89 21 90 22 91 23
REMARK SMILES IDX 92 24 19 25 20 26 21 27 22 28 23 29 24 30 25 31 26 32 87 33
REMARK SMILES IDX 27 34 86 35 28 36 29 37 30 38 80 39 31 40 85 41 79 42 81 43
REMARK SMILES IDX 32 44 84 45 78 46 77 47 33 49 65 50 45 51 64 52 46 53 49 54
REMARK SMILES IDX 63 55 82 56 47 57 48 58 62 60 83 61 50 62 34 63 35 64 43 65
REMARK SMILES IDX 36 66 37 67 41 68 44 69 38 70 39 71 42 72 40 73 66 74 67 75
REMARK SMILES IDX 75 76 68 77 69 78 73 79 76 80 70 81 71 82 74 83 72 84 51 85
REMARK SMILES IDX 52 86 60 87 53 88 54 89 58 90 61 91 55 92 56 93 59 94 57 95
REMARK H PARENT 81 48 49 59
REMARK Flexibility Score: inf
ROOT
ATOM      1  C   UNL A   1      32.637  28.666  22.813  1.00  0.00     0.188 C 
ENDROOT
BRANCH   1   2
ATOM      2  C   UNL A   1      33.881  27.859  22.389  1.00  0.00     0.188 C 
BRANCH   2   3
ATOM      3  O   UNL A   1      33.633  26.705  21.626  1.00  0.00    -0.376 OA
BRANCH   3   4
ATOM      4  C   UNL A   1      32.325  26.168  21.529  1.00  0.00     0.202 C 
BRANCH   4   5
ATOM      5  C   UNL A   1      31.547  25.462  22.658  1.00  0.00     0.261 C 
BRANCH   5   6
ATOM      6  O   UNL A   1      31.875  24.102  22.956  1.00  0.00    -0.460 OA
BRANCH   6   7
ATOM      7  C   UNL A   1      31.703  23.709  24.242  1.00  0.00     0.338 C 
ATOM      8  O   UNL A   1      30.850  24.115  25.010  1.00  0.00    -0.246 OA
BRANCH   7   9
ATOM      9  C   UNL A   1      32.609  22.587  24.559  1.00  0.00     0.087 C 
ATOM     10  C   UNL A   1      33.997  17.967  24.244  1.00  0.00    -0.047 A 
ATOM     11  C   UNL A   1      35.299  18.363  24.583  1.00  0.00     0.007 A 
ATOM     12  C   UNL A   1      32.982  18.939  24.175  1.00  0.00     0.015 A 
ATOM     13  C   UNL A   1      35.588  19.700  24.845  1.00  0.00     0.047 A 
ATOM     14  C   UNL A   1      33.272  20.287  24.414  1.00  0.00     0.018 A 
ATOM     15  C   UNL A   1      34.577  20.653  24.766  1.00  0.00     0.128 A 
ATOM     16  C   UNL A   1      32.287  21.341  24.171  1.00  0.00     0.027 C 
ATOM     17  O   UNL A   1      34.949  21.957  24.966  1.00  0.00    -0.475 OA
ATOM     18  C   UNL A   1      33.867  22.840  25.362  1.00  0.00     0.316 C 
BRANCH  10  19
ATOM     19  C   UNL A   1      33.717  16.527  23.882  1.00  0.00     0.032 C 
ATOM     20  C   UNL A   1      33.385  15.656  25.082  1.00  0.00     0.009 C 
ENDBRANCH  10  19
BRANCH  18  21
ATOM     21  C   UNL A   1      34.425  24.272  25.443  1.00  0.00     0.430 C 
ATOM     22  F   UNL A   1      35.671  24.287  25.974  1.00  0.00    -0.167 F 
ATOM     23  F   UNL A   1      34.561  24.791  24.192  1.00  0.00    -0.167 F 
ATOM     24  F   UNL A   1      33.643  25.116  26.140  1.00  0.00    -0.167 F 
ENDBRANCH  18  21
ENDBRANCH   7   9
ENDBRANCH   6   7
ENDBRANCH   5   6
ENDBRANCH   4   5
ENDBRANCH   3   4
ENDBRANCH   2   3
ENDBRANCH   1   2
BRANCH   1  25
ATOM     25  O   UNL A   1      32.145  28.567  24.135  1.00  0.00    -0.376 OA
BRANCH  25  26
ATOM     26  C   UNL A   1      31.232  29.542  24.614  1.00  0.00     0.202 C 
BRANCH  26  27
ATOM     27  C   UNL A   1      31.568  30.491  25.783  1.00  0.00     0.261 C 
BRANCH  27  28
ATOM     28  O   UNL A   1      32.848  30.323  26.413  1.00  0.00    -0.460 OA
BRANCH  28  29
ATOM     29  C   UNL A   1      33.326  31.411  27.070  1.00  0.00     0.338 C 
ATOM     30  O   UNL A   1      32.741  32.450  27.307  1.00  0.00    -0.246 OA
BRANCH  29  31
ATOM     31  C   UNL A   1      34.654  31.096  27.638  1.00  0.00     0.060 A 
ATOM     32  C   UNL A   1      34.958  29.761  27.943  1.00  0.00     0.016 A 
ATOM     33  C   UNL A   1      35.564  32.112  27.929  1.00  0.00     0.016 A 
ATOM     34  C   UNL A   1      36.173  29.438  28.547  1.00  0.00     0.010 A 
ATOM     35  C   UNL A   1      36.770  31.789  28.561  1.00  0.00     0.010 A 
ATOM     36  C   UNL A   1      37.071  30.454  28.895  1.00  0.00    -0.014 A 
BRANCH  36  37
ATOM     37  C   UNL A   1      38.253  30.144  29.737  1.00  0.00     0.031 A 
ATOM     38  C   UNL A   1      39.281  29.176  29.219  1.00  0.00     0.074 A 
ATOM     39  C   UNL A   1      38.417  30.716  30.943  1.00  0.00     0.049 A 
ATOM     40  N   UNL A   1      40.348  28.698  29.807  1.00  0.00    -0.248 NA
ATOM     41  C   UNL A   1      39.078  28.680  27.848  1.00  0.00     0.031 C 
ATOM     42  C   UNL A   1      37.522  31.707  31.537  1.00  0.00     0.029 A 
ATOM     43  N   UNL A   1      39.396  30.534  31.890  1.00  0.00    -0.354 N 
ATOM     44  C   UNL A   1      40.935  27.839  28.887  1.00  0.00     0.074 A 
ATOM     45  C   UNL A   1      40.095  27.841  27.709  1.00  0.00     0.031 C 
ATOM     46  C   UNL A   1      37.982  32.031  32.759  1.00  0.00     0.029 A 
ATOM     47  C   UNL A   1      39.181  31.244  33.046  1.00  0.00     0.049 A 
ATOM     48  H   UNL A   1      40.177  29.950  31.754  1.00  0.00     0.167 HD
ATOM     49  C   UNL A   1      42.074  27.116  29.013  1.00  0.00     0.037 A 
ATOM     50  C   UNL A   1      39.857  31.233  34.213  1.00  0.00     0.037 A 
ATOM     51  C   UNL A   1      42.910  27.117  30.185  1.00  0.00     0.049 A 
ATOM     52  C   UNL A   1      41.075  30.352  34.354  1.00  0.00     0.074 A 
ATOM     53  C   UNL A   1      44.097  26.437  30.397  1.00  0.00     0.029 A 
ATOM     54  N   UNL A   1      42.643  27.824  31.347  1.00  0.00    -0.354 N 
ATOM     55  N   UNL A   1      41.641  29.566  33.471  1.00  0.00    -0.248 NA
ATOM     56  C   UNL A   1      41.750  30.360  35.661  1.00  0.00     0.031 C 
ATOM     57  C   UNL A   1      44.514  26.680  31.708  1.00  0.00     0.029 A 
ATOM     58  C   UNL A   1      43.625  27.568  32.292  1.00  0.00     0.049 A 
ATOM     59  H   UNL A   1      41.870  28.418  31.483  1.00  0.00     0.167 HD
ATOM     60  C   UNL A   1      42.755  29.020  34.100  1.00  0.00     0.074 A 
ATOM     61  C   UNL A   1      42.793  29.575  35.435  1.00  0.00     0.031 C 
ATOM     62  C   UNL A   1      43.664  28.138  33.614  1.00  0.00     0.037 A 
BRANCH  49  63
ATOM     63  C   UNL A   1      42.476  26.236  27.865  1.00  0.00     0.064 A 
ATOM     64  C   UNL A   1      41.902  24.972  27.664  1.00  0.00     0.173 A 
ATOM     65  C   UNL A   1      43.403  26.695  26.916  1.00  0.00     0.173 A 
ATOM     66  F   UNL A   1      41.019  24.483  28.548  1.00  0.00    -0.203 F 
ATOM     67  C   UNL A   1      42.254  24.194  26.564  1.00  0.00     0.198 A 
ATOM     68  C   UNL A   1      43.729  25.927  25.802  1.00  0.00     0.198 A 
ATOM     69  F   UNL A   1      43.978  27.898  27.058  1.00  0.00    -0.203 F 
ATOM     70  F   UNL A   1      41.721  22.973  26.412  1.00  0.00    -0.200 F 
ATOM     71  C   UNL A   1      43.158  24.675  25.629  1.00  0.00     0.200 A 
ATOM     72  F   UNL A   1      44.590  26.401  24.891  1.00  0.00    -0.200 F 
ATOM     73  F   UNL A   1      43.482  23.931  24.563  1.00  0.00    -0.200 F 
ENDBRANCH  49  63
BRANCH  50  74
ATOM     74  C   UNL A   1      39.391  32.059  35.359  1.00  0.00     0.064 A 
ATOM     75  C   UNL A   1      39.852  33.372  35.542  1.00  0.00     0.173 A 
ATOM     76  C   UNL A   1      38.522  31.536  36.328  1.00  0.00     0.173 A 
ATOM     77  F   UNL A   1      40.711  33.908  34.662  1.00  0.00    -0.203 F 
ATOM     78  C   UNL A   1      39.489  34.114  36.664  1.00  0.00     0.198 A 
ATOM     79  C   UNL A   1      38.130  32.293  37.431  1.00  0.00     0.198 A 
ATOM     80  F   UNL A   1      38.057  30.284  36.208  1.00  0.00    -0.203 F 
ATOM     81  F   UNL A   1      40.002  35.338  36.849  1.00  0.00    -0.200 F 
ATOM     82  C   UNL A   1      38.624  33.576  37.604  1.00  0.00     0.200 A 
ATOM     83  F   UNL A   1      37.288  31.771  38.333  1.00  0.00    -0.200 F 
ATOM     84  F   UNL A   1      38.282  34.287  38.688  1.00  0.00    -0.200 F 
ENDBRANCH  50  74
BRANCH  62  85
ATOM     85  C   UNL A   1      44.810  27.756  34.509  1.00  0.00     0.064 A 
ATOM     86  C   UNL A   1      44.755  26.634  35.349  1.00  0.00     0.173 A 
ATOM     87  C   UNL A   1      46.000  28.502  34.492  1.00  0.00     0.173 A 
ATOM     88  F   UNL A   1      43.639  25.893  35.412  1.00  0.00    -0.203 F 
ATOM     89  C   UNL A   1      45.835  26.292  36.160  1.00  0.00     0.198 A 
ATOM     90  C   UNL A   1      47.089  28.137  35.277  1.00  0.00     0.198 A 
ATOM     91  F   UNL A   1      46.112  29.580  33.699  1.00  0.00    -0.203 F 
ATOM     92  F   UNL A   1      45.738  25.248  36.995  1.00  0.00    -0.200 F 
ATOM     93  C   UNL A   1      47.003  27.038  36.118  1.00  0.00     0.200 A 
ATOM     94  F   UNL A   1      48.224  28.848  35.220  1.00  0.00    -0.200 F 
ATOM     95  F   UNL A   1      48.043  26.701  36.892  1.00  0.00    -0.200 F 
ENDBRANCH  62  85
ENDBRANCH  36  37
ENDBRANCH  29  31
ENDBRANCH  28  29
ENDBRANCH  27  28
ENDBRANCH  26  27
ENDBRANCH  25  26
ENDBRANCH   1  25
TORSDOF 19
ENDMDL
MODEL 2
REMARK VINA RESULT:     -11.4      1.382      2.522
REMARK SMILES CCc1ccc2c(c1)C=C(C(=O)OCCOCCOCCOC(=O)c1ccc(-c3c4nc(c(-c5c(F)c(F)c(F)c(F)c5F)c5ccc([nH]5)c(-c5c(F)c(F)c(F)c(F)c5F)c5nc(c(-c6c(F)c(F)c(F)c(F)c6F)c6ccc3[nH]6)C=C5)C=C4)cc1)[C@H](C(F)(F)F)O2
REMARK SMILES IDX 18 1 17 2 16 3 15 4 14 5 13 6 11 7 12 8 10 9 3 10 4 11 8 12
REMARK SMILES IDX 5 13 7 14 6 15 9 16 93 17 88 18 2 19 1 20 89 21 90 22 91 23
REMARK SMILES IDX 92 24 19 25 20 26 21 27 22 28 23 29 24 30 25 31 26 32 87 33
REMARK SMILES IDX 27 34 86 35 28 36 29 37 30 38 80 39 31 40 85 41 79 42 81 43
REMARK SMILES IDX 32 44 84 45 78 46 77 47 33 49 65 50 45 51 64 52 46 53 49 54
REMARK SMILES IDX 63 55 82 56 47 57 48 58 62 60 83 61 50 62 34 63 35 64 43 65
REMARK SMILES IDX 36 66 37 67 41 68 44 69 38 70 39 71 42 72 40 73 66 74 67 75
REMARK SMILES IDX 75 76 68 77 69 78 73 79 76 80 70 81 71 82 74 83 72 84 51 85
REMARK SMILES IDX 52 86 60 87 53 88 54 89 58 90 61 91 55 92 56 93 59 94 57 95
REMARK H PARENT 81 48 49 59
REMARK Flexibility Score: inf
ROOT
ATOM      1  C   UNL A   1      32.587  28.499  22.796  1.00  0.00     0.188 C 
ENDROOT
BRANCH   1   2
ATOM      2  C   UNL A   1      33.850  27.798  22.255  1.00  0.00     0.188 C 
BRANCH   2   3
ATOM      3  O   UNL A   1      33.664  26.497  21.757  1.00  0.00    -0.376 OA
BRANCH   3   4
ATOM      4  C   UNL A   1      32.365  25.936  21.665  1.00  0.00     0.202 C 
BRANCH   4   5
ATOM      5  C   UNL A   1      31.541  25.355  22.832  1.00  0.00     0.261 C 
BRANCH   5   6
ATOM      6  O   UNL A   1      31.723  23.977  23.167  1.00  0.00    -0.460 OA
BRANCH   6   7
ATOM      7  C   UNL A   1      32.077  23.711  24.449  1.00  0.00     0.338 C 
ATOM      8  O   UNL A   1      31.360  23.807  25.428  1.00  0.00    -0.246 OA
BRANCH   7   9
ATOM      9  C   UNL A   1      33.433  23.128  24.494  1.00  0.00     0.087 C 
ATOM     10  C   UNL A   1      38.057  23.114  25.905  1.00  0.00    -0.047 A 
ATOM     11  C   UNL A   1      38.091  21.729  25.690  1.00  0.00     0.007 A 
ATOM     12  C   UNL A   1      36.871  23.820  25.634  1.00  0.00     0.015 A 
ATOM     13  C   UNL A   1      36.966  21.057  25.217  1.00  0.00     0.047 A 
ATOM     14  C   UNL A   1      35.730  23.147  25.181  1.00  0.00     0.018 A 
ATOM     15  C   UNL A   1      35.796  21.766  24.959  1.00  0.00     0.128 A 
ATOM     16  C   UNL A   1      34.436  23.817  25.066  1.00  0.00     0.027 C 
ATOM     17  O   UNL A   1      34.710  21.030  24.564  1.00  0.00    -0.475 OA
ATOM     18  C   UNL A   1      33.696  21.784  23.850  1.00  0.00     0.316 C 
BRANCH  10  19
ATOM     19  C   UNL A   1      39.258  23.814  26.497  1.00  0.00     0.032 C 
ATOM     20  C   UNL A   1      38.895  24.865  27.533  1.00  0.00     0.009 C 
ENDBRANCH  10  19
BRANCH  18  21
ATOM     21  C   UNL A   1      32.509  20.845  23.573  1.00  0.00     0.430 C 
ATOM     22  F   UNL A   1      32.905  19.550  23.520  1.00  0.00    -0.167 F 
ATOM     23  F   UNL A   1      31.617  20.906  24.598  1.00  0.00    -0.167 F 
ATOM     24  F   UNL A   1      31.838  21.142  22.445  1.00  0.00    -0.167 F 
ENDBRANCH  18  21
ENDBRANCH   7   9
ENDBRANCH   6   7
ENDBRANCH   5   6
ENDBRANCH   4   5
ENDBRANCH   3   4
ENDBRANCH   2   3
ENDBRANCH   1   2
BRANCH   1  25
ATOM     25  O   UNL A   1      32.259  28.408  24.169  1.00  0.00    -0.376 OA
BRANCH  25  26
ATOM     26  C   UNL A   1      31.360  29.349  24.735  1.00  0.00     0.202 C 
BRANCH  26  27
ATOM     27  C   UNL A   1      31.752  30.267  25.912  1.00  0.00     0.261 C 
BRANCH  27  28
ATOM     28  O   UNL A   1      33.146  30.333  26.253  1.00  0.00    -0.460 OA
BRANCH  28  29
ATOM     29  C   UNL A   1      33.497  31.339  27.093  1.00  0.00     0.338 C 
ATOM     30  O   UNL A   1      32.818  32.286  27.441  1.00  0.00    -0.246 OA
BRANCH  29  31
ATOM     31  C   UNL A   1      34.811  31.036  27.699  1.00  0.00     0.060 A 
ATOM     32  C   UNL A   1      35.112  29.706  28.026  1.00  0.00     0.016 A 
ATOM     33  C   UNL A   1      35.711  32.058  28.001  1.00  0.00     0.016 A 
ATOM     34  C   UNL A   1      36.313  29.394  28.665  1.00  0.00     0.010 A 
ATOM     35  C   UNL A   1      36.901  31.747  28.666  1.00  0.00     0.010 A 
ATOM     36  C   UNL A   1      37.198  30.418  29.023  1.00  0.00    -0.014 A 
BRANCH  36  37
ATOM     37  C   UNL A   1      38.360  30.122  29.899  1.00  0.00     0.031 A 
ATOM     38  C   UNL A   1      39.435  29.200  29.392  1.00  0.00     0.074 A 
ATOM     39  C   UNL A   1      38.464  30.667  31.123  1.00  0.00     0.049 A 
ATOM     40  N   UNL A   1      40.496  28.739  30.005  1.00  0.00    -0.248 NA
ATOM     41  C   UNL A   1      39.295  28.734  28.003  1.00  0.00     0.031 C 
ATOM     42  C   UNL A   1      37.518  31.614  31.711  1.00  0.00     0.029 A 
ATOM     43  N   UNL A   1      39.415  30.490  32.099  1.00  0.00    -0.354 N 
ATOM     44  C   UNL A   1      41.141  27.923  29.085  1.00  0.00     0.074 A 
ATOM     45  C   UNL A   1      40.342  27.931  27.879  1.00  0.00     0.031 C 
ATOM     46  C   UNL A   1      37.925  31.920  32.955  1.00  0.00     0.029 A 
ATOM     47  C   UNL A   1      39.138  31.162  33.265  1.00  0.00     0.049 A 
ATOM     48  H   UNL A   1      40.218  29.934  31.976  1.00  0.00     0.167 HD
ATOM     49  C   UNL A   1      42.297  27.233  29.233  1.00  0.00     0.037 A 
ATOM     50  C   UNL A   1      39.774  31.141  34.454  1.00  0.00     0.037 A 
ATOM     51  C   UNL A   1      43.092  27.228  30.433  1.00  0.00     0.049 A 
ATOM     52  C   UNL A   1      41.013  30.295  34.616  1.00  0.00     0.074 A 
ATOM     53  C   UNL A   1      44.291  26.580  30.669  1.00  0.00     0.029 A 
ATOM     54  N   UNL A   1      42.762  27.896  31.603  1.00  0.00    -0.354 N 
ATOM     55  N   UNL A   1      41.634  29.550  33.734  1.00  0.00    -0.248 NA
ATOM     56  C   UNL A   1      41.642  30.289  35.946  1.00  0.00     0.031 C 
ATOM     57  C   UNL A   1      44.655  26.801  32.000  1.00  0.00     0.029 A 
ATOM     58  C   UNL A   1      43.719  27.645  32.575  1.00  0.00     0.049 A 
ATOM     59  H   UNL A   1      41.967  28.462  31.726  1.00  0.00     0.167 HD
ATOM     60  C   UNL A   1      42.742  29.022  34.387  1.00  0.00     0.074 A 
ATOM     61  C   UNL A   1      42.716  29.542  35.736  1.00  0.00     0.031 C 
ATOM     62  C   UNL A   1      43.695  28.182  33.912  1.00  0.00     0.037 A 
BRANCH  49  63
ATOM     63  C   UNL A   1      42.766  26.397  28.078  1.00  0.00     0.064 A 
ATOM     64  C   UNL A   1      43.554  26.931  27.048  1.00  0.00     0.173 A 
ATOM     65  C   UNL A   1      42.475  25.024  28.037  1.00  0.00     0.173 A 
ATOM     66  F   UNL A   1      43.851  28.240  27.034  1.00  0.00    -0.203 F 
ATOM     67  C   UNL A   1      44.019  26.126  26.012  1.00  0.00     0.198 A 
ATOM     68  C   UNL A   1      42.968  24.216  27.016  1.00  0.00     0.198 A 
ATOM     69  F   UNL A   1      41.729  24.461  28.999  1.00  0.00    -0.203 F 
ATOM     70  F   UNL A   1      44.740  26.665  25.019  1.00  0.00    -0.200 F 
ATOM     71  C   UNL A   1      43.735  24.768  26.002  1.00  0.00     0.200 A 
ATOM     72  F   UNL A   1      42.706  22.902  27.018  1.00  0.00    -0.200 F 
ATOM     73  F   UNL A   1      44.199  23.992  25.013  1.00  0.00    -0.200 F 
ENDBRANCH  49  63
BRANCH  50  74
ATOM     74  C   UNL A   1      39.243  31.922  35.604  1.00  0.00     0.064 A 
ATOM     75  C   UNL A   1      39.667  33.238  35.845  1.00  0.00     0.173 A 
ATOM     76  C   UNL A   1      38.345  31.352  36.519  1.00  0.00     0.173 A 
ATOM     77  F   UNL A   1      40.550  33.818  35.018  1.00  0.00    -0.203 F 
ATOM     78  C   UNL A   1      39.241  33.938  36.972  1.00  0.00     0.198 A 
ATOM     79  C   UNL A   1      37.891  32.066  37.626  1.00  0.00     0.198 A 
ATOM     80  F   UNL A   1      37.913  30.095  36.342  1.00  0.00    -0.203 F 
ATOM     81  F   UNL A   1      39.720  35.166  37.215  1.00  0.00    -0.200 F 
ATOM     82  C   UNL A   1      38.350  33.354  37.859  1.00  0.00     0.200 A 
ATOM     83  F   UNL A   1      37.025  31.499  38.477  1.00  0.00    -0.200 F 
ATOM     84  F   UNL A   1      37.948  34.024  38.947  1.00  0.00    -0.200 F 
ENDBRANCH  50  74
BRANCH  62  85
ATOM     85  C   UNL A   1      44.821  27.812  34.836  1.00  0.00     0.064 A 
ATOM     86  C   UNL A   1      44.765  26.676  35.658  1.00  0.00     0.173 A 
ATOM     87  C   UNL A   1      45.994  28.584  34.867  1.00  0.00     0.173 A 
ATOM     88  F   UNL A   1      43.664  25.910  35.676  1.00  0.00    -0.203 F 
ATOM     89  C   UNL A   1      45.826  26.346  36.498  1.00  0.00     0.198 A 
ATOM     90  C   UNL A   1      47.066  28.231  35.680  1.00  0.00     0.198 A 
ATOM     91  F   UNL A   1      46.106  29.675  34.094  1.00  0.00    -0.203 F 
ATOM     92  F   UNL A   1      45.727  25.287  37.314  1.00  0.00    -0.200 F 
ATOM     93  C   UNL A   1      46.978  27.118  36.503  1.00  0.00     0.200 A 
ATOM     94  F   UNL A   1      48.186  28.967  35.669  1.00  0.00    -0.200 F 
ATOM     95  F   UNL A   1      48.001  26.792  37.304  1.00  0.00    -0.200 F 
ENDBRANCH  62  85
ENDBRANCH  36  37
ENDBRANCH  29  31
ENDBRANCH  28  29
ENDBRANCH  27  28
ENDBRANCH  26  27
ENDBRANCH  25  26
ENDBRANCH   1  25
TORSDOF 19
ENDMDL
MODEL 3
REMARK VINA RESULT:     -11.4      1.438      2.329
REMARK SMILES CCc1ccc2c(c1)C=C(C(=O)OCCOCCOCCOC(=O)c1ccc(-c3c4nc(c(-c5c(F)c(F)c(F)c(F)c5F)c5ccc([nH]5)c(-c5c(F)c(F)c(F)c(F)c5F)c5nc(c(-c6c(F)c(F)c(F)c(F)c6F)c6ccc3[nH]6)C=C5)C=C4)cc1)[C@H](C(F)(F)F)O2
REMARK SMILES IDX 18 1 17 2 16 3 15 4 14 5 13 6 11 7 12 8 10 9 3 10 4 11 8 12
REMARK SMILES IDX 5 13 7 14 6 15 9 16 93 17 88 18 2 19 1 20 89 21 90 22 91 23
REMARK SMILES IDX 92 24 19 25 20 26 21 27 22 28 23 29 24 30 25 31 26 32 87 33
REMARK SMILES IDX 27 34 86 35 28 36 29 37 30 38 80 39 31 40 85 41 79 42 81 43
REMARK SMILES IDX 32 44 84 45 78 46 77 47 33 49 65 50 45 51 64 52 46 53 49 54
REMARK SMILES IDX 63 55 82 56 47 57 48 58 62 60 83 61 50 62 34 63 35 64 43 65
REMARK SMILES IDX 36 66 37 67 41 68 44 69 38 70 39 71 42 72 40 73 66 74 67 75
REMARK SMILES IDX 75 76 68 77 69 78 73 79 76 80 70 81 71 82 74 83 72 84 51 85
REMARK SMILES IDX 52 86 60 87 53 88 54 89 58 90 61 91 55 92 56 93 59 94 57 95
REMARK H PARENT 81 48 49 59
REMARK Flexibility Score: inf
ROOT
ATOM      1  C   UNL A   1      31.009  28.946  22.842  1.00  0.00     0.188 C 
ENDROOT
BRANCH   1   2
ATOM      2  C   UNL A   1      30.267  27.595  22.801  1.00  0.00     0.188 C 
BRANCH   2   3
ATOM      3  O   UNL A   1      29.581  27.236  23.974  1.00  0.00    -0.376 OA
BRANCH   3   4
ATOM      4  C   UNL A   1      29.552  25.889  24.413  1.00  0.00     0.202 C 
BRANCH   4   5
ATOM      5  C   UNL A   1      30.589  24.799  24.071  1.00  0.00     0.261 C 
BRANCH   5   6
ATOM      6  O   UNL A   1      30.792  23.741  25.011  1.00  0.00    -0.460 OA
BRANCH   6   7
ATOM      7  C   UNL A   1      31.468  24.063  26.142  1.00  0.00     0.338 C 
ATOM      8  O   UNL A   1      30.975  24.382  27.208  1.00  0.00    -0.246 OA
BRANCH   7   9
ATOM      9  C   UNL A   1      32.913  23.827  25.957  1.00  0.00     0.087 C 
ATOM     10  C   UNL A   1      36.718  20.990  25.033  1.00  0.00    -0.047 A 
ATOM     11  C   UNL A   1      37.437  22.128  24.640  1.00  0.00     0.007 A 
ATOM     12  C   UNL A   1      35.395  21.140  25.488  1.00  0.00     0.015 A 
ATOM     13  C   UNL A   1      36.851  23.391  24.694  1.00  0.00     0.047 A 
ATOM     14  C   UNL A   1      34.793  22.403  25.521  1.00  0.00     0.018 A 
ATOM     15  C   UNL A   1      35.539  23.525  25.139  1.00  0.00     0.128 A 
ATOM     16  C   UNL A   1      33.370  22.571  25.811  1.00  0.00     0.027 C 
ATOM     17  O   UNL A   1      35.005  24.787  25.098  1.00  0.00    -0.475 OA
ATOM     18  C   UNL A   1      33.876  24.994  25.985  1.00  0.00     0.316 C 
BRANCH  10  19
ATOM     19  C   UNL A   1      37.338  19.621  24.890  1.00  0.00     0.032 C 
ATOM     20  C   UNL A   1      38.805  19.577  25.286  1.00  0.00     0.009 C 
ENDBRANCH  10  19
BRANCH  18  21
ATOM     21  C   UNL A   1      33.334  26.414  25.744  1.00  0.00     0.430 C 
ATOM     22  F   UNL A   1      34.281  27.352  25.984  1.00  0.00    -0.167 F 
ATOM     23  F   UNL A   1      32.999  26.569  24.434  1.00  0.00    -0.167 F 
ATOM     24  F   UNL A   1      32.239  26.703  26.470  1.00  0.00    -0.167 F 
ENDBRANCH  18  21
ENDBRANCH   7   9
ENDBRANCH   6   7
ENDBRANCH   5   6
ENDBRANCH   4   5
ENDBRANCH   3   4
ENDBRANCH   2   3
ENDBRANCH   1   2
BRANCH   1  25
ATOM     25  O   UNL A   1      31.749  29.315  23.989  1.00  0.00    -0.376 OA
BRANCH  25  26
ATOM     26  C   UNL A   1      31.129  30.098  24.997  1.00  0.00     0.202 C 
BRANCH  26  27
ATOM     27  C   UNL A   1      31.777  30.342  26.376  1.00  0.00     0.261 C 
BRANCH  27  28
ATOM     28  O   UNL A   1      33.198  30.547  26.402  1.00  0.00    -0.460 OA
BRANCH  28  29
ATOM     29  C   UNL A   1      33.633  31.529  27.234  1.00  0.00     0.338 C 
ATOM     30  O   UNL A   1      33.018  32.508  27.610  1.00  0.00    -0.246 OA
BRANCH  29  31
ATOM     31  C   UNL A   1      34.951  31.153  27.788  1.00  0.00     0.060 A 
ATOM     32  C   UNL A   1      35.165  29.823  28.177  1.00  0.00     0.016 A 
ATOM     33  C   UNL A   1      35.943  32.114  27.984  1.00  0.00     0.016 A 
ATOM     34  C   UNL A   1      36.371  29.449  28.770  1.00  0.00     0.010 A 
ATOM     35  C   UNL A   1      37.141  31.744  28.604  1.00  0.00     0.010 A 
ATOM     36  C   UNL A   1      37.352  30.415  29.023  1.00  0.00    -0.014 A 
BRANCH  36  37
ATOM     37  C   UNL A   1      38.534  30.074  29.854  1.00  0.00     0.031 A 
ATOM     38  C   UNL A   1      39.539  29.091  29.319  1.00  0.00     0.074 A 
ATOM     39  C   UNL A   1      38.717  30.631  31.064  1.00  0.00     0.049 A 
ATOM     40  N   UNL A   1      40.600  28.586  29.895  1.00  0.00    -0.248 NA
ATOM     41  C   UNL A   1      39.317  28.612  27.944  1.00  0.00     0.031 C 
ATOM     42  C   UNL A   1      37.846  31.633  31.674  1.00  0.00     0.029 A 
ATOM     43  N   UNL A   1      39.698  30.421  32.002  1.00  0.00    -0.354 N 
ATOM     44  C   UNL A   1      41.163  27.725  28.962  1.00  0.00     0.074 A 
ATOM     45  C   UNL A   1      40.315  27.756  27.790  1.00  0.00     0.031 C 
ATOM     46  C   UNL A   1      38.321  31.937  32.895  1.00  0.00     0.029 A 
ATOM     47  C   UNL A   1      39.506  31.123  33.167  1.00  0.00     0.049 A 
ATOM     48  H   UNL A   1      40.467  29.823  31.854  1.00  0.00     0.167 HD
ATOM     49  C   UNL A   1      42.289  26.979  29.073  1.00  0.00     0.037 A 
ATOM     50  C   UNL A   1      40.190  31.088  34.328  1.00  0.00     0.037 A 
ATOM     51  C   UNL A   1      43.133  26.952  30.239  1.00  0.00     0.049 A 
ATOM     52  C   UNL A   1      41.391  30.182  34.452  1.00  0.00     0.074 A 
ATOM     53  C   UNL A   1      44.308  26.247  30.436  1.00  0.00     0.029 A 
ATOM     54  N   UNL A   1      42.888  27.652  31.410  1.00  0.00    -0.354 N 
ATOM     55  N   UNL A   1      41.935  29.393  33.558  1.00  0.00    -0.248 NA
ATOM     56  C   UNL A   1      42.075  30.164  35.754  1.00  0.00     0.031 C 
ATOM     57  C   UNL A   1      44.738  26.469  31.746  1.00  0.00     0.029 A 
ATOM     58  C   UNL A   1      43.871  27.368  32.345  1.00  0.00     0.049 A 
ATOM     59  H   UNL A   1      42.127  28.260  31.557  1.00  0.00     0.167 HD
ATOM     60  C   UNL A   1      43.042  28.819  34.173  1.00  0.00     0.074 A 
ATOM     61  C   UNL A   1      43.101  29.360  35.513  1.00  0.00     0.031 C 
ATOM     62  C   UNL A   1      43.931  27.925  33.672  1.00  0.00     0.037 A 
BRANCH  49  63
ATOM     63  C   UNL A   1      42.666  26.103  27.914  1.00  0.00     0.064 A 
ATOM     64  C   UNL A   1      42.088  24.839  27.722  1.00  0.00     0.173 A 
ATOM     65  C   UNL A   1      43.570  26.565  26.945  1.00  0.00     0.173 A 
ATOM     66  F   UNL A   1      41.227  24.346  28.625  1.00  0.00    -0.203 F 
ATOM     67  C   UNL A   1      42.416  24.064  26.613  1.00  0.00     0.198 A 
ATOM     68  C   UNL A   1      43.872  25.800  25.822  1.00  0.00     0.198 A 
ATOM     69  F   UNL A   1      44.148  27.769  27.078  1.00  0.00    -0.203 F 
ATOM     70  F   UNL A   1      41.880  22.843  26.469  1.00  0.00    -0.200 F 
ATOM     71  C   UNL A   1      43.299  24.549  25.658  1.00  0.00     0.200 A 
ATOM     72  F   UNL A   1      44.712  26.278  24.893  1.00  0.00    -0.200 F 
ATOM     73  F   UNL A   1      43.599  23.808  24.583  1.00  0.00    -0.200 F 
ENDBRANCH  49  63
BRANCH  50  74
ATOM     74  C   UNL A   1      39.748  31.911  35.486  1.00  0.00     0.064 A 
ATOM     75  C   UNL A   1      38.743  31.461  36.355  1.00  0.00     0.173 A 
ATOM     76  C   UNL A   1      40.279  33.190  35.715  1.00  0.00     0.173 A 
ATOM     77  F   UNL A   1      38.179  30.259  36.160  1.00  0.00    -0.203 F 
ATOM     78  C   UNL A   1      38.264  32.268  37.384  1.00  0.00     0.198 A 
ATOM     79  C   UNL A   1      39.825  33.982  36.768  1.00  0.00     0.198 A 
ATOM     80  F   UNL A   1      41.236  33.674  34.910  1.00  0.00    -0.203 F 
ATOM     81  F   UNL A   1      37.253  31.840  38.153  1.00  0.00    -0.200 F 
ATOM     82  C   UNL A   1      38.808  33.526  37.593  1.00  0.00     0.200 A 
ATOM     83  F   UNL A   1      40.359  35.194  36.969  1.00  0.00    -0.200 F 
ATOM     84  F   UNL A   1      38.342  34.306  38.577  1.00  0.00    -0.200 F 
ENDBRANCH  50  74
BRANCH  62  85
ATOM     85  C   UNL A   1      45.075  27.512  34.555  1.00  0.00     0.064 A 
ATOM     86  C   UNL A   1      46.279  28.231  34.596  1.00  0.00     0.173 A 
ATOM     87  C   UNL A   1      44.947  26.403  35.408  1.00  0.00     0.173 A 
ATOM     88  F   UNL A   1      46.459  29.292  33.795  1.00  0.00    -0.203 F 
ATOM     89  C   UNL A   1      47.322  27.836  35.431  1.00  0.00     0.198 A 
ATOM     90  C   UNL A   1      45.977  26.034  36.267  1.00  0.00     0.198 A 
ATOM     91  F   UNL A   1      43.813  25.685  35.419  1.00  0.00    -0.203 F 
ATOM     92  F   UNL A   1      48.482  28.507  35.412  1.00  0.00    -0.200 F 
ATOM     93  C   UNL A   1      47.168  26.745  36.272  1.00  0.00     0.200 A 
ATOM     94  F   UNL A   1      45.818  24.989  37.093  1.00  0.00    -0.200 F 
ATOM     95  F   UNL A   1      48.168  26.374  37.082  1.00  0.00    -0.200 F 
ENDBRANCH  62  85
ENDBRANCH  36  37
ENDBRANCH  29  31
ENDBRANCH  28  29
ENDBRANCH  27  28
ENDBRANCH  26  27
ENDBRANCH  25  26
ENDBRANCH   1  25
TORSDOF 19
ENDMDL
