MODEL 1
REMARK VINA RESULT:      -9.8      0.000      0.000
REMARK SMILES Cc1sc(C(=O)OCCOCCOCCOC(=O)c2ccc(-c3c4nc(c(-c5c(F)c(F)c(F)c(F)c5F)c5ccc([nH]5)c(-c5c(F)c(F)c(F)c(F)c5F)c5nc(c(-c6c(F)c(F)c(F)c(F)c6F)c6ccc3[nH]6)C=C5)C=C4)cc2)cc1Br
REMARK SMILES IDX 12 1 11 2 10 3 9 4 8 5 7 6 5 7 6 8 4 9 1 10 2 11 3 12 83 13
REMARK SMILES IDX 82 14 84 15 13 16 14 17 15 18 16 19 17 20 18 21 19 22 20 23
REMARK SMILES IDX 81 24 21 25 80 26 22 27 23 28 24 29 74 30 25 31 79 32 73 33
REMARK SMILES IDX 75 34 26 35 78 36 72 37 71 38 27 40 59 41 39 42 58 43 40 44
REMARK SMILES IDX 43 45 57 46 76 47 41 48 42 49 56 51 77 52 44 53 28 54 29 55
REMARK SMILES IDX 37 56 30 57 31 58 35 59 38 60 32 61 33 62 36 63 34 64 60 65
REMARK SMILES IDX 61 66 69 67 62 68 63 69 67 70 70 71 64 72 65 73 68 74 66 75
REMARK SMILES IDX 45 76 46 77 54 78 47 79 48 80 52 81 55 82 49 83 50 84 53 85
REMARK SMILES IDX 51 86
REMARK H PARENT 75 39 43 50
REMARK Flexibility Score: inf
ROOT
ATOM      1  C   UNL A   1      32.906  36.297  29.109  1.00  0.00     0.188 C 
ENDROOT
BRANCH   1   2
ATOM      2  C   UNL A   1      32.827  36.303  30.649  1.00  0.00     0.188 C 
BRANCH   2   3
ATOM      3  O   UNL A   1      32.970  37.518  31.375  1.00  0.00    -0.376 OA
BRANCH   3   4
ATOM      4  C   UNL A   1      33.939  37.620  32.408  1.00  0.00     0.202 C 
BRANCH   4   5
ATOM      5  C   UNL A   1      33.920  36.551  33.503  1.00  0.00     0.261 C 
BRANCH   5   6
ATOM      6  O   UNL A   1      34.980  35.589  33.380  1.00  0.00    -0.459 OA
BRANCH   6   7
ATOM      7  C   UNL A   1      34.588  34.277  33.362  1.00  0.00     0.348 C 
ATOM      8  O   UNL A   1      33.489  33.886  33.005  1.00  0.00    -0.245 OA
BRANCH   7   9
ATOM      9  C   UNL A   1      35.715  33.430  33.718  1.00  0.00     0.114 A 
ATOM     10  C   UNL A   1      38.666  32.204  36.009  1.00  0.00     0.057 C 
ATOM     11  C   UNL A   1      37.623  32.454  34.973  1.00  0.00     0.017 A 
ATOM     12  S   UNL A   1      36.660  33.868  35.081  1.00  0.00    -0.132 S 
ATOM     13  C   UNL A   1      37.253  31.700  33.883  1.00  0.00     0.032 A 
ATOM     14  C   UNL A   1      36.161  32.247  33.158  1.00  0.00     0.043 A 
ATOM     15  Br  UNL A   1      38.043  30.067  33.354  1.00  0.00    -0.050 Br
ENDBRANCH   7   9
ENDBRANCH   6   7
ENDBRANCH   5   6
ENDBRANCH   4   5
ENDBRANCH   3   4
ENDBRANCH   2   3
ENDBRANCH   1   2
BRANCH   1  16
ATOM     16  O   UNL A   1      33.970  35.520  28.585  1.00  0.00    -0.376 OA
BRANCH  16  17
ATOM     17  C   UNL A   1      33.678  34.157  28.317  1.00  0.00     0.202 C 
BRANCH  17  18
ATOM     18  C   UNL A   1      34.884  33.220  28.449  1.00  0.00     0.261 C 
BRANCH  18  19
ATOM     19  O   UNL A   1      34.589  31.922  28.988  1.00  0.00    -0.460 OA
BRANCH  19  20
ATOM     20  C   UNL A   1      34.695  30.870  28.148  1.00  0.00     0.338 C 
ATOM     21  O   UNL A   1      33.916  30.544  27.271  1.00  0.00    -0.246 OA
BRANCH  20  22
ATOM     22  C   UNL A   1      36.018  30.249  28.368  1.00  0.00     0.060 A 
ATOM     23  C   UNL A   1      36.285  29.640  29.599  1.00  0.00     0.016 A 
ATOM     24  C   UNL A   1      36.988  30.272  27.363  1.00  0.00     0.016 A 
ATOM     25  C   UNL A   1      37.540  29.068  29.834  1.00  0.00     0.010 A 
ATOM     26  C   UNL A   1      38.246  29.714  27.606  1.00  0.00     0.010 A 
ATOM     27  C   UNL A   1      38.538  29.131  28.851  1.00  0.00    -0.014 A 
BRANCH  27  28
ATOM     28  C   UNL A   1      39.930  28.730  29.172  1.00  0.00     0.031 A 
ATOM     29  C   UNL A   1      40.781  29.663  29.987  1.00  0.00     0.074 A 
ATOM     30  C   UNL A   1      40.436  27.558  28.747  1.00  0.00     0.049 A 
ATOM     31  N   UNL A   1      42.032  29.548  30.352  1.00  0.00    -0.248 NA
ATOM     32  C   UNL A   1      40.129  30.898  30.455  1.00  0.00     0.031 C 
ATOM     33  C   UNL A   1      39.711  26.554  27.973  1.00  0.00     0.029 A 
ATOM     34  N   UNL A   1      41.692  27.023  28.901  1.00  0.00    -0.354 N 
ATOM     35  C   UNL A   1      42.317  30.688  31.092  1.00  0.00     0.074 A 
ATOM     36  C   UNL A   1      41.118  31.498  31.102  1.00  0.00     0.031 C 
ATOM     37  C   UNL A   1      40.539  25.528  27.706  1.00  0.00     0.029 A 
ATOM     38  C   UNL A   1      41.859  25.817  28.267  1.00  0.00     0.049 A 
ATOM     39  H   UNL A   1      42.406  27.464  29.418  1.00  0.00     0.167 HD
ATOM     40  C   UNL A   1      43.470  31.025  31.715  1.00  0.00     0.037 A 
ATOM     41  C   UNL A   1      42.958  25.048  28.138  1.00  0.00     0.037 A 
ATOM     42  C   UNL A   1      44.667  30.229  31.700  1.00  0.00     0.049 A 
ATOM     43  C   UNL A   1      44.252  25.482  28.779  1.00  0.00     0.074 A 
ATOM     44  C   UNL A   1      45.881  30.483  32.315  1.00  0.00     0.029 A 
ATOM     45  N   UNL A   1      44.804  29.025  31.026  1.00  0.00    -0.354 N 
ATOM     46  N   UNL A   1      44.502  26.545  29.506  1.00  0.00    -0.248 NA
ATOM     47  C   UNL A   1      45.418  24.609  28.580  1.00  0.00     0.031 C 
ATOM     48  C   UNL A   1      46.767  29.455  31.976  1.00  0.00     0.029 A 
ATOM     49  C   UNL A   1      46.091  28.536  31.190  1.00  0.00     0.049 A 
ATOM     50  H   UNL A   1      44.093  28.584  30.508  1.00  0.00     0.167 HD
ATOM     51  C   UNL A   1      45.838  26.452  29.875  1.00  0.00     0.074 A 
ATOM     52  C   UNL A   1      46.346  25.224  29.299  1.00  0.00     0.031 C 
ATOM     53  C   UNL A   1      46.579  27.307  30.621  1.00  0.00     0.037 A 
BRANCH  40  54
ATOM     54  C   UNL A   1      43.496  32.328  32.457  1.00  0.00     0.064 A 
ATOM     55  C   UNL A   1      43.189  32.399  33.823  1.00  0.00     0.173 A 
ATOM     56  C   UNL A   1      43.868  33.511  31.802  1.00  0.00     0.173 A 
ATOM     57  F   UNL A   1      42.814  31.297  34.489  1.00  0.00    -0.203 F 
ATOM     58  C   UNL A   1      43.235  33.613  34.504  1.00  0.00     0.198 A 
ATOM     59  C   UNL A   1      43.935  34.718  32.491  1.00  0.00     0.198 A 
ATOM     60  F   UNL A   1      44.172  33.494  30.496  1.00  0.00    -0.203 F 
ATOM     61  F   UNL A   1      42.901  33.666  35.801  1.00  0.00    -0.200 F 
ATOM     62  C   UNL A   1      43.614  34.770  33.839  1.00  0.00     0.200 A 
ATOM     63  F   UNL A   1      44.311  35.834  31.850  1.00  0.00    -0.200 F 
ATOM     64  F   UNL A   1      43.664  35.936  34.497  1.00  0.00    -0.200 F 
ENDBRANCH  40  54
BRANCH  41  65
ATOM     65  C   UNL A   1      42.897  23.785  27.356  1.00  0.00     0.064 A 
ATOM     66  C   UNL A   1      42.493  22.583  27.953  1.00  0.00     0.173 A 
ATOM     67  C   UNL A   1      43.281  23.748  26.008  1.00  0.00     0.173 A 
ATOM     68  F   UNL A   1      42.149  22.561  29.248  1.00  0.00    -0.203 F 
ATOM     69  C   UNL A   1      42.495  21.387  27.235  1.00  0.00     0.198 A 
ATOM     70  C   UNL A   1      43.257  22.557  25.285  1.00  0.00     0.198 A 
ATOM     71  F   UNL A   1      43.685  24.869  25.393  1.00  0.00    -0.203 F 
ATOM     72  F   UNL A   1      42.157  20.243  27.845  1.00  0.00    -0.200 F 
ATOM     73  C   UNL A   1      42.872  21.376  25.902  1.00  0.00     0.200 A 
ATOM     74  F   UNL A   1      43.619  22.551  23.995  1.00  0.00    -0.200 F 
ATOM     75  F   UNL A   1      42.880  20.226  25.215  1.00  0.00    -0.200 F 
ENDBRANCH  41  65
BRANCH  53  76
ATOM     76  C   UNL A   1      48.006  26.931  30.894  1.00  0.00     0.064 A 
ATOM     77  C   UNL A   1      49.062  27.445  30.128  1.00  0.00     0.173 A 
ATOM     78  C   UNL A   1      48.325  26.085  31.968  1.00  0.00     0.173 A 
ATOM     79  F   UNL A   1      48.809  28.247  29.083  1.00  0.00    -0.203 F 
ATOM     80  C   UNL A   1      50.383  27.108  30.412  1.00  0.00     0.198 A 
ATOM     81  C   UNL A   1      49.647  25.772  32.266  1.00  0.00     0.198 A 
ATOM     82  F   UNL A   1      47.351  25.574  32.737  1.00  0.00    -0.203 F 
ATOM     83  F   UNL A   1      51.374  27.577  29.642  1.00  0.00    -0.200 F 
ATOM     84  C   UNL A   1      50.675  26.278  31.485  1.00  0.00     0.200 A 
ATOM     85  F   UNL A   1      49.928  24.981  33.311  1.00  0.00    -0.200 F 
ATOM     86  F   UNL A   1      51.947  25.962  31.762  1.00  0.00    -0.200 F 
ENDBRANCH  53  76
ENDBRANCH  27  28
ENDBRANCH  20  22
ENDBRANCH  19  20
ENDBRANCH  18  19
ENDBRANCH  17  18
ENDBRANCH  16  17
ENDBRANCH   1  16
TORSDOF 17
ENDMDL
MODEL 2
REMARK VINA RESULT:      -9.4      6.121     11.627
REMARK SMILES Cc1sc(C(=O)OCCOCCOCCOC(=O)c2ccc(-c3c4nc(c(-c5c(F)c(F)c(F)c(F)c5F)c5ccc([nH]5)c(-c5c(F)c(F)c(F)c(F)c5F)c5nc(c(-c6c(F)c(F)c(F)c(F)c6F)c6ccc3[nH]6)C=C5)C=C4)cc2)cc1Br
REMARK SMILES IDX 12 1 11 2 10 3 9 4 8 5 7 6 5 7 6 8 4 9 1 10 2 11 3 12 83 13
REMARK SMILES IDX 82 14 84 15 13 16 14 17 15 18 16 19 17 20 18 21 19 22 20 23
REMARK SMILES IDX 81 24 21 25 80 26 22 27 23 28 24 29 74 30 25 31 79 32 73 33
REMARK SMILES IDX 75 34 26 35 78 36 72 37 71 38 27 40 59 41 39 42 58 43 40 44
REMARK SMILES IDX 43 45 57 46 76 47 41 48 42 49 56 51 77 52 44 53 28 54 29 55
REMARK SMILES IDX 37 56 30 57 31 58 35 59 38 60 32 61 33 62 36 63 34 64 60 65
REMARK SMILES IDX 61 66 69 67 62 68 63 69 67 70 70 71 64 72 65 73 68 74 66 75
REMARK SMILES IDX 45 76 46 77 54 78 47 79 48 80 52 81 55 82 49 83 50 84 53 85
REMARK SMILES IDX 51 86
REMARK H PARENT 75 39 43 50
REMARK Flexibility Score: inf
ROOT
ATOM      1  C   UNL A   1      37.409  21.967  25.541  1.00  0.00     0.188 C 
ENDROOT
BRANCH   1   2
ATOM      2  C   UNL A   1      35.883  22.179  25.481  1.00  0.00     0.188 C 
BRANCH   2   3
ATOM      3  O   UNL A   1      35.076  21.942  26.629  1.00  0.00    -0.376 OA
BRANCH   3   4
ATOM      4  C   UNL A   1      33.929  21.109  26.532  1.00  0.00     0.202 C 
BRANCH   4   5
ATOM      5  C   UNL A   1      32.846  21.512  25.529  1.00  0.00     0.261 C 
BRANCH   5   6
ATOM      6  O   UNL A   1      31.960  20.436  25.181  1.00  0.00    -0.459 OA
BRANCH   6   7
ATOM      7  C   UNL A   1      32.284  19.747  24.043  1.00  0.00     0.348 C 
ATOM      8  O   UNL A   1      32.250  20.213  22.917  1.00  0.00    -0.245 OA
BRANCH   7   9
ATOM      9  C   UNL A   1      32.781  18.428  24.400  1.00  0.00     0.114 A 
ATOM     10  C   UNL A   1      35.553  15.789  25.301  1.00  0.00     0.057 C 
ATOM     11  C   UNL A   1      34.323  16.576  25.001  1.00  0.00     0.017 A 
ATOM     12  S   UNL A   1      34.477  18.172  24.397  1.00  0.00    -0.132 S 
ATOM     13  C   UNL A   1      32.996  16.241  25.147  1.00  0.00     0.032 A 
ATOM     14  C   UNL A   1      32.104  17.294  24.808  1.00  0.00     0.043 A 
ATOM     15  Br  UNL A   1      32.340  14.581  25.767  1.00  0.00    -0.050 Br
ENDBRANCH   7   9
ENDBRANCH   6   7
ENDBRANCH   5   6
ENDBRANCH   4   5
ENDBRANCH   3   4
ENDBRANCH   2   3
ENDBRANCH   1   2
BRANCH   1  16
ATOM     16  O   UNL A   1      37.895  20.985  24.641  1.00  0.00    -0.376 OA
BRANCH  16  17
ATOM     17  C   UNL A   1      37.975  19.660  25.143  1.00  0.00     0.202 C 
BRANCH  17  18
ATOM     18  C   UNL A   1      39.369  19.258  25.638  1.00  0.00     0.261 C 
BRANCH  18  19
ATOM     19  O   UNL A   1      40.254  20.355  25.918  1.00  0.00    -0.460 OA
BRANCH  19  20
ATOM     20  C   UNL A   1      40.766  20.425  27.165  1.00  0.00     0.338 C 
ATOM     21  O   UNL A   1      41.094  19.499  27.883  1.00  0.00    -0.246 OA
BRANCH  20  22
ATOM     22  C   UNL A   1      41.013  21.851  27.471  1.00  0.00     0.060 A 
ATOM     23  C   UNL A   1      40.361  22.830  26.714  1.00  0.00     0.016 A 
ATOM     24  C   UNL A   1      41.886  22.214  28.499  1.00  0.00     0.016 A 
ATOM     25  C   UNL A   1      40.601  24.183  26.973  1.00  0.00     0.010 A 
ATOM     26  C   UNL A   1      42.137  23.566  28.746  1.00  0.00     0.010 A 
ATOM     27  C   UNL A   1      41.514  24.558  27.968  1.00  0.00    -0.014 A 
BRANCH  27  28
ATOM     28  C   UNL A   1      41.940  25.974  28.097  1.00  0.00     0.031 A 
ATOM     29  C   UNL A   1      43.275  26.381  27.539  1.00  0.00     0.074 A 
ATOM     30  C   UNL A   1      41.158  26.887  28.701  1.00  0.00     0.049 A 
ATOM     31  N   UNL A   1      43.874  27.543  27.573  1.00  0.00    -0.248 NA
ATOM     32  C   UNL A   1      44.040  25.329  26.849  1.00  0.00     0.031 C 
ATOM     33  C   UNL A   1      39.833  26.630  29.260  1.00  0.00     0.029 A 
ATOM     34  N   UNL A   1      41.378  28.219  28.953  1.00  0.00    -0.354 N 
ATOM     35  C   UNL A   1      45.080  27.366  26.908  1.00  0.00     0.074 A 
ATOM     36  C   UNL A   1      45.143  25.978  26.506  1.00  0.00     0.031 C 
ATOM     37  C   UNL A   1      39.362  27.766  29.805  1.00  0.00     0.029 A 
ATOM     38  C   UNL A   1      40.364  28.823  29.655  1.00  0.00     0.049 A 
ATOM     39  H   UNL A   1      42.188  28.697  28.658  1.00  0.00     0.167 HD
ATOM     40  C   UNL A   1      46.045  28.280  26.648  1.00  0.00     0.037 A 
ATOM     41  C   UNL A   1      40.268  30.077  30.140  1.00  0.00     0.037 A 
ATOM     42  C   UNL A   1      45.992  29.658  27.054  1.00  0.00     0.049 A 
ATOM     43  C   UNL A   1      41.390  31.056  29.901  1.00  0.00     0.074 A 
ATOM     44  C   UNL A   1      46.916  30.662  26.824  1.00  0.00     0.029 A 
ATOM     45  N   UNL A   1      44.959  30.225  27.786  1.00  0.00    -0.354 N 
ATOM     46  N   UNL A   1      42.511  30.888  29.241  1.00  0.00    -0.248 NA
ATOM     47  C   UNL A   1      41.232  32.400  30.477  1.00  0.00     0.031 C 
ATOM     48  C   UNL A   1      46.464  31.826  27.454  1.00  0.00     0.029 A 
ATOM     49  C   UNL A   1      45.235  31.559  28.036  1.00  0.00     0.049 A 
ATOM     50  H   UNL A   1      44.150  29.749  28.083  1.00  0.00     0.167 HD
ATOM     51  C   UNL A   1      43.174  32.109  29.296  1.00  0.00     0.074 A 
ATOM     52  C   UNL A   1      42.327  33.011  30.046  1.00  0.00     0.031 C 
ATOM     53  C   UNL A   1      44.377  32.450  28.774  1.00  0.00     0.037 A 
BRANCH  40  54
ATOM     54  C   UNL A   1      47.254  27.809  25.897  1.00  0.00     0.064 A 
ATOM     55  C   UNL A   1      47.281  27.781  24.496  1.00  0.00     0.173 A 
ATOM     56  C   UNL A   1      48.411  27.418  26.588  1.00  0.00     0.173 A 
ATOM     57  F   UNL A   1      46.194  28.131  23.792  1.00  0.00    -0.203 F 
ATOM     58  C   UNL A   1      48.418  27.359  23.811  1.00  0.00     0.198 A 
ATOM     59  C   UNL A   1      49.553  27.019  25.899  1.00  0.00     0.198 A 
ATOM     60  F   UNL A   1      48.435  27.430  27.928  1.00  0.00    -0.203 F 
ATOM     61  F   UNL A   1      48.410  27.302  22.472  1.00  0.00    -0.200 F 
ATOM     62  C   UNL A   1      49.554  26.985  24.513  1.00  0.00     0.200 A 
ATOM     63  F   UNL A   1      50.654  26.668  26.578  1.00  0.00    -0.200 F 
ATOM     64  F   UNL A   1      50.650  26.585  23.852  1.00  0.00    -0.200 F 
ENDBRANCH  40  54
BRANCH  41  65
ATOM     65  C   UNL A   1      39.069  30.487  30.917  1.00  0.00     0.064 A 
ATOM     66  C   UNL A   1      37.932  30.999  30.277  1.00  0.00     0.173 A 
ATOM     67  C   UNL A   1      39.052  30.412  32.317  1.00  0.00     0.173 A 
ATOM     68  F   UNL A   1      37.914  31.122  28.942  1.00  0.00    -0.203 F 
ATOM     69  C   UNL A   1      36.832  31.441  31.010  1.00  0.00     0.198 A 
ATOM     70  C   UNL A   1      37.941  30.830  33.047  1.00  0.00     0.198 A 
ATOM     71  F   UNL A   1      40.119  29.939  32.978  1.00  0.00    -0.203 F 
ATOM     72  F   UNL A   1      35.780  31.978  30.376  1.00  0.00    -0.200 F 
ATOM     73  C   UNL A   1      36.836  31.352  32.393  1.00  0.00     0.200 A 
ATOM     74  F   UNL A   1      37.947  30.739  34.384  1.00  0.00    -0.200 F 
ATOM     75  F   UNL A   1      35.780  31.783  33.097  1.00  0.00    -0.200 F 
ENDBRANCH  41  65
BRANCH  53  76
ATOM     76  C   UNL A   1      44.837  33.867  28.958  1.00  0.00     0.064 A 
ATOM     77  C   UNL A   1      44.473  34.881  28.062  1.00  0.00     0.173 A 
ATOM     78  C   UNL A   1      45.611  34.222  30.075  1.00  0.00     0.173 A 
ATOM     79  F   UNL A   1      43.746  34.591  26.973  1.00  0.00    -0.203 F 
ATOM     80  C   UNL A   1      44.885  36.196  28.264  1.00  0.00     0.198 A 
ATOM     81  C   UNL A   1      45.998  35.541  30.288  1.00  0.00     0.198 A 
ATOM     82  F   UNL A   1      45.978  33.289  30.967  1.00  0.00    -0.203 F 
ATOM     83  F   UNL A   1      44.561  37.144  27.373  1.00  0.00    -0.200 F 
ATOM     84  C   UNL A   1      45.641  36.526  29.380  1.00  0.00     0.200 A 
ATOM     85  F   UNL A   1      46.717  35.860  31.373  1.00  0.00    -0.200 F 
ATOM     86  F   UNL A   1      46.029  37.794  29.577  1.00  0.00    -0.200 F 
ENDBRANCH  53  76
ENDBRANCH  27  28
ENDBRANCH  20  22
ENDBRANCH  19  20
ENDBRANCH  18  19
ENDBRANCH  17  18
ENDBRANCH  16  17
ENDBRANCH   1  16
TORSDOF 17
ENDMDL
MODEL 3
REMARK VINA RESULT:      -9.4      5.191     11.666
REMARK SMILES Cc1sc(C(=O)OCCOCCOCCOC(=O)c2ccc(-c3c4nc(c(-c5c(F)c(F)c(F)c(F)c5F)c5ccc([nH]5)c(-c5c(F)c(F)c(F)c(F)c5F)c5nc(c(-c6c(F)c(F)c(F)c(F)c6F)c6ccc3[nH]6)C=C5)C=C4)cc2)cc1Br
REMARK SMILES IDX 12 1 11 2 10 3 9 4 8 5 7 6 5 7 6 8 4 9 1 10 2 11 3 12 83 13
REMARK SMILES IDX 82 14 84 15 13 16 14 17 15 18 16 19 17 20 18 21 19 22 20 23
REMARK SMILES IDX 81 24 21 25 80 26 22 27 23 28 24 29 74 30 25 31 79 32 73 33
REMARK SMILES IDX 75 34 26 35 78 36 72 37 71 38 27 40 59 41 39 42 58 43 40 44
REMARK SMILES IDX 43 45 57 46 76 47 41 48 42 49 56 51 77 52 44 53 28 54 29 55
REMARK SMILES IDX 37 56 30 57 31 58 35 59 38 60 32 61 33 62 36 63 34 64 60 65
REMARK SMILES IDX 61 66 69 67 62 68 63 69 67 70 70 71 64 72 65 73 68 74 66 75
REMARK SMILES IDX 45 76 46 77 54 78 47 79 48 80 52 81 55 82 49 83 50 84 53 85
REMARK SMILES IDX 51 86
REMARK H PARENT 75 39 43 50
REMARK Flexibility Score: inf
ROOT
ATOM      1  C   UNL A   1      43.022  18.390  26.570  1.00  0.00     0.188 C 
ENDROOT
BRANCH   1   2
ATOM      2  C   UNL A   1      44.350  18.147  25.825  1.00  0.00     0.188 C 
BRANCH   2   3
ATOM      3  O   UNL A   1      44.469  18.458  24.441  1.00  0.00    -0.376 OA
BRANCH   3   4
ATOM      4  C   UNL A   1      45.300  19.531  24.022  1.00  0.00     0.202 C 
BRANCH   4   5
ATOM      5  C   UNL A   1      46.212  20.171  25.072  1.00  0.00     0.261 C 
BRANCH   5   6
ATOM      6  O   UNL A   1      46.406  21.580  24.876  1.00  0.00    -0.459 OA
BRANCH   6   7
ATOM      7  C   UNL A   1      45.536  22.397  25.547  1.00  0.00     0.348 C 
ATOM      8  O   UNL A   1      44.659  22.007  26.299  1.00  0.00    -0.245 OA
BRANCH   7   9
ATOM      9  C   UNL A   1      45.898  23.786  25.314  1.00  0.00     0.114 A 
ATOM     10  C   UNL A   1      45.356  27.678  25.446  1.00  0.00     0.057 C 
ATOM     11  C   UNL A   1      45.810  26.268  25.281  1.00  0.00     0.017 A 
ATOM     12  S   UNL A   1      44.713  24.992  25.605  1.00  0.00    -0.132 S 
ATOM     13  C   UNL A   1      47.036  25.767  24.907  1.00  0.00     0.032 A 
ATOM     14  C   UNL A   1      47.099  24.348  24.925  1.00  0.00     0.043 A 
ATOM     15  Br  UNL A   1      48.551  26.796  24.439  1.00  0.00    -0.050 Br
ENDBRANCH   7   9
ENDBRANCH   6   7
ENDBRANCH   5   6
ENDBRANCH   4   5
ENDBRANCH   3   4
ENDBRANCH   2   3
ENDBRANCH   1   2
BRANCH   1  16
ATOM     16  O   UNL A   1      42.388  19.615  26.244  1.00  0.00    -0.376 OA
BRANCH  16  17
ATOM     17  C   UNL A   1      41.876  20.365  27.335  1.00  0.00     0.202 C 
BRANCH  17  18
ATOM     18  C   UNL A   1      40.489  20.968  27.086  1.00  0.00     0.261 C 
BRANCH  18  19
ATOM     19  O   UNL A   1      40.477  22.151  26.272  1.00  0.00    -0.460 OA
BRANCH  19  20
ATOM     20  C   UNL A   1      39.318  22.842  26.212  1.00  0.00     0.338 C 
ATOM     21  O   UNL A   1      38.226  22.425  25.869  1.00  0.00    -0.246 OA
BRANCH  20  22
ATOM     22  C   UNL A   1      39.561  24.181  26.788  1.00  0.00     0.060 A 
ATOM     23  C   UNL A   1      40.229  25.140  26.018  1.00  0.00     0.016 A 
ATOM     24  C   UNL A   1      39.133  24.484  28.083  1.00  0.00     0.016 A 
ATOM     25  C   UNL A   1      40.489  26.405  26.556  1.00  0.00     0.010 A 
ATOM     26  C   UNL A   1      39.409  25.743  28.624  1.00  0.00     0.010 A 
ATOM     27  C   UNL A   1      40.110  26.702  27.872  1.00  0.00    -0.014 A 
BRANCH  27  28
ATOM     28  C   UNL A   1      40.577  27.952  28.521  1.00  0.00     0.031 A 
ATOM     29  C   UNL A   1      42.031  28.079  28.881  1.00  0.00     0.074 A 
ATOM     30  C   UNL A   1      39.728  28.960  28.790  1.00  0.00     0.049 A 
ATOM     31  N   UNL A   1      42.658  29.053  29.491  1.00  0.00    -0.248 NA
ATOM     32  C   UNL A   1      42.897  26.951  28.502  1.00  0.00     0.031 C 
ATOM     33  C   UNL A   1      38.303  28.975  28.470  1.00  0.00     0.029 A 
ATOM     34  N   UNL A   1      39.947  30.167  29.409  1.00  0.00    -0.354 N 
ATOM     35  C   UNL A   1      43.987  28.659  29.564  1.00  0.00     0.074 A 
ATOM     36  C   UNL A   1      44.074  27.345  28.964  1.00  0.00     0.031 C 
ATOM     37  C   UNL A   1      37.770  30.129  28.909  1.00  0.00     0.029 A 
ATOM     38  C   UNL A   1      38.811  30.922  29.564  1.00  0.00     0.049 A 
ATOM     39  H   UNL A   1      40.836  30.462  29.714  1.00  0.00     0.167 HD
ATOM     40  C   UNL A   1      45.042  29.334  30.077  1.00  0.00     0.037 A 
ATOM     41  C   UNL A   1      38.632  32.106  30.183  1.00  0.00     0.037 A 
ATOM     42  C   UNL A   1      44.959  30.635  30.684  1.00  0.00     0.049 A 
ATOM     43  C   UNL A   1      39.810  32.804  30.813  1.00  0.00     0.074 A 
ATOM     44  C   UNL A   1      45.978  31.404  31.220  1.00  0.00     0.029 A 
ATOM     45  N   UNL A   1      43.786  31.357  30.844  1.00  0.00    -0.354 N 
ATOM     46  N   UNL A   1      41.069  32.439  30.847  1.00  0.00    -0.248 NA
ATOM     47  C   UNL A   1      39.540  34.080  31.493  1.00  0.00     0.031 C 
ATOM     48  C   UNL A   1      45.414  32.572  31.744  1.00  0.00     0.029 A 
ATOM     49  C   UNL A   1      44.052  32.552  31.492  1.00  0.00     0.049 A 
ATOM     50  H   UNL A   1      42.897  31.063  30.542  1.00  0.00     0.167 HD
ATOM     51  C   UNL A   1      41.743  33.451  31.521  1.00  0.00     0.074 A 
ATOM     52  C   UNL A   1      40.756  34.450  31.871  1.00  0.00     0.031 C 
ATOM     53  C   UNL A   1      43.061  33.543  31.824  1.00  0.00     0.037 A 
BRANCH  40  54
ATOM     54  C   UNL A   1      46.383  28.665  30.019  1.00  0.00     0.064 A 
ATOM     55  C   UNL A   1      46.834  27.838  31.058  1.00  0.00     0.173 A 
ATOM     56  C   UNL A   1      47.207  28.824  28.896  1.00  0.00     0.173 A 
ATOM     57  F   UNL A   1      46.087  27.668  32.159  1.00  0.00    -0.203 F 
ATOM     58  C   UNL A   1      48.074  27.208  30.982  1.00  0.00     0.198 A 
ATOM     59  C   UNL A   1      48.435  28.174  28.814  1.00  0.00     0.198 A 
ATOM     60  F   UNL A   1      46.819  29.602  27.876  1.00  0.00    -0.203 F 
ATOM     61  F   UNL A   1      48.504  26.454  32.003  1.00  0.00    -0.200 F 
ATOM     62  C   UNL A   1      48.870  27.372  29.858  1.00  0.00     0.200 A 
ATOM     63  F   UNL A   1      49.200  28.324  27.723  1.00  0.00    -0.200 F 
ATOM     64  F   UNL A   1      50.060  26.760  29.785  1.00  0.00    -0.200 F 
ENDBRANCH  40  54
BRANCH  41  65
ATOM     65  C   UNL A   1      37.276  32.711  30.255  1.00  0.00     0.064 A 
ATOM     66  C   UNL A   1      36.398  32.397  31.301  1.00  0.00     0.173 A 
ATOM     67  C   UNL A   1      36.817  33.583  29.257  1.00  0.00     0.173 A 
ATOM     68  F   UNL A   1      36.779  31.541  32.260  1.00  0.00    -0.203 F 
ATOM     69  C   UNL A   1      35.104  32.916  31.336  1.00  0.00     0.198 A 
ATOM     70  C   UNL A   1      35.533  34.123  29.307  1.00  0.00     0.198 A 
ATOM     71  F   UNL A   1      37.615  33.907  28.230  1.00  0.00    -0.203 F 
ATOM     72  F   UNL A   1      34.267  32.556  32.318  1.00  0.00    -0.200 F 
ATOM     73  C   UNL A   1      34.675  33.782  30.342  1.00  0.00     0.200 A 
ATOM     74  F   UNL A   1      35.123  34.962  28.346  1.00  0.00    -0.200 F 
ATOM     75  F   UNL A   1      33.430  34.276  30.373  1.00  0.00    -0.200 F 
ENDBRANCH  41  65
BRANCH  53  76
ATOM     76  C   UNL A   1      43.524  34.780  32.536  1.00  0.00     0.064 A 
ATOM     77  C   UNL A   1      43.817  35.963  31.843  1.00  0.00     0.173 A 
ATOM     78  C   UNL A   1      43.628  34.796  33.936  1.00  0.00     0.173 A 
ATOM     79  F   UNL A   1      43.746  35.996  30.504  1.00  0.00    -0.203 F 
ATOM     80  C   UNL A   1      44.219  37.110  32.522  1.00  0.00     0.198 A 
ATOM     81  C   UNL A   1      44.003  35.952  34.614  1.00  0.00     0.198 A 
ATOM     82  F   UNL A   1      43.350  33.692  34.647  1.00  0.00    -0.203 F 
ATOM     83  F   UNL A   1      44.534  38.218  31.837  1.00  0.00    -0.200 F 
ATOM     84  C   UNL A   1      44.304  37.106  33.907  1.00  0.00     0.200 A 
ATOM     85  F   UNL A   1      44.073  35.949  35.953  1.00  0.00    -0.200 F 
ATOM     86  F   UNL A   1      44.683  38.214  34.560  1.00  0.00    -0.200 F 
ENDBRANCH  53  76
ENDBRANCH  27  28
ENDBRANCH  20  22
ENDBRANCH  19  20
ENDBRANCH  18  19
ENDBRANCH  17  18
ENDBRANCH  16  17
ENDBRANCH   1  16
TORSDOF 17
ENDMDL
