MODEL 1
REMARK VINA RESULT:     -10.7      0.000      0.000
REMARK SMILES O=C(Cc1cccn1-c1ccc2c(c1)OCCO2)OCCOCCOCCOC(=O)c1ccc(-c2c3nc(c(-c4c(F)c(F)c(F)c(F)c4F)c4ccc([nH]4)c(-c4c(F)c(F)c(F)c(F)c4F)c4nc(c(-c5c(F)c(F)c(F)c(F)c5F)c5ccc2[nH]5)C=C4)C=C3)cc1
REMARK SMILES IDX 23 1 22 2 21 3 20 4 19 5 2 6 1 7 3 8 4 9 5 10 8 11 6 12 7 13
REMARK SMILES IDX 9 14 10 15 14 16 11 17 13 18 12 19 15 20 18 21 16 22 17 23
REMARK SMILES IDX 24 24 25 25 26 26 27 27 28 28 29 29 30 30 31 31 32 32 93 33
REMARK SMILES IDX 33 34 92 35 34 36 35 37 36 38 86 39 37 40 91 41 85 42 87 43
REMARK SMILES IDX 38 44 90 45 84 46 83 47 39 49 71 50 51 51 70 52 52 53 55 54
REMARK SMILES IDX 69 55 88 56 53 57 54 58 68 60 89 61 56 62 40 63 41 64 49 65
REMARK SMILES IDX 42 66 43 67 47 68 50 69 44 70 45 71 48 72 46 73 72 74 73 75
REMARK SMILES IDX 81 76 74 77 75 78 79 79 82 80 76 81 77 82 80 83 78 84 57 85
REMARK SMILES IDX 58 86 66 87 59 88 60 89 64 90 67 91 61 92 62 93 65 94 63 95
REMARK H PARENT 87 48 55 59
REMARK Flexibility Score: inf
ROOT
ATOM      1  C   UNL A   1      40.275  22.056  26.792  1.00  0.00     0.188 C 
ENDROOT
BRANCH   1   2
ATOM      2  O   UNL A   1      39.416  21.642  25.737  1.00  0.00    -0.376 OA
BRANCH   2   3
ATOM      3  C   UNL A   1      38.045  21.986  25.849  1.00  0.00     0.202 C 
BRANCH   3   4
ATOM      4  C   UNL A   1      37.686  23.417  25.457  1.00  0.00     0.261 C 
BRANCH   4   5
ATOM      5  O   UNL A   1      36.876  23.565  24.267  1.00  0.00    -0.463 OA
BRANCH   5   6
ATOM      6  C   UNL A   1      35.560  23.852  24.172  1.00  0.00     0.311 C 
ATOM      7  O   UNL A   1      34.940  23.507  23.166  1.00  0.00    -0.252 OA
BRANCH   6   8
ATOM      8  C   UNL A   1      34.902  24.723  25.219  1.00  0.00     0.177 C 
BRANCH   8   9
ATOM      9  C   UNL A   1      33.690  24.105  25.842  1.00  0.00     0.034 A 
ATOM     10  C   UNL A   1      33.585  22.827  26.372  1.00  0.00     0.024 A 
ATOM     11  N   UNL A   1      32.470  24.756  26.046  1.00  0.00    -0.320 N 
ATOM     12  C   UNL A   1      32.339  22.722  27.011  1.00  0.00     0.020 A 
ATOM     13  C   UNL A   1      31.691  23.919  26.826  1.00  0.00     0.091 A 
BRANCH  11  14
ATOM     14  C   UNL A   1      32.049  26.049  25.604  1.00  0.00     0.049 A 
ATOM     15  C   UNL A   1      32.225  27.158  26.450  1.00  0.00     0.031 A 
ATOM     16  C   UNL A   1      31.448  26.234  24.351  1.00  0.00     0.077 A 
ATOM     17  C   UNL A   1      31.811  28.431  26.049  1.00  0.00     0.052 A 
ATOM     18  C   UNL A   1      31.034  27.511  23.957  1.00  0.00     0.163 A 
ATOM     19  C   UNL A   1      31.195  28.602  24.815  1.00  0.00     0.161 A 
ATOM     20  O   UNL A   1      30.447  27.613  22.720  1.00  0.00    -0.486 OA
ATOM     21  O   UNL A   1      30.763  29.868  24.514  1.00  0.00    -0.486 OA
ATOM     22  C   UNL A   1      30.271  28.978  22.317  1.00  0.00     0.271 C 
ATOM     23  C   UNL A   1      29.778  29.831  23.475  1.00  0.00     0.271 C 
ENDBRANCH  11  14
ENDBRANCH   8   9
ENDBRANCH   6   8
ENDBRANCH   5   6
ENDBRANCH   4   5
ENDBRANCH   3   4
ENDBRANCH   2   3
ENDBRANCH   1   2
BRANCH   1  24
ATOM     24  C   UNL A   1      40.874  20.890  27.601  1.00  0.00     0.188 C 
BRANCH  24  25
ATOM     25  O   UNL A   1      42.203  20.441  27.351  1.00  0.00    -0.376 OA
BRANCH  25  26
ATOM     26  C   UNL A   1      42.457  19.055  27.209  1.00  0.00     0.202 C 
BRANCH  26  27
ATOM     27  C   UNL A   1      42.775  18.683  25.757  1.00  0.00     0.261 C 
BRANCH  27  28
ATOM     28  O   UNL A   1      43.085  19.793  24.905  1.00  0.00    -0.460 OA
BRANCH  28  29
ATOM     29  C   UNL A   1      44.359  19.814  24.459  1.00  0.00     0.338 C 
ATOM     30  O   UNL A   1      45.003  18.905  23.950  1.00  0.00    -0.246 OA
BRANCH  29  31
ATOM     31  C   UNL A   1      44.989  21.104  24.748  1.00  0.00     0.060 A 
ATOM     32  C   UNL A   1      45.407  21.353  26.062  1.00  0.00     0.016 A 
ATOM     33  C   UNL A   1      44.899  22.128  23.801  1.00  0.00     0.016 A 
ATOM     34  C   UNL A   1      45.627  22.658  26.467  1.00  0.00     0.010 A 
ATOM     35  C   UNL A   1      45.082  23.437  24.216  1.00  0.00     0.010 A 
ATOM     36  C   UNL A   1      45.393  23.699  25.559  1.00  0.00    -0.014 A 
BRANCH  36  37
ATOM     37  C   UNL A   1      45.384  25.093  26.047  1.00  0.00     0.031 A 
ATOM     38  C   UNL A   1      43.998  25.679  26.232  1.00  0.00     0.074 A 
ATOM     39  C   UNL A   1      46.613  25.634  26.294  1.00  0.00     0.049 A 
ATOM     40  N   UNL A   1      43.647  26.910  26.448  1.00  0.00    -0.248 NA
ATOM     41  C   UNL A   1      42.822  24.775  26.150  1.00  0.00     0.031 C 
ATOM     42  C   UNL A   1      47.879  24.917  26.057  1.00  0.00     0.029 A 
ATOM     43  N   UNL A   1      47.065  26.849  26.774  1.00  0.00    -0.354 N 
ATOM     44  C   UNL A   1      42.272  26.898  26.724  1.00  0.00     0.074 A 
ATOM     45  C   UNL A   1      41.797  25.578  26.432  1.00  0.00     0.031 C 
ATOM     46  C   UNL A   1      48.934  25.707  26.323  1.00  0.00     0.029 A 
ATOM     47  C   UNL A   1      48.476  26.997  26.798  1.00  0.00     0.049 A 
ATOM     48  H   UNL A   1      46.454  27.559  27.077  1.00  0.00     0.167 HD
ATOM     49  C   UNL A   1      41.616  27.937  27.310  1.00  0.00     0.037 A 
ATOM     50  C   UNL A   1      49.238  28.076  27.158  1.00  0.00     0.037 A 
ATOM     51  C   UNL A   1      42.466  29.063  27.492  1.00  0.00     0.049 A 
ATOM     52  C   UNL A   1      48.299  29.057  27.736  1.00  0.00     0.074 A 
ATOM     53  C   UNL A   1      42.935  30.034  26.648  1.00  0.00     0.029 A 
ATOM     54  N   UNL A   1      43.149  29.152  28.679  1.00  0.00    -0.354 N 
ATOM     55  N   UNL A   1      47.746  28.944  28.908  1.00  0.00    -0.248 NA
ATOM     56  C   UNL A   1      47.896  30.222  26.939  1.00  0.00     0.031 C 
ATOM     57  C   UNL A   1      44.127  30.501  27.246  1.00  0.00     0.029 A 
ATOM     58  C   UNL A   1      44.338  29.803  28.438  1.00  0.00     0.049 A 
ATOM     59  H   UNL A   1      42.843  28.811  29.549  1.00  0.00     0.167 HD
ATOM     60  C   UNL A   1      46.701  29.839  28.839  1.00  0.00     0.074 A 
ATOM     61  C   UNL A   1      47.025  30.768  27.783  1.00  0.00     0.031 C 
ATOM     62  C   UNL A   1      45.471  29.464  29.272  1.00  0.00     0.037 A 
BRANCH  49  63
ATOM     63  C   UNL A   1      40.260  27.967  27.940  1.00  0.00     0.064 A 
ATOM     64  C   UNL A   1      39.318  28.913  27.481  1.00  0.00     0.173 A 
ATOM     65  C   UNL A   1      39.974  27.338  29.161  1.00  0.00     0.173 A 
ATOM     66  F   UNL A   1      39.501  29.549  26.312  1.00  0.00    -0.203 F 
ATOM     67  C   UNL A   1      38.208  29.274  28.241  1.00  0.00     0.198 A 
ATOM     68  C   UNL A   1      38.838  27.673  29.901  1.00  0.00     0.198 A 
ATOM     69  F   UNL A   1      40.833  26.463  29.703  1.00  0.00    -0.203 F 
ATOM     70  F   UNL A   1      37.398  30.255  27.818  1.00  0.00    -0.200 F 
ATOM     71  C   UNL A   1      37.975  28.661  29.458  1.00  0.00     0.200 A 
ATOM     72  F   UNL A   1      38.618  27.077  31.082  1.00  0.00    -0.200 F 
ATOM     73  F   UNL A   1      36.940  29.045  30.219  1.00  0.00    -0.200 F 
ENDBRANCH  49  63
BRANCH  50  74
ATOM     74  C   UNL A   1      50.701  28.477  27.089  1.00  0.00     0.064 A 
ATOM     75  C   UNL A   1      51.414  28.828  25.933  1.00  0.00     0.173 A 
ATOM     76  C   UNL A   1      51.469  28.588  28.285  1.00  0.00     0.173 A 
ATOM     77  F   UNL A   1      50.899  28.670  24.713  1.00  0.00    -0.203 F 
ATOM     78  C   UNL A   1      52.723  29.343  25.974  1.00  0.00     0.198 A 
ATOM     79  C   UNL A   1      52.760  29.122  28.331  1.00  0.00     0.198 A 
ATOM     80  F   UNL A   1      50.992  28.184  29.469  1.00  0.00    -0.203 F 
ATOM     81  F   UNL A   1      53.338  29.679  24.831  1.00  0.00    -0.200 F 
ATOM     82  C   UNL A   1      53.384  29.518  27.173  1.00  0.00     0.200 A 
ATOM     83  F   UNL A   1      53.379  29.263  29.512  1.00  0.00    -0.200 F 
ATOM     84  F   UNL A   1      54.612  30.050  27.211  1.00  0.00    -0.200 F 
ENDBRANCH  50  74
BRANCH  62  85
ATOM     85  C   UNL A   1      45.523  28.345  30.288  1.00  0.00     0.064 A 
ATOM     86  C   UNL A   1      45.943  28.602  31.600  1.00  0.00     0.173 A 
ATOM     87  C   UNL A   1      45.315  26.996  29.952  1.00  0.00     0.173 A 
ATOM     88  F   UNL A   1      46.159  29.864  31.998  1.00  0.00    -0.203 F 
ATOM     89  C   UNL A   1      46.153  27.565  32.515  1.00  0.00     0.198 A 
ATOM     90  C   UNL A   1      45.513  25.962  30.863  1.00  0.00     0.198 A 
ATOM     91  F   UNL A   1      44.911  26.659  28.728  1.00  0.00    -0.203 F 
ATOM     92  F   UNL A   1      46.563  27.846  33.759  1.00  0.00    -0.200 F 
ATOM     93  C   UNL A   1      45.941  26.246  32.145  1.00  0.00     0.200 A 
ATOM     94  F   UNL A   1      45.284  24.691  30.496  1.00  0.00    -0.200 F 
ATOM     95  F   UNL A   1      46.136  25.254  33.024  1.00  0.00    -0.200 F 
ENDBRANCH  62  85
ENDBRANCH  36  37
ENDBRANCH  29  31
ENDBRANCH  28  29
ENDBRANCH  27  28
ENDBRANCH  26  27
ENDBRANCH  25  26
ENDBRANCH  24  25
ENDBRANCH   1  24
TORSDOF 19
ENDMDL
MODEL 2
REMARK VINA RESULT:     -10.7      5.560     10.420
REMARK SMILES O=C(Cc1cccn1-c1ccc2c(c1)OCCO2)OCCOCCOCCOC(=O)c1ccc(-c2c3nc(c(-c4c(F)c(F)c(F)c(F)c4F)c4ccc([nH]4)c(-c4c(F)c(F)c(F)c(F)c4F)c4nc(c(-c5c(F)c(F)c(F)c(F)c5F)c5ccc2[nH]5)C=C4)C=C3)cc1
REMARK SMILES IDX 23 1 22 2 21 3 20 4 19 5 2 6 1 7 3 8 4 9 5 10 8 11 6 12 7 13
REMARK SMILES IDX 9 14 10 15 14 16 11 17 13 18 12 19 15 20 18 21 16 22 17 23
REMARK SMILES IDX 24 24 25 25 26 26 27 27 28 28 29 29 30 30 31 31 32 32 93 33
REMARK SMILES IDX 33 34 92 35 34 36 35 37 36 38 86 39 37 40 91 41 85 42 87 43
REMARK SMILES IDX 38 44 90 45 84 46 83 47 39 49 71 50 51 51 70 52 52 53 55 54
REMARK SMILES IDX 69 55 88 56 53 57 54 58 68 60 89 61 56 62 40 63 41 64 49 65
REMARK SMILES IDX 42 66 43 67 47 68 50 69 44 70 45 71 48 72 46 73 72 74 73 75
REMARK SMILES IDX 81 76 74 77 75 78 79 79 82 80 76 81 77 82 80 83 78 84 57 85
REMARK SMILES IDX 58 86 66 87 59 88 60 89 64 90 67 91 61 92 62 93 65 94 63 95
REMARK H PARENT 87 48 55 59
REMARK Flexibility Score: inf
ROOT
ATOM      1  C   UNL A   1      33.489  28.817  25.350  1.00  0.00     0.188 C 
ENDROOT
BRANCH   1   2
ATOM      2  O   UNL A   1      33.845  27.824  24.397  1.00  0.00    -0.376 OA
BRANCH   2   3
ATOM      3  C   UNL A   1      33.936  28.234  23.042  1.00  0.00     0.202 C 
BRANCH   3   4
ATOM      4  C   UNL A   1      33.574  27.175  22.003  1.00  0.00     0.261 C 
BRANCH   4   5
ATOM      5  O   UNL A   1      33.940  25.815  22.331  1.00  0.00    -0.463 OA
BRANCH   5   6
ATOM      6  C   UNL A   1      33.183  24.698  22.268  1.00  0.00     0.311 C 
ATOM      7  O   UNL A   1      33.635  23.694  21.717  1.00  0.00    -0.252 OA
BRANCH   6   8
ATOM      8  C   UNL A   1      31.744  24.737  22.731  1.00  0.00     0.177 C 
BRANCH   8   9
ATOM      9  C   UNL A   1      31.589  24.969  24.202  1.00  0.00     0.034 A 
ATOM     10  C   UNL A   1      32.201  24.260  25.226  1.00  0.00     0.024 A 
ATOM     11  N   UNL A   1      30.838  25.996  24.780  1.00  0.00    -0.320 N 
ATOM     12  C   UNL A   1      31.925  24.918  26.436  1.00  0.00     0.020 A 
ATOM     13  C   UNL A   1      31.120  25.989  26.135  1.00  0.00     0.091 A 
BRANCH  11  14
ATOM     14  C   UNL A   1      29.960  26.937  24.156  1.00  0.00     0.049 A 
ATOM     15  C   UNL A   1      28.583  26.659  24.097  1.00  0.00     0.031 A 
ATOM     16  C   UNL A   1      30.443  28.123  23.586  1.00  0.00     0.077 A 
ATOM     17  C   UNL A   1      27.703  27.554  23.483  1.00  0.00     0.052 A 
ATOM     18  C   UNL A   1      29.557  29.013  22.970  1.00  0.00     0.163 A 
ATOM     19  C   UNL A   1      28.193  28.717  22.900  1.00  0.00     0.161 A 
ATOM     20  O   UNL A   1      30.105  30.150  22.428  1.00  0.00    -0.486 OA
ATOM     21  O   UNL A   1      27.280  29.518  22.264  1.00  0.00    -0.486 OA
ATOM     22  C   UNL A   1      29.102  31.095  22.032  1.00  0.00     0.271 C 
ATOM     23  C   UNL A   1      27.936  30.401  21.347  1.00  0.00     0.271 C 
ENDBRANCH  11  14
ENDBRANCH   8   9
ENDBRANCH   6   8
ENDBRANCH   5   6
ENDBRANCH   4   5
ENDBRANCH   3   4
ENDBRANCH   2   3
ENDBRANCH   1   2
BRANCH   1  24
ATOM     24  C   UNL A   1      34.172  28.639  26.719  1.00  0.00     0.188 C 
BRANCH  24  25
ATOM     25  O   UNL A   1      34.098  29.664  27.707  1.00  0.00    -0.376 OA
BRANCH  25  26
ATOM     26  C   UNL A   1      34.422  30.997  27.356  1.00  0.00     0.202 C 
BRANCH  26  27
ATOM     27  C   UNL A   1      33.275  31.962  27.675  1.00  0.00     0.261 C 
BRANCH  27  28
ATOM     28  O   UNL A   1      33.543  33.336  27.371  1.00  0.00    -0.460 OA
BRANCH  28  29
ATOM     29  C   UNL A   1      33.355  34.183  28.406  1.00  0.00     0.338 C 
ATOM     30  O   UNL A   1      32.448  34.989  28.576  1.00  0.00    -0.246 OA
BRANCH  29  31
ATOM     31  C   UNL A   1      34.476  34.112  29.346  1.00  0.00     0.060 A 
ATOM     32  C   UNL A   1      35.770  34.297  28.840  1.00  0.00     0.016 A 
ATOM     33  C   UNL A   1      34.256  33.594  30.625  1.00  0.00     0.016 A 
ATOM     34  C   UNL A   1      36.854  33.852  29.577  1.00  0.00     0.010 A 
ATOM     35  C   UNL A   1      35.337  33.115  31.345  1.00  0.00     0.010 A 
ATOM     36  C   UNL A   1      36.626  33.198  30.794  1.00  0.00    -0.014 A 
BRANCH  36  37
ATOM     37  C   UNL A   1      37.746  32.507  31.462  1.00  0.00     0.031 A 
ATOM     38  C   UNL A   1      38.117  31.175  30.839  1.00  0.00     0.074 A 
ATOM     39  C   UNL A   1      38.305  33.177  32.513  1.00  0.00     0.049 A 
ATOM     40  N   UNL A   1      38.901  30.244  31.291  1.00  0.00    -0.248 NA
ATOM     41  C   UNL A   1      37.521  30.808  29.528  1.00  0.00     0.031 C 
ATOM     42  C   UNL A   1      37.817  34.481  32.996  1.00  0.00     0.029 A 
ATOM     43  N   UNL A   1      39.357  32.935  33.377  1.00  0.00    -0.354 N 
ATOM     44  C   UNL A   1      39.050  29.304  30.262  1.00  0.00     0.074 A 
ATOM     45  C   UNL A   1      38.106  29.647  29.240  1.00  0.00     0.031 C 
ATOM     46  C   UNL A   1      38.506  34.879  34.080  1.00  0.00     0.029 A 
ATOM     47  C   UNL A   1      39.537  33.910  34.391  1.00  0.00     0.049 A 
ATOM     48  H   UNL A   1      39.938  32.144  33.294  1.00  0.00     0.167 HD
ATOM     49  C   UNL A   1      40.037  28.368  30.240  1.00  0.00     0.037 A 
ATOM     50  C   UNL A   1      40.435  33.945  35.424  1.00  0.00     0.037 A 
ATOM     51  C   UNL A   1      40.812  28.387  31.433  1.00  0.00     0.049 A 
ATOM     52  C   UNL A   1      41.370  32.829  35.181  1.00  0.00     0.074 A 
ATOM     53  C   UNL A   1      40.600  27.913  32.700  1.00  0.00     0.029 A 
ATOM     54  N   UNL A   1      41.921  29.195  31.451  1.00  0.00    -0.354 N 
ATOM     55  N   UNL A   1      42.291  32.827  34.262  1.00  0.00    -0.248 NA
ATOM     56  C   UNL A   1      41.244  31.600  35.974  1.00  0.00     0.031 C 
ATOM     57  C   UNL A   1      41.422  28.704  33.534  1.00  0.00     0.029 A 
ATOM     58  C   UNL A   1      42.112  29.627  32.744  1.00  0.00     0.049 A 
ATOM     59  H   UNL A   1      42.482  29.425  30.676  1.00  0.00     0.167 HD
ATOM     60  C   UNL A   1      42.618  31.492  34.163  1.00  0.00     0.074 A 
ATOM     61  C   UNL A   1      42.193  30.871  35.394  1.00  0.00     0.031 C 
ATOM     62  C   UNL A   1      42.729  30.922  32.937  1.00  0.00     0.037 A 
BRANCH  49  63
ATOM     63  C   UNL A   1      40.514  27.520  29.103  1.00  0.00     0.064 A 
ATOM     64  C   UNL A   1      41.379  28.092  28.144  1.00  0.00     0.173 A 
ATOM     65  C   UNL A   1      39.909  26.303  28.756  1.00  0.00     0.173 A 
ATOM     66  F   UNL A   1      42.016  29.246  28.401  1.00  0.00    -0.203 F 
ATOM     67  C   UNL A   1      41.554  27.528  26.883  1.00  0.00     0.198 A 
ATOM     68  C   UNL A   1      40.120  25.719  27.505  1.00  0.00     0.198 A 
ATOM     69  F   UNL A   1      39.034  25.709  29.579  1.00  0.00    -0.203 F 
ATOM     70  F   UNL A   1      42.299  28.160  25.965  1.00  0.00    -0.200 F 
ATOM     71  C   UNL A   1      40.914  26.346  26.559  1.00  0.00     0.200 A 
ATOM     72  F   UNL A   1      39.495  24.574  27.195  1.00  0.00    -0.200 F 
ATOM     73  F   UNL A   1      41.035  25.829  25.329  1.00  0.00    -0.200 F 
ENDBRANCH  49  63
BRANCH  50  74
ATOM     74  C   UNL A   1      40.665  34.781  36.670  1.00  0.00     0.064 A 
ATOM     75  C   UNL A   1      41.686  35.724  36.863  1.00  0.00     0.173 A 
ATOM     76  C   UNL A   1      39.759  34.694  37.767  1.00  0.00     0.173 A 
ATOM     77  F   UNL A   1      42.693  35.858  36.000  1.00  0.00    -0.203 F 
ATOM     78  C   UNL A   1      41.734  36.573  37.984  1.00  0.00     0.198 A 
ATOM     79  C   UNL A   1      39.791  35.552  38.869  1.00  0.00     0.198 A 
ATOM     80  F   UNL A   1      38.794  33.767  37.811  1.00  0.00    -0.203 F 
ATOM     81  F   UNL A   1      42.726  37.468  38.093  1.00  0.00    -0.200 F 
ATOM     82  C   UNL A   1      40.772  36.508  38.971  1.00  0.00     0.200 A 
ATOM     83  F   UNL A   1      38.849  35.450  39.818  1.00  0.00    -0.200 F 
ATOM     84  F   UNL A   1      40.796  37.348  40.013  1.00  0.00    -0.200 F 
ENDBRANCH  50  74
BRANCH  62  85
ATOM     85  C   UNL A   1      43.046  31.925  31.850  1.00  0.00     0.064 A 
ATOM     86  C   UNL A   1      44.351  32.416  31.702  1.00  0.00     0.173 A 
ATOM     87  C   UNL A   1      42.058  32.526  31.052  1.00  0.00     0.173 A 
ATOM     88  F   UNL A   1      45.350  31.891  32.426  1.00  0.00    -0.203 F 
ATOM     89  C   UNL A   1      44.641  33.458  30.815  1.00  0.00     0.198 A 
ATOM     90  C   UNL A   1      42.346  33.556  30.159  1.00  0.00     0.198 A 
ATOM     91  F   UNL A   1      40.792  32.120  31.123  1.00  0.00    -0.203 F 
ATOM     92  F   UNL A   1      45.898  33.909  30.705  1.00  0.00    -0.200 F 
ATOM     93  C   UNL A   1      43.638  34.029  30.047  1.00  0.00     0.200 A 
ATOM     94  F   UNL A   1      41.367  34.085  29.409  1.00  0.00    -0.200 F 
ATOM     95  F   UNL A   1      43.919  35.022  29.192  1.00  0.00    -0.200 F 
ENDBRANCH  62  85
ENDBRANCH  36  37
ENDBRANCH  29  31
ENDBRANCH  28  29
ENDBRANCH  27  28
ENDBRANCH  26  27
ENDBRANCH  25  26
ENDBRANCH  24  25
ENDBRANCH   1  24
TORSDOF 19
ENDMDL
MODEL 3
REMARK VINA RESULT:     -10.5      2.774      4.825
REMARK SMILES O=C(Cc1cccn1-c1ccc2c(c1)OCCO2)OCCOCCOCCOC(=O)c1ccc(-c2c3nc(c(-c4c(F)c(F)c(F)c(F)c4F)c4ccc([nH]4)c(-c4c(F)c(F)c(F)c(F)c4F)c4nc(c(-c5c(F)c(F)c(F)c(F)c5F)c5ccc2[nH]5)C=C4)C=C3)cc1
REMARK SMILES IDX 23 1 22 2 21 3 20 4 19 5 2 6 1 7 3 8 4 9 5 10 8 11 6 12 7 13
REMARK SMILES IDX 9 14 10 15 14 16 11 17 13 18 12 19 15 20 18 21 16 22 17 23
REMARK SMILES IDX 24 24 25 25 26 26 27 27 28 28 29 29 30 30 31 31 32 32 93 33
REMARK SMILES IDX 33 34 92 35 34 36 35 37 36 38 86 39 37 40 91 41 85 42 87 43
REMARK SMILES IDX 38 44 90 45 84 46 83 47 39 49 71 50 51 51 70 52 52 53 55 54
REMARK SMILES IDX 69 55 88 56 53 57 54 58 68 60 89 61 56 62 40 63 41 64 49 65
REMARK SMILES IDX 42 66 43 67 47 68 50 69 44 70 45 71 48 72 46 73 72 74 73 75
REMARK SMILES IDX 81 76 74 77 75 78 79 79 82 80 76 81 77 82 80 83 78 84 57 85
REMARK SMILES IDX 58 86 66 87 59 88 60 89 64 90 67 91 61 92 62 93 65 94 63 95
REMARK H PARENT 87 48 55 59
REMARK Flexibility Score: inf
ROOT
ATOM      1  C   UNL A   1      33.434  23.560  23.489  1.00  0.00     0.188 C 
ENDROOT
BRANCH   1   2
ATOM      2  O   UNL A   1      32.334  22.665  23.599  1.00  0.00    -0.376 OA
BRANCH   2   3
ATOM      3  C   UNL A   1      31.990  22.224  24.903  1.00  0.00     0.202 C 
BRANCH   3   4
ATOM      4  C   UNL A   1      30.883  23.013  25.599  1.00  0.00     0.261 C 
BRANCH   4   5
ATOM      5  O   UNL A   1      31.318  23.999  26.563  1.00  0.00    -0.463 OA
BRANCH   5   6
ATOM      6  C   UNL A   1      31.774  25.251  26.344  1.00  0.00     0.311 C 
ATOM      7  O   UNL A   1      32.979  25.480  26.449  1.00  0.00    -0.252 OA
BRANCH   6   8
ATOM      8  C   UNL A   1      30.793  26.382  26.126  1.00  0.00     0.177 C 
BRANCH   8   9
ATOM      9  C   UNL A   1      30.936  27.056  24.798  1.00  0.00     0.034 A 
ATOM     10  C   UNL A   1      30.477  26.592  23.573  1.00  0.00     0.024 A 
ATOM     11  N   UNL A   1      31.510  28.313  24.592  1.00  0.00    -0.320 N 
ATOM     12  C   UNL A   1      30.661  27.610  22.625  1.00  0.00     0.020 A 
ATOM     13  C   UNL A   1      31.262  28.660  23.275  1.00  0.00     0.091 A 
BRANCH  11  14
ATOM     14  C   UNL A   1      32.200  29.156  25.519  1.00  0.00     0.049 A 
ATOM     15  C   UNL A   1      31.574  30.328  25.981  1.00  0.00     0.031 A 
ATOM     16  C   UNL A   1      33.492  28.850  25.965  1.00  0.00     0.077 A 
ATOM     17  C   UNL A   1      32.230  31.177  26.876  1.00  0.00     0.052 A 
ATOM     18  C   UNL A   1      34.144  29.706  26.860  1.00  0.00     0.163 A 
ATOM     19  C   UNL A   1      33.520  30.879  27.296  1.00  0.00     0.161 A 
ATOM     20  O   UNL A   1      35.411  29.344  27.247  1.00  0.00    -0.486 OA
ATOM     21  O   UNL A   1      34.122  31.786  28.129  1.00  0.00    -0.486 OA
ATOM     22  C   UNL A   1      35.896  30.151  28.328  1.00  0.00     0.271 C 
ATOM     23  C   UNL A   1      35.544  31.615  28.120  1.00  0.00     0.271 C 
ENDBRANCH  11  14
ENDBRANCH   8   9
ENDBRANCH   6   8
ENDBRANCH   5   6
ENDBRANCH   4   5
ENDBRANCH   3   4
ENDBRANCH   2   3
ENDBRANCH   1   2
BRANCH   1  24
ATOM     24  C   UNL A   1      34.803  22.857  23.433  1.00  0.00     0.188 C 
BRANCH  24  25
ATOM     25  O   UNL A   1      35.458  22.445  24.630  1.00  0.00    -0.376 OA
BRANCH  25  26
ATOM     26  C   UNL A   1      35.454  21.076  24.994  1.00  0.00     0.202 C 
BRANCH  26  27
ATOM     27  C   UNL A   1      36.871  20.494  25.028  1.00  0.00     0.261 C 
BRANCH  27  28
ATOM     28  O   UNL A   1      37.921  21.465  24.936  1.00  0.00    -0.460 OA
BRANCH  28  29
ATOM     29  C   UNL A   1      39.010  21.180  25.683  1.00  0.00     0.338 C 
ATOM     30  O   UNL A   1      39.620  20.121  25.768  1.00  0.00    -0.246 OA
BRANCH  29  31
ATOM     31  C   UNL A   1      39.372  22.321  26.527  1.00  0.00     0.060 A 
ATOM     32  C   UNL A   1      38.883  23.584  26.172  1.00  0.00     0.016 A 
ATOM     33  C   UNL A   1      40.396  22.168  27.467  1.00  0.00     0.016 A 
ATOM     34  C   UNL A   1      39.502  24.715  26.675  1.00  0.00     0.010 A 
ATOM     35  C   UNL A   1      41.039  23.300  27.941  1.00  0.00     0.010 A 
ATOM     36  C   UNL A   1      40.623  24.566  27.501  1.00  0.00    -0.014 A 
BRANCH  36  37
ATOM     37  C   UNL A   1      41.433  25.753  27.839  1.00  0.00     0.031 A 
ATOM     38  C   UNL A   1      40.736  26.743  28.752  1.00  0.00     0.074 A 
ATOM     39  C   UNL A   1      42.693  25.770  27.315  1.00  0.00     0.049 A 
ATOM     40  N   UNL A   1      41.080  27.954  29.069  1.00  0.00    -0.248 NA
ATOM     41  C   UNL A   1      39.459  26.344  29.398  1.00  0.00     0.031 C 
ATOM     42  C   UNL A   1      43.222  24.713  26.434  1.00  0.00     0.029 A 
ATOM     43  N   UNL A   1      43.771  26.634  27.393  1.00  0.00    -0.354 N 
ATOM     44  C   UNL A   1      40.203  28.374  30.080  1.00  0.00     0.074 A 
ATOM     45  C   UNL A   1      39.168  27.387  30.174  1.00  0.00     0.031 C 
ATOM     46  C   UNL A   1      44.462  25.016  26.013  1.00  0.00     0.029 A 
ATOM     47  C   UNL A   1      44.891  26.268  26.601  1.00  0.00     0.049 A 
ATOM     48  H   UNL A   1      43.761  27.442  27.955  1.00  0.00     0.167 HD
ATOM     49  C   UNL A   1      40.444  29.445  30.883  1.00  0.00     0.037 A 
ATOM     50  C   UNL A   1      46.079  26.921  26.410  1.00  0.00     0.037 A 
ATOM     51  C   UNL A   1      41.620  30.145  30.494  1.00  0.00     0.049 A 
ATOM     52  C   UNL A   1      46.082  28.041  27.372  1.00  0.00     0.074 A 
ATOM     53  C   UNL A   1      41.899  31.030  29.487  1.00  0.00     0.029 A 
ATOM     54  N   UNL A   1      42.803  29.760  31.074  1.00  0.00    -0.354 N 
ATOM     55  N   UNL A   1      46.259  27.909  28.654  1.00  0.00    -0.248 NA
ATOM     56  C   UNL A   1      45.816  29.401  26.891  1.00  0.00     0.031 C 
ATOM     57  C   UNL A   1      43.292  30.924  29.276  1.00  0.00     0.029 A 
ATOM     58  C   UNL A   1      43.814  29.984  30.168  1.00  0.00     0.049 A 
ATOM     59  H   UNL A   1      42.909  29.389  31.979  1.00  0.00     0.167 HD
ATOM     60  C   UNL A   1      45.800  29.110  29.149  1.00  0.00     0.074 A 
ATOM     61  C   UNL A   1      45.840  30.048  28.053  1.00  0.00     0.031 C 
ATOM     62  C   UNL A   1      44.971  29.117  30.223  1.00  0.00     0.037 A 
BRANCH  49  63
ATOM     63  C   UNL A   1      39.788  29.830  32.171  1.00  0.00     0.064 A 
ATOM     64  C   UNL A   1      38.850  30.886  32.168  1.00  0.00     0.173 A 
ATOM     65  C   UNL A   1      40.276  29.429  33.423  1.00  0.00     0.173 A 
ATOM     66  F   UNL A   1      38.315  31.322  31.016  1.00  0.00    -0.203 F 
ATOM     67  C   UNL A   1      38.495  31.558  33.336  1.00  0.00     0.198 A 
ATOM     68  C   UNL A   1      39.886  30.078  34.597  1.00  0.00     0.198 A 
ATOM     69  F   UNL A   1      41.207  28.470  33.524  1.00  0.00    -0.203 F 
ATOM     70  F   UNL A   1      37.685  32.624  33.274  1.00  0.00    -0.200 F 
ATOM     71  C   UNL A   1      39.023  31.160  34.550  1.00  0.00     0.200 A 
ATOM     72  F   UNL A   1      40.403  29.689  35.771  1.00  0.00    -0.200 F 
ATOM     73  F   UNL A   1      38.728  31.838  35.668  1.00  0.00    -0.200 F 
ENDBRANCH  49  63
BRANCH  50  74
ATOM     74  C   UNL A   1      47.288  26.787  25.501  1.00  0.00     0.064 A 
ATOM     75  C   UNL A   1      47.428  27.336  24.217  1.00  0.00     0.173 A 
ATOM     76  C   UNL A   1      48.452  26.103  25.956  1.00  0.00     0.173 A 
ATOM     77  F   UNL A   1      46.405  27.905  23.579  1.00  0.00    -0.203 F 
ATOM     78  C   UNL A   1      48.641  27.302  23.505  1.00  0.00     0.198 A 
ATOM     79  C   UNL A   1      49.665  26.089  25.261  1.00  0.00     0.198 A 
ATOM     80  F   UNL A   1      48.462  25.418  27.106  1.00  0.00    -0.203 F 
ATOM     81  F   UNL A   1      48.710  27.866  22.290  1.00  0.00    -0.200 F 
ATOM     82  C   UNL A   1      49.766  26.706  24.038  1.00  0.00     0.200 A 
ATOM     83  F   UNL A   1      50.734  25.487  25.802  1.00  0.00    -0.200 F 
ATOM     84  F   UNL A   1      50.930  26.716  23.376  1.00  0.00    -0.200 F 
ENDBRANCH  50  74
BRANCH  62  85
ATOM     85  C   UNL A   1      45.113  27.879  31.081  1.00  0.00     0.064 A 
ATOM     86  C   UNL A   1      46.161  27.779  32.007  1.00  0.00     0.173 A 
ATOM     87  C   UNL A   1      44.328  26.728  30.900  1.00  0.00     0.173 A 
ATOM     88  F   UNL A   1      46.953  28.836  32.238  1.00  0.00    -0.203 F 
ATOM     89  C   UNL A   1      46.413  26.589  32.697  1.00  0.00     0.198 A 
ATOM     90  C   UNL A   1      44.568  25.545  31.594  1.00  0.00     0.198 A 
ATOM     91  F   UNL A   1      43.308  26.734  30.044  1.00  0.00    -0.203 F 
ATOM     92  F   UNL A   1      47.428  26.525  33.568  1.00  0.00    -0.200 F 
ATOM     93  C   UNL A   1      45.618  25.472  32.489  1.00  0.00     0.200 A 
ATOM     94  F   UNL A   1      43.778  24.478  31.395  1.00  0.00    -0.200 F 
ATOM     95  F   UNL A   1      45.855  24.335  33.156  1.00  0.00    -0.200 F 
ENDBRANCH  62  85
ENDBRANCH  36  37
ENDBRANCH  29  31
ENDBRANCH  28  29
ENDBRANCH  27  28
ENDBRANCH  26  27
ENDBRANCH  25  26
ENDBRANCH  24  25
ENDBRANCH   1  24
TORSDOF 19
ENDMDL
