MODEL 1
REMARK VINA RESULT:     -10.1      0.000      0.000
REMARK SMILES CC(=O)Oc1ccccc1C(=O)OCCOCCOCCOC(=O)c1ccc(-c2c3nc(c(-c4c(F)c(F)c(F)c(F)c4F)c4ccc([nH]4)c(-c4c(F)c(F)c(F)c(F)c4F)c4nc(c(-c5c(F)c(F)c(F)c(F)c5F)c5ccc2[nH]5)C=C4)C=C3)cc1
REMARK SMILES IDX 17 1 16 2 15 3 14 4 13 5 11 6 12 7 10 8 5 9 6 10 7 11 9 12
REMARK SMILES IDX 8 13 4 14 2 15 1 16 3 17 18 18 19 19 20 20 21 21 22 22 23 23
REMARK SMILES IDX 24 24 25 25 26 26 87 27 27 28 86 29 28 30 29 31 30 32 80 33
REMARK SMILES IDX 31 34 85 35 79 36 81 37 32 38 84 39 78 40 77 41 33 43 65 44
REMARK SMILES IDX 45 45 64 46 46 47 49 48 63 49 82 50 47 51 48 52 62 54 83 55
REMARK SMILES IDX 50 56 34 57 35 58 43 59 36 60 37 61 41 62 44 63 38 64 39 65
REMARK SMILES IDX 42 66 40 67 66 68 67 69 75 70 68 71 69 72 73 73 76 74 70 75
REMARK SMILES IDX 71 76 74 77 72 78 51 79 52 80 60 81 53 82 54 83 58 84 61 85
REMARK SMILES IDX 55 86 56 87 59 88 57 89
REMARK H PARENT 81 42 49 53
REMARK Flexibility Score: inf
ROOT
ATOM      1  C   UNL A   1      39.941  21.228  26.283  1.00  0.00     0.188 C 
ENDROOT
BRANCH   1   2
ATOM      2  O   UNL A   1      39.128  22.338  25.919  1.00  0.00    -0.376 OA
BRANCH   2   3
ATOM      3  C   UNL A   1      37.720  22.153  25.805  1.00  0.00     0.202 C 
BRANCH   3   4
ATOM      4  C   UNL A   1      37.127  22.139  24.394  1.00  0.00     0.261 C 
BRANCH   4   5
ATOM      5  O   UNL A   1      35.694  22.011  24.409  1.00  0.00    -0.460 OA
BRANCH   5   6
ATOM      6  C   UNL A   1      35.004  23.041  23.861  1.00  0.00     0.342 C 
ATOM      7  O   UNL A   1      35.163  23.490  22.734  1.00  0.00    -0.246 OA
BRANCH   6   8
ATOM      8  C   UNL A   1      33.860  23.444  24.716  1.00  0.00     0.102 A 
ATOM      9  C   UNL A   1      33.390  24.752  24.906  1.00  0.00     0.145 A 
ATOM     10  C   UNL A   1      32.324  25.006  25.780  1.00  0.00     0.048 A 
ATOM     11  C   UNL A   1      31.730  23.960  26.486  1.00  0.00     0.004 A 
ATOM     12  C   UNL A   1      33.252  22.404  25.443  1.00  0.00     0.019 A 
ATOM     13  C   UNL A   1      32.204  22.661  26.329  1.00  0.00     0.001 A 
BRANCH   9  14
ATOM     14  O   UNL A   1      34.039  25.906  24.430  1.00  0.00    -0.426 OA
BRANCH  14  15
ATOM     15  C   UNL A   1      33.494  26.600  23.359  1.00  0.00     0.308 C 
ATOM     16  C   UNL A   1      33.676  28.072  23.593  1.00  0.00     0.139 C 
ATOM     17  O   UNL A   1      32.934  26.107  22.390  1.00  0.00    -0.252 OA
ENDBRANCH  14  15
ENDBRANCH   9  14
ENDBRANCH   6   8
ENDBRANCH   5   6
ENDBRANCH   4   5
ENDBRANCH   3   4
ENDBRANCH   2   3
ENDBRANCH   1   2
BRANCH   1  18
ATOM     18  C   UNL A   1      40.775  21.293  27.578  1.00  0.00     0.188 C 
BRANCH  18  19
ATOM     19  O   UNL A   1      42.151  20.991  27.416  1.00  0.00    -0.376 OA
BRANCH  19  20
ATOM     20  C   UNL A   1      42.558  20.681  26.090  1.00  0.00     0.202 C 
BRANCH  20  21
ATOM     21  C   UNL A   1      43.518  21.703  25.467  1.00  0.00     0.261 C 
BRANCH  21  22
ATOM     22  O   UNL A   1      42.893  22.902  24.975  1.00  0.00    -0.460 OA
BRANCH  22  23
ATOM     23  C   UNL A   1      43.630  24.034  24.995  1.00  0.00     0.338 C 
ATOM     24  O   UNL A   1      44.546  24.330  24.250  1.00  0.00    -0.246 OA
BRANCH  23  25
ATOM     25  C   UNL A   1      43.012  24.960  25.967  1.00  0.00     0.060 A 
ATOM     26  C   UNL A   1      43.586  26.223  26.156  1.00  0.00     0.016 A 
ATOM     27  C   UNL A   1      41.867  24.591  26.680  1.00  0.00     0.016 A 
ATOM     28  C   UNL A   1      43.032  27.110  27.083  1.00  0.00     0.010 A 
ATOM     29  C   UNL A   1      41.323  25.473  27.619  1.00  0.00     0.010 A 
ATOM     30  C   UNL A   1      41.921  26.725  27.846  1.00  0.00    -0.014 A 
BRANCH  30  31
ATOM     31  C   UNL A   1      41.493  27.557  28.998  1.00  0.00     0.031 A 
ATOM     32  C   UNL A   1      42.243  27.431  30.295  1.00  0.00     0.074 A 
ATOM     33  C   UNL A   1      40.465  28.419  28.898  1.00  0.00     0.049 A 
ATOM     34  N   UNL A   1      42.059  28.056  31.429  1.00  0.00    -0.248 NA
ATOM     35  C   UNL A   1      43.350  26.462  30.313  1.00  0.00     0.031 C 
ATOM     36  C   UNL A   1      39.660  28.641  27.701  1.00  0.00     0.029 A 
ATOM     37  N   UNL A   1      39.920  29.262  29.837  1.00  0.00    -0.354 N 
ATOM     38  C   UNL A   1      43.030  27.565  32.291  1.00  0.00     0.074 A 
ATOM     39  C   UNL A   1      43.776  26.561  31.562  1.00  0.00     0.031 C 
ATOM     40  C   UNL A   1      38.708  29.549  27.981  1.00  0.00     0.029 A 
ATOM     41  C   UNL A   1      38.829  29.959  29.380  1.00  0.00     0.049 A 
ATOM     42  H   UNL A   1      40.277  29.356  30.748  1.00  0.00     0.167 HD
ATOM     43  C   UNL A   1      43.288  27.925  33.570  1.00  0.00     0.037 A 
ATOM     44  C   UNL A   1      38.015  30.819  30.025  1.00  0.00     0.037 A 
ATOM     45  C   UNL A   1      42.538  28.907  34.307  1.00  0.00     0.049 A 
ATOM     46  C   UNL A   1      38.289  31.167  31.466  1.00  0.00     0.074 A 
ATOM     47  C   UNL A   1      42.735  29.352  35.602  1.00  0.00     0.029 A 
ATOM     48  N   UNL A   1      41.433  29.585  33.815  1.00  0.00    -0.354 N 
ATOM     49  N   UNL A   1      39.243  30.740  32.256  1.00  0.00    -0.248 NA
ATOM     50  C   UNL A   1      37.375  32.129  32.100  1.00  0.00     0.031 C 
ATOM     51  C   UNL A   1      41.722  30.268  35.910  1.00  0.00     0.029 A 
ATOM     52  C   UNL A   1      40.923  30.428  34.789  1.00  0.00     0.049 A 
ATOM     53  H   UNL A   1      41.065  29.483  32.907  1.00  0.00     0.167 HD
ATOM     54  C   UNL A   1      39.059  31.392  33.469  1.00  0.00     0.074 A 
ATOM     55  C   UNL A   1      37.911  32.259  33.306  1.00  0.00     0.031 C 
ATOM     56  C   UNL A   1      39.776  31.284  34.615  1.00  0.00     0.037 A 
BRANCH  43  57
ATOM     57  C   UNL A   1      44.425  27.230  34.258  1.00  0.00     0.064 A 
ATOM     58  C   UNL A   1      45.725  27.759  34.244  1.00  0.00     0.173 A 
ATOM     59  C   UNL A   1      44.214  26.024  34.942  1.00  0.00     0.173 A 
ATOM     60  F   UNL A   1      45.982  28.901  33.589  1.00  0.00    -0.203 F 
ATOM     61  C   UNL A   1      46.778  27.090  34.863  1.00  0.00     0.198 A 
ATOM     62  C   UNL A   1      45.263  25.371  35.582  1.00  0.00     0.198 A 
ATOM     63  F   UNL A   1      42.990  25.477  34.985  1.00  0.00    -0.203 F 
ATOM     64  F   UNL A   1      48.020  27.587  34.791  1.00  0.00    -0.200 F 
ATOM     65  C   UNL A   1      46.545  25.900  35.535  1.00  0.00     0.200 A 
ATOM     66  F   UNL A   1      45.037  24.225  36.239  1.00  0.00    -0.200 F 
ATOM     67  F   UNL A   1      47.559  25.255  36.129  1.00  0.00    -0.200 F 
ENDBRANCH  43  57
BRANCH  44  68
ATOM     68  C   UNL A   1      36.854  31.412  29.311  1.00  0.00     0.064 A 
ATOM     69  C   UNL A   1      36.833  32.767  28.960  1.00  0.00     0.173 A 
ATOM     70  C   UNL A   1      35.735  30.633  28.983  1.00  0.00     0.173 A 
ATOM     71  F   UNL A   1      37.867  33.559  29.279  1.00  0.00    -0.203 F 
ATOM     72  C   UNL A   1      35.728  33.327  28.319  1.00  0.00     0.198 A 
ATOM     73  C   UNL A   1      34.642  31.187  28.321  1.00  0.00     0.198 A 
ATOM     74  F   UNL A   1      35.705  29.331  29.305  1.00  0.00    -0.203 F 
ATOM     75  F   UNL A   1      35.714  34.636  28.033  1.00  0.00    -0.200 F 
ATOM     76  C   UNL A   1      34.636  32.535  27.995  1.00  0.00     0.200 A 
ATOM     77  F   UNL A   1      33.592  30.417  28.004  1.00  0.00    -0.200 F 
ATOM     78  F   UNL A   1      33.576  33.073  27.378  1.00  0.00    -0.200 F 
ENDBRANCH  44  68
BRANCH  56  79
ATOM     79  C   UNL A   1      39.357  32.139  35.776  1.00  0.00     0.064 A 
ATOM     80  C   UNL A   1      39.880  33.427  35.968  1.00  0.00     0.173 A 
ATOM     81  C   UNL A   1      38.395  31.679  36.689  1.00  0.00     0.173 A 
ATOM     82  F   UNL A   1      40.811  33.909  35.131  1.00  0.00    -0.203 F 
ATOM     83  C   UNL A   1      39.475  34.211  37.046  1.00  0.00     0.198 A 
ATOM     84  C   UNL A   1      37.972  32.476  37.749  1.00  0.00     0.198 A 
ATOM     85  F   UNL A   1      37.858  30.458  36.547  1.00  0.00    -0.203 F 
ATOM     86  F   UNL A   1      40.022  35.419  37.236  1.00  0.00    -0.200 F 
ATOM     87  C   UNL A   1      38.518  33.737  37.931  1.00  0.00     0.200 A 
ATOM     88  F   UNL A   1      37.038  32.022  38.596  1.00  0.00    -0.200 F 
ATOM     89  F   UNL A   1      38.126  34.495  38.965  1.00  0.00    -0.200 F 
ENDBRANCH  56  79
ENDBRANCH  30  31
ENDBRANCH  23  25
ENDBRANCH  22  23
ENDBRANCH  21  22
ENDBRANCH  20  21
ENDBRANCH  19  20
ENDBRANCH  18  19
ENDBRANCH   1  18
TORSDOF 19
ENDMDL
MODEL 2
REMARK VINA RESULT:     -10.0      4.524      6.970
REMARK SMILES CC(=O)Oc1ccccc1C(=O)OCCOCCOCCOC(=O)c1ccc(-c2c3nc(c(-c4c(F)c(F)c(F)c(F)c4F)c4ccc([nH]4)c(-c4c(F)c(F)c(F)c(F)c4F)c4nc(c(-c5c(F)c(F)c(F)c(F)c5F)c5ccc2[nH]5)C=C4)C=C3)cc1
REMARK SMILES IDX 17 1 16 2 15 3 14 4 13 5 11 6 12 7 10 8 5 9 6 10 7 11 9 12
REMARK SMILES IDX 8 13 4 14 2 15 1 16 3 17 18 18 19 19 20 20 21 21 22 22 23 23
REMARK SMILES IDX 24 24 25 25 26 26 87 27 27 28 86 29 28 30 29 31 30 32 80 33
REMARK SMILES IDX 31 34 85 35 79 36 81 37 32 38 84 39 78 40 77 41 33 43 65 44
REMARK SMILES IDX 45 45 64 46 46 47 49 48 63 49 82 50 47 51 48 52 62 54 83 55
REMARK SMILES IDX 50 56 34 57 35 58 43 59 36 60 37 61 41 62 44 63 38 64 39 65
REMARK SMILES IDX 42 66 40 67 66 68 67 69 75 70 68 71 69 72 73 73 76 74 70 75
REMARK SMILES IDX 71 76 74 77 72 78 51 79 52 80 60 81 53 82 54 83 58 84 61 85
REMARK SMILES IDX 55 86 56 87 59 88 57 89
REMARK H PARENT 81 42 49 53
REMARK Flexibility Score: inf
ROOT
ATOM      1  C   UNL A   1      33.944  21.184  24.718  1.00  0.00     0.188 C 
ENDROOT
BRANCH   1   2
ATOM      2  O   UNL A   1      33.221  22.340  24.307  1.00  0.00    -0.376 OA
BRANCH   2   3
ATOM      3  C   UNL A   1      31.798  22.323  24.374  1.00  0.00     0.202 C 
BRANCH   3   4
ATOM      4  C   UNL A   1      31.083  23.676  24.417  1.00  0.00     0.261 C 
BRANCH   4   5
ATOM      5  O   UNL A   1      31.968  24.745  24.797  1.00  0.00    -0.460 OA
BRANCH   5   6
ATOM      6  C   UNL A   1      31.584  25.472  25.874  1.00  0.00     0.342 C 
ATOM      7  O   UNL A   1      31.167  25.021  26.933  1.00  0.00    -0.246 OA
BRANCH   6   8
ATOM      8  C   UNL A   1      31.926  26.908  25.710  1.00  0.00     0.102 A 
ATOM      9  C   UNL A   1      31.249  27.832  24.902  1.00  0.00     0.145 A 
ATOM     10  C   UNL A   1      31.704  29.155  24.799  1.00  0.00     0.048 A 
ATOM     11  C   UNL A   1      32.848  29.561  25.486  1.00  0.00     0.004 A 
ATOM     12  C   UNL A   1      33.082  27.334  26.389  1.00  0.00     0.019 A 
ATOM     13  C   UNL A   1      33.546  28.646  26.269  1.00  0.00     0.001 A 
BRANCH   9  14
ATOM     14  O   UNL A   1      30.227  27.497  23.997  1.00  0.00    -0.426 OA
BRANCH  14  15
ATOM     15  C   UNL A   1      30.415  27.728  22.642  1.00  0.00     0.308 C 
ATOM     16  C   UNL A   1      31.303  26.653  22.086  1.00  0.00     0.139 C 
ATOM     17  O   UNL A   1      29.957  28.662  21.999  1.00  0.00    -0.252 OA
ENDBRANCH  14  15
ENDBRANCH   9  14
ENDBRANCH   6   8
ENDBRANCH   5   6
ENDBRANCH   4   5
ENDBRANCH   3   4
ENDBRANCH   2   3
ENDBRANCH   1   2
BRANCH   1  18
ATOM     18  C   UNL A   1      35.317  21.353  25.397  1.00  0.00     0.188 C 
BRANCH  18  19
ATOM     19  O   UNL A   1      36.298  20.411  24.997  1.00  0.00    -0.376 OA
BRANCH  19  20
ATOM     20  C   UNL A   1      37.628  20.907  24.912  1.00  0.00     0.202 C 
BRANCH  20  21
ATOM     21  C   UNL A   1      38.690  19.976  25.512  1.00  0.00     0.261 C 
BRANCH  21  22
ATOM     22  O   UNL A   1      39.990  20.568  25.681  1.00  0.00    -0.460 OA
BRANCH  22  23
ATOM     23  C   UNL A   1      40.506  20.574  26.929  1.00  0.00     0.338 C 
ATOM     24  O   UNL A   1      40.846  19.611  27.591  1.00  0.00    -0.246 OA
BRANCH  23  25
ATOM     25  C   UNL A   1      40.775  21.979  27.303  1.00  0.00     0.060 A 
ATOM     26  C   UNL A   1      40.144  23.001  26.584  1.00  0.00     0.016 A 
ATOM     27  C   UNL A   1      41.635  22.287  28.361  1.00  0.00     0.016 A 
ATOM     28  C   UNL A   1      40.397  24.338  26.903  1.00  0.00     0.010 A 
ATOM     29  C   UNL A   1      41.899  23.625  28.670  1.00  0.00     0.010 A 
ATOM     30  C   UNL A   1      41.304  24.656  27.924  1.00  0.00    -0.014 A 
BRANCH  30  31
ATOM     31  C   UNL A   1      41.761  26.058  28.092  1.00  0.00     0.031 A 
ATOM     32  C   UNL A   1      43.114  26.442  27.561  1.00  0.00     0.074 A 
ATOM     33  C   UNL A   1      40.991  26.981  28.696  1.00  0.00     0.049 A 
ATOM     34  N   UNL A   1      43.721  27.601  27.584  1.00  0.00    -0.248 NA
ATOM     35  C   UNL A   1      43.888  25.368  26.919  1.00  0.00     0.031 C 
ATOM     36  C   UNL A   1      39.661  26.742  29.250  1.00  0.00     0.029 A 
ATOM     37  N   UNL A   1      41.232  28.309  28.951  1.00  0.00    -0.354 N 
ATOM     38  C   UNL A   1      44.941  27.399  26.953  1.00  0.00     0.074 A 
ATOM     39  C   UNL A   1      45.006  25.998  26.593  1.00  0.00     0.031 C 
ATOM     40  C   UNL A   1      39.209  27.884  29.798  1.00  0.00     0.029 A 
ATOM     41  C   UNL A   1      40.222  28.927  29.645  1.00  0.00     0.049 A 
ATOM     42  H   UNL A   1      42.051  28.772  28.663  1.00  0.00     0.167 HD
ATOM     43  C   UNL A   1      45.916  28.300  26.684  1.00  0.00     0.037 A 
ATOM     44  C   UNL A   1      40.136  30.188  30.115  1.00  0.00     0.037 A 
ATOM     45  C   UNL A   1      45.867  29.687  27.056  1.00  0.00     0.049 A 
ATOM     46  C   UNL A   1      41.256  31.161  29.851  1.00  0.00     0.074 A 
ATOM     47  C   UNL A   1      46.798  30.682  26.812  1.00  0.00     0.029 A 
ATOM     48  N   UNL A   1      44.832  30.276  27.769  1.00  0.00    -0.354 N 
ATOM     49  N   UNL A   1      42.382  30.976  29.205  1.00  0.00    -0.248 NA
ATOM     50  C   UNL A   1      41.086  32.525  30.373  1.00  0.00     0.031 C 
ATOM     51  C   UNL A   1      46.347  31.862  27.416  1.00  0.00     0.029 A 
ATOM     52  C   UNL A   1      45.113  31.613  27.994  1.00  0.00     0.049 A 
ATOM     53  H   UNL A   1      44.018  29.811  28.070  1.00  0.00     0.167 HD
ATOM     54  C   UNL A   1      43.042  32.198  29.225  1.00  0.00     0.074 A 
ATOM     55  C   UNL A   1      42.183  33.125  29.932  1.00  0.00     0.031 C 
ATOM     56  C   UNL A   1      44.250  32.525  28.703  1.00  0.00     0.037 A 
BRANCH  43  57
ATOM     57  C   UNL A   1      47.132  27.794  25.965  1.00  0.00     0.064 A 
ATOM     58  C   UNL A   1      47.171  27.703  24.565  1.00  0.00     0.173 A 
ATOM     59  C   UNL A   1      48.271  27.401  26.682  1.00  0.00     0.173 A 
ATOM     60  F   UNL A   1      46.100  28.051  23.836  1.00  0.00    -0.203 F 
ATOM     61  C   UNL A   1      48.295  27.206  23.911  1.00  0.00     0.198 A 
ATOM     62  C   UNL A   1      49.404  26.930  26.023  1.00  0.00     0.198 A 
ATOM     63  F   UNL A   1      48.284  27.469  28.021  1.00  0.00    -0.203 F 
ATOM     64  F   UNL A   1      48.290  27.078  22.577  1.00  0.00    -0.200 F 
ATOM     65  C   UNL A   1      49.411  26.825  24.640  1.00  0.00     0.200 A 
ATOM     66  F   UNL A   1      50.485  26.569  26.727  1.00  0.00    -0.200 F 
ATOM     67  F   UNL A   1      50.493  26.345  24.010  1.00  0.00    -0.200 F 
ENDBRANCH  43  57
BRANCH  44  68
ATOM     68  C   UNL A   1      38.941  30.604  30.894  1.00  0.00     0.064 A 
ATOM     69  C   UNL A   1      37.813  31.143  30.261  1.00  0.00     0.173 A 
ATOM     70  C   UNL A   1      38.912  30.487  32.291  1.00  0.00     0.173 A 
ATOM     71  F   UNL A   1      37.805  31.302  28.929  1.00  0.00    -0.203 F 
ATOM     72  C   UNL A   1      36.706  31.562  30.997  1.00  0.00     0.198 A 
ATOM     73  C   UNL A   1      37.797  30.883  33.024  1.00  0.00     0.198 A 
ATOM     74  F   UNL A   1      39.971  29.984  32.944  1.00  0.00    -0.203 F 
ATOM     75  F   UNL A   1      35.658  32.114  30.372  1.00  0.00    -0.200 F 
ATOM     76  C   UNL A   1      36.696  31.426  32.378  1.00  0.00     0.200 A 
ATOM     77  F   UNL A   1      37.789  30.744  34.357  1.00  0.00    -0.200 F 
ATOM     78  F   UNL A   1      35.632  31.828  33.085  1.00  0.00    -0.200 F 
ENDBRANCH  44  68
BRANCH  56  79
ATOM     79  C   UNL A   1      44.708  33.947  28.856  1.00  0.00     0.064 A 
ATOM     80  C   UNL A   1      45.352  34.392  30.020  1.00  0.00     0.173 A 
ATOM     81  C   UNL A   1      44.530  34.868  27.811  1.00  0.00     0.173 A 
ATOM     82  F   UNL A   1      45.535  33.555  31.052  1.00  0.00    -0.203 F 
ATOM     83  C   UNL A   1      45.777  35.713  30.142  1.00  0.00     0.198 A 
ATOM     84  C   UNL A   1      44.981  36.180  27.926  1.00  0.00     0.198 A 
ATOM     85  F   UNL A   1      43.926  34.492  26.674  1.00  0.00    -0.203 F 
ATOM     86  F   UNL A   1      46.349  36.128  31.281  1.00  0.00    -0.200 F 
ATOM     87  C   UNL A   1      45.597  36.603  29.094  1.00  0.00     0.200 A 
ATOM     88  F   UNL A   1      44.818  37.035  26.907  1.00  0.00    -0.200 F 
ATOM     89  F   UNL A   1      46.011  37.873  29.212  1.00  0.00    -0.200 F 
ENDBRANCH  56  79
ENDBRANCH  30  31
ENDBRANCH  23  25
ENDBRANCH  22  23
ENDBRANCH  21  22
ENDBRANCH  20  21
ENDBRANCH  19  20
ENDBRANCH  18  19
ENDBRANCH   1  18
TORSDOF 19
ENDMDL
MODEL 3
REMARK VINA RESULT:      -9.9      3.193      8.671
REMARK SMILES CC(=O)Oc1ccccc1C(=O)OCCOCCOCCOC(=O)c1ccc(-c2c3nc(c(-c4c(F)c(F)c(F)c(F)c4F)c4ccc([nH]4)c(-c4c(F)c(F)c(F)c(F)c4F)c4nc(c(-c5c(F)c(F)c(F)c(F)c5F)c5ccc2[nH]5)C=C4)C=C3)cc1
REMARK SMILES IDX 17 1 16 2 15 3 14 4 13 5 11 6 12 7 10 8 5 9 6 10 7 11 9 12
REMARK SMILES IDX 8 13 4 14 2 15 1 16 3 17 18 18 19 19 20 20 21 21 22 22 23 23
REMARK SMILES IDX 24 24 25 25 26 26 87 27 27 28 86 29 28 30 29 31 30 32 80 33
REMARK SMILES IDX 31 34 85 35 79 36 81 37 32 38 84 39 78 40 77 41 33 43 65 44
REMARK SMILES IDX 45 45 64 46 46 47 49 48 63 49 82 50 47 51 48 52 62 54 83 55
REMARK SMILES IDX 50 56 34 57 35 58 43 59 36 60 37 61 41 62 44 63 38 64 39 65
REMARK SMILES IDX 42 66 40 67 66 68 67 69 75 70 68 71 69 72 73 73 76 74 70 75
REMARK SMILES IDX 71 76 74 77 72 78 51 79 52 80 60 81 53 82 54 83 58 84 61 85
REMARK SMILES IDX 55 86 56 87 59 88 57 89
REMARK H PARENT 81 42 49 53
REMARK Flexibility Score: inf
ROOT
ATOM      1  C   UNL A   1      31.403  28.101  25.508  1.00  0.00     0.188 C 
ENDROOT
BRANCH   1   2
ATOM      2  O   UNL A   1      32.278  27.040  25.876  1.00  0.00    -0.376 OA
BRANCH   2   3
ATOM      3  C   UNL A   1      33.531  26.917  25.210  1.00  0.00     0.202 C 
BRANCH   3   4
ATOM      4  C   UNL A   1      33.553  26.131  23.897  1.00  0.00     0.261 C 
BRANCH   4   5
ATOM      5  O   UNL A   1      33.211  24.747  24.089  1.00  0.00    -0.460 OA
BRANCH   5   6
ATOM      6  C   UNL A   1      33.642  23.895  23.126  1.00  0.00     0.342 C 
ATOM      7  O   UNL A   1      33.414  23.993  21.928  1.00  0.00    -0.246 OA
BRANCH   6   8
ATOM      8  C   UNL A   1      34.623  22.919  23.664  1.00  0.00     0.102 A 
ATOM      9  C   UNL A   1      34.324  21.784  24.432  1.00  0.00     0.145 A 
ATOM     10  C   UNL A   1      35.351  20.964  24.920  1.00  0.00     0.048 A 
ATOM     11  C   UNL A   1      36.685  21.279  24.662  1.00  0.00     0.004 A 
ATOM     12  C   UNL A   1      35.975  23.224  23.421  1.00  0.00     0.019 A 
ATOM     13  C   UNL A   1      36.997  22.417  23.925  1.00  0.00     0.001 A 
BRANCH   9  14
ATOM     14  O   UNL A   1      33.049  21.484  24.942  1.00  0.00    -0.426 OA
BRANCH  14  15
ATOM     15  C   UNL A   1      32.403  20.329  24.525  1.00  0.00     0.308 C 
ATOM     16  C   UNL A   1      32.328  20.330  23.026  1.00  0.00     0.139 C 
ATOM     17  O   UNL A   1      31.944  19.457  25.250  1.00  0.00    -0.252 OA
ENDBRANCH  14  15
ENDBRANCH   9  14
ENDBRANCH   6   8
ENDBRANCH   5   6
ENDBRANCH   4   5
ENDBRANCH   3   4
ENDBRANCH   2   3
ENDBRANCH   1   2
BRANCH   1  18
ATOM     18  C   UNL A   1      31.996  29.469  25.115  1.00  0.00     0.188 C 
BRANCH  18  19
ATOM     19  O   UNL A   1      31.319  30.589  25.660  1.00  0.00    -0.376 OA
BRANCH  19  20
ATOM     20  C   UNL A   1      31.933  31.184  26.796  1.00  0.00     0.202 C 
BRANCH  20  21
ATOM     21  C   UNL A   1      31.806  32.712  26.857  1.00  0.00     0.261 C 
BRANCH  21  22
ATOM     22  O   UNL A   1      33.055  33.423  26.929  1.00  0.00    -0.460 OA
BRANCH  22  23
ATOM     23  C   UNL A   1      33.358  34.016  28.104  1.00  0.00     0.338 C 
ATOM     24  O   UNL A   1      32.696  34.842  28.705  1.00  0.00    -0.246 OA
BRANCH  23  25
ATOM     25  C   UNL A   1      34.558  33.349  28.653  1.00  0.00     0.060 A 
ATOM     26  C   UNL A   1      34.424  32.078  29.223  1.00  0.00     0.016 A 
ATOM     27  C   UNL A   1      35.811  33.969  28.596  1.00  0.00     0.016 A 
ATOM     28  C   UNL A   1      35.539  31.435  29.766  1.00  0.00     0.010 A 
ATOM     29  C   UNL A   1      36.923  33.331  29.153  1.00  0.00     0.010 A 
ATOM     30  C   UNL A   1      36.787  32.074  29.767  1.00  0.00    -0.014 A 
BRANCH  30  31
ATOM     31  C   UNL A   1      37.904  31.507  30.562  1.00  0.00     0.031 A 
ATOM     32  C   UNL A   1      38.786  30.470  29.925  1.00  0.00     0.074 A 
ATOM     33  C   UNL A   1      38.143  31.907  31.824  1.00  0.00     0.049 A 
ATOM     34  N   UNL A   1      39.822  29.840  30.417  1.00  0.00    -0.248 NA
ATOM     35  C   UNL A   1      38.450  30.091  28.544  1.00  0.00     0.031 C 
ATOM     36  C   UNL A   1      37.367  32.905  32.556  1.00  0.00     0.029 A 
ATOM     37  N   UNL A   1      39.108  31.505  32.715  1.00  0.00    -0.354 N 
ATOM     38  C   UNL A   1      40.267  28.999  29.406  1.00  0.00     0.074 A 
ATOM     39  C   UNL A   1      39.364  29.169  28.286  1.00  0.00     0.031 C 
ATOM     40  C   UNL A   1      37.877  33.026  33.795  1.00  0.00     0.029 A 
ATOM     41  C   UNL A   1      39.003  32.105  33.945  1.00  0.00     0.049 A 
ATOM     42  H   UNL A   1      39.808  30.851  32.492  1.00  0.00     0.167 HD
ATOM     43  C   UNL A   1      41.336  28.169  29.402  1.00  0.00     0.037 A 
ATOM     44  C   UNL A   1      39.726  31.918  35.068  1.00  0.00     0.037 A 
ATOM     45  C   UNL A   1      42.224  27.981  30.517  1.00  0.00     0.049 A 
ATOM     46  C   UNL A   1      40.881  30.949  35.058  1.00  0.00     0.074 A 
ATOM     47  C   UNL A   1      43.346  27.175  30.602  1.00  0.00     0.029 A 
ATOM     48  N   UNL A   1      42.080  28.596  31.752  1.00  0.00    -0.354 N 
ATOM     49  N   UNL A   1      41.328  30.199  34.080  1.00  0.00    -0.248 NA
ATOM     50  C   UNL A   1      41.641  30.810  36.310  1.00  0.00     0.031 C 
ATOM     51  C   UNL A   1      43.855  27.269  31.903  1.00  0.00     0.029 A 
ATOM     52  C   UNL A   1      43.078  28.171  32.612  1.00  0.00     0.049 A 
ATOM     53  H   UNL A   1      41.372  29.242  31.981  1.00  0.00     0.167 HD
ATOM     54  C   UNL A   1      42.427  29.518  34.589  1.00  0.00     0.074 A 
ATOM     55  C   UNL A   1      42.592  29.957  35.958  1.00  0.00     0.031 C 
ATOM     56  C   UNL A   1      43.229  28.612  33.976  1.00  0.00     0.037 A 
BRANCH  43  57
ATOM     57  C   UNL A   1      41.586  27.386  28.147  1.00  0.00     0.064 A 
ATOM     58  C   UNL A   1      41.001  26.127  27.939  1.00  0.00     0.173 A 
ATOM     59  C   UNL A   1      42.415  27.900  27.140  1.00  0.00     0.173 A 
ATOM     60  F   UNL A   1      40.214  25.585  28.880  1.00  0.00    -0.203 F 
ATOM     61  C   UNL A   1      41.263  25.398  26.782  1.00  0.00     0.198 A 
ATOM     62  C   UNL A   1      42.654  27.180  25.972  1.00  0.00     0.198 A 
ATOM     63  F   UNL A   1      42.998  29.098  27.290  1.00  0.00    -0.203 F 
ATOM     64  F   UNL A   1      40.735  24.176  26.629  1.00  0.00    -0.200 F 
ATOM     65  C   UNL A   1      42.084  25.927  25.798  1.00  0.00     0.200 A 
ATOM     66  F   UNL A   1      43.441  27.695  25.018  1.00  0.00    -0.200 F 
ATOM     67  F   UNL A   1      42.337  25.224  24.686  1.00  0.00    -0.200 F 
ENDBRANCH  43  57
BRANCH  44  68
ATOM     68  C   UNL A   1      39.375  32.663  36.304  1.00  0.00     0.064 A 
ATOM     69  C   UNL A   1      38.449  32.152  37.222  1.00  0.00     0.173 A 
ATOM     70  C   UNL A   1      39.949  33.912  36.582  1.00  0.00     0.173 A 
ATOM     71  F   UNL A   1      37.851  30.975  36.985  1.00  0.00    -0.203 F 
ATOM     72  C   UNL A   1      38.098  32.869  38.365  1.00  0.00     0.198 A 
ATOM     73  C   UNL A   1      39.617  34.617  37.735  1.00  0.00     0.198 A 
ATOM     74  F   UNL A   1      40.836  34.447  35.730  1.00  0.00    -0.203 F 
ATOM     75  F   UNL A   1      37.176  32.378  39.205  1.00  0.00    -0.200 F 
ATOM     76  C   UNL A   1      38.687  34.098  38.624  1.00  0.00     0.200 A 
ATOM     77  F   UNL A   1      40.193  35.801  37.985  1.00  0.00    -0.200 F 
ATOM     78  F   UNL A   1      38.350  34.786  39.724  1.00  0.00    -0.200 F 
ENDBRANCH  44  68
BRANCH  56  79
ATOM     79  C   UNL A   1      44.372  28.051  34.772  1.00  0.00     0.064 A 
ATOM     80  C   UNL A   1      45.625  28.680  34.805  1.00  0.00     0.173 A 
ATOM     81  C   UNL A   1      44.201  26.888  35.540  1.00  0.00     0.173 A 
ATOM     82  F   UNL A   1      45.844  29.788  34.080  1.00  0.00    -0.203 F 
ATOM     83  C   UNL A   1      46.672  28.150  35.556  1.00  0.00     0.198 A 
ATOM     84  C   UNL A   1      45.242  26.377  36.310  1.00  0.00     0.198 A 
ATOM     85  F   UNL A   1      43.020  26.251  35.549  1.00  0.00    -0.203 F 
ATOM     86  F   UNL A   1      47.874  28.743  35.536  1.00  0.00    -0.200 F 
ATOM     87  C   UNL A   1      46.478  27.004  36.311  1.00  0.00     0.200 A 
ATOM     88  F   UNL A   1      45.049  25.276  37.049  1.00  0.00    -0.200 F 
ATOM     89  F   UNL A   1      47.486  26.499  37.036  1.00  0.00    -0.200 F 
ENDBRANCH  56  79
ENDBRANCH  30  31
ENDBRANCH  23  25
ENDBRANCH  22  23
ENDBRANCH  21  22
ENDBRANCH  20  21
ENDBRANCH  19  20
ENDBRANCH  18  19
ENDBRANCH   1  18
TORSDOF 19
ENDMDL
