MODEL 1
REMARK VINA RESULT:     -11.0      0.000      0.000
REMARK SMILES O=C(COc1ccccc1Br)Nc1cccc(C(=O)Nc2ccc(C(=O)OCCOCCOCCOC(=O)c3ccc(-c4c5nc(c(-c6c(F)c(F)c(F)c(F)c6F)c6ccc([nH]6)c(-c6c(F)c(F)c(F)c(F)c6F)c6nc(c(-c7c(F)c(F)c(F)c(F)c7F)c7ccc4[nH]7)C=C6)C=C5)cc3)cc2)c1
REMARK SMILES IDX 29 1 28 2 27 3 25 4 26 5 24 6 21 7 22 8 103 9 23 10 102 11
REMARK SMILES IDX 20 12 18 13 19 14 17 16 13 17 14 18 104 19 15 20 16 21 12 22
REMARK SMILES IDX 1 23 2 24 3 26 4 27 5 28 6 29 10 30 7 31 9 32 11 33 8 34
REMARK SMILES IDX 30 35 31 36 32 37 33 38 34 39 35 40 36 41 37 42 38 43 39 44
REMARK SMILES IDX 40 45 101 46 41 47 100 48 42 49 43 50 44 51 94 52 45 53
REMARK SMILES IDX 99 54 93 55 95 56 46 57 98 58 92 59 91 60 47 62 79 63 59 64
REMARK SMILES IDX 78 65 60 66 63 67 77 68 96 69 61 70 62 71 76 73 97 74 64 75
REMARK SMILES IDX 48 76 49 77 57 78 50 79 51 80 55 81 58 82 52 83 53 84 56 85
REMARK SMILES IDX 54 86 80 87 81 88 89 89 82 90 83 91 87 92 90 93 84 94 85 95
REMARK SMILES IDX 88 96 86 97 65 98 66 99 74 100 67 101 68 102 72 103 75 104
REMARK SMILES IDX 69 105 70 106 73 107 71 108
REMARK H PARENT 20 15 12 25 95 61 63 72
REMARK Flexibility Score: inf
ROOT
ATOM      1  C   UNL A   1      34.251  35.212  28.731  1.00  0.00     0.202 C 
ENDROOT
BRANCH   1   2
ATOM      2  C   UNL A   1      33.556  33.882  28.403  1.00  0.00     0.261 C 
BRANCH   2   3
ATOM      3  O   UNL A   1      34.283  32.959  27.584  1.00  0.00    -0.460 OA
BRANCH   3   4
ATOM      4  C   UNL A   1      34.375  31.704  28.095  1.00  0.00     0.338 C 
ATOM      5  O   UNL A   1      34.848  31.419  29.185  1.00  0.00    -0.246 OA
BRANCH   4   6
ATOM      6  C   UNL A   1      33.690  30.709  27.223  1.00  0.00     0.060 A 
ATOM      7  C   UNL A   1      32.716  29.067  25.197  1.00  0.00     0.041 A 
ATOM      8  C   UNL A   1      33.949  28.776  25.783  1.00  0.00     0.027 A 
ATOM      9  C   UNL A   1      31.872  30.017  25.783  1.00  0.00     0.027 A 
ATOM     10  C   UNL A   1      34.448  29.618  26.776  1.00  0.00     0.018 A 
ATOM     11  C   UNL A   1      32.364  30.854  26.791  1.00  0.00     0.018 A 
BRANCH   7  12
ATOM     12  N   UNL A   1      32.480  28.518  23.926  1.00  0.00    -0.322 N 
ATOM     13  C   UNL A   1      32.047  27.245  23.575  1.00  0.00     0.255 C 
ATOM     14  O   UNL A   1      31.952  26.967  22.377  1.00  0.00    -0.269 OA
ATOM     15  H   UNL A   1      32.648  29.127  23.170  1.00  0.00     0.170 HD
BRANCH  13  16
ATOM     16  C   UNL A   1      31.631  26.215  24.577  1.00  0.00     0.042 A 
ATOM     17  C   UNL A   1      31.838  23.992  25.523  1.00  0.00     0.042 A 
ATOM     18  C   UNL A   1      30.621  24.160  26.182  1.00  0.00     0.026 A 
ATOM     19  C   UNL A   1      32.384  25.068  24.830  1.00  0.00     0.040 A 
ATOM     20  C   UNL A   1      29.965  25.390  26.130  1.00  0.00     0.003 A 
ATOM     21  C   UNL A   1      30.451  26.405  25.303  1.00  0.00     0.014 A 
BRANCH  17  22
ATOM     22  N   UNL A   1      32.455  22.732  25.578  1.00  0.00    -0.323 N 
ATOM     23  O   UNL A   1      34.067  23.044  27.244  1.00  0.00    -0.271 OA
ATOM     24  C   UNL A   1      33.491  22.346  26.418  1.00  0.00     0.262 C 
ATOM     25  H   UNL A   1      32.115  22.049  24.955  1.00  0.00     0.170 HD
BRANCH  24  26
ATOM     26  C   UNL A   1      33.833  20.878  26.258  1.00  0.00     0.329 C 
BRANCH  26  27
ATOM     27  O   UNL A   1      34.347  20.701  24.932  1.00  0.00    -0.483 OA
BRANCH  27  28
ATOM     28  C   UNL A   1      33.878  19.546  24.361  1.00  0.00     0.134 A 
ATOM     29  C   UNL A   1      34.560  18.377  24.704  1.00  0.00     0.047 A 
ATOM     30  C   UNL A   1      32.874  19.503  23.381  1.00  0.00     0.060 A 
ATOM     31  C   UNL A   1      34.237  17.170  24.085  1.00  0.00     0.004 A 
ATOM     32  C   UNL A   1      32.531  18.284  22.794  1.00  0.00     0.019 A 
ATOM     33  Br  UNL A   1      31.972  21.010  22.678  1.00  0.00    -0.047 Br
ATOM     34  C   UNL A   1      33.219  17.123  23.135  1.00  0.00     0.001 A 
ENDBRANCH  27  28
ENDBRANCH  26  27
ENDBRANCH  24  26
ENDBRANCH  17  22
ENDBRANCH  13  16
ENDBRANCH   7  12
ENDBRANCH   4   6
ENDBRANCH   3   4
ENDBRANCH   2   3
ENDBRANCH   1   2
BRANCH   1  35
ATOM     35  O   UNL A   1      33.699  36.223  29.556  1.00  0.00    -0.376 OA
BRANCH  35  36
ATOM     36  C   UNL A   1      32.910  35.905  30.681  1.00  0.00     0.188 C 
BRANCH  36  37
ATOM     37  C   UNL A   1      33.516  35.109  31.853  1.00  0.00     0.188 C 
BRANCH  37  38
ATOM     38  O   UNL A   1      34.859  35.313  32.215  1.00  0.00    -0.376 OA
BRANCH  38  39
ATOM     39  C   UNL A   1      35.271  35.021  33.538  1.00  0.00     0.202 C 
BRANCH  39  40
ATOM     40  C   UNL A   1      35.572  33.604  34.070  1.00  0.00     0.261 C 
BRANCH  40  41
ATOM     41  O   UNL A   1      36.780  32.962  33.642  1.00  0.00    -0.460 OA
BRANCH  41  42
ATOM     42  C   UNL A   1      36.641  32.016  32.679  1.00  0.00     0.338 C 
ATOM     43  O   UNL A   1      35.603  31.482  32.311  1.00  0.00    -0.246 OA
BRANCH  42  44
ATOM     44  C   UNL A   1      37.922  31.855  31.961  1.00  0.00     0.060 A 
ATOM     45  C   UNL A   1      37.979  32.144  30.587  1.00  0.00     0.016 A 
ATOM     46  C   UNL A   1      39.056  31.396  32.630  1.00  0.00     0.016 A 
ATOM     47  C   UNL A   1      39.164  31.956  29.876  1.00  0.00     0.010 A 
ATOM     48  C   UNL A   1      40.235  31.178  31.909  1.00  0.00     0.010 A 
ATOM     49  C   UNL A   1      40.288  31.429  30.524  1.00  0.00    -0.014 A 
BRANCH  49  50
ATOM     50  C   UNL A   1      41.451  30.955  29.734  1.00  0.00     0.031 A 
ATOM     51  C   UNL A   1      41.414  29.558  29.177  1.00  0.00     0.074 A 
ATOM     52  C   UNL A   1      42.521  31.738  29.513  1.00  0.00     0.049 A 
ATOM     53  N   UNL A   1      42.340  28.886  28.541  1.00  0.00    -0.248 NA
ATOM     54  C   UNL A   1      40.157  28.815  29.368  1.00  0.00     0.031 C 
ATOM     55  C   UNL A   1      42.662  33.124  29.950  1.00  0.00     0.029 A 
ATOM     56  N   UNL A   1      43.705  31.465  28.870  1.00  0.00    -0.354 N 
ATOM     57  C   UNL A   1      41.785  27.642  28.271  1.00  0.00     0.074 A 
ATOM     58  C   UNL A   1      40.453  27.640  28.833  1.00  0.00     0.031 C 
ATOM     59  C   UNL A   1      43.872  33.577  29.579  1.00  0.00     0.029 A 
ATOM     60  C   UNL A   1      44.605  32.501  28.912  1.00  0.00     0.049 A 
ATOM     61  H   UNL A   1      43.890  30.608  28.423  1.00  0.00     0.167 HD
ATOM     62  C   UNL A   1      42.336  26.597  27.610  1.00  0.00     0.037 A 
ATOM     63  C   UNL A   1      45.884  32.559  28.487  1.00  0.00     0.037 A 
ATOM     64  C   UNL A   1      43.662  26.600  27.051  1.00  0.00     0.049 A 
ATOM     65  C   UNL A   1      46.505  31.351  27.829  1.00  0.00     0.074 A 
ATOM     66  C   UNL A   1      44.303  25.596  26.346  1.00  0.00     0.029 A 
ATOM     67  N   UNL A   1      44.556  27.656  27.142  1.00  0.00    -0.354 N 
ATOM     68  N   UNL A   1      45.969  30.184  27.559  1.00  0.00    -0.248 NA
ATOM     69  C   UNL A   1      47.911  31.469  27.417  1.00  0.00     0.031 C 
ATOM     70  C   UNL A   1      45.605  26.020  26.067  1.00  0.00     0.029 A 
ATOM     71  C   UNL A   1      45.754  27.315  26.534  1.00  0.00     0.049 A 
ATOM     72  H   UNL A   1      44.368  28.520  27.575  1.00  0.00     0.167 HD
ATOM     73  C   UNL A   1      46.957  29.448  26.913  1.00  0.00     0.074 A 
ATOM     74  C   UNL A   1      48.121  30.303  26.823  1.00  0.00     0.031 C 
ATOM     75  C   UNL A   1      46.903  28.180  26.436  1.00  0.00     0.037 A 
BRANCH  62  76
ATOM     76  C   UNL A   1      41.516  25.346  27.480  1.00  0.00     0.064 A 
ATOM     77  C   UNL A   1      40.432  25.259  26.593  1.00  0.00     0.173 A 
ATOM     78  C   UNL A   1      41.848  24.203  28.224  1.00  0.00     0.173 A 
ATOM     79  F   UNL A   1      40.064  26.326  25.869  1.00  0.00    -0.203 F 
ATOM     80  C   UNL A   1      39.696  24.082  26.476  1.00  0.00     0.198 A 
ATOM     81  C   UNL A   1      41.130  23.018  28.080  1.00  0.00     0.198 A 
ATOM     82  F   UNL A   1      42.877  24.231  29.084  1.00  0.00    -0.203 F 
ATOM     83  F   UNL A   1      38.635  24.036  25.658  1.00  0.00    -0.200 F 
ATOM     84  C   UNL A   1      40.051  22.961  27.211  1.00  0.00     0.200 A 
ATOM     85  F   UNL A   1      41.485  21.933  28.780  1.00  0.00    -0.200 F 
ATOM     86  F   UNL A   1      39.350  21.826  27.088  1.00  0.00    -0.200 F 
ENDBRANCH  62  76
BRANCH  63  87
ATOM     87  C   UNL A   1      46.680  33.803  28.678  1.00  0.00     0.064 A 
ATOM     88  C   UNL A   1      46.816  34.739  27.644  1.00  0.00     0.173 A 
ATOM     89  C   UNL A   1      47.351  34.062  29.882  1.00  0.00     0.173 A 
ATOM     90  F   UNL A   1      46.220  34.521  26.461  1.00  0.00    -0.203 F 
ATOM     91  C   UNL A   1      47.610  35.875  27.797  1.00  0.00     0.198 A 
ATOM     92  C   UNL A   1      48.118  35.214  30.048  1.00  0.00     0.198 A 
ATOM     93  F   UNL A   1      47.262  33.195  30.902  1.00  0.00    -0.203 F 
ATOM     94  F   UNL A   1      47.770  36.721  26.771  1.00  0.00    -0.200 F 
ATOM     95  C   UNL A   1      48.255  36.114  29.002  1.00  0.00     0.200 A 
ATOM     96  F   UNL A   1      48.734  35.446  31.215  1.00  0.00    -0.200 F 
ATOM     97  F   UNL A   1      49.020  37.204  29.149  1.00  0.00    -0.200 F 
ENDBRANCH  63  87
BRANCH  75  98
ATOM     98  C   UNL A   1      48.116  27.650  25.723  1.00  0.00     0.064 A 
ATOM     99  C   UNL A   1      48.155  27.507  24.328  1.00  0.00     0.173 A 
ATOM    100  C   UNL A   1      49.275  27.325  26.445  1.00  0.00     0.173 A 
ATOM    101  F   UNL A   1      47.072  27.792  23.590  1.00  0.00    -0.203 F 
ATOM    102  C   UNL A   1      49.297  27.031  23.687  1.00  0.00     0.198 A 
ATOM    103  C   UNL A   1      50.427  26.885  25.799  1.00  0.00     0.198 A 
ATOM    104  F   UNL A   1      49.298  27.454  27.781  1.00  0.00    -0.203 F 
ATOM    105  F   UNL A   1      49.293  26.853  22.359  1.00  0.00    -0.200 F 
ATOM    106  C   UNL A   1      50.434  26.729  24.422  1.00  0.00     0.200 A 
ATOM    107  F   UNL A   1      51.530  26.612  26.509  1.00  0.00    -0.200 F 
ATOM    108  F   UNL A   1      51.535  26.281  23.802  1.00  0.00    -0.200 F 
ENDBRANCH  75  98
ENDBRANCH  49  50
ENDBRANCH  42  44
ENDBRANCH  41  42
ENDBRANCH  40  41
ENDBRANCH  39  40
ENDBRANCH  38  39
ENDBRANCH  37  38
ENDBRANCH  36  37
ENDBRANCH  35  36
ENDBRANCH   1  35
TORSDOF 23
ENDMDL
MODEL 2
REMARK VINA RESULT:     -10.7      5.079     10.012
REMARK SMILES O=C(COc1ccccc1Br)Nc1cccc(C(=O)Nc2ccc(C(=O)OCCOCCOCCOC(=O)c3ccc(-c4c5nc(c(-c6c(F)c(F)c(F)c(F)c6F)c6ccc([nH]6)c(-c6c(F)c(F)c(F)c(F)c6F)c6nc(c(-c7c(F)c(F)c(F)c(F)c7F)c7ccc4[nH]7)C=C6)C=C5)cc3)cc2)c1
REMARK SMILES IDX 29 1 28 2 27 3 25 4 26 5 24 6 21 7 22 8 103 9 23 10 102 11
REMARK SMILES IDX 20 12 18 13 19 14 17 16 13 17 14 18 104 19 15 20 16 21 12 22
REMARK SMILES IDX 1 23 2 24 3 26 4 27 5 28 6 29 10 30 7 31 9 32 11 33 8 34
REMARK SMILES IDX 30 35 31 36 32 37 33 38 34 39 35 40 36 41 37 42 38 43 39 44
REMARK SMILES IDX 40 45 101 46 41 47 100 48 42 49 43 50 44 51 94 52 45 53
REMARK SMILES IDX 99 54 93 55 95 56 46 57 98 58 92 59 91 60 47 62 79 63 59 64
REMARK SMILES IDX 78 65 60 66 63 67 77 68 96 69 61 70 62 71 76 73 97 74 64 75
REMARK SMILES IDX 48 76 49 77 57 78 50 79 51 80 55 81 58 82 52 83 53 84 56 85
REMARK SMILES IDX 54 86 80 87 81 88 89 89 82 90 83 91 87 92 90 93 84 94 85 95
REMARK SMILES IDX 88 96 86 97 65 98 66 99 74 100 67 101 68 102 72 103 75 104
REMARK SMILES IDX 69 105 70 106 73 107 71 108
REMARK H PARENT 20 15 12 25 95 61 63 72
REMARK Flexibility Score: inf
ROOT
ATOM      1  C   UNL A   1      34.156  30.824  27.268  1.00  0.00     0.202 C 
ENDROOT
BRANCH   1   2
ATOM      2  C   UNL A   1      33.052  29.830  26.876  1.00  0.00     0.261 C 
BRANCH   2   3
ATOM      3  O   UNL A   1      33.172  29.206  25.593  1.00  0.00    -0.460 OA
BRANCH   3   4
ATOM      4  C   UNL A   1      32.103  28.450  25.231  1.00  0.00     0.338 C 
ATOM      5  O   UNL A   1      31.020  28.887  24.870  1.00  0.00    -0.246 OA
BRANCH   4   6
ATOM      6  C   UNL A   1      32.450  27.002  25.185  1.00  0.00     0.060 A 
ATOM      7  C   UNL A   1      32.746  24.253  25.512  1.00  0.00     0.041 A 
ATOM      8  C   UNL A   1      31.640  24.747  24.817  1.00  0.00     0.027 A 
ATOM      9  C   UNL A   1      33.812  25.105  25.822  1.00  0.00     0.027 A 
ATOM     10  C   UNL A   1      31.479  26.125  24.682  1.00  0.00     0.018 A 
ATOM     11  C   UNL A   1      33.660  26.488  25.674  1.00  0.00     0.018 A 
BRANCH   7  12
ATOM     12  N   UNL A   1      32.631  22.955  26.033  1.00  0.00    -0.322 N 
ATOM     13  C   UNL A   1      33.482  21.864  25.898  1.00  0.00     0.255 C 
ATOM     14  O   UNL A   1      33.152  20.794  26.415  1.00  0.00    -0.269 OA
ATOM     15  H   UNL A   1      31.826  22.793  26.577  1.00  0.00     0.170 HD
BRANCH  13  16
ATOM     16  C   UNL A   1      34.808  21.940  25.210  1.00  0.00     0.042 A 
ATOM     17  C   UNL A   1      37.230  21.981  25.302  1.00  0.00     0.042 A 
ATOM     18  C   UNL A   1      37.272  22.455  23.992  1.00  0.00     0.026 A 
ATOM     19  C   UNL A   1      36.004  21.613  25.849  1.00  0.00     0.040 A 
ATOM     20  C   UNL A   1      36.094  22.565  23.255  1.00  0.00     0.003 A 
ATOM     21  C   UNL A   1      34.861  22.340  23.871  1.00  0.00     0.014 A 
BRANCH  17  22
ATOM     22  N   UNL A   1      38.435  21.908  26.021  1.00  0.00    -0.323 N 
ATOM     23  O   UNL A   1      38.961  24.166  26.331  1.00  0.00    -0.271 OA
ATOM     24  C   UNL A   1      39.195  22.973  26.486  1.00  0.00     0.262 C 
ATOM     25  H   UNL A   1      38.776  21.005  26.217  1.00  0.00     0.170 HD
BRANCH  24  26
ATOM     26  C   UNL A   1      40.384  22.506  27.304  1.00  0.00     0.329 C 
BRANCH  26  27
ATOM     27  O   UNL A   1      41.517  22.475  26.428  1.00  0.00    -0.483 OA
BRANCH  27  28
ATOM     28  C   UNL A   1      42.271  23.614  26.542  1.00  0.00     0.134 A 
ATOM     29  C   UNL A   1      42.409  24.373  25.377  1.00  0.00     0.047 A 
ATOM     30  C   UNL A   1      42.996  23.968  27.691  1.00  0.00     0.060 A 
ATOM     31  C   UNL A   1      43.252  25.483  25.359  1.00  0.00     0.004 A 
ATOM     32  C   UNL A   1      43.808  25.103  27.675  1.00  0.00     0.019 A 
ATOM     33  Br  UNL A   1      43.059  22.962  29.292  1.00  0.00    -0.047 Br
ATOM     34  C   UNL A   1      43.947  25.850  26.510  1.00  0.00     0.001 A 
ENDBRANCH  27  28
ENDBRANCH  26  27
ENDBRANCH  24  26
ENDBRANCH  17  22
ENDBRANCH  13  16
ENDBRANCH   7  12
ENDBRANCH   4   6
ENDBRANCH   3   4
ENDBRANCH   2   3
ENDBRANCH   1   2
BRANCH   1  35
ATOM     35  O   UNL A   1      33.993  32.230  27.302  1.00  0.00    -0.376 OA
BRANCH  35  36
ATOM     36  C   UNL A   1      34.721  33.035  28.204  1.00  0.00     0.188 C 
BRANCH  36  37
ATOM     37  C   UNL A   1      33.981  33.974  29.176  1.00  0.00     0.188 C 
BRANCH  37  38
ATOM     38  O   UNL A   1      32.904  34.750  28.714  1.00  0.00    -0.376 OA
BRANCH  38  39
ATOM     39  C   UNL A   1      32.804  36.104  29.117  1.00  0.00     0.202 C 
BRANCH  39  40
ATOM     40  C   UNL A   1      33.320  36.659  30.462  1.00  0.00     0.261 C 
BRANCH  40  41
ATOM     41  O   UNL A   1      32.367  36.899  31.506  1.00  0.00    -0.460 OA
BRANCH  41  42
ATOM     42  C   UNL A   1      32.179  35.880  32.384  1.00  0.00     0.338 C 
ATOM     43  O   UNL A   1      31.125  35.538  32.903  1.00  0.00    -0.246 OA
BRANCH  42  44
ATOM     44  C   UNL A   1      33.416  35.078  32.478  1.00  0.00     0.060 A 
ATOM     45  C   UNL A   1      33.322  33.702  32.740  1.00  0.00     0.016 A 
ATOM     46  C   UNL A   1      34.664  35.684  32.336  1.00  0.00     0.016 A 
ATOM     47  C   UNL A   1      34.476  32.930  32.881  1.00  0.00     0.010 A 
ATOM     48  C   UNL A   1      35.820  34.916  32.508  1.00  0.00     0.010 A 
ATOM     49  C   UNL A   1      35.734  33.543  32.810  1.00  0.00    -0.014 A 
BRANCH  49  50
ATOM     50  C   UNL A   1      36.948  32.805  33.239  1.00  0.00     0.031 A 
ATOM     51  C   UNL A   1      37.544  33.132  34.582  1.00  0.00     0.074 A 
ATOM     52  C   UNL A   1      37.516  31.867  32.463  1.00  0.00     0.049 A 
ATOM     53  N   UNL A   1      38.647  32.698  35.135  1.00  0.00    -0.248 NA
ATOM     54  C   UNL A   1      36.790  34.085  35.412  1.00  0.00     0.031 C 
ATOM     55  C   UNL A   1      37.011  31.419  31.168  1.00  0.00     0.029 A 
ATOM     56  N   UNL A   1      38.661  31.130  32.652  1.00  0.00    -0.354 N 
ATOM     57  C   UNL A   1      38.727  33.334  36.367  1.00  0.00     0.074 A 
ATOM     58  C   UNL A   1      37.576  34.203  36.471  1.00  0.00     0.031 C 
ATOM     59  C   UNL A   1      37.852  30.496  30.669  1.00  0.00     0.029 A 
ATOM     60  C   UNL A   1      38.973  30.317  31.591  1.00  0.00     0.049 A 
ATOM     61  H   UNL A   1      39.205  31.181  33.470  1.00  0.00     0.167 HD
ATOM     62  C   UNL A   1      39.673  33.200  37.326  1.00  0.00     0.037 A 
ATOM     63  C   UNL A   1      40.056  29.541  31.379  1.00  0.00     0.037 A 
ATOM     64  C   UNL A   1      40.818  32.335  37.221  1.00  0.00     0.049 A 
ATOM     65  C   UNL A   1      41.141  29.476  32.427  1.00  0.00     0.074 A 
ATOM     66  C   UNL A   1      41.823  32.117  38.148  1.00  0.00     0.029 A 
ATOM     67  N   UNL A   1      41.117  31.551  36.117  1.00  0.00    -0.354 N 
ATOM     68  N   UNL A   1      41.202  30.064  33.599  1.00  0.00    -0.248 NA
ATOM     69  C   UNL A   1      42.309  28.637  32.122  1.00  0.00     0.031 C 
ATOM     70  C   UNL A   1      42.762  31.252  37.580  1.00  0.00     0.029 A 
ATOM     71  C   UNL A   1      42.307  30.873  36.328  1.00  0.00     0.049 A 
ATOM     72  H   UNL A   1      40.566  31.486  35.304  1.00  0.00     0.167 HD
ATOM     73  C   UNL A   1      42.389  29.636  34.182  1.00  0.00     0.074 A 
ATOM     74  C   UNL A   1      43.013  28.731  33.240  1.00  0.00     0.031 C 
ATOM     75  C   UNL A   1      42.913  29.962  35.389  1.00  0.00     0.037 A 
BRANCH  62  76
ATOM     76  C   UNL A   1      39.529  34.035  38.566  1.00  0.00     0.064 A 
ATOM     77  C   UNL A   1      40.148  35.289  38.691  1.00  0.00     0.173 A 
ATOM     78  C   UNL A   1      38.726  33.592  39.627  1.00  0.00     0.173 A 
ATOM     79  F   UNL A   1      40.938  35.753  37.711  1.00  0.00    -0.203 F 
ATOM     80  C   UNL A   1      39.986  36.056  39.842  1.00  0.00     0.198 A 
ATOM     81  C   UNL A   1      38.540  34.376  40.764  1.00  0.00     0.198 A 
ATOM     82  F   UNL A   1      38.110  32.403  39.559  1.00  0.00    -0.203 F 
ATOM     83  F   UNL A   1      40.624  37.228  39.959  1.00  0.00    -0.200 F 
ATOM     84  C   UNL A   1      39.175  35.604  40.872  1.00  0.00     0.200 A 
ATOM     85  F   UNL A   1      37.744  33.944  41.751  1.00  0.00    -0.200 F 
ATOM     86  F   UNL A   1      39.012  36.347  41.975  1.00  0.00    -0.200 F 
ENDBRANCH  62  76
BRANCH  63  87
ATOM     87  C   UNL A   1      40.186  28.766  30.115  1.00  0.00     0.064 A 
ATOM     88  C   UNL A   1      40.894  29.284  29.021  1.00  0.00     0.173 A 
ATOM     89  C   UNL A   1      39.576  27.513  29.959  1.00  0.00     0.173 A 
ATOM     90  F   UNL A   1      41.468  30.494  29.108  1.00  0.00    -0.203 F 
ATOM     91  C   UNL A   1      40.967  28.590  27.814  1.00  0.00     0.198 A 
ATOM     92  C   UNL A   1      39.677  26.804  28.764  1.00  0.00     0.198 A 
ATOM     93  F   UNL A   1      38.879  26.974  30.971  1.00  0.00    -0.203 F 
ATOM     94  F   UNL A   1      41.600  29.137  26.767  1.00  0.00    -0.200 F 
ATOM     95  C   UNL A   1      40.364  27.348  27.689  1.00  0.00     0.200 A 
ATOM     96  F   UNL A   1      39.099  25.600  28.649  1.00  0.00    -0.200 F 
ATOM     97  F   UNL A   1      40.433  26.682  26.528  1.00  0.00    -0.200 F 
ENDBRANCH  63  87
BRANCH  75  98
ATOM     98  C   UNL A   1      44.201  29.298  35.794  1.00  0.00     0.064 A 
ATOM     99  C   UNL A   1      44.224  28.072  36.475  1.00  0.00     0.173 A 
ATOM    100  C   UNL A   1      45.433  29.877  35.449  1.00  0.00     0.173 A 
ATOM    101  F   UNL A   1      43.076  27.480  36.838  1.00  0.00    -0.203 F 
ATOM    102  C   UNL A   1      45.429  27.467  36.823  1.00  0.00     0.198 A 
ATOM    103  C   UNL A   1      46.636  29.252  35.767  1.00  0.00     0.198 A 
ATOM    104  F   UNL A   1      45.471  31.043  34.787  1.00  0.00    -0.203 F 
ATOM    105  F   UNL A   1      45.426  26.322  37.520  1.00  0.00    -0.200 F 
ATOM    106  C   UNL A   1      46.633  28.052  36.461  1.00  0.00     0.200 A 
ATOM    107  F   UNL A   1      47.798  29.810  35.399  1.00  0.00    -0.200 F 
ATOM    108  F   UNL A   1      47.792  27.463  36.788  1.00  0.00    -0.200 F 
ENDBRANCH  75  98
ENDBRANCH  49  50
ENDBRANCH  42  44
ENDBRANCH  41  42
ENDBRANCH  40  41
ENDBRANCH  39  40
ENDBRANCH  38  39
ENDBRANCH  37  38
ENDBRANCH  36  37
ENDBRANCH  35  36
ENDBRANCH   1  35
TORSDOF 23
ENDMDL
MODEL 3
REMARK VINA RESULT:     -10.6      4.936      8.592
REMARK SMILES O=C(COc1ccccc1Br)Nc1cccc(C(=O)Nc2ccc(C(=O)OCCOCCOCCOC(=O)c3ccc(-c4c5nc(c(-c6c(F)c(F)c(F)c(F)c6F)c6ccc([nH]6)c(-c6c(F)c(F)c(F)c(F)c6F)c6nc(c(-c7c(F)c(F)c(F)c(F)c7F)c7ccc4[nH]7)C=C6)C=C5)cc3)cc2)c1
REMARK SMILES IDX 29 1 28 2 27 3 25 4 26 5 24 6 21 7 22 8 103 9 23 10 102 11
REMARK SMILES IDX 20 12 18 13 19 14 17 16 13 17 14 18 104 19 15 20 16 21 12 22
REMARK SMILES IDX 1 23 2 24 3 26 4 27 5 28 6 29 10 30 7 31 9 32 11 33 8 34
REMARK SMILES IDX 30 35 31 36 32 37 33 38 34 39 35 40 36 41 37 42 38 43 39 44
REMARK SMILES IDX 40 45 101 46 41 47 100 48 42 49 43 50 44 51 94 52 45 53
REMARK SMILES IDX 99 54 93 55 95 56 46 57 98 58 92 59 91 60 47 62 79 63 59 64
REMARK SMILES IDX 78 65 60 66 63 67 77 68 96 69 61 70 62 71 76 73 97 74 64 75
REMARK SMILES IDX 48 76 49 77 57 78 50 79 51 80 55 81 58 82 52 83 53 84 56 85
REMARK SMILES IDX 54 86 80 87 81 88 89 89 82 90 83 91 87 92 90 93 84 94 85 95
REMARK SMILES IDX 88 96 86 97 65 98 66 99 74 100 67 101 68 102 72 103 75 104
REMARK SMILES IDX 69 105 70 106 73 107 71 108
REMARK H PARENT 20 15 12 25 95 61 63 72
REMARK Flexibility Score: inf
ROOT
ATOM      1  C   UNL A   1      33.269  26.884  22.965  1.00  0.00     0.202 C 
ENDROOT
BRANCH   1   2
ATOM      2  C   UNL A   1      33.151  26.055  24.254  1.00  0.00     0.261 C 
BRANCH   2   3
ATOM      3  O   UNL A   1      31.857  25.990  24.863  1.00  0.00    -0.460 OA
BRANCH   3   4
ATOM      4  C   UNL A   1      31.860  25.546  26.147  1.00  0.00     0.338 C 
ATOM      5  O   UNL A   1      31.692  26.244  27.136  1.00  0.00    -0.246 OA
BRANCH   4   6
ATOM      6  C   UNL A   1      31.948  24.060  26.209  1.00  0.00     0.060 A 
ATOM      7  C   UNL A   1      32.566  21.351  26.028  1.00  0.00     0.041 A 
ATOM      8  C   UNL A   1      33.235  22.148  26.960  1.00  0.00     0.027 A 
ATOM      9  C   UNL A   1      31.435  21.848  25.371  1.00  0.00     0.027 A 
ATOM     10  C   UNL A   1      32.945  23.510  27.026  1.00  0.00     0.018 A 
ATOM     11  C   UNL A   1      31.131  23.211  25.448  1.00  0.00     0.018 A 
BRANCH   7  12
ATOM     12  N   UNL A   1      33.197  20.152  25.661  1.00  0.00    -0.322 N 
ATOM     13  C   UNL A   1      34.400  19.948  24.994  1.00  0.00     0.255 C 
ATOM     14  O   UNL A   1      34.739  18.791  24.736  1.00  0.00    -0.269 OA
ATOM     15  H   UNL A   1      32.714  19.331  25.914  1.00  0.00     0.170 HD
BRANCH  13  16
ATOM     16  C   UNL A   1      35.331  21.059  24.628  1.00  0.00     0.042 A 
ATOM     17  C   UNL A   1      37.443  22.216  24.910  1.00  0.00     0.042 A 
ATOM     18  C   UNL A   1      36.926  23.324  24.239  1.00  0.00     0.026 A 
ATOM     19  C   UNL A   1      36.680  21.055  24.985  1.00  0.00     0.040 A 
ATOM     20  C   UNL A   1      35.656  23.259  23.668  1.00  0.00     0.003 A 
ATOM     21  C   UNL A   1      34.846  22.143  23.889  1.00  0.00     0.014 A 
BRANCH  17  22
ATOM     22  N   UNL A   1      38.716  22.328  25.494  1.00  0.00    -0.323 N 
ATOM     23  O   UNL A   1      38.391  24.035  27.060  1.00  0.00    -0.271 OA
ATOM     24  C   UNL A   1      39.094  23.196  26.509  1.00  0.00     0.262 C 
ATOM     25  H   UNL A   1      39.414  21.727  25.146  1.00  0.00     0.170 HD
BRANCH  24  26
ATOM     26  C   UNL A   1      40.527  22.965  26.948  1.00  0.00     0.329 C 
BRANCH  26  27
ATOM     27  O   UNL A   1      40.922  21.680  26.454  1.00  0.00    -0.483 OA
BRANCH  27  28
ATOM     28  C   UNL A   1      42.180  21.716  25.911  1.00  0.00     0.134 A 
ATOM     29  C   UNL A   1      42.577  22.942  25.373  1.00  0.00     0.047 A 
ATOM     30  C   UNL A   1      43.002  20.589  25.752  1.00  0.00     0.060 A 
ATOM     31  C   UNL A   1      43.790  23.049  24.692  1.00  0.00     0.004 A 
ATOM     32  C   UNL A   1      44.231  20.714  25.103  1.00  0.00     0.019 A 
ATOM     33  Br  UNL A   1      42.545  18.826  26.265  1.00  0.00    -0.047 Br
ATOM     34  C   UNL A   1      44.618  21.936  24.562  1.00  0.00     0.001 A 
ENDBRANCH  27  28
ENDBRANCH  26  27
ENDBRANCH  24  26
ENDBRANCH  17  22
ENDBRANCH  13  16
ENDBRANCH   7  12
ENDBRANCH   4   6
ENDBRANCH   3   4
ENDBRANCH   2   3
ENDBRANCH   1   2
BRANCH   1  35
ATOM     35  O   UNL A   1      33.211  28.298  22.914  1.00  0.00    -0.376 OA
BRANCH  35  36
ATOM     36  C   UNL A   1      31.986  28.980  22.761  1.00  0.00     0.188 C 
BRANCH  36  37
ATOM     37  C   UNL A   1      31.045  29.164  23.968  1.00  0.00     0.188 C 
BRANCH  37  38
ATOM     38  O   UNL A   1      31.419  30.017  25.021  1.00  0.00    -0.376 OA
BRANCH  38  39
ATOM     39  C   UNL A   1      32.543  29.685  25.814  1.00  0.00     0.202 C 
BRANCH  39  40
ATOM     40  C   UNL A   1      33.022  30.493  27.039  1.00  0.00     0.261 C 
BRANCH  40  41
ATOM     41  O   UNL A   1      34.432  30.683  27.218  1.00  0.00    -0.460 OA
BRANCH  41  42
ATOM     42  C   UNL A   1      35.164  29.555  27.405  1.00  0.00     0.338 C 
ATOM     43  O   UNL A   1      35.116  28.525  26.746  1.00  0.00    -0.246 OA
BRANCH  42  44
ATOM     44  C   UNL A   1      36.212  29.813  28.414  1.00  0.00     0.060 A 
ATOM     45  C   UNL A   1      37.369  30.513  28.037  1.00  0.00     0.016 A 
ATOM     46  C   UNL A   1      36.068  29.343  29.719  1.00  0.00     0.016 A 
ATOM     47  C   UNL A   1      38.394  30.729  28.958  1.00  0.00     0.010 A 
ATOM     48  C   UNL A   1      37.110  29.532  30.633  1.00  0.00     0.010 A 
ATOM     49  C   UNL A   1      38.290  30.200  30.250  1.00  0.00    -0.014 A 
BRANCH  49  50
ATOM     50  C   UNL A   1      39.476  30.167  31.141  1.00  0.00     0.031 A 
ATOM     51  C   UNL A   1      40.568  29.177  30.840  1.00  0.00     0.074 A 
ATOM     52  C   UNL A   1      39.590  30.992  32.197  1.00  0.00     0.049 A 
ATOM     53  N   UNL A   1      41.650  28.892  31.519  1.00  0.00    -0.248 NA
ATOM     54  C   UNL A   1      40.414  28.398  29.600  1.00  0.00     0.031 C 
ATOM     55  C   UNL A   1      38.632  32.029  32.569  1.00  0.00     0.029 A 
ATOM     56  N   UNL A   1      40.565  31.071  33.162  1.00  0.00    -0.354 N 
ATOM     57  C   UNL A   1      42.295  27.894  30.800  1.00  0.00     0.074 A 
ATOM     58  C   UNL A   1      41.473  27.604  29.646  1.00  0.00     0.031 C 
ATOM     59  C   UNL A   1      39.057  32.631  33.693  1.00  0.00     0.029 A 
ATOM     60  C   UNL A   1      40.297  31.996  34.141  1.00  0.00     0.049 A 
ATOM     61  H   UNL A   1      41.379  30.517  33.153  1.00  0.00     0.167 HD
ATOM     62  C   UNL A   1      43.469  27.280  31.076  1.00  0.00     0.037 A 
ATOM     63  C   UNL A   1      40.962  32.274  35.280  1.00  0.00     0.037 A 
ATOM     64  C   UNL A   1      44.286  27.570  32.224  1.00  0.00     0.049 A 
ATOM     65  C   UNL A   1      42.224  31.514  35.609  1.00  0.00     0.074 A 
ATOM     66  C   UNL A   1      45.502  27.014  32.581  1.00  0.00     0.029 A 
ATOM     67  N   UNL A   1      43.965  28.491  33.211  1.00  0.00    -0.354 N 
ATOM     68  N   UNL A   1      42.840  30.585  34.916  1.00  0.00    -0.248 NA
ATOM     69  C   UNL A   1      42.884  31.842  36.881  1.00  0.00     0.031 C 
ATOM     70  C   UNL A   1      45.885  27.551  33.813  1.00  0.00     0.029 A 
ATOM     71  C   UNL A   1      44.944  28.494  34.191  1.00  0.00     0.049 A 
ATOM     72  H   UNL A   1      43.160  29.057  33.214  1.00  0.00     0.167 HD
ATOM     73  C   UNL A   1      43.975  30.250  35.647  1.00  0.00     0.074 A 
ATOM     74  C   UNL A   1      43.968  31.081  36.831  1.00  0.00     0.031 C 
ATOM     75  C   UNL A   1      44.936  29.337  35.360  1.00  0.00     0.037 A 
BRANCH  62  76
ATOM     76  C   UNL A   1      43.929  26.205  30.134  1.00  0.00     0.064 A 
ATOM     77  C   UNL A   1      43.914  24.848  30.494  1.00  0.00     0.173 A 
ATOM     78  C   UNL A   1      44.353  26.534  28.838  1.00  0.00     0.173 A 
ATOM     79  F   UNL A   1      43.532  24.480  31.726  1.00  0.00    -0.203 F 
ATOM     80  C   UNL A   1      44.327  23.865  29.598  1.00  0.00     0.198 A 
ATOM     81  C   UNL A   1      44.735  25.546  27.933  1.00  0.00     0.198 A 
ATOM     82  F   UNL A   1      44.385  27.815  28.441  1.00  0.00    -0.203 F 
ATOM     83  F   UNL A   1      44.349  22.581  29.979  1.00  0.00    -0.200 F 
ATOM     84  C   UNL A   1      44.728  24.213  28.317  1.00  0.00     0.200 A 
ATOM     85  F   UNL A   1      45.106  25.884  26.692  1.00  0.00    -0.200 F 
ATOM     86  F   UNL A   1      45.115  23.266  27.453  1.00  0.00    -0.200 F 
ENDBRANCH  62  76
BRANCH  63  87
ATOM     87  C   UNL A   1      40.446  33.313  36.213  1.00  0.00     0.064 A 
ATOM     88  C   UNL A   1      39.401  33.029  37.103  1.00  0.00     0.173 A 
ATOM     89  C   UNL A   1      40.960  34.618  36.210  1.00  0.00     0.173 A 
ATOM     90  F   UNL A   1      38.853  31.803  37.122  1.00  0.00    -0.203 F 
ATOM     91  C   UNL A   1      38.873  34.014  37.936  1.00  0.00     0.198 A 
ATOM     92  C   UNL A   1      40.455  35.595  37.067  1.00  0.00     0.198 A 
ATOM     93  F   UNL A   1      41.955  34.947  35.373  1.00  0.00    -0.203 F 
ATOM     94  F   UNL A   1      37.834  33.729  38.732  1.00  0.00    -0.200 F 
ATOM     95  C   UNL A   1      39.405  35.295  37.921  1.00  0.00     0.200 A 
ATOM     96  F   UNL A   1      40.977  36.829  37.055  1.00  0.00    -0.200 F 
ATOM     97  F   UNL A   1      38.897  36.242  38.720  1.00  0.00    -0.200 F 
ENDBRANCH  63  87
BRANCH  75  98
ATOM     98  C   UNL A   1      46.094  29.221  36.312  1.00  0.00     0.064 A 
ATOM     99  C   UNL A   1      46.087  28.318  37.386  1.00  0.00     0.173 A 
ATOM    100  C   UNL A   1      47.250  29.993  36.116  1.00  0.00     0.173 A 
ATOM    101  F   UNL A   1      45.005  27.563  37.625  1.00  0.00    -0.203 F 
ATOM    102  C   UNL A   1      47.180  28.215  38.244  1.00  0.00     0.198 A 
ATOM    103  C   UNL A   1      48.354  29.862  36.954  1.00  0.00     0.198 A 
ATOM    104  F   UNL A   1      47.317  30.866  35.099  1.00  0.00    -0.203 F 
ATOM    105  F   UNL A   1      47.129  27.383  39.293  1.00  0.00    -0.200 F 
ATOM    106  C   UNL A   1      48.315  28.980  38.022  1.00  0.00     0.200 A 
ATOM    107  F   UNL A   1      49.458  30.588  36.727  1.00  0.00    -0.200 F 
ATOM    108  F   UNL A   1      49.369  28.871  38.844  1.00  0.00    -0.200 F 
ENDBRANCH  75  98
ENDBRANCH  49  50
ENDBRANCH  42  44
ENDBRANCH  41  42
ENDBRANCH  40  41
ENDBRANCH  39  40
ENDBRANCH  38  39
ENDBRANCH  37  38
ENDBRANCH  36  37
ENDBRANCH  35  36
ENDBRANCH   1  35
TORSDOF 23
ENDMDL
