MODEL 1
REMARK VINA RESULT:     -11.7      0.000      0.000
REMARK SMILES O=C(OCCOCCOCCOC(=O)c1cc2c(c(S(=O)(=O)Nc3cc(C(F)(F)F)ccc3-n3cccn3)c1)CCC2)c1ccc(-c2c3nc(c(-c4c(F)c(F)c(F)c(F)c4F)c4ccc([nH]4)c(-c4c(F)c(F)c(F)c(F)c4F)c4nc(c(-c5c(F)c(F)c(F)c(F)c5F)c5ccc2[nH]5)C=C4)C=C3)cc1
REMARK SMILES IDX 8 1 7 2 6 3 5 4 4 5 3 6 2 7 1 8 43 9 44 10 105 11 45 12
REMARK SMILES IDX 104 13 46 14 47 15 48 16 98 17 49 18 103 19 97 20 99 21
REMARK SMILES IDX 50 22 102 23 96 24 95 25 51 27 83 28 63 29 82 30 64 31 67 32
REMARK SMILES IDX 81 33 100 34 65 35 66 36 80 38 101 39 68 40 52 41 53 42
REMARK SMILES IDX 61 43 54 44 55 45 59 46 62 47 56 48 57 49 60 50 58 51 84 52
REMARK SMILES IDX 85 53 93 54 86 55 87 56 91 57 94 58 88 59 89 60 92 61 90 62
REMARK SMILES IDX 69 63 70 64 78 65 71 66 72 67 76 68 79 69 73 70 74 71 77 72
REMARK SMILES IDX 75 73 9 74 10 75 11 76 12 77 13 78 14 79 15 80 16 81 39 82
REMARK SMILES IDX 17 83 19 84 18 85 42 86 40 87 41 88 20 89 21 90 22 91 23 92
REMARK SMILES IDX 24 94 25 95 33 96 26 97 32 98 31 99 34 100 35 101 38 102
REMARK SMILES IDX 36 103 37 104 27 105 28 106 29 107 30 108
REMARK H PARENT 99 26 67 37 23 93
REMARK Flexibility Score: inf
ROOT
ATOM      1  C   UNL A   1      33.813  29.605  27.267  1.00  0.00     0.188 C 
ENDROOT
BRANCH   1   2
ATOM      2  C   UNL A   1      33.971  31.143  27.249  1.00  0.00     0.188 C 
BRANCH   2   3
ATOM      3  O   UNL A   1      33.490  31.901  28.329  1.00  0.00    -0.376 OA
BRANCH   3   4
ATOM      4  C   UNL A   1      34.279  32.797  29.086  1.00  0.00     0.202 C 
BRANCH   4   5
ATOM      5  C   UNL A   1      35.089  32.449  30.341  1.00  0.00     0.261 C 
BRANCH   5   6
ATOM      6  O   UNL A   1      36.189  31.564  30.165  1.00  0.00    -0.460 OA
BRANCH   6   7
ATOM      7  C   UNL A   1      36.418  30.392  30.790  1.00  0.00     0.338 C 
ATOM      8  O   UNL A   1      35.892  30.187  31.882  1.00  0.00    -0.246 OA
BRANCH   7   9
ATOM      9  C   UNL A   1      37.404  29.380  30.306  1.00  0.00     0.060 A 
ATOM     10  C   UNL A   1      37.913  28.295  31.028  1.00  0.00     0.016 A 
ATOM     11  C   UNL A   1      37.849  29.585  28.986  1.00  0.00     0.016 A 
ATOM     12  C   UNL A   1      39.051  27.654  30.589  1.00  0.00     0.010 A 
ATOM     13  C   UNL A   1      38.947  28.906  28.512  1.00  0.00     0.010 A 
ATOM     14  C   UNL A   1      39.618  28.072  29.395  1.00  0.00    -0.014 A 
BRANCH  14  15
ATOM     15  C   UNL A   1      40.997  27.705  29.147  1.00  0.00     0.031 A 
ATOM     16  C   UNL A   1      41.191  26.329  28.629  1.00  0.00     0.074 A 
ATOM     17  C   UNL A   1      41.940  28.649  29.347  1.00  0.00     0.049 A 
ATOM     18  N   UNL A   1      41.957  25.390  29.080  1.00  0.00    -0.248 NA
ATOM     19  C   UNL A   1      40.300  25.899  27.540  1.00  0.00     0.031 C 
ATOM     20  C   UNL A   1      41.745  30.065  29.697  1.00  0.00     0.029 A 
ATOM     21  N   UNL A   1      43.282  28.572  29.154  1.00  0.00    -0.354 N 
ATOM     22  C   UNL A   1      41.787  24.317  28.205  1.00  0.00     0.074 A 
ATOM     23  C   UNL A   1      40.645  24.623  27.389  1.00  0.00     0.031 C 
ATOM     24  C   UNL A   1      42.873  30.755  29.432  1.00  0.00     0.029 A 
ATOM     25  C   UNL A   1      43.899  29.816  29.034  1.00  0.00     0.049 A 
ATOM     26  H   UNL A   1      43.772  27.720  29.101  1.00  0.00     0.167 HD
ATOM     27  C   UNL A   1      42.764  23.386  28.037  1.00  0.00     0.037 A 
ATOM     28  C   UNL A   1      45.126  30.017  28.496  1.00  0.00     0.037 A 
ATOM     29  C   UNL A   1      43.613  23.308  29.196  1.00  0.00     0.049 A 
ATOM     30  C   UNL A   1      45.831  28.705  28.546  1.00  0.00     0.074 A 
ATOM     31  C   UNL A   1      43.403  22.959  30.517  1.00  0.00     0.029 A 
ATOM     32  N   UNL A   1      44.811  23.979  29.177  1.00  0.00    -0.354 N 
ATOM     33  N   UNL A   1      46.160  28.113  29.665  1.00  0.00    -0.248 NA
ATOM     34  C   UNL A   1      45.687  27.826  27.392  1.00  0.00     0.031 C 
ATOM     35  C   UNL A   1      44.210  23.864  31.268  1.00  0.00     0.029 A 
ATOM     36  C   UNL A   1      44.916  24.658  30.365  1.00  0.00     0.049 A 
ATOM     37  H   UNL A   1      45.472  23.974  28.447  1.00  0.00     0.167 HD
ATOM     38  C   UNL A   1      45.873  26.770  29.456  1.00  0.00     0.074 A 
ATOM     39  C   UNL A   1      45.623  26.650  28.021  1.00  0.00     0.031 C 
ATOM     40  C   UNL A   1      45.575  25.936  30.497  1.00  0.00     0.037 A 
BRANCH  27  41
ATOM     41  C   UNL A   1      43.181  22.867  26.680  1.00  0.00     0.064 A 
ATOM     42  C   UNL A   1      43.043  21.493  26.403  1.00  0.00     0.173 A 
ATOM     43  C   UNL A   1      43.994  23.589  25.776  1.00  0.00     0.173 A 
ATOM     44  F   UNL A   1      42.294  20.709  27.193  1.00  0.00    -0.203 F 
ATOM     45  C   UNL A   1      43.750  20.876  25.368  1.00  0.00     0.198 A 
ATOM     46  C   UNL A   1      44.659  22.978  24.717  1.00  0.00     0.198 A 
ATOM     47  F   UNL A   1      44.271  24.889  25.934  1.00  0.00    -0.203 F 
ATOM     48  F   UNL A   1      43.692  19.545  25.226  1.00  0.00    -0.200 F 
ATOM     49  C   UNL A   1      44.569  21.617  24.535  1.00  0.00     0.200 A 
ATOM     50  F   UNL A   1      45.455  23.716  23.929  1.00  0.00    -0.200 F 
ATOM     51  F   UNL A   1      45.305  21.017  23.591  1.00  0.00    -0.200 F 
ENDBRANCH  27  41
BRANCH  28  52
ATOM     52  C   UNL A   1      45.500  31.119  27.577  1.00  0.00     0.064 A 
ATOM     53  C   UNL A   1      44.634  31.548  26.561  1.00  0.00     0.173 A 
ATOM     54  C   UNL A   1      46.621  31.939  27.829  1.00  0.00     0.173 A 
ATOM     55  F   UNL A   1      43.515  30.857  26.298  1.00  0.00    -0.203 F 
ATOM     56  C   UNL A   1      44.876  32.724  25.841  1.00  0.00     0.198 A 
ATOM     57  C   UNL A   1      46.866  33.105  27.105  1.00  0.00     0.198 A 
ATOM     58  F   UNL A   1      47.456  31.674  28.844  1.00  0.00    -0.203 F 
ATOM     59  F   UNL A   1      44.001  33.129  24.909  1.00  0.00    -0.200 F 
ATOM     60  C   UNL A   1      45.988  33.503  26.117  1.00  0.00     0.200 A 
ATOM     61  F   UNL A   1      47.925  33.868  27.412  1.00  0.00    -0.200 F 
ATOM     62  F   UNL A   1      46.193  34.655  25.461  1.00  0.00    -0.200 F 
ENDBRANCH  28  52
BRANCH  40  63
ATOM     63  C   UNL A   1      45.719  26.476  31.893  1.00  0.00     0.064 A 
ATOM     64  C   UNL A   1      44.662  27.065  32.610  1.00  0.00     0.173 A 
ATOM     65  C   UNL A   1      46.906  26.228  32.590  1.00  0.00     0.173 A 
ATOM     66  F   UNL A   1      43.460  27.232  32.047  1.00  0.00    -0.203 F 
ATOM     67  C   UNL A   1      44.803  27.423  33.951  1.00  0.00     0.198 A 
ATOM     68  C   UNL A   1      47.034  26.555  33.938  1.00  0.00     0.198 A 
ATOM     69  F   UNL A   1      47.925  25.606  31.978  1.00  0.00    -0.203 F 
ATOM     70  F   UNL A   1      43.776  27.981  34.611  1.00  0.00    -0.200 F 
ATOM     71  C   UNL A   1      45.987  27.161  34.616  1.00  0.00     0.200 A 
ATOM     72  F   UNL A   1      48.162  26.247  34.592  1.00  0.00    -0.200 F 
ATOM     73  F   UNL A   1      46.109  27.458  35.917  1.00  0.00    -0.200 F 
ENDBRANCH  40  63
ENDBRANCH  14  15
ENDBRANCH   7   9
ENDBRANCH   6   7
ENDBRANCH   5   6
ENDBRANCH   4   5
ENDBRANCH   3   4
ENDBRANCH   2   3
ENDBRANCH   1   2
BRANCH   1  74
ATOM     74  O   UNL A   1      33.130  28.908  26.241  1.00  0.00    -0.376 OA
BRANCH  74  75
ATOM     75  C   UNL A   1      31.883  29.388  25.777  1.00  0.00     0.202 C 
BRANCH  75  76
ATOM     76  C   UNL A   1      31.625  29.447  24.264  1.00  0.00     0.261 C 
BRANCH  76  77
ATOM     77  O   UNL A   1      32.049  28.307  23.492  1.00  0.00    -0.460 OA
BRANCH  77  78
ATOM     78  C   UNL A   1      31.084  27.487  23.018  1.00  0.00     0.338 C 
ATOM     79  O   UNL A   1      30.311  27.700  22.085  1.00  0.00    -0.246 OA
BRANCH  78  80
ATOM     80  C   UNL A   1      31.064  26.240  23.804  1.00  0.00     0.061 A 
ATOM     81  C   UNL A   1      30.294  26.248  24.961  1.00  0.00     0.019 A 
ATOM     82  C   UNL A   1      31.739  25.062  23.384  1.00  0.00     0.038 A 
ATOM     83  C   UNL A   1      30.220  25.076  25.682  1.00  0.00    -0.043 A 
ATOM     84  C   UNL A   1      31.705  23.881  24.164  1.00  0.00     0.092 A 
ATOM     85  C   UNL A   1      30.969  23.927  25.340  1.00  0.00    -0.024 A 
ATOM     86  C   UNL A   1      29.345  24.823  26.873  1.00  0.00     0.036 C 
ATOM     87  C   UNL A   1      30.786  22.935  26.444  1.00  0.00     0.037 C 
ATOM     88  C   UNL A   1      29.362  23.296  26.878  1.00  0.00     0.010 C 
BRANCH  84  89
ATOM     89  S   UNL A   1      32.779  22.518  23.741  1.00  0.00     0.262 S 
ATOM     90  O   UNL A   1      31.927  21.416  23.332  1.00  0.00    -0.201 OA
ATOM     91  O   UNL A   1      33.752  23.034  22.800  1.00  0.00    -0.201 OA
BRANCH  89  92
ATOM     92  N   UNL A   1      33.705  21.883  25.034  1.00  0.00    -0.277 N 
ATOM     93  H   UNL A   1      33.792  22.419  25.855  1.00  0.00     0.180 HD
BRANCH  92  94
ATOM     94  C   UNL A   1      34.362  20.606  24.977  1.00  0.00     0.075 A 
ATOM     95  C   UNL A   1      33.576  19.441  24.899  1.00  0.00     0.042 A 
ATOM     96  C   UNL A   1      35.755  20.496  24.885  1.00  0.00     0.089 A 
ATOM     97  C   UNL A   1      34.164  18.186  24.628  1.00  0.00     0.058 A 
ATOM     98  C   UNL A   1      36.350  19.251  24.638  1.00  0.00     0.031 A 
ATOM     99  C   UNL A   1      35.559  18.104  24.513  1.00  0.00     0.015 A 
BRANCH  96 100
ATOM    100  N   UNL A   1      36.583  21.636  24.992  1.00  0.00    -0.239 N 
ATOM    101  C   UNL A   1      37.278  22.074  26.097  1.00  0.00     0.115 A 
ATOM    102  N   UNL A   1      36.651  22.530  23.977  1.00  0.00    -0.177 NA
ATOM    103  C   UNL A   1      37.635  23.376  25.850  1.00  0.00     0.042 A 
ATOM    104  C   UNL A   1      37.194  23.615  24.539  1.00  0.00     0.135 A 
ENDBRANCH  96 100
BRANCH  97 105
ATOM    105  C   UNL A   1      33.297  16.972  24.376  1.00  0.00     0.416 C 
ATOM    106  F   UNL A   1      33.928  15.803  24.662  1.00  0.00    -0.166 F 
ATOM    107  F   UNL A   1      32.167  16.986  25.138  1.00  0.00    -0.166 F 
ATOM    108  F   UNL A   1      32.868  16.867  23.087  1.00  0.00    -0.166 F 
ENDBRANCH  97 105
ENDBRANCH  92  94
ENDBRANCH  89  92
ENDBRANCH  84  89
ENDBRANCH  78  80
ENDBRANCH  77  78
ENDBRANCH  76  77
ENDBRANCH  75  76
ENDBRANCH  74  75
ENDBRANCH   1  74
TORSDOF 22
ENDMDL
MODEL 2
REMARK VINA RESULT:     -11.6      4.265      8.894
REMARK SMILES O=C(OCCOCCOCCOC(=O)c1cc2c(c(S(=O)(=O)Nc3cc(C(F)(F)F)ccc3-n3cccn3)c1)CCC2)c1ccc(-c2c3nc(c(-c4c(F)c(F)c(F)c(F)c4F)c4ccc([nH]4)c(-c4c(F)c(F)c(F)c(F)c4F)c4nc(c(-c5c(F)c(F)c(F)c(F)c5F)c5ccc2[nH]5)C=C4)C=C3)cc1
REMARK SMILES IDX 8 1 7 2 6 3 5 4 4 5 3 6 2 7 1 8 43 9 44 10 105 11 45 12
REMARK SMILES IDX 104 13 46 14 47 15 48 16 98 17 49 18 103 19 97 20 99 21
REMARK SMILES IDX 50 22 102 23 96 24 95 25 51 27 83 28 63 29 82 30 64 31 67 32
REMARK SMILES IDX 81 33 100 34 65 35 66 36 80 38 101 39 68 40 52 41 53 42
REMARK SMILES IDX 61 43 54 44 55 45 59 46 62 47 56 48 57 49 60 50 58 51 84 52
REMARK SMILES IDX 85 53 93 54 86 55 87 56 91 57 94 58 88 59 89 60 92 61 90 62
REMARK SMILES IDX 69 63 70 64 78 65 71 66 72 67 76 68 79 69 73 70 74 71 77 72
REMARK SMILES IDX 75 73 9 74 10 75 11 76 12 77 13 78 14 79 15 80 16 81 39 82
REMARK SMILES IDX 17 83 19 84 18 85 42 86 40 87 41 88 20 89 21 90 22 91 23 92
REMARK SMILES IDX 24 94 25 95 33 96 26 97 32 98 31 99 34 100 35 101 38 102
REMARK SMILES IDX 36 103 37 104 27 105 28 106 29 107 30 108
REMARK H PARENT 99 26 67 37 23 93
REMARK Flexibility Score: inf
ROOT
ATOM      1  C   UNL A   1      38.714  20.213  24.980  1.00  0.00     0.188 C 
ENDROOT
BRANCH   1   2
ATOM      2  C   UNL A   1      39.770  20.158  26.107  1.00  0.00     0.188 C 
BRANCH   2   3
ATOM      3  O   UNL A   1      41.003  19.527  25.872  1.00  0.00    -0.376 OA
BRANCH   3   4
ATOM      4  C   UNL A   1      42.226  19.928  26.456  1.00  0.00     0.202 C 
BRANCH   4   5
ATOM      5  C   UNL A   1      43.257  20.876  25.832  1.00  0.00     0.261 C 
BRANCH   5   6
ATOM      6  O   UNL A   1      42.746  21.959  25.064  1.00  0.00    -0.460 OA
BRANCH   6   7
ATOM      7  C   UNL A   1      43.075  23.263  25.146  1.00  0.00     0.338 C 
ATOM      8  O   UNL A   1      44.041  23.674  24.504  1.00  0.00    -0.246 OA
BRANCH   7   9
ATOM      9  C   UNL A   1      42.430  24.218  26.096  1.00  0.00     0.060 A 
ATOM     10  C   UNL A   1      41.405  25.125  25.806  1.00  0.00     0.016 A 
ATOM     11  C   UNL A   1      42.947  24.175  27.405  1.00  0.00     0.016 A 
ATOM     12  C   UNL A   1      41.146  26.165  26.672  1.00  0.00     0.010 A 
ATOM     13  C   UNL A   1      42.647  25.174  28.302  1.00  0.00     0.010 A 
ATOM     14  C   UNL A   1      41.876  26.235  27.848  1.00  0.00    -0.014 A 
BRANCH  14  15
ATOM     15  C   UNL A   1      41.908  27.507  28.539  1.00  0.00     0.031 A 
ATOM     16  C   UNL A   1      43.067  28.369  28.201  1.00  0.00     0.074 A 
ATOM     17  C   UNL A   1      40.875  27.801  29.355  1.00  0.00     0.049 A 
ATOM     18  N   UNL A   1      43.922  28.931  28.992  1.00  0.00    -0.248 NA
ATOM     19  C   UNL A   1      43.397  28.507  26.774  1.00  0.00     0.031 C 
ATOM     20  C   UNL A   1      39.639  27.030  29.566  1.00  0.00     0.029 A 
ATOM     21  N   UNL A   1      40.650  28.928  30.077  1.00  0.00    -0.354 N 
ATOM     22  C   UNL A   1      44.778  29.656  28.163  1.00  0.00     0.074 A 
ATOM     23  C   UNL A   1      44.515  29.226  26.817  1.00  0.00     0.031 C 
ATOM     24  C   UNL A   1      38.706  27.819  30.136  1.00  0.00     0.029 A 
ATOM     25  C   UNL A   1      39.318  29.090  30.454  1.00  0.00     0.049 A 
ATOM     26  H   UNL A   1      41.358  29.569  30.312  1.00  0.00     0.167 HD
ATOM     27  C   UNL A   1      45.444  30.748  28.624  1.00  0.00     0.037 A 
ATOM     28  C   UNL A   1      38.770  30.262  30.857  1.00  0.00     0.037 A 
ATOM     29  C   UNL A   1      45.623  30.686  30.050  1.00  0.00     0.049 A 
ATOM     30  C   UNL A   1      39.900  31.134  31.285  1.00  0.00     0.074 A 
ATOM     31  C   UNL A   1      46.298  29.825  30.894  1.00  0.00     0.029 A 
ATOM     32  N   UNL A   1      44.751  31.381  30.851  1.00  0.00    -0.354 N 
ATOM     33  N   UNL A   1      40.660  30.864  32.315  1.00  0.00    -0.248 NA
ATOM     34  C   UNL A   1      40.502  31.992  30.272  1.00  0.00     0.031 C 
ATOM     35  C   UNL A   1      45.454  29.693  32.036  1.00  0.00     0.029 A 
ATOM     36  C   UNL A   1      44.355  30.533  31.854  1.00  0.00     0.049 A 
ATOM     37  H   UNL A   1      44.464  32.315  30.728  1.00  0.00     0.167 HD
ATOM     38  C   UNL A   1      41.949  31.174  31.900  1.00  0.00     0.074 A 
ATOM     39  C   UNL A   1      41.782  31.904  30.645  1.00  0.00     0.031 C 
ATOM     40  C   UNL A   1      43.040  30.562  32.450  1.00  0.00     0.037 A 
BRANCH  27  41
ATOM     41  C   UNL A   1      45.549  32.037  27.840  1.00  0.00     0.064 A 
ATOM     42  C   UNL A   1      46.585  32.939  28.148  1.00  0.00     0.173 A 
ATOM     43  C   UNL A   1      44.508  32.560  27.039  1.00  0.00     0.173 A 
ATOM     44  F   UNL A   1      47.626  32.553  28.901  1.00  0.00    -0.203 F 
ATOM     45  C   UNL A   1      46.526  34.284  27.774  1.00  0.00     0.198 A 
ATOM     46  C   UNL A   1      44.476  33.889  26.629  1.00  0.00     0.198 A 
ATOM     47  F   UNL A   1      43.424  31.848  26.709  1.00  0.00    -0.203 F 
ATOM     48  F   UNL A   1      47.468  35.135  28.203  1.00  0.00    -0.200 F 
ATOM     49  C   UNL A   1      45.464  34.761  27.027  1.00  0.00     0.200 A 
ATOM     50  F   UNL A   1      43.431  34.331  25.914  1.00  0.00    -0.200 F 
ATOM     51  F   UNL A   1      45.366  36.064  26.732  1.00  0.00    -0.200 F 
ENDBRANCH  27  41
BRANCH  28  52
ATOM     52  C   UNL A   1      37.436  30.778  30.462  1.00  0.00     0.064 A 
ATOM     53  C   UNL A   1      36.539  31.283  31.412  1.00  0.00     0.173 A 
ATOM     54  C   UNL A   1      37.108  31.007  29.108  1.00  0.00     0.173 A 
ATOM     55  F   UNL A   1      36.806  31.160  32.720  1.00  0.00    -0.203 F 
ATOM     56  C   UNL A   1      35.382  31.975  31.031  1.00  0.00     0.198 A 
ATOM     57  C   UNL A   1      35.952  31.688  28.730  1.00  0.00     0.198 A 
ATOM     58  F   UNL A   1      37.948  30.654  28.124  1.00  0.00    -0.203 F 
ATOM     59  F   UNL A   1      34.571  32.488  31.968  1.00  0.00    -0.200 F 
ATOM     60  C   UNL A   1      35.093  32.181  29.692  1.00  0.00     0.200 A 
ATOM     61  F   UNL A   1      35.707  31.912  27.430  1.00  0.00    -0.200 F 
ATOM     62  F   UNL A   1      34.011  32.885  29.329  1.00  0.00    -0.200 F 
ENDBRANCH  28  52
BRANCH  40  63
ATOM     63  C   UNL A   1      42.816  29.656  33.629  1.00  0.00     0.064 A 
ATOM     64  C   UNL A   1      42.545  28.281  33.510  1.00  0.00     0.173 A 
ATOM     65  C   UNL A   1      43.063  30.151  34.913  1.00  0.00     0.173 A 
ATOM     66  F   UNL A   1      42.409  27.710  32.308  1.00  0.00    -0.203 F 
ATOM     67  C   UNL A   1      42.485  27.452  34.630  1.00  0.00     0.198 A 
ATOM     68  C   UNL A   1      43.037  29.316  36.028  1.00  0.00     0.198 A 
ATOM     69  F   UNL A   1      43.395  31.441  35.082  1.00  0.00    -0.203 F 
ATOM     70  F   UNL A   1      42.227  26.142  34.486  1.00  0.00    -0.200 F 
ATOM     71  C   UNL A   1      42.739  27.969  35.887  1.00  0.00     0.200 A 
ATOM     72  F   UNL A   1      43.340  29.809  37.236  1.00  0.00    -0.200 F 
ATOM     73  F   UNL A   1      42.732  27.165  36.960  1.00  0.00    -0.200 F 
ENDBRANCH  40  63
ENDBRANCH  14  15
ENDBRANCH   7   9
ENDBRANCH   6   7
ENDBRANCH   5   6
ENDBRANCH   4   5
ENDBRANCH   3   4
ENDBRANCH   2   3
ENDBRANCH   1   2
BRANCH   1  74
ATOM     74  O   UNL A   1      37.555  21.021  25.076  1.00  0.00    -0.376 OA
BRANCH  74  75
ATOM     75  C   UNL A   1      36.275  20.425  24.990  1.00  0.00     0.202 C 
BRANCH  75  76
ATOM     76  C   UNL A   1      35.034  21.328  24.958  1.00  0.00     0.261 C 
BRANCH  76  77
ATOM     77  O   UNL A   1      34.874  22.245  26.057  1.00  0.00    -0.460 OA
BRANCH  77  78
ATOM     78  C   UNL A   1      35.207  23.537  25.838  1.00  0.00     0.338 C 
ATOM     79  O   UNL A   1      36.325  23.994  25.604  1.00  0.00    -0.246 OA
BRANCH  78  80
ATOM     80  C   UNL A   1      34.001  24.380  25.926  1.00  0.00     0.061 A 
ATOM     81  C   UNL A   1      32.779  23.720  25.890  1.00  0.00     0.019 A 
ATOM     82  C   UNL A   1      34.065  25.789  26.103  1.00  0.00     0.038 A 
ATOM     83  C   UNL A   1      31.640  24.484  26.024  1.00  0.00    -0.043 A 
ATOM     84  C   UNL A   1      32.887  26.571  26.179  1.00  0.00     0.092 A 
ATOM     85  C   UNL A   1      31.678  25.895  26.092  1.00  0.00    -0.024 A 
ATOM     86  C   UNL A   1      30.237  23.969  26.149  1.00  0.00     0.036 C 
ATOM     87  C   UNL A   1      30.264  26.379  26.033  1.00  0.00     0.037 C 
ATOM     88  C   UNL A   1      29.565  25.210  26.733  1.00  0.00     0.010 C 
BRANCH  84  89
ATOM     89  S   UNL A   1      33.012  28.352  26.130  1.00  0.00     0.262 S 
ATOM     90  O   UNL A   1      31.953  28.876  26.973  1.00  0.00    -0.201 OA
ATOM     91  O   UNL A   1      34.386  28.680  26.452  1.00  0.00    -0.201 OA
BRANCH  89  92
ATOM     92  N   UNL A   1      32.733  29.068  24.600  1.00  0.00    -0.277 N 
ATOM     93  H   UNL A   1      33.485  29.511  24.145  1.00  0.00     0.180 HD
BRANCH  92  94
ATOM     94  C   UNL A   1      31.452  29.052  23.948  1.00  0.00     0.075 A 
ATOM     95  C   UNL A   1      30.573  30.132  24.153  1.00  0.00     0.042 A 
ATOM     96  C   UNL A   1      31.103  28.053  23.030  1.00  0.00     0.089 A 
ATOM     97  C   UNL A   1      29.401  30.270  23.377  1.00  0.00     0.058 A 
ATOM     98  C   UNL A   1      29.930  28.171  22.271  1.00  0.00     0.031 A 
ATOM     99  C   UNL A   1      29.085  29.271  22.446  1.00  0.00     0.015 A 
BRANCH  96 100
ATOM    100  N   UNL A   1      31.941  26.935  22.819  1.00  0.00    -0.239 N 
ATOM    101  C   UNL A   1      33.281  26.931  22.503  1.00  0.00     0.115 A 
ATOM    102  N   UNL A   1      31.416  25.687  22.771  1.00  0.00    -0.177 NA
ATOM    103  C   UNL A   1      33.577  25.672  22.045  1.00  0.00     0.042 A 
ATOM    104  C   UNL A   1      32.380  24.955  22.203  1.00  0.00     0.135 A 
ENDBRANCH  96 100
BRANCH  97 105
ATOM    105  C   UNL A   1      28.553  31.519  23.486  1.00  0.00     0.416 C 
ATOM    106  F   UNL A   1      28.302  32.093  22.280  1.00  0.00    -0.166 F 
ATOM    107  F   UNL A   1      27.335  31.262  24.041  1.00  0.00    -0.166 F 
ATOM    108  F   UNL A   1      29.111  32.490  24.261  1.00  0.00    -0.166 F 
ENDBRANCH  97 105
ENDBRANCH  92  94
ENDBRANCH  89  92
ENDBRANCH  84  89
ENDBRANCH  78  80
ENDBRANCH  77  78
ENDBRANCH  76  77
ENDBRANCH  75  76
ENDBRANCH  74  75
ENDBRANCH   1  74
TORSDOF 22
ENDMDL
MODEL 3
REMARK VINA RESULT:     -11.5      4.431      8.568
REMARK SMILES O=C(OCCOCCOCCOC(=O)c1cc2c(c(S(=O)(=O)Nc3cc(C(F)(F)F)ccc3-n3cccn3)c1)CCC2)c1ccc(-c2c3nc(c(-c4c(F)c(F)c(F)c(F)c4F)c4ccc([nH]4)c(-c4c(F)c(F)c(F)c(F)c4F)c4nc(c(-c5c(F)c(F)c(F)c(F)c5F)c5ccc2[nH]5)C=C4)C=C3)cc1
REMARK SMILES IDX 8 1 7 2 6 3 5 4 4 5 3 6 2 7 1 8 43 9 44 10 105 11 45 12
REMARK SMILES IDX 104 13 46 14 47 15 48 16 98 17 49 18 103 19 97 20 99 21
REMARK SMILES IDX 50 22 102 23 96 24 95 25 51 27 83 28 63 29 82 30 64 31 67 32
REMARK SMILES IDX 81 33 100 34 65 35 66 36 80 38 101 39 68 40 52 41 53 42
REMARK SMILES IDX 61 43 54 44 55 45 59 46 62 47 56 48 57 49 60 50 58 51 84 52
REMARK SMILES IDX 85 53 93 54 86 55 87 56 91 57 94 58 88 59 89 60 92 61 90 62
REMARK SMILES IDX 69 63 70 64 78 65 71 66 72 67 76 68 79 69 73 70 74 71 77 72
REMARK SMILES IDX 75 73 9 74 10 75 11 76 12 77 13 78 14 79 15 80 16 81 39 82
REMARK SMILES IDX 17 83 19 84 18 85 42 86 40 87 41 88 20 89 21 90 22 91 23 92
REMARK SMILES IDX 24 94 25 95 33 96 26 97 32 98 31 99 34 100 35 101 38 102
REMARK SMILES IDX 36 103 37 104 27 105 28 106 29 107 30 108
REMARK H PARENT 99 26 67 37 23 93
REMARK Flexibility Score: inf
ROOT
ATOM      1  C   UNL A   1      31.304  30.904  25.667  1.00  0.00     0.188 C 
ENDROOT
BRANCH   1   2
ATOM      2  C   UNL A   1      32.182  29.645  25.483  1.00  0.00     0.188 C 
BRANCH   2   3
ATOM      3  O   UNL A   1      32.439  28.812  26.585  1.00  0.00    -0.376 OA
BRANCH   3   4
ATOM      4  C   UNL A   1      33.434  29.062  27.557  1.00  0.00     0.202 C 
BRANCH   4   5
ATOM      5  C   UNL A   1      34.819  29.666  27.297  1.00  0.00     0.261 C 
BRANCH   5   6
ATOM      6  O   UNL A   1      35.370  30.469  28.334  1.00  0.00    -0.460 OA
BRANCH   6   7
ATOM      7  C   UNL A   1      36.300  30.123  29.246  1.00  0.00     0.338 C 
ATOM      8  O   UNL A   1      36.291  30.678  30.343  1.00  0.00    -0.246 OA
BRANCH   7   9
ATOM      9  C   UNL A   1      37.446  29.212  28.951  1.00  0.00     0.060 A 
ATOM     10  C   UNL A   1      37.876  28.129  29.726  1.00  0.00     0.016 A 
ATOM     11  C   UNL A   1      38.143  29.519  27.767  1.00  0.00     0.016 A 
ATOM     12  C   UNL A   1      39.130  27.597  29.520  1.00  0.00     0.010 A 
ATOM     13  C   UNL A   1      39.369  28.947  27.518  1.00  0.00     0.010 A 
ATOM     14  C   UNL A   1      39.903  28.118  28.494  1.00  0.00    -0.014 A 
BRANCH  14  15
ATOM     15  C   UNL A   1      41.328  27.865  28.537  1.00  0.00     0.031 A 
ATOM     16  C   UNL A   1      41.742  26.546  28.000  1.00  0.00     0.074 A 
ATOM     17  C   UNL A   1      42.125  28.855  28.992  1.00  0.00     0.049 A 
ATOM     18  N   UNL A   1      42.468  25.632  28.558  1.00  0.00    -0.248 NA
ATOM     19  C   UNL A   1      41.146  26.135  26.720  1.00  0.00     0.031 C 
ATOM     20  C   UNL A   1      41.742  30.226  29.366  1.00  0.00     0.029 A 
ATOM     21  N   UNL A   1      43.478  28.884  29.095  1.00  0.00    -0.354 N 
ATOM     22  C   UNL A   1      42.580  24.614  27.610  1.00  0.00     0.074 A 
ATOM     23  C   UNL A   1      41.620  24.899  26.580  1.00  0.00     0.031 C 
ATOM     24  C   UNL A   1      42.840  31.009  29.394  1.00  0.00     0.029 A 
ATOM     25  C   UNL A   1      44.001  30.173  29.183  1.00  0.00     0.049 A 
ATOM     26  H   UNL A   1      44.036  28.074  29.106  1.00  0.00     0.167 HD
ATOM     27  C   UNL A   1      43.644  23.767  27.613  1.00  0.00     0.037 A 
ATOM     28  C   UNL A   1      45.295  30.495  28.941  1.00  0.00     0.037 A 
ATOM     29  C   UNL A   1      44.225  23.666  28.924  1.00  0.00     0.049 A 
ATOM     30  C   UNL A   1      46.078  29.235  29.074  1.00  0.00     0.074 A 
ATOM     31  C   UNL A   1      43.764  23.210  30.145  1.00  0.00     0.029 A 
ATOM     32  N   UNL A   1      45.339  24.417  29.207  1.00  0.00    -0.354 N 
ATOM     33  N   UNL A   1      46.205  28.588  30.205  1.00  0.00    -0.248 NA
ATOM     34  C   UNL A   1      46.260  28.432  27.871  1.00  0.00     0.031 C 
ATOM     35  C   UNL A   1      44.312  24.112  31.104  1.00  0.00     0.029 A 
ATOM     36  C   UNL A   1      45.129  25.015  30.424  1.00  0.00     0.049 A 
ATOM     37  H   UNL A   1      46.140  24.509  28.642  1.00  0.00     0.167 HD
ATOM     38  C   UNL A   1      46.082  27.247  29.865  1.00  0.00     0.074 A 
ATOM     39  C   UNL A   1      46.159  27.213  28.406  1.00  0.00     0.031 C 
ATOM     40  C   UNL A   1      45.635  26.323  30.767  1.00  0.00     0.037 A 
BRANCH  27  41
ATOM     41  C   UNL A   1      44.385  23.376  26.355  1.00  0.00     0.064 A 
ATOM     42  C   UNL A   1      44.343  22.035  25.927  1.00  0.00     0.173 A 
ATOM     43  C   UNL A   1      45.380  24.175  25.745  1.00  0.00     0.173 A 
ATOM     44  F   UNL A   1      43.439  21.184  26.436  1.00  0.00    -0.203 F 
ATOM     45  C   UNL A   1      45.290  21.514  25.042  1.00  0.00     0.198 A 
ATOM     46  C   UNL A   1      46.292  23.663  24.827  1.00  0.00     0.198 A 
ATOM     47  F   UNL A   1      45.588  25.453  26.085  1.00  0.00    -0.203 F 
ATOM     48  F   UNL A   1      45.291  20.203  24.767  1.00  0.00    -0.200 F 
ATOM     49  C   UNL A   1      46.273  22.325  24.504  1.00  0.00     0.200 A 
ATOM     50  F   UNL A   1      47.242  24.467  24.328  1.00  0.00    -0.200 F 
ATOM     51  F   UNL A   1      47.226  21.813  23.716  1.00  0.00    -0.200 F 
ENDBRANCH  27  41
BRANCH  28  52
ATOM     52  C   UNL A   1      45.767  31.683  28.188  1.00  0.00     0.064 A 
ATOM     53  C   UNL A   1      45.189  32.048  26.965  1.00  0.00     0.173 A 
ATOM     54  C   UNL A   1      46.637  32.627  28.775  1.00  0.00     0.173 A 
ATOM     55  F   UNL A   1      44.305  31.232  26.370  1.00  0.00    -0.203 F 
ATOM     56  C   UNL A   1      45.466  33.281  26.362  1.00  0.00     0.198 A 
ATOM     57  C   UNL A   1      46.920  33.851  28.170  1.00  0.00     0.198 A 
ATOM     58  F   UNL A   1      47.163  32.421  29.991  1.00  0.00    -0.203 F 
ATOM     59  F   UNL A   1      44.858  33.617  25.216  1.00  0.00    -0.200 F 
ATOM     60  C   UNL A   1      46.327  34.183  26.968  1.00  0.00     0.200 A 
ATOM     61  F   UNL A   1      47.723  34.729  28.789  1.00  0.00    -0.200 F 
ATOM     62  F   UNL A   1      46.554  35.384  26.416  1.00  0.00    -0.200 F 
ENDBRANCH  28  52
BRANCH  40  63
ATOM     63  C   UNL A   1      45.430  26.771  32.188  1.00  0.00     0.064 A 
ATOM     64  C   UNL A   1      44.207  27.264  32.676  1.00  0.00     0.173 A 
ATOM     65  C   UNL A   1      46.440  26.525  33.123  1.00  0.00     0.173 A 
ATOM     66  F   UNL A   1      43.156  27.420  31.863  1.00  0.00    -0.203 F 
ATOM     67  C   UNL A   1      44.020  27.535  34.031  1.00  0.00     0.198 A 
ATOM     68  C   UNL A   1      46.241  26.764  34.481  1.00  0.00     0.198 A 
ATOM     69  F   UNL A   1      47.605  25.990  32.726  1.00  0.00    -0.203 F 
ATOM     70  F   UNL A   1      42.840  28.003  34.469  1.00  0.00    -0.200 F 
ATOM     71  C   UNL A   1      45.036  27.277  34.934  1.00  0.00     0.200 A 
ATOM     72  F   UNL A   1      47.207  26.458  35.358  1.00  0.00    -0.200 F 
ATOM     73  F   UNL A   1      44.843  27.489  36.244  1.00  0.00    -0.200 F 
ENDBRANCH  40  63
ENDBRANCH  14  15
ENDBRANCH   7   9
ENDBRANCH   6   7
ENDBRANCH   5   6
ENDBRANCH   4   5
ENDBRANCH   3   4
ENDBRANCH   2   3
ENDBRANCH   1   2
BRANCH   1  74
ATOM     74  O   UNL A   1      31.308  31.653  26.869  1.00  0.00    -0.376 OA
BRANCH  74  75
ATOM     75  C   UNL A   1      32.026  32.869  26.936  1.00  0.00     0.202 C 
BRANCH  75  76
ATOM     76  C   UNL A   1      33.244  32.965  27.865  1.00  0.00     0.261 C 
BRANCH  76  77
ATOM     77  O   UNL A   1      33.773  34.284  28.103  1.00  0.00    -0.460 OA
BRANCH  77  78
ATOM     78  C   UNL A   1      33.420  34.892  29.258  1.00  0.00     0.338 C 
ATOM     79  O   UNL A   1      32.396  35.534  29.485  1.00  0.00    -0.246 OA
BRANCH  78  80
ATOM     80  C   UNL A   1      34.474  34.685  30.268  1.00  0.00     0.061 A 
ATOM     81  C   UNL A   1      34.142  34.992  31.582  1.00  0.00     0.019 A 
ATOM     82  C   UNL A   1      35.747  34.142  29.944  1.00  0.00     0.038 A 
ATOM     83  C   UNL A   1      35.096  34.756  32.549  1.00  0.00    -0.043 A 
ATOM     84  C   UNL A   1      36.740  33.960  30.937  1.00  0.00     0.092 A 
ATOM     85  C   UNL A   1      36.402  34.319  32.235  1.00  0.00    -0.024 A 
ATOM     86  C   UNL A   1      34.904  34.883  34.031  1.00  0.00     0.036 C 
ATOM     87  C   UNL A   1      37.200  34.363  33.499  1.00  0.00     0.037 C 
ATOM     88  C   UNL A   1      36.093  34.052  34.510  1.00  0.00     0.010 C 
BRANCH  84  89
ATOM     89  S   UNL A   1      38.403  33.532  30.447  1.00  0.00     0.262 S 
ATOM     90  O   UNL A   1      38.825  32.430  31.292  1.00  0.00    -0.201 OA
ATOM     91  O   UNL A   1      38.375  33.338  29.011  1.00  0.00    -0.201 OA
BRANCH  89  92
ATOM     92  N   UNL A   1      39.582  34.746  30.707  1.00  0.00    -0.277 N 
ATOM     93  H   UNL A   1      39.341  35.520  31.265  1.00  0.00     0.180 HD
BRANCH  92  94
ATOM     94  C   UNL A   1      40.905  34.688  30.150  1.00  0.00     0.075 A 
ATOM     95  C   UNL A   1      41.117  35.180  28.849  1.00  0.00     0.042 A 
ATOM     96  C   UNL A   1      42.006  34.260  30.904  1.00  0.00     0.089 A 
ATOM     97  C   UNL A   1      42.423  35.342  28.338  1.00  0.00     0.058 A 
ATOM     98  C   UNL A   1      43.305  34.397  30.396  1.00  0.00     0.031 A 
ATOM     99  C   UNL A   1      43.511  34.932  29.121  1.00  0.00     0.015 A 
BRANCH  96 100
ATOM    100  N   UNL A   1      41.835  33.728  32.202  1.00  0.00    -0.239 N 
ATOM    101  C   UNL A   1      42.173  32.471  32.651  1.00  0.00     0.115 A 
ATOM    102  N   UNL A   1      41.146  34.421  33.140  1.00  0.00    -0.177 NA
ATOM    103  C   UNL A   1      41.508  32.282  33.837  1.00  0.00     0.042 A 
ATOM    104  C   UNL A   1      40.865  33.506  34.074  1.00  0.00     0.135 A 
ENDBRANCH  96 100
BRANCH  97 105
ATOM    105  C   UNL A   1      42.646  36.030  27.008  1.00  0.00     0.416 C 
ATOM    106  F   UNL A   1      43.903  36.528  26.876  1.00  0.00    -0.166 F 
ATOM    107  F   UNL A   1      42.464  35.180  25.958  1.00  0.00    -0.166 F 
ATOM    108  F   UNL A   1      41.798  37.072  26.786  1.00  0.00    -0.166 F 
ENDBRANCH  97 105
ENDBRANCH  92  94
ENDBRANCH  89  92
ENDBRANCH  84  89
ENDBRANCH  78  80
ENDBRANCH  77  78
ENDBRANCH  76  77
ENDBRANCH  75  76
ENDBRANCH  74  75
ENDBRANCH   1  74
TORSDOF 22
ENDMDL
