MODEL 1
REMARK VINA RESULT:     -10.2      0.000      0.000
REMARK SMILES CC[C@@](C)(C(=O)OCCOCCOCCOC(=O)c1ccc(-c2c3nc(c(-c4c(F)c(F)c(F)c(F)c4F)c4ccc([nH]4)c(-c4c(F)c(F)c(F)c(F)c4F)c4nc(c(-c5c(F)c(F)c(F)c(F)c5F)c5ccc2[nH]5)C=C4)C=C3)cc1)n1nnnc1Cc1cccs1
REMARK SMILES IDX 11 1 10 2 9 3 8 4 7 5 5 6 6 7 3 8 4 9 2 10 1 11 82 12 83 13
REMARK SMILES IDX 86 14 84 15 85 16 87 17 88 18 89 19 92 20 90 21 91 22 12 23
REMARK SMILES IDX 13 24 14 25 15 26 16 27 17 28 18 29 19 30 20 31 81 32 21 33
REMARK SMILES IDX 80 34 22 35 23 36 24 37 74 38 25 39 79 40 73 41 75 42 26 43
REMARK SMILES IDX 78 44 72 45 71 46 27 48 59 49 39 50 58 51 40 52 43 53 57 54
REMARK SMILES IDX 76 55 41 56 42 57 56 59 77 60 44 61 28 62 29 63 37 64 30 65
REMARK SMILES IDX 31 66 35 67 38 68 32 69 33 70 36 71 34 72 60 73 61 74 69 75
REMARK SMILES IDX 62 76 63 77 67 78 70 79 64 80 65 81 68 82 66 83 45 84 46 85
REMARK SMILES IDX 54 86 47 87 48 88 52 89 55 90 49 91 50 92 53 93 51 94
REMARK H PARENT 75 47 43 58
REMARK Flexibility Score: inf
ROOT
ATOM      1  C   UNL A   1      39.870  22.056  26.584  1.00  0.00     0.188 C 
ENDROOT
BRANCH   1   2
ATOM      2  O   UNL A   1      38.477  21.939  26.323  1.00  0.00    -0.376 OA
BRANCH   2   3
ATOM      3  C   UNL A   1      37.833  22.848  25.441  1.00  0.00     0.202 C 
BRANCH   3   4
ATOM      4  C   UNL A   1      36.516  22.431  24.759  1.00  0.00     0.261 C 
BRANCH   4   5
ATOM      5  O   UNL A   1      35.338  23.246  24.996  1.00  0.00    -0.461 OA
BRANCH   5   6
ATOM      6  C   UNL A   1      34.173  22.713  24.546  1.00  0.00     0.334 C 
ATOM      7  O   UNL A   1      34.058  21.517  24.299  1.00  0.00    -0.249 OA
BRANCH   6   8
ATOM      8  C   UNL A   1      33.010  23.695  24.280  1.00  0.00     0.160 C 
ATOM      9  C   UNL A   1      32.235  23.101  23.082  1.00  0.00     0.050 C 
BRANCH   8  10
ATOM     10  C   UNL A   1      33.386  25.161  23.854  1.00  0.00     0.039 C 
ATOM     11  C   UNL A   1      33.921  25.297  22.421  1.00  0.00     0.007 C 
ENDBRANCH   8  10
BRANCH   8  12
ATOM     12  N   UNL A   1      32.242  23.717  25.540  1.00  0.00    -0.212 N 
ATOM     13  N   UNL A   1      32.627  22.874  26.534  1.00  0.00    -0.044 NA
ATOM     14  C   UNL A   1      31.068  24.332  25.933  1.00  0.00     0.157 A 
ATOM     15  N   UNL A   1      31.785  23.067  27.530  1.00  0.00    -0.024 NA
ATOM     16  N   UNL A   1      30.828  23.971  27.183  1.00  0.00    -0.113 NA
BRANCH  14  17
ATOM     17  C   UNL A   1      30.181  25.242  25.145  1.00  0.00     0.125 C 
BRANCH  17  18
ATOM     18  C   UNL A   1      30.662  26.670  25.137  1.00  0.00     0.012 A 
ATOM     19  C   UNL A   1      30.370  27.670  24.228  1.00  0.00     0.016 A 
ATOM     20  S   UNL A   1      31.676  27.258  26.392  1.00  0.00    -0.148 S 
ATOM     21  C   UNL A   1      31.065  28.882  24.507  1.00  0.00     0.012 A 
ATOM     22  C   UNL A   1      31.849  28.777  25.633  1.00  0.00     0.065 A 
ENDBRANCH  17  18
ENDBRANCH  14  17
ENDBRANCH   8  12
ENDBRANCH   6   8
ENDBRANCH   5   6
ENDBRANCH   4   5
ENDBRANCH   3   4
ENDBRANCH   2   3
ENDBRANCH   1   2
BRANCH   1  23
ATOM     23  C   UNL A   1      40.782  20.838  26.398  1.00  0.00     0.188 C 
BRANCH  23  24
ATOM     24  O   UNL A   1      41.875  21.041  25.534  1.00  0.00    -0.376 OA
BRANCH  24  25
ATOM     25  C   UNL A   1      43.149  20.585  25.940  1.00  0.00     0.202 C 
BRANCH  25  26
ATOM     26  C   UNL A   1      44.363  21.433  25.537  1.00  0.00     0.261 C 
BRANCH  26  27
ATOM     27  O   UNL A   1      44.538  22.670  26.251  1.00  0.00    -0.460 OA
BRANCH  27  28
ATOM     28  C   UNL A   1      44.357  23.817  25.556  1.00  0.00     0.338 C 
ATOM     29  O   UNL A   1      44.540  23.988  24.362  1.00  0.00    -0.246 OA
BRANCH  28  30
ATOM     30  C   UNL A   1      43.667  24.777  26.451  1.00  0.00     0.060 A 
ATOM     31  C   UNL A   1      44.033  26.131  26.410  1.00  0.00     0.016 A 
ATOM     32  C   UNL A   1      42.645  24.353  27.301  1.00  0.00     0.016 A 
ATOM     33  C   UNL A   1      43.391  27.058  27.233  1.00  0.00     0.010 A 
ATOM     34  C   UNL A   1      42.023  25.278  28.145  1.00  0.00     0.010 A 
ATOM     35  C   UNL A   1      42.411  26.631  28.137  1.00  0.00    -0.014 A 
BRANCH  35  36
ATOM     36  C   UNL A   1      41.936  27.541  29.210  1.00  0.00     0.031 A 
ATOM     37  C   UNL A   1      42.663  27.527  30.527  1.00  0.00     0.074 A 
ATOM     38  C   UNL A   1      40.891  28.369  29.034  1.00  0.00     0.049 A 
ATOM     39  N   UNL A   1      42.383  28.145  31.647  1.00  0.00    -0.248 NA
ATOM     40  C   UNL A   1      43.876  26.695  30.586  1.00  0.00     0.031 C 
ATOM     41  C   UNL A   1      40.141  28.536  27.794  1.00  0.00     0.029 A 
ATOM     42  N   UNL A   1      40.273  29.218  29.922  1.00  0.00    -0.354 N 
ATOM     43  C   UNL A   1      43.377  27.772  32.541  1.00  0.00     0.074 A 
ATOM     44  C   UNL A   1      44.249  26.849  31.846  1.00  0.00     0.031 C 
ATOM     45  C   UNL A   1      39.145  29.416  28.003  1.00  0.00     0.029 A 
ATOM     46  C   UNL A   1      39.167  29.845  29.402  1.00  0.00     0.049 A 
ATOM     47  H   UNL A   1      40.593  29.363  30.841  1.00  0.00     0.167 HD
ATOM     48  C   UNL A   1      43.554  28.168  33.824  1.00  0.00     0.037 A 
ATOM     49  C   UNL A   1      38.262  30.647  29.999  1.00  0.00     0.037 A 
ATOM     50  C   UNL A   1      42.685  29.082  34.518  1.00  0.00     0.049 A 
ATOM     51  C   UNL A   1      38.422  30.997  31.459  1.00  0.00     0.074 A 
ATOM     52  C   UNL A   1      42.784  29.546  35.818  1.00  0.00     0.029 A 
ATOM     53  N   UNL A   1      41.553  29.666  33.969  1.00  0.00    -0.354 N 
ATOM     54  N   UNL A   1      39.365  30.649  32.300  1.00  0.00    -0.248 NA
ATOM     55  C   UNL A   1      37.386  31.858  32.053  1.00  0.00     0.031 C 
ATOM     56  C   UNL A   1      41.677  30.362  36.076  1.00  0.00     0.029 A 
ATOM     57  C   UNL A   1      40.926  30.462  34.916  1.00  0.00     0.049 A 
ATOM     58  H   UNL A   1      41.240  29.534  33.045  1.00  0.00     0.167 HD
ATOM     59  C   UNL A   1      39.059  31.273  33.503  1.00  0.00     0.074 A 
ATOM     60  C   UNL A   1      37.847  32.031  33.283  1.00  0.00     0.031 C 
ATOM     61  C   UNL A   1      39.725  31.224  34.684  1.00  0.00     0.037 A 
BRANCH  48  62
ATOM     62  C   UNL A   1      44.715  27.582  34.573  1.00  0.00     0.064 A 
ATOM     63  C   UNL A   1      44.606  26.379  35.285  1.00  0.00     0.173 A 
ATOM     64  C   UNL A   1      45.963  28.225  34.558  1.00  0.00     0.173 A 
ATOM     65  F   UNL A   1      43.432  25.732  35.344  1.00  0.00    -0.203 F 
ATOM     66  C   UNL A   1      45.694  25.856  35.980  1.00  0.00     0.198 A 
ATOM     67  C   UNL A   1      47.056  27.682  35.226  1.00  0.00     0.198 A 
ATOM     68  F   UNL A   1      46.124  29.377  33.890  1.00  0.00    -0.203 F 
ATOM     69  F   UNL A   1      45.551  24.735  36.699  1.00  0.00    -0.200 F 
ATOM     70  C   UNL A   1      46.919  26.504  35.944  1.00  0.00     0.200 A 
ATOM     71  F   UNL A   1      48.244  28.301  35.176  1.00  0.00    -0.200 F 
ATOM     72  F   UNL A   1      47.967  25.997  36.607  1.00  0.00    -0.200 F 
ENDBRANCH  48  62
BRANCH  49  73
ATOM     73  C   UNL A   1      37.099  31.160  29.225  1.00  0.00     0.064 A 
ATOM     74  C   UNL A   1      37.033  32.498  28.812  1.00  0.00     0.173 A 
ATOM     75  C   UNL A   1      36.009  30.330  28.919  1.00  0.00     0.173 A 
ATOM     76  F   UNL A   1      38.032  33.341  29.112  1.00  0.00    -0.203 F 
ATOM     77  C   UNL A   1      35.915  32.991  28.142  1.00  0.00     0.198 A 
ATOM     78  C   UNL A   1      34.905  30.817  28.220  1.00  0.00     0.198 A 
ATOM     79  F   UNL A   1      36.012  29.045  29.303  1.00  0.00    -0.203 F 
ATOM     80  F   UNL A   1      35.853  34.289  27.811  1.00  0.00    -0.200 F 
ATOM     81  C   UNL A   1      34.856  32.149  27.840  1.00  0.00     0.200 A 
ATOM     82  F   UNL A   1      33.887  29.998  27.926  1.00  0.00    -0.200 F 
ATOM     83  F   UNL A   1      33.781  32.624  27.196  1.00  0.00    -0.200 F 
ENDBRANCH  49  73
BRANCH  61  84
ATOM     84  C   UNL A   1      39.192  32.049  35.823  1.00  0.00     0.064 A 
ATOM     85  C   UNL A   1      38.317  31.516  36.781  1.00  0.00     0.173 A 
ATOM     86  C   UNL A   1      39.603  33.382  35.985  1.00  0.00     0.173 A 
ATOM     87  F   UNL A   1      37.882  30.251  36.669  1.00  0.00    -0.203 F 
ATOM     88  C   UNL A   1      37.853  32.292  37.840  1.00  0.00     0.198 A 
ATOM     89  C   UNL A   1      39.165  34.145  37.065  1.00  0.00     0.198 A 
ATOM     90  F   UNL A   1      40.447  33.942  35.105  1.00  0.00    -0.203 F 
ATOM     91  F   UNL A   1      36.978  31.775  38.715  1.00  0.00    -0.200 F 
ATOM     92  C   UNL A   1      38.283  33.603  37.986  1.00  0.00     0.200 A 
ATOM     93  F   UNL A   1      39.598  35.404  37.213  1.00  0.00    -0.200 F 
ATOM     94  F   UNL A   1      37.844  34.344  39.013  1.00  0.00    -0.200 F 
ENDBRANCH  61  84
ENDBRANCH  35  36
ENDBRANCH  28  30
ENDBRANCH  27  28
ENDBRANCH  26  27
ENDBRANCH  25  26
ENDBRANCH  24  25
ENDBRANCH  23  24
ENDBRANCH   1  23
TORSDOF 21
ENDMDL
MODEL 2
REMARK VINA RESULT:     -10.1      2.004      3.319
REMARK SMILES CC[C@@](C)(C(=O)OCCOCCOCCOC(=O)c1ccc(-c2c3nc(c(-c4c(F)c(F)c(F)c(F)c4F)c4ccc([nH]4)c(-c4c(F)c(F)c(F)c(F)c4F)c4nc(c(-c5c(F)c(F)c(F)c(F)c5F)c5ccc2[nH]5)C=C4)C=C3)cc1)n1nnnc1Cc1cccs1
REMARK SMILES IDX 11 1 10 2 9 3 8 4 7 5 5 6 6 7 3 8 4 9 2 10 1 11 82 12 83 13
REMARK SMILES IDX 86 14 84 15 85 16 87 17 88 18 89 19 92 20 90 21 91 22 12 23
REMARK SMILES IDX 13 24 14 25 15 26 16 27 17 28 18 29 19 30 20 31 81 32 21 33
REMARK SMILES IDX 80 34 22 35 23 36 24 37 74 38 25 39 79 40 73 41 75 42 26 43
REMARK SMILES IDX 78 44 72 45 71 46 27 48 59 49 39 50 58 51 40 52 43 53 57 54
REMARK SMILES IDX 76 55 41 56 42 57 56 59 77 60 44 61 28 62 29 63 37 64 30 65
REMARK SMILES IDX 31 66 35 67 38 68 32 69 33 70 36 71 34 72 60 73 61 74 69 75
REMARK SMILES IDX 62 76 63 77 67 78 70 79 64 80 65 81 68 82 66 83 45 84 46 85
REMARK SMILES IDX 54 86 47 87 48 88 52 89 55 90 49 91 50 92 53 93 51 94
REMARK H PARENT 75 47 43 58
REMARK Flexibility Score: inf
ROOT
ATOM      1  C   UNL A   1      40.843  20.174  26.774  1.00  0.00     0.188 C 
ENDROOT
BRANCH   1   2
ATOM      2  O   UNL A   1      39.682  20.808  26.255  1.00  0.00    -0.376 OA
BRANCH   2   3
ATOM      3  C   UNL A   1      38.782  20.088  25.424  1.00  0.00     0.202 C 
BRANCH   3   4
ATOM      4  C   UNL A   1      37.531  20.800  24.873  1.00  0.00     0.261 C 
BRANCH   4   5
ATOM      5  O   UNL A   1      36.944  21.861  25.671  1.00  0.00    -0.461 OA
BRANCH   5   6
ATOM      6  C   UNL A   1      35.954  22.558  25.056  1.00  0.00     0.334 C 
ATOM      7  O   UNL A   1      36.149  23.188  24.022  1.00  0.00    -0.249 OA
BRANCH   6   8
ATOM      8  C   UNL A   1      34.579  22.592  25.761  1.00  0.00     0.160 C 
ATOM      9  C   UNL A   1      34.279  24.089  26.006  1.00  0.00     0.050 C 
BRANCH   8  10
ATOM     10  C   UNL A   1      34.474  21.905  27.171  1.00  0.00     0.039 C 
ATOM     11  C   UNL A   1      33.258  22.332  28.006  1.00  0.00     0.007 C 
ENDBRANCH   8  10
BRANCH   8  12
ATOM     12  N   UNL A   1      33.655  21.943  24.812  1.00  0.00    -0.212 N 
ATOM     13  N   UNL A   1      32.537  22.623  24.445  1.00  0.00    -0.044 NA
ATOM     14  C   UNL A   1      33.578  20.673  24.270  1.00  0.00     0.157 A 
ATOM     15  N   UNL A   1      31.877  21.834  23.621  1.00  0.00    -0.024 NA
ATOM     16  N   UNL A   1      32.511  20.637  23.490  1.00  0.00    -0.113 NA
BRANCH  14  17
ATOM     17  C   UNL A   1      34.492  19.509  24.486  1.00  0.00     0.125 C 
BRANCH  17  18
ATOM     18  C   UNL A   1      33.753  18.225  24.764  1.00  0.00     0.012 A 
ATOM     19  C   UNL A   1      32.723  18.003  25.659  1.00  0.00     0.016 A 
ATOM     20  S   UNL A   1      34.123  16.797  23.885  1.00  0.00    -0.148 S 
ATOM     21  C   UNL A   1      32.317  16.638  25.696  1.00  0.00     0.012 A 
ATOM     22  C   UNL A   1      33.034  15.864  24.812  1.00  0.00     0.065 A 
ENDBRANCH  17  18
ENDBRANCH  14  17
ENDBRANCH   8  12
ENDBRANCH   6   8
ENDBRANCH   5   6
ENDBRANCH   4   5
ENDBRANCH   3   4
ENDBRANCH   2   3
ENDBRANCH   1   2
BRANCH   1  23
ATOM     23  C   UNL A   1      42.137  20.167  25.951  1.00  0.00     0.188 C 
BRANCH  23  24
ATOM     24  O   UNL A   1      43.194  20.918  26.500  1.00  0.00    -0.376 OA
BRANCH  24  25
ATOM     25  C   UNL A   1      44.331  21.166  25.699  1.00  0.00     0.202 C 
BRANCH  25  26
ATOM     26  C   UNL A   1      45.229  22.345  26.097  1.00  0.00     0.261 C 
BRANCH  26  27
ATOM     27  O   UNL A   1      45.005  23.579  25.391  1.00  0.00    -0.460 OA
BRANCH  27  28
ATOM     28  C   UNL A   1      43.746  23.825  24.959  1.00  0.00     0.338 C 
ATOM     29  O   UNL A   1      43.142  23.229  24.082  1.00  0.00    -0.246 OA
BRANCH  28  30
ATOM     30  C   UNL A   1      43.133  24.794  25.898  1.00  0.00     0.060 A 
ATOM     31  C   UNL A   1      43.590  26.120  25.903  1.00  0.00     0.016 A 
ATOM     32  C   UNL A   1      42.092  24.408  26.744  1.00  0.00     0.016 A 
ATOM     33  C   UNL A   1      43.022  27.057  26.769  1.00  0.00     0.010 A 
ATOM     34  C   UNL A   1      41.543  25.341  27.630  1.00  0.00     0.010 A 
ATOM     35  C   UNL A   1      42.024  26.663  27.668  1.00  0.00    -0.014 A 
BRANCH  35  36
ATOM     36  C   UNL A   1      41.622  27.562  28.781  1.00  0.00     0.031 A 
ATOM     37  C   UNL A   1      42.405  27.496  30.064  1.00  0.00     0.074 A 
ATOM     38  C   UNL A   1      40.596  28.423  28.669  1.00  0.00     0.049 A 
ATOM     39  N   UNL A   1      42.192  28.095  31.208  1.00  0.00    -0.248 NA
ATOM     40  C   UNL A   1      43.594  26.628  30.052  1.00  0.00     0.031 C 
ATOM     41  C   UNL A   1      39.798  28.640  27.466  1.00  0.00     0.029 A 
ATOM     42  N   UNL A   1      40.042  29.269  29.601  1.00  0.00    -0.354 N 
ATOM     43  C   UNL A   1      43.212  27.673  32.050  1.00  0.00     0.074 A 
ATOM     44  C   UNL A   1      44.025  26.742  31.297  1.00  0.00     0.031 C 
ATOM     45  C   UNL A   1      38.839  29.544  27.739  1.00  0.00     0.029 A 
ATOM     46  C   UNL A   1      38.934  29.939  29.144  1.00  0.00     0.049 A 
ATOM     47  H   UNL A   1      40.406  29.383  30.509  1.00  0.00     0.167 HD
ATOM     48  C   UNL A   1      43.456  28.035  33.332  1.00  0.00     0.037 A 
ATOM     49  C   UNL A   1      38.080  30.753  29.797  1.00  0.00     0.037 A 
ATOM     50  C   UNL A   1      42.646  28.957  34.083  1.00  0.00     0.049 A 
ATOM     51  C   UNL A   1      38.314  31.064  31.257  1.00  0.00     0.074 A 
ATOM     52  C   UNL A   1      42.814  29.388  35.387  1.00  0.00     0.029 A 
ATOM     53  N   UNL A   1      41.509  29.586  33.598  1.00  0.00    -0.354 N 
ATOM     54  N   UNL A   1      39.281  30.669  32.047  1.00  0.00    -0.248 NA
ATOM     55  C   UNL A   1      37.330  31.941  31.914  1.00  0.00     0.031 C 
ATOM     56  C   UNL A   1      41.745  30.229  35.712  1.00  0.00     0.029 A 
ATOM     57  C   UNL A   1      40.948  30.377  34.588  1.00  0.00     0.049 A 
ATOM     58  H   UNL A   1      41.153  29.484  32.685  1.00  0.00     0.167 HD
ATOM     59  C   UNL A   1      39.046  31.274  33.277  1.00  0.00     0.074 A 
ATOM     60  C   UNL A   1      37.848  32.072  33.127  1.00  0.00     0.031 C 
ATOM     61  C   UNL A   1      39.761  31.179  34.426  1.00  0.00     0.037 A 
BRANCH  48  62
ATOM     62  C   UNL A   1      44.631  27.398  34.016  1.00  0.00     0.064 A 
ATOM     63  C   UNL A   1      44.511  26.196  34.728  1.00  0.00     0.173 A 
ATOM     64  C   UNL A   1      45.900  27.992  33.939  1.00  0.00     0.173 A 
ATOM     65  F   UNL A   1      43.317  25.595  34.845  1.00  0.00    -0.203 F 
ATOM     66  C   UNL A   1      45.612  25.626  35.362  1.00  0.00     0.198 A 
ATOM     67  C   UNL A   1      47.005  27.401  34.546  1.00  0.00     0.198 A 
ATOM     68  F   UNL A   1      46.072  29.141  33.268  1.00  0.00    -0.203 F 
ATOM     69  F   UNL A   1      45.463  24.506  36.082  1.00  0.00    -0.200 F 
ATOM     70  C   UNL A   1      46.859  26.225  35.264  1.00  0.00     0.200 A 
ATOM     71  F   UNL A   1      48.212  27.973  34.437  1.00  0.00    -0.200 F 
ATOM     72  F   UNL A   1      47.919  25.672  35.869  1.00  0.00    -0.200 F 
ENDBRANCH  48  62
BRANCH  49  73
ATOM     73  C   UNL A   1      36.900  31.316  29.087  1.00  0.00     0.064 A 
ATOM     74  C   UNL A   1      36.831  32.678  28.759  1.00  0.00     0.173 A 
ATOM     75  C   UNL A   1      35.798  30.511  28.759  1.00  0.00     0.173 A 
ATOM     76  F   UNL A   1      37.841  33.497  29.085  1.00  0.00    -0.203 F 
ATOM     77  C   UNL A   1      35.699  33.215  28.150  1.00  0.00     0.198 A 
ATOM     78  C   UNL A   1      34.680  31.044  28.119  1.00  0.00     0.198 A 
ATOM     79  F   UNL A   1      35.805  29.205  29.062  1.00  0.00    -0.203 F 
ATOM     80  F   UNL A   1      35.635  34.532  27.901  1.00  0.00    -0.200 F 
ATOM     81  C   UNL A   1      34.628  32.398  27.824  1.00  0.00     0.200 A 
ATOM     82  F   UNL A   1      33.650  30.249  27.801  1.00  0.00    -0.200 F 
ATOM     83  F   UNL A   1      33.539  32.916  27.238  1.00  0.00    -0.200 F 
ENDBRANCH  49  73
BRANCH  61  84
ATOM     84  C   UNL A   1      39.302  31.992  35.605  1.00  0.00     0.064 A 
ATOM     85  C   UNL A   1      39.676  33.334  35.772  1.00  0.00     0.173 A 
ATOM     86  C   UNL A   1      38.435  31.432  36.557  1.00  0.00     0.173 A 
ATOM     87  F   UNL A   1      40.513  33.916  34.899  1.00  0.00    -0.203 F 
ATOM     88  C   UNL A   1      39.221  34.075  36.861  1.00  0.00     0.198 A 
ATOM     89  C   UNL A   1      37.954  32.187  37.625  1.00  0.00     0.198 A 
ATOM     90  F   UNL A   1      38.035  30.157  36.443  1.00  0.00    -0.203 F 
ATOM     91  F   UNL A   1      39.633  35.340  37.026  1.00  0.00    -0.200 F 
ATOM     92  C   UNL A   1      38.355  33.504  37.781  1.00  0.00     0.200 A 
ATOM     93  F   UNL A   1      37.103  31.638  38.502  1.00  0.00    -0.200 F 
ATOM     94  F   UNL A   1      37.911  34.223  38.821  1.00  0.00    -0.200 F 
ENDBRANCH  61  84
ENDBRANCH  35  36
ENDBRANCH  28  30
ENDBRANCH  27  28
ENDBRANCH  26  27
ENDBRANCH  25  26
ENDBRANCH  24  25
ENDBRANCH  23  24
ENDBRANCH   1  23
TORSDOF 21
ENDMDL
MODEL 3
REMARK VINA RESULT:     -10.0      4.962      7.402
REMARK SMILES CC[C@@](C)(C(=O)OCCOCCOCCOC(=O)c1ccc(-c2c3nc(c(-c4c(F)c(F)c(F)c(F)c4F)c4ccc([nH]4)c(-c4c(F)c(F)c(F)c(F)c4F)c4nc(c(-c5c(F)c(F)c(F)c(F)c5F)c5ccc2[nH]5)C=C4)C=C3)cc1)n1nnnc1Cc1cccs1
REMARK SMILES IDX 11 1 10 2 9 3 8 4 7 5 5 6 6 7 3 8 4 9 2 10 1 11 82 12 83 13
REMARK SMILES IDX 86 14 84 15 85 16 87 17 88 18 89 19 92 20 90 21 91 22 12 23
REMARK SMILES IDX 13 24 14 25 15 26 16 27 17 28 18 29 19 30 20 31 81 32 21 33
REMARK SMILES IDX 80 34 22 35 23 36 24 37 74 38 25 39 79 40 73 41 75 42 26 43
REMARK SMILES IDX 78 44 72 45 71 46 27 48 59 49 39 50 58 51 40 52 43 53 57 54
REMARK SMILES IDX 76 55 41 56 42 57 56 59 77 60 44 61 28 62 29 63 37 64 30 65
REMARK SMILES IDX 31 66 35 67 38 68 32 69 33 70 36 71 34 72 60 73 61 74 69 75
REMARK SMILES IDX 62 76 63 77 67 78 70 79 64 80 65 81 68 82 66 83 45 84 46 85
REMARK SMILES IDX 54 86 47 87 48 88 52 89 55 90 49 91 50 92 53 93 51 94
REMARK H PARENT 75 47 43 58
REMARK Flexibility Score: inf
ROOT
ATOM      1  C   UNL A   1      39.983  21.680  26.529  1.00  0.00     0.188 C 
ENDROOT
BRANCH   1   2
ATOM      2  O   UNL A   1      38.759  22.092  25.934  1.00  0.00    -0.376 OA
BRANCH   2   3
ATOM      3  C   UNL A   1      37.875  21.132  25.374  1.00  0.00     0.202 C 
BRANCH   3   4
ATOM      4  C   UNL A   1      36.571  21.609  24.706  1.00  0.00     0.261 C 
BRANCH   4   5
ATOM      5  O   UNL A   1      35.621  22.350  25.515  1.00  0.00    -0.461 OA
BRANCH   5   6
ATOM      6  C   UNL A   1      34.372  22.443  24.989  1.00  0.00     0.334 C 
ATOM      7  O   UNL A   1      33.738  21.454  24.639  1.00  0.00    -0.249 OA
BRANCH   6   8
ATOM      8  C   UNL A   1      33.807  23.866  24.776  1.00  0.00     0.160 C 
ATOM      9  C   UNL A   1      33.657  24.024  23.245  1.00  0.00     0.050 C 
BRANCH   8  10
ATOM     10  C   UNL A   1      34.701  25.074  25.238  1.00  0.00     0.039 C 
ATOM     11  C   UNL A   1      33.960  26.413  25.362  1.00  0.00     0.007 C 
ENDBRANCH   8  10
BRANCH   8  12
ATOM     12  N   UNL A   1      32.527  23.875  25.508  1.00  0.00    -0.212 N 
ATOM     13  N   UNL A   1      32.545  23.550  26.828  1.00  0.00    -0.044 NA
ATOM     14  C   UNL A   1      31.206  24.017  25.123  1.00  0.00     0.157 A 
ATOM     15  N   UNL A   1      31.296  23.611  27.242  1.00  0.00    -0.024 NA
ATOM     16  N   UNL A   1      30.460  23.912  26.210  1.00  0.00    -0.113 NA
BRANCH  14  17
ATOM     17  C   UNL A   1      30.652  24.242  23.753  1.00  0.00     0.125 C 
BRANCH  17  18
ATOM     18  C   UNL A   1      30.209  25.663  23.523  1.00  0.00     0.012 A 
ATOM     19  C   UNL A   1      29.037  26.275  23.930  1.00  0.00     0.016 A 
ATOM     20  S   UNL A   1      31.227  26.774  22.699  1.00  0.00    -0.148 S 
ATOM     21  C   UNL A   1      28.934  27.619  23.469  1.00  0.00     0.012 A 
ATOM     22  C   UNL A   1      30.040  28.000  22.744  1.00  0.00     0.065 A 
ENDBRANCH  17  18
ENDBRANCH  14  17
ENDBRANCH   8  12
ENDBRANCH   6   8
ENDBRANCH   5   6
ENDBRANCH   4   5
ENDBRANCH   3   4
ENDBRANCH   2   3
ENDBRANCH   1   2
BRANCH   1  23
ATOM     23  C   UNL A   1      40.431  20.219  26.409  1.00  0.00     0.188 C 
BRANCH  23  24
ATOM     24  O   UNL A   1      41.750  20.039  25.949  1.00  0.00    -0.376 OA
BRANCH  24  25
ATOM     25  C   UNL A   1      42.490  18.939  26.438  1.00  0.00     0.202 C 
BRANCH  25  26
ATOM     26  C   UNL A   1      43.357  18.170  25.432  1.00  0.00     0.261 C 
BRANCH  26  27
ATOM     27  O   UNL A   1      44.732  18.584  25.334  1.00  0.00    -0.460 OA
BRANCH  27  28
ATOM     28  C   UNL A   1      45.062  19.394  24.301  1.00  0.00     0.338 C 
ATOM     29  O   UNL A   1      45.233  19.067  23.138  1.00  0.00    -0.246 OA
BRANCH  28  30
ATOM     30  C   UNL A   1      44.950  20.793  24.777  1.00  0.00     0.060 A 
ATOM     31  C   UNL A   1      44.534  21.788  23.879  1.00  0.00     0.016 A 
ATOM     32  C   UNL A   1      45.221  21.119  26.107  1.00  0.00     0.016 A 
ATOM     33  C   UNL A   1      44.408  23.112  24.304  1.00  0.00     0.010 A 
ATOM     34  C   UNL A   1      45.123  22.450  26.524  1.00  0.00     0.010 A 
ATOM     35  C   UNL A   1      44.743  23.459  25.619  1.00  0.00    -0.014 A 
BRANCH  35  36
ATOM     36  C   UNL A   1      44.895  24.886  25.999  1.00  0.00     0.031 A 
ATOM     37  C   UNL A   1      46.255  25.516  25.865  1.00  0.00     0.074 A 
ATOM     38  C   UNL A   1      43.863  25.621  26.449  1.00  0.00     0.049 A 
ATOM     39  N   UNL A   1      46.669  26.704  26.225  1.00  0.00    -0.248 NA
ATOM     40  C   UNL A   1      47.294  24.682  25.236  1.00  0.00     0.031 C 
ATOM     41  C   UNL A   1      42.482  25.162  26.564  1.00  0.00     0.029 A 
ATOM     42  N   UNL A   1      43.829  26.916  26.909  1.00  0.00    -0.354 N 
ATOM     43  C   UNL A   1      48.012  26.757  25.875  1.00  0.00     0.074 A 
ATOM     44  C   UNL A   1      48.353  25.472  25.303  1.00  0.00     0.031 C 
ATOM     45  C   UNL A   1      41.737  26.153  27.086  1.00  0.00     0.029 A 
ATOM     46  C   UNL A   1      42.596  27.301  27.375  1.00  0.00     0.049 A 
ATOM     47  H   UNL A   1      44.614  27.511  26.904  1.00  0.00     0.167 HD
ATOM     48  C   UNL A   1      48.881  27.786  26.008  1.00  0.00     0.037 A 
ATOM     49  C   UNL A   1      42.216  28.439  27.991  1.00  0.00     0.037 A 
ATOM     50  C   UNL A   1      48.545  29.064  26.581  1.00  0.00     0.049 A 
ATOM     51  C   UNL A   1      43.227  29.537  28.221  1.00  0.00     0.074 A 
ATOM     52  C   UNL A   1      49.358  30.170  26.756  1.00  0.00     0.029 A 
ATOM     53  N   UNL A   1      47.295  29.402  27.077  1.00  0.00    -0.354 N 
ATOM     54  N   UNL A   1      44.493  29.587  27.884  1.00  0.00    -0.248 NA
ATOM     55  C   UNL A   1      42.751  30.742  28.919  1.00  0.00     0.031 C 
ATOM     56  C   UNL A   1      48.617  31.156  27.415  1.00  0.00     0.029 A 
ATOM     57  C   UNL A   1      47.323  30.691  27.588  1.00  0.00     0.049 A 
ATOM     58  H   UNL A   1      46.505  28.814  27.068  1.00  0.00     0.167 HD
ATOM     59  C   UNL A   1      44.952  30.834  28.293  1.00  0.00     0.074 A 
ATOM     60  C   UNL A   1      43.827  31.515  28.896  1.00  0.00     0.031 C 
ATOM     61  C   UNL A   1      46.194  31.366  28.176  1.00  0.00     0.037 A 
BRANCH  48  62
ATOM     62  C   UNL A   1      50.295  27.557  25.560  1.00  0.00     0.064 A 
ATOM     63  C   UNL A   1      51.316  27.233  26.465  1.00  0.00     0.173 A 
ATOM     64  C   UNL A   1      50.628  27.642  24.199  1.00  0.00     0.173 A 
ATOM     65  F   UNL A   1      51.055  27.154  27.779  1.00  0.00    -0.203 F 
ATOM     66  C   UNL A   1      52.624  27.032  26.029  1.00  0.00     0.198 A 
ATOM     67  C   UNL A   1      51.928  27.407  23.763  1.00  0.00     0.198 A 
ATOM     68  F   UNL A   1      49.689  27.946  23.290  1.00  0.00    -0.203 F 
ATOM     69  F   UNL A   1      53.593  26.778  26.918  1.00  0.00    -0.200 F 
ATOM     70  C   UNL A   1      52.927  27.112  24.678  1.00  0.00     0.200 A 
ATOM     71  F   UNL A   1      52.216  27.469  22.455  1.00  0.00    -0.200 F 
ATOM     72  F   UNL A   1      54.183  26.911  24.258  1.00  0.00    -0.200 F 
ENDBRANCH  48  62
BRANCH  49  73
ATOM     73  C   UNL A   1      40.815  28.596  28.465  1.00  0.00     0.064 A 
ATOM     74  C   UNL A   1      40.445  28.247  29.772  1.00  0.00     0.173 A 
ATOM     75  C   UNL A   1      39.806  29.059  27.605  1.00  0.00     0.173 A 
ATOM     76  F   UNL A   1      41.363  27.764  30.621  1.00  0.00    -0.203 F 
ATOM     77  C   UNL A   1      39.120  28.337  30.193  1.00  0.00     0.198 A 
ATOM     78  C   UNL A   1      38.487  29.179  28.039  1.00  0.00     0.198 A 
ATOM     79  F   UNL A   1      40.101  29.393  26.340  1.00  0.00    -0.203 F 
ATOM     80  F   UNL A   1      38.784  27.941  31.430  1.00  0.00    -0.200 F 
ATOM     81  C   UNL A   1      38.143  28.808  29.330  1.00  0.00     0.200 A 
ATOM     82  F   UNL A   1      37.548  29.642  27.202  1.00  0.00    -0.200 F 
ATOM     83  F   UNL A   1      36.869  28.894  29.736  1.00  0.00    -0.200 F 
ENDBRANCH  49  73
BRANCH  61  84
ATOM     84  C   UNL A   1      46.401  32.774  28.664  1.00  0.00     0.064 A 
ATOM     85  C   UNL A   1      46.823  33.052  29.972  1.00  0.00     0.173 A 
ATOM     86  C   UNL A   1      46.219  33.860  27.792  1.00  0.00     0.173 A 
ATOM     87  F   UNL A   1      47.001  32.053  30.852  1.00  0.00    -0.203 F 
ATOM     88  C   UNL A   1      47.030  34.363  30.396  1.00  0.00     0.198 A 
ATOM     89  C   UNL A   1      46.461  35.167  28.209  1.00  0.00     0.198 A 
ATOM     90  F   UNL A   1      45.826  33.654  26.526  1.00  0.00    -0.203 F 
ATOM     91  F   UNL A   1      47.385  34.606  31.666  1.00  0.00    -0.200 F 
ATOM     92  C   UNL A   1      46.856  35.418  29.513  1.00  0.00     0.200 A 
ATOM     93  F   UNL A   1      46.311  36.182  27.347  1.00  0.00    -0.200 F 
ATOM     94  F   UNL A   1      47.067  36.677  29.921  1.00  0.00    -0.200 F 
ENDBRANCH  61  84
ENDBRANCH  35  36
ENDBRANCH  28  30
ENDBRANCH  27  28
ENDBRANCH  26  27
ENDBRANCH  25  26
ENDBRANCH  24  25
ENDBRANCH  23  24
ENDBRANCH   1  23
TORSDOF 21
ENDMDL
