MODEL 1
REMARK VINA RESULT:      -8.6      0.000      0.000
REMARK SMILES C[C@@H](OCc1ccccc1Cl)c1ccc(C(=O)OCCOCCOCCOC(=O)c2ccc(-c3c4nc(c(-c5c(F)c(F)c(F)c(F)c5F)c5ccc([nH]5)c(-c5c(F)c(F)c(F)c(F)c5F)c5nc(c(-c6c(F)c(F)c(F)c(F)c6F)c6ccc3[nH]6)C=C5)C=C4)cc2)o1
REMARK SMILES IDX 22 1 21 2 20 3 19 4 18 5 16 6 17 7 15 8 12 9 13 10 93 11
REMARK SMILES IDX 14 12 2 13 1 14 3 15 4 16 5 17 6 18 10 19 7 20 9 21 11 22
REMARK SMILES IDX 8 23 23 24 24 25 25 26 26 27 27 28 28 29 29 30 30 31 31 32
REMARK SMILES IDX 92 33 32 34 91 35 33 36 34 37 35 38 85 39 36 40 90 41 84 42
REMARK SMILES IDX 86 43 37 44 89 45 83 46 82 47 38 49 70 50 50 51 69 52 51 53
REMARK SMILES IDX 54 54 68 55 87 56 52 57 53 58 67 60 88 61 55 62 39 63 40 64
REMARK SMILES IDX 48 65 41 66 42 67 46 68 49 69 43 70 44 71 47 72 45 73 71 74
REMARK SMILES IDX 72 75 80 76 73 77 74 78 78 79 81 80 75 81 76 82 79 83 77 84
REMARK SMILES IDX 56 85 57 86 65 87 58 88 59 89 63 90 66 91 60 92 61 93 64 94
REMARK SMILES IDX 62 95
REMARK H PARENT 86 48 54 59
REMARK Flexibility Score: inf
ROOT
ATOM      1  C   UNL A   1      43.795  21.523  25.647  1.00  0.00     0.188 C 
ENDROOT
BRANCH   1   2
ATOM      2  O   UNL A   1      43.318  22.433  24.662  1.00  0.00    -0.376 OA
BRANCH   2   3
ATOM      3  C   UNL A   1      44.007  23.657  24.445  1.00  0.00     0.202 C 
BRANCH   3   4
ATOM      4  C   UNL A   1      43.923  24.700  25.561  1.00  0.00     0.261 C 
BRANCH   4   5
ATOM      5  O   UNL A   1      44.015  26.041  25.053  1.00  0.00    -0.457 OA
BRANCH   5   6
ATOM      6  C   UNL A   1      45.067  26.789  25.503  1.00  0.00     0.374 C 
ATOM      7  O   UNL A   1      46.247  26.511  25.323  1.00  0.00    -0.242 OA
BRANCH   6   8
ATOM      8  C   UNL A   1      44.565  27.993  26.126  1.00  0.00     0.211 A 
ATOM      9  C   UNL A   1      44.763  30.035  26.946  1.00  0.00     0.133 A 
ATOM     10  C   UNL A   1      43.411  29.762  26.902  1.00  0.00     0.049 A 
ATOM     11  O   UNL A   1      45.468  28.954  26.502  1.00  0.00    -0.451 OA
ATOM     12  C   UNL A   1      43.284  28.449  26.389  1.00  0.00     0.058 A 
BRANCH   9  13
ATOM     13  C   UNL A   1      45.533  31.220  27.444  1.00  0.00     0.181 C 
ATOM     14  C   UNL A   1      46.827  31.347  26.640  1.00  0.00     0.047 C 
BRANCH  13  15
ATOM     15  O   UNL A   1      44.677  32.361  27.358  1.00  0.00    -0.366 OA
BRANCH  15  16
ATOM     16  C   UNL A   1      44.601  33.199  28.514  1.00  0.00     0.198 C 
BRANCH  16  17
ATOM     17  C   UNL A   1      43.562  34.294  28.401  1.00  0.00    -0.004 A 
ATOM     18  C   UNL A   1      42.410  34.230  29.209  1.00  0.00     0.007 A 
ATOM     19  C   UNL A   1      43.696  35.395  27.540  1.00  0.00     0.046 A 
ATOM     20  C   UNL A   1      41.405  35.195  29.123  1.00  0.00     0.000 A 
ATOM     21  C   UNL A   1      42.696  36.374  27.471  1.00  0.00     0.021 A 
ATOM     22  Cl  UNL A   1      45.093  35.638  26.553  1.00  0.00    -0.084 Cl
ATOM     23  C   UNL A   1      41.546  36.268  28.251  1.00  0.00     0.002 A 
ENDBRANCH  16  17
ENDBRANCH  15  16
ENDBRANCH  13  15
ENDBRANCH   9  13
ENDBRANCH   6   8
ENDBRANCH   5   6
ENDBRANCH   4   5
ENDBRANCH   3   4
ENDBRANCH   2   3
ENDBRANCH   1   2
BRANCH   1  24
ATOM     24  C   UNL A   1      43.195  20.107  25.728  1.00  0.00     0.188 C 
BRANCH  24  25
ATOM     25  O   UNL A   1      41.788  20.077  25.923  1.00  0.00    -0.376 OA
BRANCH  25  26
ATOM     26  C   UNL A   1      41.353  20.158  27.273  1.00  0.00     0.202 C 
BRANCH  26  27
ATOM     27  C   UNL A   1      40.734  21.517  27.606  1.00  0.00     0.261 C 
BRANCH  27  28
ATOM     28  O   UNL A   1      40.563  22.382  26.470  1.00  0.00    -0.460 OA
BRANCH  28  29
ATOM     29  C   UNL A   1      39.384  23.037  26.380  1.00  0.00     0.338 C 
ATOM     30  O   UNL A   1      38.330  22.608  25.949  1.00  0.00    -0.246 OA
BRANCH  29  31
ATOM     31  C   UNL A   1      39.545  24.344  27.044  1.00  0.00     0.060 A 
ATOM     32  C   UNL A   1      40.271  25.348  26.396  1.00  0.00     0.016 A 
ATOM     33  C   UNL A   1      38.981  24.573  28.302  1.00  0.00     0.016 A 
ATOM     34  C   UNL A   1      40.457  26.582  27.022  1.00  0.00     0.010 A 
ATOM     35  C   UNL A   1      39.180  25.803  28.932  1.00  0.00     0.010 A 
ATOM     36  C   UNL A   1      39.941  26.804  28.306  1.00  0.00    -0.014 A 
BRANCH  36  37
ATOM     37  C   UNL A   1      40.321  28.017  29.070  1.00  0.00     0.031 A 
ATOM     38  C   UNL A   1      41.683  28.074  29.699  1.00  0.00     0.074 A 
ATOM     39  C   UNL A   1      39.467  29.044  29.220  1.00  0.00     0.049 A 
ATOM     40  N   UNL A   1      42.219  29.004  30.450  1.00  0.00    -0.248 NA
ATOM     41  C   UNL A   1      42.561  26.918  29.456  1.00  0.00     0.031 C 
ATOM     42  C   UNL A   1      38.130  29.123  28.641  1.00  0.00     0.029 A 
ATOM     43  N   UNL A   1      39.605  30.216  29.921  1.00  0.00    -0.354 N 
ATOM     44  C   UNL A   1      43.491  28.548  30.764  1.00  0.00     0.074 A 
ATOM     45  C   UNL A   1      43.639  27.245  30.152  1.00  0.00     0.031 C 
ATOM     46  C   UNL A   1      37.561  30.282  29.019  1.00  0.00     0.029 A 
ATOM     47  C   UNL A   1      38.487  31.011  29.885  1.00  0.00     0.049 A 
ATOM     48  H   UNL A   1      40.426  30.463  30.404  1.00  0.00     0.167 HD
ATOM     49  C   UNL A   1      44.453  29.164  31.490  1.00  0.00     0.037 A 
ATOM     50  C   UNL A   1      38.238  32.186  30.495  1.00  0.00     0.037 A 
ATOM     51  C   UNL A   1      44.308  30.455  32.108  1.00  0.00     0.049 A 
ATOM     52  C   UNL A   1      39.300  32.820  31.357  1.00  0.00     0.074 A 
ATOM     53  C   UNL A   1      45.236  31.171  32.840  1.00  0.00     0.029 A 
ATOM     54  N   UNL A   1      43.149  31.216  32.074  1.00  0.00    -0.354 N 
ATOM     55  N   UNL A   1      40.516  32.405  31.616  1.00  0.00    -0.248 NA
ATOM     56  C   UNL A   1      38.952  34.090  32.011  1.00  0.00     0.031 C 
ATOM     57  C   UNL A   1      44.626  32.349  33.289  1.00  0.00     0.029 A 
ATOM     58  C   UNL A   1      43.331  32.384  32.797  1.00  0.00     0.049 A 
ATOM     59  H   UNL A   1      42.321  30.964  31.605  1.00  0.00     0.167 HD
ATOM     60  C   UNL A   1      41.085  33.369  32.436  1.00  0.00     0.074 A 
ATOM     61  C   UNL A   1      40.085  34.398  32.628  1.00  0.00     0.031 C 
ATOM     62  C   UNL A   1      42.328  33.402  32.977  1.00  0.00     0.037 A 
BRANCH  49  63
ATOM     63  C   UNL A   1      45.748  28.429  31.671  1.00  0.00     0.064 A 
ATOM     64  C   UNL A   1      45.969  27.596  32.778  1.00  0.00     0.173 A 
ATOM     65  C   UNL A   1      46.771  28.549  30.721  1.00  0.00     0.173 A 
ATOM     66  F   UNL A   1      45.025  27.462  33.722  1.00  0.00    -0.203 F 
ATOM     67  C   UNL A   1      47.181  26.931  32.941  1.00  0.00     0.198 A 
ATOM     68  C   UNL A   1      47.972  27.862  30.874  1.00  0.00     0.198 A 
ATOM     69  F   UNL A   1      46.608  29.332  29.644  1.00  0.00    -0.203 F 
ATOM     70  F   UNL A   1      47.389  26.177  34.029  1.00  0.00    -0.200 F 
ATOM     71  C   UNL A   1      48.179  27.060  31.987  1.00  0.00     0.200 A 
ATOM     72  F   UNL A   1      48.935  27.982  29.948  1.00  0.00    -0.200 F 
ATOM     73  F   UNL A   1      49.345  26.419  32.145  1.00  0.00    -0.200 F 
ENDBRANCH  49  63
BRANCH  50  74
ATOM     74  C   UNL A   1      36.919  32.845  30.318  1.00  0.00     0.064 A 
ATOM     75  C   UNL A   1      35.946  32.791  31.325  1.00  0.00     0.173 A 
ATOM     76  C   UNL A   1      36.600  33.525  29.133  1.00  0.00     0.173 A 
ATOM     77  F   UNL A   1      36.194  32.123  32.460  1.00  0.00    -0.203 F 
ATOM     78  C   UNL A   1      34.697  33.384  31.148  1.00  0.00     0.198 A 
ATOM     79  C   UNL A   1      35.358  34.135  28.968  1.00  0.00     0.198 A 
ATOM     80  F   UNL A   1      37.493  33.593  28.136  1.00  0.00    -0.203 F 
ATOM     81  F   UNL A   1      33.768  33.280  32.109  1.00  0.00    -0.200 F 
ATOM     82  C   UNL A   1      34.406  34.060  29.974  1.00  0.00     0.200 A 
ATOM     83  F   UNL A   1      35.081  34.788  27.831  1.00  0.00    -0.200 F 
ATOM     84  F   UNL A   1      33.203  34.626  29.803  1.00  0.00    -0.200 F 
ENDBRANCH  50  74
BRANCH  62  85
ATOM     85  C   UNL A   1      42.691  34.600  33.806  1.00  0.00     0.064 A 
ATOM     86  C   UNL A   1      43.163  35.782  33.220  1.00  0.00     0.173 A 
ATOM     87  C   UNL A   1      42.515  34.579  35.198  1.00  0.00     0.173 A 
ATOM     88  F   UNL A   1      43.361  35.847  31.894  1.00  0.00    -0.203 F 
ATOM     89  C   UNL A   1      43.466  36.896  34.000  1.00  0.00     0.198 A 
ATOM     90  C   UNL A   1      42.795  35.702  35.972  1.00  0.00     0.198 A 
ATOM     91  F   UNL A   1      42.059  33.474  35.806  1.00  0.00    -0.203 F 
ATOM     92  F   UNL A   1      43.951  38.004  33.423  1.00  0.00    -0.200 F 
ATOM     93  C   UNL A   1      43.275  36.858  35.373  1.00  0.00     0.200 A 
ATOM     94  F   UNL A   1      42.598  35.667  37.297  1.00  0.00    -0.200 F 
ATOM     95  F   UNL A   1      43.558  37.933  36.121  1.00  0.00    -0.200 F 
ENDBRANCH  62  85
ENDBRANCH  36  37
ENDBRANCH  29  31
ENDBRANCH  28  29
ENDBRANCH  27  28
ENDBRANCH  26  27
ENDBRANCH  25  26
ENDBRANCH  24  25
ENDBRANCH   1  24
TORSDOF 21
ENDMDL
MODEL 2
REMARK VINA RESULT:      -8.6      5.441     11.648
REMARK SMILES C[C@@H](OCc1ccccc1Cl)c1ccc(C(=O)OCCOCCOCCOC(=O)c2ccc(-c3c4nc(c(-c5c(F)c(F)c(F)c(F)c5F)c5ccc([nH]5)c(-c5c(F)c(F)c(F)c(F)c5F)c5nc(c(-c6c(F)c(F)c(F)c(F)c6F)c6ccc3[nH]6)C=C5)C=C4)cc2)o1
REMARK SMILES IDX 22 1 21 2 20 3 19 4 18 5 16 6 17 7 15 8 12 9 13 10 93 11
REMARK SMILES IDX 14 12 2 13 1 14 3 15 4 16 5 17 6 18 10 19 7 20 9 21 11 22
REMARK SMILES IDX 8 23 23 24 24 25 25 26 26 27 27 28 28 29 29 30 30 31 31 32
REMARK SMILES IDX 92 33 32 34 91 35 33 36 34 37 35 38 85 39 36 40 90 41 84 42
REMARK SMILES IDX 86 43 37 44 89 45 83 46 82 47 38 49 70 50 50 51 69 52 51 53
REMARK SMILES IDX 54 54 68 55 87 56 52 57 53 58 67 60 88 61 55 62 39 63 40 64
REMARK SMILES IDX 48 65 41 66 42 67 46 68 49 69 43 70 44 71 47 72 45 73 71 74
REMARK SMILES IDX 72 75 80 76 73 77 74 78 78 79 81 80 75 81 76 82 79 83 77 84
REMARK SMILES IDX 56 85 57 86 65 87 58 88 59 89 63 90 66 91 60 92 61 93 64 94
REMARK SMILES IDX 62 95
REMARK H PARENT 86 48 54 59
REMARK Flexibility Score: inf
ROOT
ATOM      1  C   UNL A   1      34.514  32.010  27.968  1.00  0.00     0.188 C 
ENDROOT
BRANCH   1   2
ATOM      2  O   UNL A   1      33.302  31.309  27.709  1.00  0.00    -0.376 OA
BRANCH   2   3
ATOM      3  C   UNL A   1      33.306  30.208  26.810  1.00  0.00     0.202 C 
BRANCH   3   4
ATOM      4  C   UNL A   1      33.831  28.878  27.355  1.00  0.00     0.261 C 
BRANCH   4   5
ATOM      5  O   UNL A   1      33.318  27.755  26.620  1.00  0.00    -0.457 OA
BRANCH   5   6
ATOM      6  C   UNL A   1      32.031  27.386  26.897  1.00  0.00     0.374 C 
ATOM      7  O   UNL A   1      31.416  27.706  27.908  1.00  0.00    -0.242 OA
BRANCH   6   8
ATOM      8  C   UNL A   1      31.491  26.658  25.771  1.00  0.00     0.211 A 
ATOM      9  C   UNL A   1      31.586  25.769  23.751  1.00  0.00     0.133 A 
ATOM     10  C   UNL A   1      30.409  25.324  24.317  1.00  0.00     0.049 A 
ATOM     11  O   UNL A   1      32.233  26.600  24.619  1.00  0.00    -0.451 OA
ATOM     12  C   UNL A   1      30.340  25.904  25.606  1.00  0.00     0.058 A 
BRANCH   9  13
ATOM     13  C   UNL A   1      32.192  25.560  22.396  1.00  0.00     0.181 C 
ATOM     14  C   UNL A   1      32.612  26.913  21.824  1.00  0.00     0.047 C 
BRANCH  13  15
ATOM     15  O   UNL A   1      33.265  24.627  22.540  1.00  0.00    -0.366 OA
BRANCH  15  16
ATOM     16  C   UNL A   1      32.923  23.317  23.001  1.00  0.00     0.198 C 
BRANCH  16  17
ATOM     17  C   UNL A   1      33.737  22.864  24.195  1.00  0.00    -0.004 A 
ATOM     18  C   UNL A   1      34.552  23.799  24.861  1.00  0.00     0.007 A 
ATOM     19  C   UNL A   1      33.703  21.552  24.693  1.00  0.00     0.046 A 
ATOM     20  C   UNL A   1      35.346  23.429  25.949  1.00  0.00     0.000 A 
ATOM     21  C   UNL A   1      34.486  21.187  25.798  1.00  0.00     0.021 A 
ATOM     22  Cl  UNL A   1      32.688  20.327  24.020  1.00  0.00    -0.084 Cl
ATOM     23  C   UNL A   1      35.316  22.121  26.416  1.00  0.00     0.002 A 
ENDBRANCH  16  17
ENDBRANCH  15  16
ENDBRANCH  13  15
ENDBRANCH   9  13
ENDBRANCH   6   8
ENDBRANCH   5   6
ENDBRANCH   4   5
ENDBRANCH   3   4
ENDBRANCH   2   3
ENDBRANCH   1   2
BRANCH   1  24
ATOM     24  C   UNL A   1      34.495  33.547  28.075  1.00  0.00     0.188 C 
BRANCH  24  25
ATOM     25  O   UNL A   1      35.022  34.055  29.292  1.00  0.00    -0.376 OA
BRANCH  25  26
ATOM     26  C   UNL A   1      34.141  34.021  30.405  1.00  0.00     0.202 C 
BRANCH  26  27
ATOM     27  C   UNL A   1      34.801  34.533  31.687  1.00  0.00     0.261 C 
BRANCH  27  28
ATOM     28  O   UNL A   1      36.126  34.024  31.914  1.00  0.00    -0.460 OA
BRANCH  28  29
ATOM     29  C   UNL A   1      36.217  32.815  32.510  1.00  0.00     0.338 C 
ATOM     30  O   UNL A   1      35.483  32.354  33.364  1.00  0.00    -0.246 OA
BRANCH  29  31
ATOM     31  C   UNL A   1      37.288  32.060  31.834  1.00  0.00     0.060 A 
ATOM     32  C   UNL A   1      38.325  31.520  32.603  1.00  0.00     0.016 A 
ATOM     33  C   UNL A   1      37.268  31.890  30.447  1.00  0.00     0.016 A 
ATOM     34  C   UNL A   1      39.362  30.827  31.977  1.00  0.00     0.010 A 
ATOM     35  C   UNL A   1      38.314  31.208  29.822  1.00  0.00     0.010 A 
ATOM     36  C   UNL A   1      39.379  30.696  30.581  1.00  0.00    -0.014 A 
BRANCH  36  37
ATOM     37  C   UNL A   1      40.580  30.165  29.891  1.00  0.00     0.031 A 
ATOM     38  C   UNL A   1      41.732  31.093  29.634  1.00  0.00     0.074 A 
ATOM     39  C   UNL A   1      40.641  28.887  29.480  1.00  0.00     0.049 A 
ATOM     40  N   UNL A   1      42.861  30.871  29.008  1.00  0.00    -0.248 NA
ATOM     41  C   UNL A   1      41.588  32.466  30.146  1.00  0.00     0.031 C 
ATOM     42  C   UNL A   1      39.604  27.881  29.689  1.00  0.00     0.029 A 
ATOM     43  N   UNL A   1      41.625  28.224  28.788  1.00  0.00    -0.354 N 
ATOM     44  C   UNL A   1      43.559  32.069  29.054  1.00  0.00     0.074 A 
ATOM     45  C   UNL A   1      42.717  33.026  29.739  1.00  0.00     0.031 C 
ATOM     46  C   UNL A   1      40.002  26.726  29.126  1.00  0.00     0.029 A 
ATOM     47  C   UNL A   1      41.308  26.921  28.500  1.00  0.00     0.049 A 
ATOM     48  H   UNL A   1      42.475  28.644  28.525  1.00  0.00     0.167 HD
ATOM     49  C   UNL A   1      44.795  32.345  28.577  1.00  0.00     0.037 A 
ATOM     50  C   UNL A   1      41.992  25.998  27.796  1.00  0.00     0.037 A 
ATOM     51  C   UNL A   1      45.632  31.400  27.887  1.00  0.00     0.049 A 
ATOM     52  C   UNL A   1      43.337  26.349  27.212  1.00  0.00     0.074 A 
ATOM     53  C   UNL A   1      46.910  31.580  27.390  1.00  0.00     0.029 A 
ATOM     54  N   UNL A   1      45.264  30.097  27.587  1.00  0.00    -0.354 N 
ATOM     55  N   UNL A   1      44.011  27.470  27.295  1.00  0.00    -0.248 NA
ATOM     56  C   UNL A   1      44.017  25.301  26.435  1.00  0.00     0.031 C 
ATOM     57  C   UNL A   1      47.300  30.398  26.748  1.00  0.00     0.029 A 
ATOM     58  C   UNL A   1      46.281  29.469  26.886  1.00  0.00     0.049 A 
ATOM     59  H   UNL A   1      44.407  29.680  27.836  1.00  0.00     0.167 HD
ATOM     60  C   UNL A   1      45.199  27.257  26.609  1.00  0.00     0.074 A 
ATOM     61  C   UNL A   1      45.160  25.894  26.120  1.00  0.00     0.031 C 
ATOM     62  C   UNL A   1      46.231  28.112  26.408  1.00  0.00     0.037 A 
BRANCH  49  63
ATOM     63  C   UNL A   1      45.306  33.741  28.769  1.00  0.00     0.064 A 
ATOM     64  C   UNL A   1      46.087  34.090  29.880  1.00  0.00     0.173 A 
ATOM     65  C   UNL A   1      45.022  34.737  27.824  1.00  0.00     0.173 A 
ATOM     66  F   UNL A   1      46.372  33.175  30.819  1.00  0.00    -0.203 F 
ATOM     67  C   UNL A   1      46.542  35.394  30.054  1.00  0.00     0.198 A 
ATOM     68  C   UNL A   1      45.500  36.034  27.988  1.00  0.00     0.198 A 
ATOM     69  F   UNL A   1      44.280  34.454  26.743  1.00  0.00    -0.203 F 
ATOM     70  F   UNL A   1      47.248  35.716  31.147  1.00  0.00    -0.200 F 
ATOM     71  C   UNL A   1      46.253  36.363  29.105  1.00  0.00     0.200 A 
ATOM     72  F   UNL A   1      45.226  36.970  27.067  1.00  0.00    -0.200 F 
ATOM     73  F   UNL A   1      46.693  37.618  29.273  1.00  0.00    -0.200 F 
ENDBRANCH  49  63
BRANCH  50  74
ATOM     74  C   UNL A   1      41.414  24.644  27.596  1.00  0.00     0.064 A 
ATOM     75  C   UNL A   1      41.975  23.522  28.220  1.00  0.00     0.173 A 
ATOM     76  C   UNL A   1      40.304  24.445  26.763  1.00  0.00     0.173 A 
ATOM     77  F   UNL A   1      43.059  23.660  28.997  1.00  0.00    -0.203 F 
ATOM     78  C   UNL A   1      41.453  22.247  28.009  1.00  0.00     0.198 A 
ATOM     79  C   UNL A   1      39.769  23.172  26.572  1.00  0.00     0.198 A 
ATOM     80  F   UNL A   1      39.740  25.485  26.134  1.00  0.00    -0.203 F 
ATOM     81  F   UNL A   1      42.034  21.185  28.583  1.00  0.00    -0.200 F 
ATOM     82  C   UNL A   1      40.347  22.074  27.191  1.00  0.00     0.200 A 
ATOM     83  F   UNL A   1      38.700  23.009  25.779  1.00  0.00    -0.200 F 
ATOM     84  F   UNL A   1      39.848  20.847  26.986  1.00  0.00    -0.200 F 
ENDBRANCH  50  74
BRANCH  62  85
ATOM     85  C   UNL A   1      47.420  27.595  25.650  1.00  0.00     0.064 A 
ATOM     86  C   UNL A   1      47.502  27.695  24.254  1.00  0.00     0.173 A 
ATOM     87  C   UNL A   1      48.511  27.039  26.336  1.00  0.00     0.173 A 
ATOM     88  F   UNL A   1      46.479  28.206  23.553  1.00  0.00    -0.203 F 
ATOM     89  C   UNL A   1      48.626  27.238  23.570  1.00  0.00     0.198 A 
ATOM     90  C   UNL A   1      49.643  26.607  25.651  1.00  0.00     0.198 A 
ATOM     91  F   UNL A   1      48.484  26.928  27.672  1.00  0.00    -0.203 F 
ATOM     92  F   UNL A   1      48.668  27.310  22.232  1.00  0.00    -0.200 F 
ATOM     93  C   UNL A   1      49.697  26.702  24.268  1.00  0.00     0.200 A 
ATOM     94  F   UNL A   1      50.682  26.100  26.328  1.00  0.00    -0.200 F 
ATOM     95  F   UNL A   1      50.782  26.272  23.608  1.00  0.00    -0.200 F 
ENDBRANCH  62  85
ENDBRANCH  36  37
ENDBRANCH  29  31
ENDBRANCH  28  29
ENDBRANCH  27  28
ENDBRANCH  26  27
ENDBRANCH  25  26
ENDBRANCH  24  25
ENDBRANCH   1  24
TORSDOF 21
ENDMDL
MODEL 3
REMARK VINA RESULT:      -8.5      4.016      9.677
REMARK SMILES C[C@@H](OCc1ccccc1Cl)c1ccc(C(=O)OCCOCCOCCOC(=O)c2ccc(-c3c4nc(c(-c5c(F)c(F)c(F)c(F)c5F)c5ccc([nH]5)c(-c5c(F)c(F)c(F)c(F)c5F)c5nc(c(-c6c(F)c(F)c(F)c(F)c6F)c6ccc3[nH]6)C=C5)C=C4)cc2)o1
REMARK SMILES IDX 22 1 21 2 20 3 19 4 18 5 16 6 17 7 15 8 12 9 13 10 93 11
REMARK SMILES IDX 14 12 2 13 1 14 3 15 4 16 5 17 6 18 10 19 7 20 9 21 11 22
REMARK SMILES IDX 8 23 23 24 24 25 25 26 26 27 27 28 28 29 29 30 30 31 31 32
REMARK SMILES IDX 92 33 32 34 91 35 33 36 34 37 35 38 85 39 36 40 90 41 84 42
REMARK SMILES IDX 86 43 37 44 89 45 83 46 82 47 38 49 70 50 50 51 69 52 51 53
REMARK SMILES IDX 54 54 68 55 87 56 52 57 53 58 67 60 88 61 55 62 39 63 40 64
REMARK SMILES IDX 48 65 41 66 42 67 46 68 49 69 43 70 44 71 47 72 45 73 71 74
REMARK SMILES IDX 72 75 80 76 73 77 74 78 78 79 81 80 75 81 76 82 79 83 77 84
REMARK SMILES IDX 56 85 57 86 65 87 58 88 59 89 63 90 66 91 60 92 61 93 64 94
REMARK SMILES IDX 62 95
REMARK H PARENT 86 48 54 59
REMARK Flexibility Score: inf
ROOT
ATOM      1  C   UNL A   1      44.549  19.056  24.600  1.00  0.00     0.188 C 
ENDROOT
BRANCH   1   2
ATOM      2  O   UNL A   1      43.818  18.113  25.378  1.00  0.00    -0.376 OA
BRANCH   2   3
ATOM      3  C   UNL A   1      42.540  18.466  25.890  1.00  0.00     0.202 C 
BRANCH   3   4
ATOM      4  C   UNL A   1      42.455  19.770  26.685  1.00  0.00     0.261 C 
BRANCH   4   5
ATOM      5  O   UNL A   1      41.204  20.445  26.481  1.00  0.00    -0.457 OA
BRANCH   5   6
ATOM      6  C   UNL A   1      41.028  21.615  27.165  1.00  0.00     0.374 C 
ATOM      7  O   UNL A   1      41.790  22.041  28.025  1.00  0.00    -0.242 OA
BRANCH   6   8
ATOM      8  C   UNL A   1      39.870  22.305  26.643  1.00  0.00     0.211 A 
ATOM      9  C   UNL A   1      37.980  22.431  25.504  1.00  0.00     0.133 A 
ATOM     10  C   UNL A   1      38.110  23.628  26.179  1.00  0.00     0.049 A 
ATOM     11  O   UNL A   1      39.060  21.636  25.761  1.00  0.00    -0.451 OA
ATOM     12  C   UNL A   1      39.326  23.553  26.898  1.00  0.00     0.058 A 
BRANCH   9  13
ATOM     13  C   UNL A   1      36.952  21.928  24.538  1.00  0.00     0.181 C 
ATOM     14  C   UNL A   1      36.403  20.595  25.042  1.00  0.00     0.047 C 
BRANCH  13  15
ATOM     15  O   UNL A   1      35.962  22.949  24.388  1.00  0.00    -0.366 OA
BRANCH  15  16
ATOM     16  C   UNL A   1      34.671  22.681  24.942  1.00  0.00     0.198 C 
BRANCH  16  17
ATOM     17  C   UNL A   1      33.543  23.383  24.215  1.00  0.00    -0.004 A 
ATOM     18  C   UNL A   1      33.852  24.402  23.295  1.00  0.00     0.007 A 
ATOM     19  C   UNL A   1      32.191  23.052  24.396  1.00  0.00     0.046 A 
ATOM     20  C   UNL A   1      32.850  25.103  22.620  1.00  0.00     0.000 A 
ATOM     21  C   UNL A   1      31.187  23.743  23.702  1.00  0.00     0.021 A 
ATOM     22  Cl  UNL A   1      31.677  21.771  25.435  1.00  0.00    -0.084 Cl
ATOM     23  C   UNL A   1      31.516  24.775  22.825  1.00  0.00     0.002 A 
ENDBRANCH  16  17
ENDBRANCH  15  16
ENDBRANCH  13  15
ENDBRANCH   9  13
ENDBRANCH   6   8
ENDBRANCH   5   6
ENDBRANCH   4   5
ENDBRANCH   3   4
ENDBRANCH   2   3
ENDBRANCH   1   2
BRANCH   1  24
ATOM     24  C   UNL A   1      46.003  19.390  24.980  1.00  0.00     0.188 C 
BRANCH  24  25
ATOM     25  O   UNL A   1      46.320  20.773  24.919  1.00  0.00    -0.376 OA
BRANCH  25  26
ATOM     26  C   UNL A   1      45.243  21.663  25.171  1.00  0.00     0.202 C 
BRANCH  26  27
ATOM     27  C   UNL A   1      45.700  23.120  25.267  1.00  0.00     0.261 C 
BRANCH  27  28
ATOM     28  O   UNL A   1      44.663  24.042  25.645  1.00  0.00    -0.460 OA
BRANCH  28  29
ATOM     29  C   UNL A   1      44.949  25.357  25.530  1.00  0.00     0.338 C 
ATOM     30  O   UNL A   1      45.594  25.900  24.652  1.00  0.00    -0.246 OA
BRANCH  29  31
ATOM     31  C   UNL A   1      44.209  26.072  26.587  1.00  0.00     0.060 A 
ATOM     32  C   UNL A   1      44.496  27.421  26.820  1.00  0.00     0.016 A 
ATOM     33  C   UNL A   1      43.238  25.410  27.343  1.00  0.00     0.016 A 
ATOM     34  C   UNL A   1      43.825  28.106  27.834  1.00  0.00     0.010 A 
ATOM     35  C   UNL A   1      42.578  26.094  28.365  1.00  0.00     0.010 A 
ATOM     36  C   UNL A   1      42.888  27.438  28.634  1.00  0.00    -0.014 A 
BRANCH  36  37
ATOM     37  C   UNL A   1      42.339  28.085  29.850  1.00  0.00     0.031 A 
ATOM     38  C   UNL A   1      41.046  28.841  29.743  1.00  0.00     0.074 A 
ATOM     39  C   UNL A   1      42.986  28.022  31.026  1.00  0.00     0.049 A 
ATOM     40  N   UNL A   1      40.400  29.525  30.654  1.00  0.00    -0.248 NA
ATOM     41  C   UNL A   1      40.395  28.830  28.423  1.00  0.00     0.031 C 
ATOM     42  C   UNL A   1      44.233  27.302  31.269  1.00  0.00     0.029 A 
ATOM     43  N   UNL A   1      42.678  28.588  32.239  1.00  0.00    -0.354 N 
ATOM     44  C   UNL A   1      39.271  30.022  30.020  1.00  0.00     0.074 A 
ATOM     45  C   UNL A   1      39.331  29.590  28.640  1.00  0.00     0.031 C 
ATOM     46  C   UNL A   1      44.592  27.478  32.553  1.00  0.00     0.029 A 
ATOM     47  C   UNL A   1      43.613  28.340  33.212  1.00  0.00     0.049 A 
ATOM     48  H   UNL A   1      41.865  29.120  32.395  1.00  0.00     0.167 HD
ATOM     49  C   UNL A   1      38.267  30.764  30.543  1.00  0.00     0.037 A 
ATOM     50  C   UNL A   1      43.675  28.776  34.486  1.00  0.00     0.037 A 
ATOM     51  C   UNL A   1      38.206  31.204  31.911  1.00  0.00     0.049 A 
ATOM     52  C   UNL A   1      42.581  29.660  35.027  1.00  0.00     0.074 A 
ATOM     53  C   UNL A   1      37.216  31.937  32.540  1.00  0.00     0.029 A 
ATOM     54  N   UNL A   1      39.187  30.959  32.860  1.00  0.00    -0.354 N 
ATOM     55  N   UNL A   1      41.493  30.092  34.436  1.00  0.00    -0.248 NA
ATOM     56  C   UNL A   1      42.725  30.118  36.417  1.00  0.00     0.031 C 
ATOM     57  C   UNL A   1      37.618  32.175  33.859  1.00  0.00     0.029 A 
ATOM     58  C   UNL A   1      38.839  31.552  34.063  1.00  0.00     0.049 A 
ATOM     59  H   UNL A   1      40.009  30.441  32.702  1.00  0.00     0.167 HD
ATOM     60  C   UNL A   1      40.814  30.845  35.384  1.00  0.00     0.074 A 
ATOM     61  C   UNL A   1      41.606  30.807  36.595  1.00  0.00     0.031 C 
ATOM     62  C   UNL A   1      39.635  31.504  35.262  1.00  0.00     0.037 A 
BRANCH  49  63
ATOM     63  C   UNL A   1      37.159  31.166  29.616  1.00  0.00     0.064 A 
ATOM     64  C   UNL A   1      37.051  32.475  29.126  1.00  0.00     0.173 A 
ATOM     65  C   UNL A   1      36.204  30.226  29.203  1.00  0.00     0.173 A 
ATOM     66  F   UNL A   1      37.932  33.413  29.506  1.00  0.00    -0.203 F 
ATOM     67  C   UNL A   1      36.009  32.837  28.277  1.00  0.00     0.198 A 
ATOM     68  C   UNL A   1      35.178  30.586  28.333  1.00  0.00     0.198 A 
ATOM     69  F   UNL A   1      36.264  28.960  29.642  1.00  0.00    -0.203 F 
ATOM     70  F   UNL A   1      35.898  34.106  27.858  1.00  0.00    -0.200 F 
ATOM     71  C   UNL A   1      35.077  31.891  27.877  1.00  0.00     0.200 A 
ATOM     72  F   UNL A   1      34.281  29.669  27.941  1.00  0.00    -0.200 F 
ATOM     73  F   UNL A   1      34.075  32.242  27.059  1.00  0.00    -0.200 F 
ENDBRANCH  49  63
BRANCH  50  74
ATOM     74  C   UNL A   1      44.822  28.386  35.344  1.00  0.00     0.064 A 
ATOM     75  C   UNL A   1      44.779  27.218  36.119  1.00  0.00     0.173 A 
ATOM     76  C   UNL A   1      45.975  29.182  35.423  1.00  0.00     0.173 A 
ATOM     77  F   UNL A   1      43.685  26.445  36.103  1.00  0.00    -0.203 F 
ATOM     78  C   UNL A   1      45.843  26.867  36.947  1.00  0.00     0.198 A 
ATOM     79  C   UNL A   1      47.046  28.816  36.235  1.00  0.00     0.198 A 
ATOM     80  F   UNL A   1      46.058  30.315  34.711  1.00  0.00    -0.203 F 
ATOM     81  F   UNL A   1      45.759  25.768  37.711  1.00  0.00    -0.200 F 
ATOM     82  C   UNL A   1      46.977  27.662  37.001  1.00  0.00     0.200 A 
ATOM     83  F   UNL A   1      48.141  29.588  36.284  1.00  0.00    -0.200 F 
ATOM     84  F   UNL A   1      47.998  27.326  37.801  1.00  0.00    -0.200 F 
ENDBRANCH  50  74
BRANCH  62  85
ATOM     85  C   UNL A   1      39.112  32.215  36.476  1.00  0.00     0.064 A 
ATOM     86  C   UNL A   1      39.537  33.509  36.809  1.00  0.00     0.173 A 
ATOM     87  C   UNL A   1      38.136  31.614  37.285  1.00  0.00     0.173 A 
ATOM     88  F   UNL A   1      40.478  34.121  36.074  1.00  0.00    -0.203 F 
ATOM     89  C   UNL A   1      39.018  34.168  37.922  1.00  0.00     0.198 A 
ATOM     90  C   UNL A   1      37.602  32.285  38.382  1.00  0.00     0.198 A 
ATOM     91  F   UNL A   1      37.691  30.380  37.004  1.00  0.00    -0.203 F 
ATOM     92  F   UNL A   1      39.466  35.390  38.244  1.00  0.00    -0.200 F 
ATOM     93  C   UNL A   1      38.047  33.559  38.702  1.00  0.00     0.200 A 
ATOM     94  F   UNL A   1      36.655  31.700  39.127  1.00  0.00    -0.200 F 
ATOM     95  F   UNL A   1      37.542  34.198  39.767  1.00  0.00    -0.200 F 
ENDBRANCH  62  85
ENDBRANCH  36  37
ENDBRANCH  29  31
ENDBRANCH  28  29
ENDBRANCH  27  28
ENDBRANCH  26  27
ENDBRANCH  25  26
ENDBRANCH  24  25
ENDBRANCH   1  24
TORSDOF 21
ENDMDL
