MODEL 1
REMARK VINA RESULT:     -11.7      0.000      0.000
REMARK SMILES Cc1ccccc1Nc1nc2c(c(=O)[nH]c(=O)n2C)n1CC(=O)OCCOCCOCCOC(=O)c1ccc(-c2c3nc(c(-c4c(F)c(F)c(F)c(F)c4F)c4ccc([nH]4)c(-c4c(F)c(F)c(F)c(F)c4F)c4nc(c(-c5c(F)c(F)c(F)c(F)c5F)c5ccc2[nH]5)C=C4)C=C3)cc1
REMARK SMILES IDX 28 1 27 2 26 3 25 4 24 5 22 6 23 7 21 8 20 9 9 10 10 11
REMARK SMILES IDX 11 12 12 13 18 14 13 15 16 16 19 17 14 18 15 19 17 20 8 22
REMARK SMILES IDX 7 24 1 25 2 26 3 27 4 28 6 29 5 30 29 31 30 32 31 33 32 34
REMARK SMILES IDX 33 35 34 36 35 37 36 38 37 39 98 40 38 41 97 42 39 43 40 44
REMARK SMILES IDX 41 45 91 46 42 47 96 48 90 49 92 50 43 51 95 52 89 53 88 54
REMARK SMILES IDX 44 56 76 57 56 58 75 59 57 60 60 61 74 62 93 63 58 64 59 65
REMARK SMILES IDX 73 67 94 68 61 69 45 70 46 71 54 72 47 73 48 74 52 75 55 76
REMARK SMILES IDX 49 77 50 78 53 79 51 80 77 81 78 82 86 83 79 84 80 85 84 86
REMARK SMILES IDX 87 87 81 88 82 89 85 90 83 91 62 92 63 93 71 94 64 95 65 96
REMARK SMILES IDX 69 97 72 98 66 99 67 100 70 101 68 102
REMARK H PARENT 15 21 8 23 92 55 60 66
REMARK Flexibility Score: inf
ROOT
ATOM      1  C   UNL A   1      35.202  22.875  26.501  1.00  0.00     0.188 C 
ENDROOT
BRANCH   1   2
ATOM      2  O   UNL A   1      33.884  22.395  26.502  1.00  0.00    -0.376 OA
BRANCH   2   3
ATOM      3  C   UNL A   1      33.054  23.121  25.608  1.00  0.00     0.202 C 
BRANCH   3   4
ATOM      4  C   UNL A   1      31.596  23.446  26.030  1.00  0.00     0.261 C 
BRANCH   4   5
ATOM      5  O   UNL A   1      31.353  24.706  26.767  1.00  0.00    -0.462 OA
BRANCH   5   6
ATOM      6  C   UNL A   1      30.787  25.704  26.019  1.00  0.00     0.326 C 
ATOM      7  O   UNL A   1      30.190  25.403  24.990  1.00  0.00    -0.250 OA
BRANCH   6   8
ATOM      8  C   UNL A   1      30.965  27.196  26.457  1.00  0.00     0.248 C 
BRANCH   8   9
ATOM      9  N   UNL A   1      31.384  28.555  25.741  1.00  0.00    -0.293 N 
ATOM     10  C   UNL A   1      32.651  29.449  25.954  1.00  0.00     0.210 A 
ATOM     11  N   UNL A   1      33.327  28.974  24.814  1.00  0.00    -0.194 NA
ATOM     12  C   UNL A   1      32.423  28.475  23.917  1.00  0.00     0.170 A 
ATOM     13  C   UNL A   1      31.157  28.674  24.354  1.00  0.00     0.154 A 
ATOM     14  N   UNL A   1      32.648  27.716  22.780  1.00  0.00    -0.279 N 
ATOM     15  C   UNL A   1      30.046  28.409  23.501  1.00  0.00     0.279 A 
ATOM     16  C   UNL A   1      31.562  27.089  22.158  1.00  0.00     0.329 A 
ATOM     17  C   UNL A   1      33.983  27.391  22.348  1.00  0.00     0.157 C 
ATOM     18  O   UNL A   1      28.972  28.999  23.490  1.00  0.00    -0.267 OA
ATOM     19  N   UNL A   1      30.308  27.450  22.575  1.00  0.00    -0.272 N 
ATOM     20  O   UNL A   1      31.654  26.236  21.276  1.00  0.00    -0.248 OA
ATOM     21  H   UNL A   1      29.541  26.981  22.174  1.00  0.00     0.175 HD
BRANCH  10  22
ATOM     22  N   UNL A   1      33.170  30.621  27.412  1.00  0.00    -0.325 N 
ATOM     23  H   UNL A   1      32.337  30.963  27.809  1.00  0.00     0.170 HD
BRANCH  22  24
ATOM     24  C   UNL A   1      34.428  31.295  28.277  1.00  0.00     0.044 A 
ATOM     25  C   UNL A   1      36.406  29.752  28.385  1.00  0.00     0.046 C 
ATOM     26  C   UNL A   1      35.777  31.070  27.991  1.00  0.00    -0.027 A 
ATOM     27  C   UNL A   1      36.712  32.169  28.052  1.00  0.00     0.005 A 
ATOM     28  C   UNL A   1      36.351  33.470  28.386  1.00  0.00     0.000 A 
ATOM     29  C   UNL A   1      34.253  32.507  28.929  1.00  0.00     0.026 A 
ATOM     30  C   UNL A   1      35.114  33.619  28.936  1.00  0.00     0.002 A 
ENDBRANCH  22  24
ENDBRANCH  10  22
ENDBRANCH   8   9
ENDBRANCH   6   8
ENDBRANCH   5   6
ENDBRANCH   4   5
ENDBRANCH   3   4
ENDBRANCH   2   3
ENDBRANCH   1   2
BRANCH   1  31
ATOM     31  C   UNL A   1      36.023  22.592  25.205  1.00  0.00     0.188 C 
BRANCH  31  32
ATOM     32  O   UNL A   1      37.449  22.496  25.125  1.00  0.00    -0.376 OA
BRANCH  32  33
ATOM     33  C   UNL A   1      38.017  21.127  25.120  1.00  0.00     0.202 C 
BRANCH  33  34
ATOM     34  C   UNL A   1      39.193  20.535  26.104  1.00  0.00     0.261 C 
BRANCH  34  35
ATOM     35  O   UNL A   1      40.608  20.293  25.576  1.00  0.00    -0.460 OA
BRANCH  35  36
ATOM     36  C   UNL A   1      41.872  20.559  26.123  1.00  0.00     0.338 C 
ATOM     37  O   UNL A   1      42.649  19.711  26.535  1.00  0.00    -0.246 OA
BRANCH  36  38
ATOM     38  C   UNL A   1      42.273  21.983  25.958  1.00  0.00     0.060 A 
ATOM     39  C   UNL A   1      43.399  22.916  24.802  1.00  0.00     0.016 A 
ATOM     40  C   UNL A   1      41.516  22.906  27.326  1.00  0.00     0.016 A 
ATOM     41  C   UNL A   1      43.716  24.738  25.059  1.00  0.00     0.010 A 
ATOM     42  C   UNL A   1      41.998  24.616  27.672  1.00  0.00     0.010 A 
ATOM     43  C   UNL A   1      43.029  25.606  26.528  1.00  0.00    -0.014 A 
BRANCH  43  44
ATOM     44  C   UNL A   1      43.091  27.039  27.097  1.00  0.00     0.031 A 
ATOM     45  C   UNL A   1      41.969  28.124  27.475  1.00  0.00     0.074 A 
ATOM     46  C   UNL A   1      44.189  27.013  27.901  1.00  0.00     0.049 A 
ATOM     47  N   UNL A   1      42.199  29.200  28.198  1.00  0.00    -0.248 NA
ATOM     48  C   UNL A   1      40.530  28.176  27.145  1.00  0.00     0.031 C 
ATOM     49  C   UNL A   1      44.386  27.604  29.222  1.00  0.00     0.029 A 
ATOM     50  N   UNL A   1      45.406  26.326  27.669  1.00  0.00    -0.354 N 
ATOM     51  C   UNL A   1      40.967  29.681  28.693  1.00  0.00     0.074 A 
ATOM     52  C   UNL A   1      39.982  29.192  27.816  1.00  0.00     0.031 C 
ATOM     53  C   UNL A   1      45.680  27.479  29.568  1.00  0.00     0.029 A 
ATOM     54  C   UNL A   1      46.397  27.023  28.394  1.00  0.00     0.049 A 
ATOM     55  H   UNL A   1      45.535  25.523  27.113  1.00  0.00     0.167 HD
ATOM     56  C   UNL A   1      40.837  30.252  29.931  1.00  0.00     0.037 A 
ATOM     57  C   UNL A   1      47.320  27.771  27.714  1.00  0.00     0.037 A 
ATOM     58  C   UNL A   1      42.141  30.634  30.398  1.00  0.00     0.049 A 
ATOM     59  C   UNL A   1      47.179  29.271  27.933  1.00  0.00     0.074 A 
ATOM     60  C   UNL A   1      43.000  30.252  31.401  1.00  0.00     0.029 A 
ATOM     61  N   UNL A   1      42.865  31.413  29.526  1.00  0.00    -0.354 N 
ATOM     62  N   UNL A   1      46.358  29.838  28.776  1.00  0.00    -0.248 NA
ATOM     63  C   UNL A   1      47.904  30.258  27.130  1.00  0.00     0.031 C 
ATOM     64  C   UNL A   1      44.313  30.650  30.977  1.00  0.00     0.029 A 
ATOM     65  C   UNL A   1      44.211  31.328  29.768  1.00  0.00     0.049 A 
ATOM     66  H   UNL A   1      42.465  31.963  28.814  1.00  0.00     0.167 HD
ATOM     67  C   UNL A   1      46.196  31.150  28.410  1.00  0.00     0.074 A 
ATOM     68  C   UNL A   1      47.290  31.395  27.494  1.00  0.00     0.031 C 
ATOM     69  C   UNL A   1      45.095  31.887  28.747  1.00  0.00     0.037 A 
BRANCH  56  70
ATOM     70  C   UNL A   1      39.578  30.404  30.785  1.00  0.00     0.064 A 
ATOM     71  C   UNL A   1      39.070  29.287  31.491  1.00  0.00     0.173 A 
ATOM     72  C   UNL A   1      38.752  31.551  30.845  1.00  0.00     0.173 A 
ATOM     73  F   UNL A   1      39.739  28.126  31.508  1.00  0.00    -0.203 F 
ATOM     74  C   UNL A   1      37.853  29.312  32.191  1.00  0.00     0.198 A 
ATOM     75  C   UNL A   1      37.557  31.589  31.588  1.00  0.00     0.198 A 
ATOM     76  F   UNL A   1      39.030  32.659  30.145  1.00  0.00    -0.203 F 
ATOM     77  F   UNL A   1      37.402  28.201  32.792  1.00  0.00    -0.200 F 
ATOM     78  C   UNL A   1      37.102  30.468  32.252  1.00  0.00     0.200 A 
ATOM     79  F   UNL A   1      36.829  32.718  31.627  1.00  0.00    -0.200 F 
ATOM     80  F   UNL A   1      35.943  30.496  32.925  1.00  0.00    -0.200 F 
ENDBRANCH  56  70
BRANCH  57  81
ATOM     81  C   UNL A   1      47.690  27.134  26.411  1.00  0.00     0.064 A 
ATOM     82  C   UNL A   1      47.092  27.603  25.228  1.00  0.00     0.173 A 
ATOM     83  C   UNL A   1      48.901  26.430  26.286  1.00  0.00     0.173 A 
ATOM     84  F   UNL A   1      45.945  28.298  25.282  1.00  0.00    -0.203 F 
ATOM     85  C   UNL A   1      47.723  27.453  23.993  1.00  0.00     0.198 A 
ATOM     86  C   UNL A   1      49.564  26.355  25.060  1.00  0.00     0.198 A 
ATOM     87  F   UNL A   1      49.510  25.939  27.374  1.00  0.00    -0.203 F 
ATOM     88  F   UNL A   1      47.142  27.927  22.882  1.00  0.00    -0.200 F 
ATOM     89  C   UNL A   1      48.989  26.894  23.921  1.00  0.00     0.200 A 
ATOM     90  F   UNL A   1      50.796  25.830  24.994  1.00  0.00    -0.200 F 
ATOM     91  F   UNL A   1      49.672  26.913  22.768  1.00  0.00    -0.200 F 
ENDBRANCH  57  81
BRANCH  69  92
ATOM     92  C   UNL A   1      44.687  33.166  28.013  1.00  0.00     0.064 A 
ATOM     93  C   UNL A   1      44.162  33.190  26.708  1.00  0.00     0.173 A 
ATOM     94  C   UNL A   1      44.672  34.419  28.677  1.00  0.00     0.173 A 
ATOM     95  F   UNL A   1      43.895  32.061  26.037  1.00  0.00    -0.203 F 
ATOM     96  C   UNL A   1      43.824  34.381  26.060  1.00  0.00     0.198 A 
ATOM     97  C   UNL A   1      44.219  35.590  28.068  1.00  0.00     0.198 A 
ATOM     98  F   UNL A   1      45.052  34.537  29.959  1.00  0.00    -0.203 F 
ATOM     99  F   UNL A   1      43.453  34.352  24.773  1.00  0.00    -0.200 F 
ATOM    100  C   UNL A   1      43.850  35.581  26.741  1.00  0.00     0.200 A 
ATOM    101  F   UNL A   1      44.129  36.722  28.781  1.00  0.00    -0.200 F 
ATOM    102  F   UNL A   1      43.500  36.719  26.126  1.00  0.00    -0.200 F 
ENDBRANCH  69  92
ENDBRANCH  43  44
ENDBRANCH  36  38
ENDBRANCH  35  36
ENDBRANCH  34  35
ENDBRANCH  33  34
ENDBRANCH  32  33
ENDBRANCH  31  32
ENDBRANCH   1  31
TORSDOF 20
ENDMDL
MODEL 2
REMARK VINA RESULT:     -11.5      1.136      2.288
REMARK SMILES Cc1ccccc1Nc1nc2c(c(=O)[nH]c(=O)n2C)n1CC(=O)OCCOCCOCCOC(=O)c1ccc(-c2c3nc(c(-c4c(F)c(F)c(F)c(F)c4F)c4ccc([nH]4)c(-c4c(F)c(F)c(F)c(F)c4F)c4nc(c(-c5c(F)c(F)c(F)c(F)c5F)c5ccc2[nH]5)C=C4)C=C3)cc1
REMARK SMILES IDX 28 1 27 2 26 3 25 4 24 5 22 6 23 7 21 8 20 9 9 10 10 11
REMARK SMILES IDX 11 12 12 13 18 14 13 15 16 16 19 17 14 18 15 19 17 20 8 22
REMARK SMILES IDX 7 24 1 25 2 26 3 27 4 28 6 29 5 30 29 31 30 32 31 33 32 34
REMARK SMILES IDX 33 35 34 36 35 37 36 38 37 39 98 40 38 41 97 42 39 43 40 44
REMARK SMILES IDX 41 45 91 46 42 47 96 48 90 49 92 50 43 51 95 52 89 53 88 54
REMARK SMILES IDX 44 56 76 57 56 58 75 59 57 60 60 61 74 62 93 63 58 64 59 65
REMARK SMILES IDX 73 67 94 68 61 69 45 70 46 71 54 72 47 73 48 74 52 75 55 76
REMARK SMILES IDX 49 77 50 78 53 79 51 80 77 81 78 82 86 83 79 84 80 85 84 86
REMARK SMILES IDX 87 87 81 88 82 89 85 90 83 91 62 92 63 93 71 94 64 95 65 96
REMARK SMILES IDX 69 97 72 98 66 99 67 100 70 101 68 102
REMARK H PARENT 15 21 8 23 92 55 60 66
REMARK Flexibility Score: inf
ROOT
ATOM      1  C   UNL A   1      34.128  20.953  24.938  1.00  0.00     0.188 C 
ENDROOT
BRANCH   1   2
ATOM      2  O   UNL A   1      33.220  21.801  24.286  1.00  0.00    -0.376 OA
BRANCH   2   3
ATOM      3  C   UNL A   1      33.872  22.678  23.380  1.00  0.00     0.202 C 
BRANCH   3   4
ATOM      4  C   UNL A   1      33.011  23.611  22.485  1.00  0.00     0.261 C 
BRANCH   4   5
ATOM      5  O   UNL A   1      32.556  24.895  23.063  1.00  0.00    -0.462 OA
BRANCH   5   6
ATOM      6  C   UNL A   1      33.496  25.891  23.050  1.00  0.00     0.326 C 
ATOM      7  O   UNL A   1      34.030  26.183  21.985  1.00  0.00    -0.250 OA
BRANCH   6   8
ATOM      8  C   UNL A   1      33.908  26.585  24.390  1.00  0.00     0.248 C 
BRANCH   8   9
ATOM      9  N   UNL A   1      33.180  27.488  25.481  1.00  0.00    -0.293 N 
ATOM     10  C   UNL A   1      33.407  28.992  25.849  1.00  0.00     0.210 A 
ATOM     11  N   UNL A   1      32.291  29.462  25.129  1.00  0.00    -0.194 NA
ATOM     12  C   UNL A   1      31.381  28.453  24.978  1.00  0.00     0.170 A 
ATOM     13  C   UNL A   1      31.785  27.343  25.642  1.00  0.00     0.154 A 
ATOM     14  N   UNL A   1      30.263  28.398  24.162  1.00  0.00    -0.279 N 
ATOM     15  C   UNL A   1      30.911  26.227  25.785  1.00  0.00     0.279 A 
ATOM     16  C   UNL A   1      29.627  27.168  23.966  1.00  0.00     0.329 A 
ATOM     17  C   UNL A   1      29.868  29.525  23.357  1.00  0.00     0.157 C 
ATOM     18  O   UNL A   1      30.864  25.447  26.729  1.00  0.00    -0.267 OA
ATOM     19  N   UNL A   1      30.007  26.130  24.775  1.00  0.00    -0.272 N 
ATOM     20  O   UNL A   1      28.761  26.951  23.119  1.00  0.00    -0.248 OA
ATOM     21  H   UNL A   1      29.596  25.250  24.613  1.00  0.00     0.175 HD
BRANCH  10  22
ATOM     22  N   UNL A   1      34.856  29.885  26.781  1.00  0.00    -0.325 N 
ATOM     23  H   UNL A   1      35.663  29.341  26.635  1.00  0.00     0.170 HD
BRANCH  22  24
ATOM     24  C   UNL A   1      35.316  31.183  27.724  1.00  0.00     0.044 A 
ATOM     25  C   UNL A   1      33.548  32.964  27.771  1.00  0.00     0.046 C 
ATOM     26  C   UNL A   1      34.424  31.953  28.474  1.00  0.00    -0.027 A 
ATOM     27  C   UNL A   1      34.790  32.372  29.808  1.00  0.00     0.005 A 
ATOM     28  C   UNL A   1      36.003  32.053  30.410  1.00  0.00     0.000 A 
ATOM     29  C   UNL A   1      36.593  31.231  28.266  1.00  0.00     0.026 A 
ATOM     30  C   UNL A   1      36.964  31.559  29.581  1.00  0.00     0.002 A 
ENDBRANCH  22  24
ENDBRANCH  10  22
ENDBRANCH   8   9
ENDBRANCH   6   8
ENDBRANCH   5   6
ENDBRANCH   4   5
ENDBRANCH   3   4
ENDBRANCH   2   3
ENDBRANCH   1   2
BRANCH   1  31
ATOM     31  C   UNL A   1      35.637  21.296  24.738  1.00  0.00     0.188 C 
BRANCH  31  32
ATOM     32  O   UNL A   1      36.641  21.268  25.758  1.00  0.00    -0.376 OA
BRANCH  32  33
ATOM     33  C   UNL A   1      38.047  21.203  25.294  1.00  0.00     0.202 C 
BRANCH  33  34
ATOM     34  C   UNL A   1      39.195  20.118  25.750  1.00  0.00     0.261 C 
BRANCH  34  35
ATOM     35  O   UNL A   1      40.681  20.414  25.540  1.00  0.00    -0.460 OA
BRANCH  35  36
ATOM     36  C   UNL A   1      41.697  20.792  26.430  1.00  0.00     0.338 C 
ATOM     37  O   UNL A   1      42.308  20.026  27.161  1.00  0.00    -0.246 OA
BRANCH  36  38
ATOM     38  C   UNL A   1      42.116  22.208  26.246  1.00  0.00     0.060 A 
ATOM     39  C   UNL A   1      43.193  23.124  25.031  1.00  0.00     0.016 A 
ATOM     40  C   UNL A   1      41.455  23.141  27.657  1.00  0.00     0.016 A 
ATOM     41  C   UNL A   1      43.559  24.938  25.274  1.00  0.00     0.010 A 
ATOM     42  C   UNL A   1      41.989  24.840  27.979  1.00  0.00     0.010 A 
ATOM     43  C   UNL A   1      42.973  25.814  26.782  1.00  0.00    -0.014 A 
BRANCH  43  44
ATOM     44  C   UNL A   1      43.094  27.243  27.350  1.00  0.00     0.031 A 
ATOM     45  C   UNL A   1      42.018  28.331  27.835  1.00  0.00     0.074 A 
ATOM     46  C   UNL A   1      44.263  27.208  28.047  1.00  0.00     0.049 A 
ATOM     47  N   UNL A   1      42.319  29.402  28.539  1.00  0.00    -0.248 NA
ATOM     48  C   UNL A   1      40.555  28.391  27.642  1.00  0.00     0.031 C 
ATOM     49  C   UNL A   1      44.585  27.791  29.347  1.00  0.00     0.029 A 
ATOM     50  N   UNL A   1      45.450  26.517  27.700  1.00  0.00    -0.354 N 
ATOM     51  C   UNL A   1      41.141  29.887  29.150  1.00  0.00     0.074 A 
ATOM     52  C   UNL A   1      40.076  29.406  28.366  1.00  0.00     0.031 C 
ATOM     53  C   UNL A   1      45.904  27.659  29.571  1.00  0.00     0.029 A 
ATOM     54  C   UNL A   1      46.507  27.206  28.332  1.00  0.00     0.049 A 
ATOM     55  H   UNL A   1      45.522  25.717  27.130  1.00  0.00     0.167 HD
ATOM     56  C   UNL A   1      41.130  30.451  30.397  1.00  0.00     0.037 A 
ATOM     57  C   UNL A   1      47.366  27.954  27.573  1.00  0.00     0.037 A 
ATOM     58  C   UNL A   1      42.474  30.825  30.743  1.00  0.00     0.049 A 
ATOM     59  C   UNL A   1      47.254  29.453  27.812  1.00  0.00     0.074 A 
ATOM     60  C   UNL A   1      43.420  30.433  31.659  1.00  0.00     0.029 A 
ATOM     61  N   UNL A   1      43.117  31.605  29.811  1.00  0.00    -0.354 N 
ATOM     62  N   UNL A   1      46.517  30.019  28.731  1.00  0.00    -0.248 NA
ATOM     63  C   UNL A   1      47.906  30.441  26.951  1.00  0.00     0.031 C 
ATOM     64  C   UNL A   1      44.690  30.828  31.117  1.00  0.00     0.029 A 
ATOM     65  C   UNL A   1      44.480  31.513  29.926  1.00  0.00     0.049 A 
ATOM     66  H   UNL A   1      42.655  32.161  29.142  1.00  0.00     0.167 HD
ATOM     67  C   UNL A   1      46.329  31.334  28.388  1.00  0.00     0.074 A 
ATOM     68  C   UNL A   1      47.333  31.579  27.375  1.00  0.00     0.031 C 
ATOM     69  C   UNL A   1      45.267  32.074  28.830  1.00  0.00     0.037 A 
BRANCH  56  70
ATOM     70  C   UNL A   1      39.957  30.603  31.365  1.00  0.00     0.064 A 
ATOM     71  C   UNL A   1      39.684  31.865  31.946  1.00  0.00     0.173 A 
ATOM     72  C   UNL A   1      39.160  29.549  31.872  1.00  0.00     0.173 A 
ATOM     73  F   UNL A   1      40.373  32.953  31.574  1.00  0.00    -0.203 F 
ATOM     74  C   UNL A   1      38.709  32.057  32.938  1.00  0.00     0.198 A 
ATOM     75  C   UNL A   1      38.149  29.753  32.830  1.00  0.00     0.198 A 
ATOM     76  F   UNL A   1      39.361  28.275  31.510  1.00  0.00    -0.203 F 
ATOM     77  F   UNL A   1      38.541  33.269  33.487  1.00  0.00    -0.200 F 
ATOM     78  C   UNL A   1      37.931  31.003  33.371  1.00  0.00     0.200 A 
ATOM     79  F   UNL A   1      37.408  28.715  33.252  1.00  0.00    -0.200 F 
ATOM     80  F   UNL A   1      36.995  31.186  34.313  1.00  0.00    -0.200 F 
ENDBRANCH  56  70
BRANCH  57  81
ATOM     81  C   UNL A   1      47.610  27.323  26.238  1.00  0.00     0.064 A 
ATOM     82  C   UNL A   1      46.921  27.813  25.116  1.00  0.00     0.173 A 
ATOM     83  C   UNL A   1      48.792  26.598  26.004  1.00  0.00     0.173 A 
ATOM     84  F   UNL A   1      45.797  28.529  25.274  1.00  0.00    -0.203 F 
ATOM     85  C   UNL A   1      47.441  27.663  23.829  1.00  0.00     0.198 A 
ATOM     86  C   UNL A   1      49.346  26.522  24.724  1.00  0.00     0.198 A 
ATOM     87  F   UNL A   1      49.483  26.086  27.031  1.00  0.00    -0.203 F 
ATOM     88  F   UNL A   1      46.775  28.158  22.776  1.00  0.00    -0.200 F 
ATOM     89  C   UNL A   1      48.685  27.082  23.644  1.00  0.00     0.200 A 
ATOM     90  F   UNL A   1      50.556  25.974  24.548  1.00  0.00    -0.200 F 
ATOM     91  F   UNL A   1      49.265  27.100  22.436  1.00  0.00    -0.200 F 
ENDBRANCH  57  81
BRANCH  69  92
ATOM     92  C   UNL A   1      44.799  33.359  28.144  1.00  0.00     0.064 A 
ATOM     93  C   UNL A   1      45.086  34.652  28.619  1.00  0.00     0.173 A 
ATOM     94  C   UNL A   1      44.164  33.324  26.877  1.00  0.00     0.173 A 
ATOM     95  F   UNL A   1      45.879  34.851  29.680  1.00  0.00    -0.203 F 
ATOM     96  C   UNL A   1      44.620  35.803  27.979  1.00  0.00     0.198 A 
ATOM     97  C   UNL A   1      43.808  34.479  26.180  1.00  0.00     0.198 A 
ATOM     98  F   UNL A   1      43.914  32.163  26.251  1.00  0.00    -0.203 F 
ATOM     99  F   UNL A   1      44.813  37.001  28.548  1.00  0.00    -0.200 F 
ATOM    100  C   UNL A   1      43.983  35.717  26.757  1.00  0.00     0.200 A 
ATOM    101  F   UNL A   1      43.307  34.383  24.940  1.00  0.00    -0.200 F 
ATOM    102  F   UNL A   1      43.561  36.824  26.132  1.00  0.00    -0.200 F 
ENDBRANCH  69  92
ENDBRANCH  43  44
ENDBRANCH  36  38
ENDBRANCH  35  36
ENDBRANCH  34  35
ENDBRANCH  33  34
ENDBRANCH  32  33
ENDBRANCH  31  32
ENDBRANCH   1  31
TORSDOF 20
ENDMDL
MODEL 3
REMARK VINA RESULT:     -11.5      2.553      5.743
REMARK SMILES Cc1ccccc1Nc1nc2c(c(=O)[nH]c(=O)n2C)n1CC(=O)OCCOCCOCCOC(=O)c1ccc(-c2c3nc(c(-c4c(F)c(F)c(F)c(F)c4F)c4ccc([nH]4)c(-c4c(F)c(F)c(F)c(F)c4F)c4nc(c(-c5c(F)c(F)c(F)c(F)c5F)c5ccc2[nH]5)C=C4)C=C3)cc1
REMARK SMILES IDX 28 1 27 2 26 3 25 4 24 5 22 6 23 7 21 8 20 9 9 10 10 11
REMARK SMILES IDX 11 12 12 13 18 14 13 15 16 16 19 17 14 18 15 19 17 20 8 22
REMARK SMILES IDX 7 24 1 25 2 26 3 27 4 28 6 29 5 30 29 31 30 32 31 33 32 34
REMARK SMILES IDX 33 35 34 36 35 37 36 38 37 39 98 40 38 41 97 42 39 43 40 44
REMARK SMILES IDX 41 45 91 46 42 47 96 48 90 49 92 50 43 51 95 52 89 53 88 54
REMARK SMILES IDX 44 56 76 57 56 58 75 59 57 60 60 61 74 62 93 63 58 64 59 65
REMARK SMILES IDX 73 67 94 68 61 69 45 70 46 71 54 72 47 73 48 74 52 75 55 76
REMARK SMILES IDX 49 77 50 78 53 79 51 80 77 81 78 82 86 83 79 84 80 85 84 86
REMARK SMILES IDX 87 87 81 88 82 89 85 90 83 91 62 92 63 93 71 94 64 95 65 96
REMARK SMILES IDX 69 97 72 98 66 99 67 100 70 101 68 102
REMARK H PARENT 15 21 8 23 92 55 60 66
REMARK Flexibility Score: inf
ROOT
ATOM      1  C   UNL A   1      40.817  20.948  27.534  1.00  0.00     0.188 C 
ENDROOT
BRANCH   1   2
ATOM      2  O   UNL A   1      40.600  21.617  26.320  1.00  0.00    -0.376 OA
BRANCH   2   3
ATOM      3  C   UNL A   1      39.320  22.227  26.272  1.00  0.00     0.202 C 
BRANCH   3   4
ATOM      4  C   UNL A   1      38.212  21.585  25.393  1.00  0.00     0.261 C 
BRANCH   4   5
ATOM      5  O   UNL A   1      36.802  21.877  25.735  1.00  0.00    -0.462 OA
BRANCH   5   6
ATOM      6  C   UNL A   1      36.265  22.947  25.070  1.00  0.00     0.326 C 
ATOM      7  O   UNL A   1      37.012  23.681  24.432  1.00  0.00    -0.250 OA
BRANCH   6   8
ATOM      8  C   UNL A   1      34.732  23.241  25.188  1.00  0.00     0.248 C 
BRANCH   8   9
ATOM      9  N   UNL A   1      33.403  22.663  24.529  1.00  0.00    -0.293 N 
ATOM     10  C   UNL A   1      32.353  21.657  25.109  1.00  0.00     0.210 A 
ATOM     11  N   UNL A   1      31.413  22.648  25.452  1.00  0.00    -0.194 NA
ATOM     12  C   UNL A   1      31.619  23.763  24.687  1.00  0.00     0.170 A 
ATOM     13  C   UNL A   1      32.597  23.544  23.776  1.00  0.00     0.154 A 
ATOM     14  N   UNL A   1      31.089  25.035  24.835  1.00  0.00    -0.279 N 
ATOM     15  C   UNL A   1      32.855  24.496  22.747  1.00  0.00     0.279 A 
ATOM     16  C   UNL A   1      31.642  26.089  24.101  1.00  0.00     0.329 A 
ATOM     17  C   UNL A   1      30.127  25.330  25.866  1.00  0.00     0.157 C 
ATOM     18  O   UNL A   1      33.250  24.260  21.611  1.00  0.00    -0.267 OA
ATOM     19  N   UNL A   1      32.526  25.764  23.106  1.00  0.00    -0.272 N 
ATOM     20  O   UNL A   1      31.399  27.281  24.290  1.00  0.00    -0.248 OA
ATOM     21  H   UNL A   1      32.954  26.503  22.615  1.00  0.00     0.175 HD
BRANCH  10  22
ATOM     22  N   UNL A   1      32.445  19.746  25.435  1.00  0.00    -0.325 N 
ATOM     23  H   UNL A   1      32.412  19.625  26.410  1.00  0.00     0.170 HD
BRANCH  22  24
ATOM     24  C   UNL A   1      32.556  18.222  24.764  1.00  0.00     0.044 A 
ATOM     25  C   UNL A   1      32.151  18.272  22.286  1.00  0.00     0.046 C 
ATOM     26  C   UNL A   1      33.036  17.973  23.475  1.00  0.00    -0.027 A 
ATOM     27  C   UNL A   1      33.909  16.846  23.246  1.00  0.00     0.005 A 
ATOM     28  C   UNL A   1      34.314  15.968  24.246  1.00  0.00     0.000 A 
ATOM     29  C   UNL A   1      32.724  17.113  25.581  1.00  0.00     0.026 A 
ATOM     30  C   UNL A   1      33.623  16.045  25.417  1.00  0.00     0.002 A 
ENDBRANCH  22  24
ENDBRANCH  10  22
ENDBRANCH   8   9
ENDBRANCH   6   8
ENDBRANCH   5   6
ENDBRANCH   4   5
ENDBRANCH   3   4
ENDBRANCH   2   3
ENDBRANCH   1   2
BRANCH   1  31
ATOM     31  C   UNL A   1      41.988  19.917  27.537  1.00  0.00     0.188 C 
BRANCH  31  32
ATOM     32  O   UNL A   1      42.068  18.743  26.722  1.00  0.00    -0.376 OA
BRANCH  32  33
ATOM     33  C   UNL A   1      43.321  18.563  25.949  1.00  0.00     0.202 C 
BRANCH  33  34
ATOM     34  C   UNL A   1      44.088  19.684  25.024  1.00  0.00     0.261 C 
BRANCH  34  35
ATOM     35  O   UNL A   1      43.554  21.114  24.922  1.00  0.00    -0.460 OA
BRANCH  35  36
ATOM     36  C   UNL A   1      44.164  22.318  24.538  1.00  0.00     0.338 C 
ATOM     37  O   UNL A   1      44.492  22.603  23.396  1.00  0.00    -0.246 OA
BRANCH  36  38
ATOM     38  C   UNL A   1      44.182  23.321  25.638  1.00  0.00     0.060 A 
ATOM     39  C   UNL A   1      44.046  23.253  27.496  1.00  0.00     0.016 A 
ATOM     40  C   UNL A   1      44.239  24.959  24.856  1.00  0.00     0.016 A 
ATOM     41  C   UNL A   1      43.980  24.828  28.496  1.00  0.00     0.010 A 
ATOM     42  C   UNL A   1      43.968  26.462  25.827  1.00  0.00     0.010 A 
ATOM     43  C   UNL A   1      43.914  26.463  27.657  1.00  0.00    -0.014 A 
BRANCH  43  44
ATOM     44  C   UNL A   1      43.819  27.936  28.107  1.00  0.00     0.031 A 
ATOM     45  C   UNL A   1      42.596  28.874  28.555  1.00  0.00     0.074 A 
ATOM     46  C   UNL A   1      44.999  28.146  28.754  1.00  0.00     0.049 A 
ATOM     47  N   UNL A   1      42.740  30.035  29.161  1.00  0.00    -0.248 NA
ATOM     48  C   UNL A   1      41.137  28.684  28.421  1.00  0.00     0.031 C 
ATOM     49  C   UNL A   1      45.262  28.878  29.989  1.00  0.00     0.029 A 
ATOM     50  N   UNL A   1      46.271  27.626  28.408  1.00  0.00    -0.354 N 
ATOM     51  C   UNL A   1      41.518  30.373  29.783  1.00  0.00     0.074 A 
ATOM     52  C   UNL A   1      40.522  29.666  29.086  1.00  0.00     0.031 C 
ATOM     53  C   UNL A   1      46.591  28.977  30.165  1.00  0.00     0.029 A 
ATOM     54  C   UNL A   1      47.221  28.525  28.939  1.00  0.00     0.049 A 
ATOM     55  H   UNL A   1      46.455  26.803  27.899  1.00  0.00     0.167 HD
ATOM     56  C   UNL A   1      41.454  31.030  30.983  1.00  0.00     0.037 A 
ATOM     57  C   UNL A   1      47.924  29.335  28.088  1.00  0.00     0.037 A 
ATOM     58  C   UNL A   1      42.730  31.641  31.240  1.00  0.00     0.049 A 
ATOM     59  C   UNL A   1      47.576  30.812  28.216  1.00  0.00     0.074 A 
ATOM     60  C   UNL A   1      43.755  31.482  32.141  1.00  0.00     0.029 A 
ATOM     61  N   UNL A   1      43.208  32.434  30.223  1.00  0.00    -0.354 N 
ATOM     62  N   UNL A   1      46.786  31.327  29.120  1.00  0.00    -0.248 NA
ATOM     63  C   UNL A   1      48.032  31.816  27.254  1.00  0.00     0.031 C 
ATOM     64  C   UNL A   1      44.926  32.028  31.515  1.00  0.00     0.029 A 
ATOM     65  C   UNL A   1      44.571  32.571  30.286  1.00  0.00     0.049 A 
ATOM     66  H   UNL A   1      42.642  32.852  29.535  1.00  0.00     0.167 HD
ATOM     67  C   UNL A   1      46.376  32.562  28.687  1.00  0.00     0.074 A 
ATOM     68  C   UNL A   1      47.296  32.879  27.615  1.00  0.00     0.031 C 
ATOM     69  C   UNL A   1      45.222  33.157  29.117  1.00  0.00     0.037 A 
BRANCH  56  70
ATOM     70  C   UNL A   1      40.303  31.073  31.987  1.00  0.00     0.064 A 
ATOM     71  C   UNL A   1      39.146  31.836  31.699  1.00  0.00     0.173 A 
ATOM     72  C   UNL A   1      40.319  30.518  33.289  1.00  0.00     0.173 A 
ATOM     73  F   UNL A   1      39.001  32.435  30.508  1.00  0.00    -0.203 F 
ATOM     74  C   UNL A   1      38.105  32.028  32.621  1.00  0.00     0.198 A 
ATOM     75  C   UNL A   1      39.252  30.671  34.194  1.00  0.00     0.198 A 
ATOM     76  F   UNL A   1      41.385  29.858  33.762  1.00  0.00    -0.203 F 
ATOM     77  F   UNL A   1      37.063  32.811  32.302  1.00  0.00    -0.200 F 
ATOM     78  C   UNL A   1      38.150  31.434  33.864  1.00  0.00     0.200 A 
ATOM     79  F   UNL A   1      39.316  30.097  35.407  1.00  0.00    -0.200 F 
ATOM     80  F   UNL A   1      37.154  31.611  34.744  1.00  0.00    -0.200 F 
ENDBRANCH  56  70
BRANCH  57  81
ATOM     81  C   UNL A   1      48.226  28.642  26.796  1.00  0.00     0.064 A 
ATOM     82  C   UNL A   1      49.209  27.638  26.775  1.00  0.00     0.173 A 
ATOM     83  C   UNL A   1      47.281  28.643  25.755  1.00  0.00     0.173 A 
ATOM     84  F   UNL A   1      50.128  27.572  27.750  1.00  0.00    -0.203 F 
ATOM     85  C   UNL A   1      49.188  26.630  25.809  1.00  0.00     0.198 A 
ATOM     86  C   UNL A   1      47.218  27.589  24.842  1.00  0.00     0.198 A 
ATOM     87  F   UNL A   1      46.331  29.587  25.708  1.00  0.00    -0.203 F 
ATOM     88  F   UNL A   1      50.124  25.671  25.822  1.00  0.00    -0.200 F 
ATOM     89  C   UNL A   1      48.153  26.567  24.890  1.00  0.00     0.200 A 
ATOM     90  F   UNL A   1      46.208  27.520  23.965  1.00  0.00    -0.200 F 
ATOM     91  F   UNL A   1      48.031  25.505  24.082  1.00  0.00    -0.200 F 
ENDBRANCH  57  81
BRANCH  69  92
ATOM     92  C   UNL A   1      44.531  34.290  28.355  1.00  0.00     0.064 A 
ATOM     93  C   UNL A   1      44.593  35.644  28.734  1.00  0.00     0.173 A 
ATOM     94  C   UNL A   1      43.898  34.055  27.108  1.00  0.00     0.173 A 
ATOM     95  F   UNL A   1      45.351  36.052  29.761  1.00  0.00    -0.203 F 
ATOM     96  C   UNL A   1      43.927  36.648  28.028  1.00  0.00     0.198 A 
ATOM     97  C   UNL A   1      43.339  35.079  26.342  1.00  0.00     0.198 A 
ATOM     98  F   UNL A   1      43.847  32.827  26.569  1.00  0.00    -0.203 F 
ATOM     99  F   UNL A   1      43.915  37.899  28.509  1.00  0.00    -0.200 F 
ATOM    100  C   UNL A   1      43.302  36.367  26.830  1.00  0.00     0.200 A 
ATOM    101  F   UNL A   1      42.850  34.810  25.123  1.00  0.00    -0.200 F 
ATOM    102  F   UNL A   1      42.688  37.336  26.140  1.00  0.00    -0.200 F 
ENDBRANCH  69  92
ENDBRANCH  43  44
ENDBRANCH  36  38
ENDBRANCH  35  36
ENDBRANCH  34  35
ENDBRANCH  33  34
ENDBRANCH  32  33
ENDBRANCH  31  32
ENDBRANCH   1  31
TORSDOF 20
ENDMDL
