MODEL 1
REMARK VINA RESULT:     -11.0      0.000      0.000
REMARK SMILES O=C(OCCOCCOCCOC(=O)[C@@H]1CCC[N@@H+](Cc2ccc(F)cc2Cl)C1)c1ccc(-c2c3nc(c(-c4c(F)c(F)c(F)c(F)c4F)c4ccc([nH]4)c(-c4c(F)c(F)c(F)c(F)c4F)c4nc(c(-c5c(F)c(F)c(F)c(F)c5F)c5ccc2[nH]5)C=C4)C=C3)cc1
REMARK SMILES IDX 7 1 6 2 5 3 4 4 3 5 2 6 1 7 30 8 31 9 92 10 32 11 91 12
REMARK SMILES IDX 33 13 34 14 35 15 85 16 36 17 90 18 84 19 86 20 37 21 89 22
REMARK SMILES IDX 83 23 82 24 38 26 70 27 50 28 69 29 51 30 54 31 68 32 87 33
REMARK SMILES IDX 52 34 53 35 67 37 88 38 55 39 39 40 40 41 48 42 41 43 42 44
REMARK SMILES IDX 46 45 49 46 43 47 44 48 47 49 45 50 71 51 72 52 80 53 73 54
REMARK SMILES IDX 74 55 78 56 81 57 75 58 76 59 79 60 77 61 56 62 57 63 65 64
REMARK SMILES IDX 58 65 59 66 63 67 66 68 60 69 61 70 64 71 62 72 8 73 9 74
REMARK SMILES IDX 10 75 11 76 12 77 13 78 14 79 15 80 16 81 29 82 17 83 19 84
REMARK SMILES IDX 18 85 20 87 21 88 22 89 27 90 23 91 26 92 28 93 24 94 25 95
REMARK H PARENT 86 25 54 36 19 86
REMARK Flexibility Score: inf
ROOT
ATOM      1  C   UNL A   1      32.694  29.842  25.717  1.00  0.00     0.188 C 
ENDROOT
BRANCH   1   2
ATOM      2  O   UNL A   1      32.655  30.685  26.871  1.00  0.00    -0.376 OA
BRANCH   2   3
ATOM      3  C   UNL A   1      31.599  31.652  26.857  1.00  0.00     0.202 C 
BRANCH   3   4
ATOM      4  C   UNL A   1      32.027  33.120  26.681  1.00  0.00     0.261 C 
BRANCH   4   5
ATOM      5  O   UNL A   1      32.207  33.843  27.912  1.00  0.00    -0.460 OA
BRANCH   5   6
ATOM      6  C   UNL A   1      33.339  34.361  28.447  1.00  0.00     0.338 C 
ATOM      7  O   UNL A   1      33.426  35.581  28.581  1.00  0.00    -0.246 OA
BRANCH   6   8
ATOM      8  C   UNL A   1      34.505  33.535  28.878  1.00  0.00     0.060 A 
ATOM      9  C   UNL A   1      34.412  32.258  29.423  1.00  0.00     0.016 A 
ATOM     10  C   UNL A   1      35.790  34.057  28.649  1.00  0.00     0.016 A 
ATOM     11  C   UNL A   1      35.533  31.553  29.830  1.00  0.00     0.010 A 
ATOM     12  C   UNL A   1      36.934  33.336  29.009  1.00  0.00     0.010 A 
ATOM     13  C   UNL A   1      36.798  32.095  29.639  1.00  0.00    -0.014 A 
BRANCH  13  14
ATOM     14  C   UNL A   1      37.932  31.402  30.274  1.00  0.00     0.031 A 
ATOM     15  C   UNL A   1      38.148  31.623  31.742  1.00  0.00     0.074 A 
ATOM     16  C   UNL A   1      38.619  30.477  29.581  1.00  0.00     0.049 A 
ATOM     17  N   UNL A   1      39.075  31.145  32.526  1.00  0.00    -0.248 NA
ATOM     18  C   UNL A   1      37.173  32.492  32.424  1.00  0.00     0.031 C 
ATOM     19  C   UNL A   1      38.368  30.103  28.185  1.00  0.00     0.029 A 
ATOM     20  N   UNL A   1      39.640  29.653  29.966  1.00  0.00    -0.354 N 
ATOM     21  C   UNL A   1      38.812  31.678  33.781  1.00  0.00     0.074 A 
ATOM     22  C   UNL A   1      37.649  32.523  33.658  1.00  0.00     0.031 C 
ATOM     23  C   UNL A   1      39.197  29.102  27.841  1.00  0.00     0.029 A 
ATOM     24  C   UNL A   1      40.076  28.816  28.967  1.00  0.00     0.049 A 
ATOM     25  H   UNL A   1      40.026  29.658  30.871  1.00  0.00     0.167 HD
ATOM     26  C   UNL A   1      39.497  31.477  34.930  1.00  0.00     0.037 A 
ATOM     27  C   UNL A   1      41.101  27.945  28.974  1.00  0.00     0.037 A 
ATOM     28  C   UNL A   1      40.655  30.630  35.009  1.00  0.00     0.049 A 
ATOM     29  C   UNL A   1      41.922  27.842  30.230  1.00  0.00     0.074 A 
ATOM     30  C   UNL A   1      41.487  30.392  36.086  1.00  0.00     0.029 A 
ATOM     31  N   UNL A   1      41.142  29.876  33.947  1.00  0.00    -0.354 N 
ATOM     32  N   UNL A   1      41.732  28.415  31.395  1.00  0.00    -0.248 NA
ATOM     33  C   UNL A   1      43.116  26.991  30.163  1.00  0.00     0.031 C 
ATOM     34  C   UNL A   1      42.509  29.537  35.659  1.00  0.00     0.029 A 
ATOM     35  C   UNL A   1      42.277  29.189  34.336  1.00  0.00     0.049 A 
ATOM     36  H   UNL A   1      40.738  29.838  33.050  1.00  0.00     0.167 HD
ATOM     37  C   UNL A   1      42.768  27.980  32.208  1.00  0.00     0.074 A 
ATOM     38  C   UNL A   1      43.573  27.080  31.405  1.00  0.00     0.031 C 
ATOM     39  C   UNL A   1      43.039  28.296  33.499  1.00  0.00     0.037 A 
BRANCH  26  40
ATOM     40  C   UNL A   1      39.053  32.245  36.141  1.00  0.00     0.064 A 
ATOM     41  C   UNL A   1      39.536  33.531  36.429  1.00  0.00     0.173 A 
ATOM     42  C   UNL A   1      38.156  31.666  37.051  1.00  0.00     0.173 A 
ATOM     43  F   UNL A   1      40.420  34.120  35.609  1.00  0.00    -0.203 F 
ATOM     44  C   UNL A   1      39.163  34.193  37.598  1.00  0.00     0.198 A 
ATOM     45  C   UNL A   1      37.761  32.342  38.202  1.00  0.00     0.198 A 
ATOM     46  F   UNL A   1      37.670  30.435  36.831  1.00  0.00    -0.203 F 
ATOM     47  F   UNL A   1      39.690  35.392  37.885  1.00  0.00    -0.200 F 
ATOM     48  C   UNL A   1      38.273  33.600  38.481  1.00  0.00     0.200 A 
ATOM     49  F   UNL A   1      36.898  31.768  39.052  1.00  0.00    -0.200 F 
ATOM     50  F   UNL A   1      37.921  34.233  39.608  1.00  0.00    -0.200 F 
ENDBRANCH  26  40
BRANCH  27  51
ATOM     51  C   UNL A   1      41.458  27.163  27.762  1.00  0.00     0.064 A 
ATOM     52  C   UNL A   1      41.072  25.821  27.625  1.00  0.00     0.173 A 
ATOM     53  C   UNL A   1      42.261  27.713  26.754  1.00  0.00     0.173 A 
ATOM     54  F   UNL A   1      40.334  25.237  28.579  1.00  0.00    -0.203 F 
ATOM     55  C   UNL A   1      41.487  25.058  26.532  1.00  0.00     0.198 A 
ATOM     56  C   UNL A   1      42.678  26.946  25.667  1.00  0.00     0.198 A 
ATOM     57  F   UNL A   1      42.649  28.994  26.827  1.00  0.00    -0.203 F 
ATOM     58  F   UNL A   1      41.139  23.768  26.447  1.00  0.00    -0.200 F 
ATOM     59  C   UNL A   1      42.289  25.622  25.553  1.00  0.00     0.200 A 
ATOM     60  F   UNL A   1      43.480  27.484  24.739  1.00  0.00    -0.200 F 
ATOM     61  F   UNL A   1      42.699  24.890  24.510  1.00  0.00    -0.200 F 
ENDBRANCH  27  51
BRANCH  39  62
ATOM     62  C   UNL A   1      44.222  27.621  34.123  1.00  0.00     0.064 A 
ATOM     63  C   UNL A   1      45.490  28.217  34.134  1.00  0.00     0.173 A 
ATOM     64  C   UNL A   1      44.066  26.380  34.760  1.00  0.00     0.173 A 
ATOM     65  F   UNL A   1      45.689  29.394  33.521  1.00  0.00    -0.203 F 
ATOM     66  C   UNL A   1      46.569  27.582  34.740  1.00  0.00     0.198 A 
ATOM     67  C   UNL A   1      45.139  25.766  35.396  1.00  0.00     0.198 A 
ATOM     68  F   UNL A   1      42.869  25.774  34.779  1.00  0.00    -0.203 F 
ATOM     69  F   UNL A   1      47.785  28.143  34.695  1.00  0.00    -0.200 F 
ATOM     70  C   UNL A   1      46.390  26.363  35.379  1.00  0.00     0.200 A 
ATOM     71  F   UNL A   1      44.960  24.597  36.027  1.00  0.00    -0.200 F 
ATOM     72  F   UNL A   1      47.428  25.759  35.974  1.00  0.00    -0.200 F 
ENDBRANCH  39  62
ENDBRANCH  13  14
ENDBRANCH   6   8
ENDBRANCH   5   6
ENDBRANCH   4   5
ENDBRANCH   3   4
ENDBRANCH   2   3
ENDBRANCH   1   2
BRANCH   1  73
ATOM     73  C   UNL A   1      33.886  28.889  25.699  1.00  0.00     0.188 C 
BRANCH  73  74
ATOM     74  O   UNL A   1      33.942  27.917  24.663  1.00  0.00    -0.376 OA
BRANCH  74  75
ATOM     75  C   UNL A   1      34.274  28.346  23.350  1.00  0.00     0.202 C 
BRANCH  75  76
ATOM     76  C   UNL A   1      33.564  27.713  22.141  1.00  0.00     0.261 C 
BRANCH  76  77
ATOM     77  O   UNL A   1      33.410  26.287  22.168  1.00  0.00    -0.463 OA
BRANCH  77  78
ATOM     78  C   UNL A   1      32.109  25.881  22.083  1.00  0.00     0.314 C 
ATOM     79  O   UNL A   1      31.208  26.594  21.673  1.00  0.00    -0.252 OA
BRANCH  78  80
ATOM     80  C   UNL A   1      31.954  24.434  22.549  1.00  0.00     0.154 C 
ATOM     81  C   UNL A   1      30.697  24.175  23.386  1.00  0.00     0.027 C 
ATOM     82  C   UNL A   1      33.185  24.071  23.373  1.00  0.00     0.277 C 
ATOM     83  C   UNL A   1      30.747  24.900  24.732  1.00  0.00     0.062 C 
ATOM     84  N   UNL A   1      33.233  24.878  24.587  1.00  0.00    -0.330 N 
ATOM     85  C   UNL A   1      32.081  24.702  25.469  1.00  0.00     0.262 C 
ATOM     86  H   UNL A   1      33.123  25.831  24.240  1.00  0.00     0.348 HD
BRANCH  84  87
ATOM     87  C   UNL A   1      34.536  24.976  25.243  1.00  0.00     0.300 C 
BRANCH  87  88
ATOM     88  C   UNL A   1      35.339  23.698  25.209  1.00  0.00     0.025 A 
ATOM     89  C   UNL A   1      36.265  23.517  24.166  1.00  0.00     0.014 A 
ATOM     90  C   UNL A   1      35.124  22.640  26.110  1.00  0.00     0.052 A 
ATOM     91  C   UNL A   1      36.848  22.275  23.949  1.00  0.00     0.040 A 
ATOM     92  C   UNL A   1      35.761  21.414  25.923  1.00  0.00     0.060 A 
ATOM     93  Cl  UNL A   1      34.060  22.775  27.464  1.00  0.00    -0.084 Cl
ATOM     94  C   UNL A   1      36.593  21.237  24.828  1.00  0.00     0.124 A 
ATOM     95  F   UNL A   1      37.154  20.041  24.610  1.00  0.00    -0.207 F 
ENDBRANCH  87  88
ENDBRANCH  84  87
ENDBRANCH  78  80
ENDBRANCH  77  78
ENDBRANCH  76  77
ENDBRANCH  75  76
ENDBRANCH  74  75
ENDBRANCH  73  74
ENDBRANCH   1  73
TORSDOF 19
ENDMDL
MODEL 2
REMARK VINA RESULT:     -10.8      1.614      2.027
REMARK SMILES O=C(OCCOCCOCCOC(=O)[C@@H]1CCC[N@@H+](Cc2ccc(F)cc2Cl)C1)c1ccc(-c2c3nc(c(-c4c(F)c(F)c(F)c(F)c4F)c4ccc([nH]4)c(-c4c(F)c(F)c(F)c(F)c4F)c4nc(c(-c5c(F)c(F)c(F)c(F)c5F)c5ccc2[nH]5)C=C4)C=C3)cc1
REMARK SMILES IDX 7 1 6 2 5 3 4 4 3 5 2 6 1 7 30 8 31 9 92 10 32 11 91 12
REMARK SMILES IDX 33 13 34 14 35 15 85 16 36 17 90 18 84 19 86 20 37 21 89 22
REMARK SMILES IDX 83 23 82 24 38 26 70 27 50 28 69 29 51 30 54 31 68 32 87 33
REMARK SMILES IDX 52 34 53 35 67 37 88 38 55 39 39 40 40 41 48 42 41 43 42 44
REMARK SMILES IDX 46 45 49 46 43 47 44 48 47 49 45 50 71 51 72 52 80 53 73 54
REMARK SMILES IDX 74 55 78 56 81 57 75 58 76 59 79 60 77 61 56 62 57 63 65 64
REMARK SMILES IDX 58 65 59 66 63 67 66 68 60 69 61 70 64 71 62 72 8 73 9 74
REMARK SMILES IDX 10 75 11 76 12 77 13 78 14 79 15 80 16 81 29 82 17 83 19 84
REMARK SMILES IDX 18 85 20 87 21 88 22 89 27 90 23 91 26 92 28 93 24 94 25 95
REMARK H PARENT 86 25 54 36 19 86
REMARK Flexibility Score: inf
ROOT
ATOM      1  C   UNL A   1      32.607  30.117  26.182  1.00  0.00     0.188 C 
ENDROOT
BRANCH   1   2
ATOM      2  O   UNL A   1      31.293  30.648  25.995  1.00  0.00    -0.376 OA
BRANCH   2   3
ATOM      3  C   UNL A   1      31.117  31.973  26.507  1.00  0.00     0.202 C 
BRANCH   3   4
ATOM      4  C   UNL A   1      32.396  32.816  26.660  1.00  0.00     0.261 C 
BRANCH   4   5
ATOM      5  O   UNL A   1      32.316  33.849  27.658  1.00  0.00    -0.460 OA
BRANCH   5   6
ATOM      6  C   UNL A   1      33.274  34.307  28.501  1.00  0.00     0.338 C 
ATOM      7  O   UNL A   1      33.178  35.452  28.939  1.00  0.00    -0.246 OA
BRANCH   6   8
ATOM      8  C   UNL A   1      34.456  33.501  28.926  1.00  0.00     0.060 A 
ATOM      9  C   UNL A   1      34.395  32.197  29.408  1.00  0.00     0.016 A 
ATOM     10  C   UNL A   1      35.728  34.078  28.758  1.00  0.00     0.016 A 
ATOM     11  C   UNL A   1      35.529  31.514  29.813  1.00  0.00     0.010 A 
ATOM     12  C   UNL A   1      36.886  33.381  29.117  1.00  0.00     0.010 A 
ATOM     13  C   UNL A   1      36.778  32.108  29.684  1.00  0.00    -0.014 A 
BRANCH  13  14
ATOM     14  C   UNL A   1      37.919  31.425  30.318  1.00  0.00     0.031 A 
ATOM     15  C   UNL A   1      38.135  31.648  31.785  1.00  0.00     0.074 A 
ATOM     16  C   UNL A   1      38.613  30.505  29.625  1.00  0.00     0.049 A 
ATOM     17  N   UNL A   1      39.067  31.179  32.569  1.00  0.00    -0.248 NA
ATOM     18  C   UNL A   1      37.154  32.510  32.468  1.00  0.00     0.031 C 
ATOM     19  C   UNL A   1      38.363  30.127  28.230  1.00  0.00     0.029 A 
ATOM     20  N   UNL A   1      39.642  29.689  30.009  1.00  0.00    -0.354 N 
ATOM     21  C   UNL A   1      38.802  31.711  33.824  1.00  0.00     0.074 A 
ATOM     22  C   UNL A   1      37.631  32.546  33.701  1.00  0.00     0.031 C 
ATOM     23  C   UNL A   1      39.200  29.133  27.885  1.00  0.00     0.029 A 
ATOM     24  C   UNL A   1      40.083  28.856  29.011  1.00  0.00     0.049 A 
ATOM     25  H   UNL A   1      40.029  29.699  30.914  1.00  0.00     0.167 HD
ATOM     26  C   UNL A   1      39.490  31.516  34.971  1.00  0.00     0.037 A 
ATOM     27  C   UNL A   1      41.115  27.993  29.016  1.00  0.00     0.037 A 
ATOM     28  C   UNL A   1      40.655  30.679  35.050  1.00  0.00     0.049 A 
ATOM     29  C   UNL A   1      41.939  27.898  30.272  1.00  0.00     0.074 A 
ATOM     30  C   UNL A   1      41.490  30.449  36.126  1.00  0.00     0.029 A 
ATOM     31  N   UNL A   1      41.147  29.928  33.988  1.00  0.00    -0.354 N 
ATOM     32  N   UNL A   1      41.745  28.470  31.436  1.00  0.00    -0.248 NA
ATOM     33  C   UNL A   1      43.140  27.057  30.204  1.00  0.00     0.031 C 
ATOM     34  C   UNL A   1      42.519  29.603  35.698  1.00  0.00     0.029 A 
ATOM     35  C   UNL A   1      42.288  29.251  34.376  1.00  0.00     0.049 A 
ATOM     36  H   UNL A   1      40.742  29.887  33.091  1.00  0.00     0.167 HD
ATOM     37  C   UNL A   1      42.786  28.045  32.248  1.00  0.00     0.074 A 
ATOM     38  C   UNL A   1      43.598  27.151  31.444  1.00  0.00     0.031 C 
ATOM     39  C   UNL A   1      43.056  28.364  33.539  1.00  0.00     0.037 A 
BRANCH  26  40
ATOM     40  C   UNL A   1      39.041  32.282  36.182  1.00  0.00     0.064 A 
ATOM     41  C   UNL A   1      39.501  33.578  36.461  1.00  0.00     0.173 A 
ATOM     42  C   UNL A   1      38.163  31.690  37.103  1.00  0.00     0.173 A 
ATOM     43  F   UNL A   1      40.368  34.180  35.631  1.00  0.00    -0.203 F 
ATOM     44  C   UNL A   1      39.125  34.238  37.629  1.00  0.00     0.198 A 
ATOM     45  C   UNL A   1      37.764  32.364  38.254  1.00  0.00     0.198 A 
ATOM     46  F   UNL A   1      37.698  30.449  36.892  1.00  0.00    -0.203 F 
ATOM     47  F   UNL A   1      39.632  35.449  37.906  1.00  0.00    -0.200 F 
ATOM     48  C   UNL A   1      38.254  33.633  38.523  1.00  0.00     0.200 A 
ATOM     49  F   UNL A   1      36.919  31.778  39.113  1.00  0.00    -0.200 F 
ATOM     50  F   UNL A   1      37.900  34.264  39.650  1.00  0.00    -0.200 F 
ENDBRANCH  26  40
BRANCH  27  51
ATOM     51  C   UNL A   1      41.477  27.213  27.805  1.00  0.00     0.064 A 
ATOM     52  C   UNL A   1      41.013  25.901  27.620  1.00  0.00     0.173 A 
ATOM     53  C   UNL A   1      42.359  27.729  26.846  1.00  0.00     0.173 A 
ATOM     54  F   UNL A   1      40.197  25.348  28.528  1.00  0.00    -0.203 F 
ATOM     55  C   UNL A   1      41.429  25.135  26.531  1.00  0.00     0.198 A 
ATOM     56  C   UNL A   1      42.776  26.959  25.762  1.00  0.00     0.198 A 
ATOM     57  F   UNL A   1      42.824  28.981  26.964  1.00  0.00    -0.203 F 
ATOM     58  F   UNL A   1      41.004  23.871  26.402  1.00  0.00    -0.200 F 
ATOM     59  C   UNL A   1      42.309  25.665  25.602  1.00  0.00     0.200 A 
ATOM     60  F   UNL A   1      43.652  27.461  24.883  1.00  0.00    -0.200 F 
ATOM     61  F   UNL A   1      42.720  24.928  24.561  1.00  0.00    -0.200 F 
ENDBRANCH  27  51
BRANCH  39  62
ATOM     62  C   UNL A   1      44.246  27.700  34.161  1.00  0.00     0.064 A 
ATOM     63  C   UNL A   1      45.513  28.298  34.153  1.00  0.00     0.173 A 
ATOM     64  C   UNL A   1      44.098  26.467  34.817  1.00  0.00     0.173 A 
ATOM     65  F   UNL A   1      45.705  29.466  33.522  1.00  0.00    -0.203 F 
ATOM     66  C   UNL A   1      46.598  27.673  34.758  1.00  0.00     0.198 A 
ATOM     67  C   UNL A   1      45.177  25.864  35.453  1.00  0.00     0.198 A 
ATOM     68  F   UNL A   1      42.902  25.861  34.855  1.00  0.00    -0.203 F 
ATOM     69  F   UNL A   1      47.813  28.235  34.694  1.00  0.00    -0.200 F 
ATOM     70  C   UNL A   1      46.427  26.463  35.416  1.00  0.00     0.200 A 
ATOM     71  F   UNL A   1      45.005  24.704  36.101  1.00  0.00    -0.200 F 
ATOM     72  F   UNL A   1      47.471  25.869  36.010  1.00  0.00    -0.200 F 
ENDBRANCH  39  62
ENDBRANCH  13  14
ENDBRANCH   6   8
ENDBRANCH   5   6
ENDBRANCH   4   5
ENDBRANCH   3   4
ENDBRANCH   2   3
ENDBRANCH   1   2
BRANCH   1  73
ATOM     73  C   UNL A   1      33.145  29.377  24.960  1.00  0.00     0.188 C 
BRANCH  73  74
ATOM     74  O   UNL A   1      32.292  28.431  24.328  1.00  0.00    -0.376 OA
BRANCH  74  75
ATOM     75  C   UNL A   1      32.436  28.216  22.931  1.00  0.00     0.202 C 
BRANCH  75  76
ATOM     76  C   UNL A   1      32.853  26.830  22.414  1.00  0.00     0.261 C 
BRANCH  76  77
ATOM     77  O   UNL A   1      33.774  26.095  23.234  1.00  0.00    -0.463 OA
BRANCH  77  78
ATOM     78  C   UNL A   1      33.223  24.984  23.804  1.00  0.00     0.314 C 
ATOM     79  O   UNL A   1      32.245  24.411  23.353  1.00  0.00    -0.252 OA
BRANCH  78  80
ATOM     80  C   UNL A   1      34.000  24.563  25.050  1.00  0.00     0.154 C 
ATOM     81  C   UNL A   1      35.430  24.089  24.769  1.00  0.00     0.027 C 
ATOM     82  C   UNL A   1      33.226  23.438  25.730  1.00  0.00     0.277 C 
ATOM     83  C   UNL A   1      35.453  22.785  23.971  1.00  0.00     0.062 C 
ATOM     84  N   UNL A   1      33.189  22.262  24.867  1.00  0.00    -0.330 N 
ATOM     85  C   UNL A   1      34.506  21.717  24.541  1.00  0.00     0.262 C 
ATOM     86  H   UNL A   1      32.859  22.634  23.977  1.00  0.00     0.348 HD
BRANCH  84  87
ATOM     87  C   UNL A   1      32.143  21.284  25.159  1.00  0.00     0.300 C 
BRANCH  87  88
ATOM     88  C   UNL A   1      32.401  19.915  24.575  1.00  0.00     0.025 A 
ATOM     89  C   UNL A   1      32.794  18.881  25.443  1.00  0.00     0.014 A 
ATOM     90  C   UNL A   1      32.371  19.659  23.193  1.00  0.00     0.052 A 
ATOM     91  C   UNL A   1      33.274  17.679  24.937  1.00  0.00     0.040 A 
ATOM     92  C   UNL A   1      32.795  18.428  22.694  1.00  0.00     0.060 A 
ATOM     93  Cl  UNL A   1      31.844  20.834  22.041  1.00  0.00    -0.084 Cl
ATOM     94  C   UNL A   1      33.269  17.463  23.570  1.00  0.00     0.124 A 
ATOM     95  F   UNL A   1      33.739  16.306  23.088  1.00  0.00    -0.207 F 
ENDBRANCH  87  88
ENDBRANCH  84  87
ENDBRANCH  78  80
ENDBRANCH  77  78
ENDBRANCH  76  77
ENDBRANCH  75  76
ENDBRANCH  74  75
ENDBRANCH  73  74
ENDBRANCH   1  73
TORSDOF 19
ENDMDL
MODEL 3
REMARK VINA RESULT:     -10.7      1.413      2.041
REMARK SMILES O=C(OCCOCCOCCOC(=O)[C@@H]1CCC[N@@H+](Cc2ccc(F)cc2Cl)C1)c1ccc(-c2c3nc(c(-c4c(F)c(F)c(F)c(F)c4F)c4ccc([nH]4)c(-c4c(F)c(F)c(F)c(F)c4F)c4nc(c(-c5c(F)c(F)c(F)c(F)c5F)c5ccc2[nH]5)C=C4)C=C3)cc1
REMARK SMILES IDX 7 1 6 2 5 3 4 4 3 5 2 6 1 7 30 8 31 9 92 10 32 11 91 12
REMARK SMILES IDX 33 13 34 14 35 15 85 16 36 17 90 18 84 19 86 20 37 21 89 22
REMARK SMILES IDX 83 23 82 24 38 26 70 27 50 28 69 29 51 30 54 31 68 32 87 33
REMARK SMILES IDX 52 34 53 35 67 37 88 38 55 39 39 40 40 41 48 42 41 43 42 44
REMARK SMILES IDX 46 45 49 46 43 47 44 48 47 49 45 50 71 51 72 52 80 53 73 54
REMARK SMILES IDX 74 55 78 56 81 57 75 58 76 59 79 60 77 61 56 62 57 63 65 64
REMARK SMILES IDX 58 65 59 66 63 67 66 68 60 69 61 70 64 71 62 72 8 73 9 74
REMARK SMILES IDX 10 75 11 76 12 77 13 78 14 79 15 80 16 81 29 82 17 83 19 84
REMARK SMILES IDX 18 85 20 87 21 88 22 89 27 90 23 91 26 92 28 93 24 94 25 95
REMARK H PARENT 86 25 54 36 19 86
REMARK Flexibility Score: inf
ROOT
ATOM      1  C   UNL A   1      30.750  29.222  24.069  1.00  0.00     0.188 C 
ENDROOT
BRANCH   1   2
ATOM      2  O   UNL A   1      31.817  29.878  24.758  1.00  0.00    -0.376 OA
BRANCH   2   3
ATOM      3  C   UNL A   1      31.410  30.581  25.938  1.00  0.00     0.202 C 
BRANCH   3   4
ATOM      4  C   UNL A   1      32.522  30.900  26.954  1.00  0.00     0.261 C 
BRANCH   4   5
ATOM      5  O   UNL A   1      32.738  32.303  27.184  1.00  0.00    -0.460 OA
BRANCH   5   6
ATOM      6  C   UNL A   1      33.712  32.917  27.899  1.00  0.00     0.338 C 
ATOM      7  O   UNL A   1      33.583  34.109  28.173  1.00  0.00    -0.246 OA
BRANCH   6   8
ATOM      8  C   UNL A   1      34.952  32.231  28.370  1.00  0.00     0.060 A 
ATOM      9  C   UNL A   1      35.021  30.896  28.755  1.00  0.00     0.016 A 
ATOM     10  C   UNL A   1      36.148  32.970  28.352  1.00  0.00     0.016 A 
ATOM     11  C   UNL A   1      36.198  30.326  29.209  1.00  0.00     0.010 A 
ATOM     12  C   UNL A   1      37.355  32.394  28.761  1.00  0.00     0.010 A 
ATOM     13  C   UNL A   1      37.367  31.076  29.230  1.00  0.00    -0.014 A 
BRANCH  13  14
ATOM     14  C   UNL A   1      38.533  30.490  29.913  1.00  0.00     0.031 A 
ATOM     15  C   UNL A   1      38.731  30.823  31.361  1.00  0.00     0.074 A 
ATOM     16  C   UNL A   1      39.272  29.556  29.287  1.00  0.00     0.049 A 
ATOM     17  N   UNL A   1      39.678  30.451  32.178  1.00  0.00    -0.248 NA
ATOM     18  C   UNL A   1      37.708  31.686  31.980  1.00  0.00     0.031 C 
ATOM     19  C   UNL A   1      39.047  29.073  27.920  1.00  0.00     0.029 A 
ATOM     20  N   UNL A   1      40.333  28.816  29.729  1.00  0.00    -0.354 N 
ATOM     21  C   UNL A   1      39.382  31.056  33.393  1.00  0.00     0.074 A 
ATOM     22  C   UNL A   1      38.176  31.827  33.210  1.00  0.00     0.031 C 
ATOM     23  C   UNL A   1      39.929  28.096  27.647  1.00  0.00     0.029 A 
ATOM     24  C   UNL A   1      40.817  27.936  28.791  1.00  0.00     0.049 A 
ATOM     25  H   UNL A   1      40.714  28.905  30.631  1.00  0.00     0.167 HD
ATOM     26  C   UNL A   1      40.071  30.971  34.553  1.00  0.00     0.037 A 
ATOM     27  C   UNL A   1      41.886  27.123  28.859  1.00  0.00     0.037 A 
ATOM     28  C   UNL A   1      41.272  30.194  34.692  1.00  0.00     0.049 A 
ATOM     29  C   UNL A   1      42.706  27.151  30.121  1.00  0.00     0.074 A 
ATOM     30  C   UNL A   1      42.110  30.076  35.784  1.00  0.00     0.029 A 
ATOM     31  N   UNL A   1      41.803  29.395  33.686  1.00  0.00    -0.354 N 
ATOM     32  N   UNL A   1      42.480  27.793  31.242  1.00  0.00    -0.248 NA
ATOM     33  C   UNL A   1      43.944  26.362  30.114  1.00  0.00     0.031 C 
ATOM     34  C   UNL A   1      43.178  29.249  35.418  1.00  0.00     0.029 A 
ATOM     35  C   UNL A   1      42.970  28.798  34.123  1.00  0.00     0.049 A 
ATOM     36  H   UNL A   1      41.405  29.274  32.793  1.00  0.00     0.167 HD
ATOM     37  C   UNL A   1      43.534  27.472  32.084  1.00  0.00     0.074 A 
ATOM     38  C   UNL A   1      44.389  26.562  31.347  1.00  0.00     0.031 C 
ATOM     39  C   UNL A   1      43.782  27.890  33.351  1.00  0.00     0.037 A 
BRANCH  26  40
ATOM     40  C   UNL A   1      39.582  31.798  35.707  1.00  0.00     0.064 A 
ATOM     41  C   UNL A   1      38.559  31.359  36.561  1.00  0.00     0.173 A 
ATOM     42  C   UNL A   1      40.123  33.072  35.938  1.00  0.00     0.173 A 
ATOM     43  F   UNL A   1      37.984  30.162  36.367  1.00  0.00    -0.203 F 
ATOM     44  C   UNL A   1      38.075  32.177  37.581  1.00  0.00     0.198 A 
ATOM     45  C   UNL A   1      39.659  33.874  36.977  1.00  0.00     0.198 A 
ATOM     46  F   UNL A   1      41.097  33.547  35.146  1.00  0.00    -0.203 F 
ATOM     47  F   UNL A   1      37.051  31.762  38.341  1.00  0.00    -0.200 F 
ATOM     48  C   UNL A   1      38.627  33.431  37.790  1.00  0.00     0.200 A 
ATOM     49  F   UNL A   1      40.197  35.085  37.179  1.00  0.00    -0.200 F 
ATOM     50  F   UNL A   1      38.155  34.220  38.765  1.00  0.00    -0.200 F 
ENDBRANCH  26  40
BRANCH  27  51
ATOM     51  C   UNL A   1      42.290  26.278  27.706  1.00  0.00     0.064 A 
ATOM     52  C   UNL A   1      41.743  25.000  27.515  1.00  0.00     0.173 A 
ATOM     53  C   UNL A   1      43.288  26.696  26.815  1.00  0.00     0.173 A 
ATOM     54  F   UNL A   1      40.811  24.540  28.362  1.00  0.00    -0.203 F 
ATOM     55  C   UNL A   1      42.190  24.169  26.487  1.00  0.00     0.198 A 
ATOM     56  C   UNL A   1      43.736  25.861  25.793  1.00  0.00     0.198 A 
ATOM     57  F   UNL A   1      43.836  27.913  26.941  1.00  0.00    -0.203 F 
ATOM     58  F   UNL A   1      41.681  22.937  26.354  1.00  0.00    -0.200 F 
ATOM     59  C   UNL A   1      43.186  24.601  25.626  1.00  0.00     0.200 A 
ATOM     60  F   UNL A   1      44.720  26.267  24.982  1.00  0.00    -0.200 F 
ATOM     61  F   UNL A   1      43.626  23.801  24.646  1.00  0.00    -0.200 F 
ENDBRANCH  27  51
BRANCH  39  62
ATOM     62  C   UNL A   1      44.997  27.324  34.021  1.00  0.00     0.064 A 
ATOM     63  C   UNL A   1      46.240  27.966  33.958  1.00  0.00     0.173 A 
ATOM     64  C   UNL A   1      44.895  26.145  34.776  1.00  0.00     0.173 A 
ATOM     65  F   UNL A   1      46.388  29.085  33.233  1.00  0.00    -0.203 F 
ATOM     66  C   UNL A   1      47.349  27.434  34.608  1.00  0.00     0.198 A 
ATOM     67  C   UNL A   1      45.997  25.637  35.455  1.00  0.00     0.198 A 
ATOM     68  F   UNL A   1      43.723  25.500  34.869  1.00  0.00    -0.203 F 
ATOM     69  F   UNL A   1      48.542  28.033  34.493  1.00  0.00    -0.200 F 
ATOM     70  C   UNL A   1      47.223  26.276  35.364  1.00  0.00     0.200 A 
ATOM     71  F   UNL A   1      45.869  24.529  36.198  1.00  0.00    -0.200 F 
ATOM     72  F   UNL A   1      48.290  25.773  36.001  1.00  0.00    -0.200 F 
ENDBRANCH  39  62
ENDBRANCH  13  14
ENDBRANCH   6   8
ENDBRANCH   5   6
ENDBRANCH   4   5
ENDBRANCH   3   4
ENDBRANCH   2   3
ENDBRANCH   1   2
BRANCH   1  73
ATOM     73  C   UNL A   1      30.991  27.730  23.853  1.00  0.00     0.188 C 
BRANCH  73  74
ATOM     74  O   UNL A   1      31.890  27.069  24.734  1.00  0.00    -0.376 OA
BRANCH  74  75
ATOM     75  C   UNL A   1      33.119  26.587  24.208  1.00  0.00     0.202 C 
BRANCH  75  76
ATOM     76  C   UNL A   1      33.266  26.370  22.693  1.00  0.00     0.261 C 
BRANCH  76  77
ATOM     77  O   UNL A   1      32.619  25.209  22.152  1.00  0.00    -0.463 OA
BRANCH  77  78
ATOM     78  C   UNL A   1      33.215  24.037  22.516  1.00  0.00     0.314 C 
ATOM     79  O   UNL A   1      34.415  23.922  22.701  1.00  0.00    -0.252 OA
BRANCH  78  80
ATOM     80  C   UNL A   1      32.183  22.921  22.669  1.00  0.00     0.154 C 
ATOM     81  C   UNL A   1      30.968  23.300  23.521  1.00  0.00     0.027 C 
ATOM     82  C   UNL A   1      32.880  21.719  23.301  1.00  0.00     0.277 C 
ATOM     83  C   UNL A   1      31.346  23.534  24.984  1.00  0.00     0.062 C 
ATOM     84  N   UNL A   1      33.316  22.047  24.654  1.00  0.00    -0.330 N 
ATOM     85  C   UNL A   1      32.231  22.417  25.560  1.00  0.00     0.262 C 
ATOM     86  H   UNL A   1      33.830  22.919  24.530  1.00  0.00     0.348 HD
BRANCH  84  87
ATOM     87  C   UNL A   1      34.361  21.194  25.217  1.00  0.00     0.300 C 
BRANCH  87  88
ATOM     88  C   UNL A   1      35.623  21.933  25.592  1.00  0.00     0.025 A 
ATOM     89  C   UNL A   1      35.515  23.274  26.006  1.00  0.00     0.014 A 
ATOM     90  C   UNL A   1      36.905  21.376  25.442  1.00  0.00     0.052 A 
ATOM     91  C   UNL A   1      36.649  24.067  26.129  1.00  0.00     0.040 A 
ATOM     92  C   UNL A   1      38.042  22.162  25.628  1.00  0.00     0.060 A 
ATOM     93  Cl  UNL A   1      37.154  19.724  25.001  1.00  0.00    -0.084 Cl
ATOM     94  C   UNL A   1      37.900  23.505  25.940  1.00  0.00     0.124 A 
ATOM     95  F   UNL A   1      38.988  24.277  26.054  1.00  0.00    -0.207 F 
ENDBRANCH  87  88
ENDBRANCH  84  87
ENDBRANCH  78  80
ENDBRANCH  77  78
ENDBRANCH  76  77
ENDBRANCH  75  76
ENDBRANCH  74  75
ENDBRANCH  73  74
ENDBRANCH   1  73
TORSDOF 19
ENDMDL
