MODEL 1
REMARK VINA RESULT:     -11.4      0.000      0.000
REMARK SMILES O=C(CNc1nc(-c2ccccc2)c(-c2ccccc2)s1)OCCOCCOCCOC(=O)c1ccc(-c2c3nc(c(-c4c(F)c(F)c(F)c(F)c4F)c4ccc([nH]4)c(-c4c(F)c(F)c(F)c(F)c4F)c4nc(c(-c5c(F)c(F)c(F)c(F)c5F)c5ccc2[nH]5)C=C4)C=C3)cc1
REMARK SMILES IDX 26 1 25 2 24 3 23 4 22 5 2 6 1 7 3 8 4 9 5 11 6 12 21 13
REMARK SMILES IDX 7 14 14 15 8 16 9 17 13 18 10 19 12 20 11 21 15 22 16 23
REMARK SMILES IDX 20 24 17 25 19 26 18 27 27 28 28 29 29 30 30 31 31 32 32 33
REMARK SMILES IDX 33 34 34 35 35 36 96 37 36 38 95 39 37 40 38 41 39 42 89 43
REMARK SMILES IDX 40 44 94 45 88 46 90 47 41 48 93 49 87 50 86 51 42 53 74 54
REMARK SMILES IDX 54 55 73 56 55 57 58 58 72 59 91 60 56 61 57 62 71 64 92 65
REMARK SMILES IDX 59 66 43 67 44 68 52 69 45 70 46 71 50 72 53 73 47 74 48 75
REMARK SMILES IDX 51 76 49 77 75 78 76 79 84 80 77 81 78 82 82 83 85 84 79 85
REMARK SMILES IDX 80 86 83 87 81 88 60 89 61 90 69 91 62 92 63 93 67 94 70 95
REMARK SMILES IDX 64 96 65 97 68 98 66 99
REMARK H PARENT 4 10 90 52 58 63
REMARK Flexibility Score: inf
ROOT
ATOM      1  C   UNL A   1      33.274  29.025  25.659  1.00  0.00     0.188 C 
ENDROOT
BRANCH   1   2
ATOM      2  O   UNL A   1      32.944  28.765  24.311  1.00  0.00    -0.376 OA
BRANCH   2   3
ATOM      3  C   UNL A   1      31.712  29.252  23.819  1.00  0.00     0.202 C 
BRANCH   3   4
ATOM      4  C   UNL A   1      31.376  28.730  22.423  1.00  0.00     0.261 C 
BRANCH   4   5
ATOM      5  O   UNL A   1      30.187  27.911  22.285  1.00  0.00    -0.462 OA
BRANCH   5   6
ATOM      6  C   UNL A   1      29.271  27.548  23.210  1.00  0.00     0.325 C 
ATOM      7  O   UNL A   1      28.218  28.183  23.293  1.00  0.00    -0.250 OA
BRANCH   6   8
ATOM      8  C   UNL A   1      29.544  26.379  24.142  1.00  0.00     0.238 C 
BRANCH   8   9
ATOM      9  N   UNL A   1      29.681  25.137  23.410  1.00  0.00    -0.351 N 
ATOM     10  H   UNL A   1      28.953  24.856  22.810  1.00  0.00     0.163 HD
BRANCH   9  11
ATOM     11  C   UNL A   1      30.767  24.353  23.522  1.00  0.00     0.184 A 
ATOM     12  N   UNL A   1      30.774  23.046  23.655  1.00  0.00    -0.220 NA
ATOM     13  S   UNL A   1      32.305  25.109  23.605  1.00  0.00    -0.096 S 
ATOM     14  C   UNL A   1      32.067  22.601  23.912  1.00  0.00     0.091 A 
ATOM     15  C   UNL A   1      33.023  23.603  23.994  1.00  0.00     0.064 A 
BRANCH  14  16
ATOM     16  C   UNL A   1      32.380  21.182  24.038  1.00  0.00     0.002 A 
ATOM     17  C   UNL A   1      32.231  20.302  22.955  1.00  0.00     0.010 A 
ATOM     18  C   UNL A   1      32.748  20.667  25.286  1.00  0.00     0.010 A 
ATOM     19  C   UNL A   1      32.389  18.925  23.134  1.00  0.00     0.001 A 
ATOM     20  C   UNL A   1      32.905  19.289  25.464  1.00  0.00     0.001 A 
ATOM     21  C   UNL A   1      32.712  18.419  24.392  1.00  0.00     0.000 A 
ENDBRANCH  14  16
BRANCH  15  22
ATOM     22  C   UNL A   1      34.455  23.567  24.264  1.00  0.00    -0.006 A 
ATOM     23  C   UNL A   1      35.346  23.095  23.290  1.00  0.00     0.009 A 
ATOM     24  C   UNL A   1      34.947  23.995  25.501  1.00  0.00     0.009 A 
ATOM     25  C   UNL A   1      36.714  23.034  23.561  1.00  0.00     0.001 A 
ATOM     26  C   UNL A   1      36.314  23.930  25.770  1.00  0.00     0.001 A 
ATOM     27  C   UNL A   1      37.195  23.445  24.803  1.00  0.00     0.000 A 
ENDBRANCH  15  22
ENDBRANCH   9  11
ENDBRANCH   8   9
ENDBRANCH   6   8
ENDBRANCH   5   6
ENDBRANCH   4   5
ENDBRANCH   3   4
ENDBRANCH   2   3
ENDBRANCH   1   2
BRANCH   1  28
ATOM     28  C   UNL A   1      32.049  29.499  26.457  1.00  0.00     0.188 C 
BRANCH  28  29
ATOM     29  O   UNL A   1      32.157  30.717  27.187  1.00  0.00    -0.376 OA
BRANCH  29  30
ATOM     30  C   UNL A   1      33.456  31.147  27.595  1.00  0.00     0.202 C 
BRANCH  30  31
ATOM     31  C   UNL A   1      33.773  32.646  27.515  1.00  0.00     0.261 C 
BRANCH  31  32
ATOM     32  O   UNL A   1      32.697  33.511  27.934  1.00  0.00    -0.460 OA
BRANCH  32  33
ATOM     33  C   UNL A   1      33.082  34.604  28.640  1.00  0.00     0.338 C 
ATOM     34  O   UNL A   1      32.519  35.681  28.712  1.00  0.00    -0.246 OA
BRANCH  33  35
ATOM     35  C   UNL A   1      34.293  34.312  29.428  1.00  0.00     0.060 A 
ATOM     36  C   UNL A   1      35.549  34.602  28.882  1.00  0.00     0.016 A 
ATOM     37  C   UNL A   1      34.186  33.599  30.622  1.00  0.00     0.016 A 
ATOM     38  C   UNL A   1      36.711  34.169  29.531  1.00  0.00     0.010 A 
ATOM     39  C   UNL A   1      35.348  33.153  31.260  1.00  0.00     0.010 A 
ATOM     40  C   UNL A   1      36.616  33.417  30.710  1.00  0.00    -0.014 A 
BRANCH  40  41
ATOM     41  C   UNL A   1      37.822  32.818  31.336  1.00  0.00     0.031 A 
ATOM     42  C   UNL A   1      38.460  31.609  30.713  1.00  0.00     0.074 A 
ATOM     43  C   UNL A   1      38.308  33.317  32.487  1.00  0.00     0.049 A 
ATOM     44  N   UNL A   1      39.412  30.840  31.179  1.00  0.00    -0.248 NA
ATOM     45  C   UNL A   1      37.957  31.210  29.390  1.00  0.00     0.031 C 
ATOM     46  C   UNL A   1      37.801  34.502  33.174  1.00  0.00     0.029 A 
ATOM     47  N   UNL A   1      39.319  32.862  33.299  1.00  0.00    -0.354 N 
ATOM     48  C   UNL A   1      39.608  29.856  30.219  1.00  0.00     0.074 A 
ATOM     49  C   UNL A   1      38.676  30.122  29.144  1.00  0.00     0.031 C 
ATOM     50  C   UNL A   1      38.476  34.659  34.325  1.00  0.00     0.029 A 
ATOM     51  C   UNL A   1      39.430  33.561  34.475  1.00  0.00     0.049 A 
ATOM     52  H   UNL A   1      39.905  32.108  33.061  1.00  0.00     0.167 HD
ATOM     53  C   UNL A   1      40.483  28.824  30.238  1.00  0.00     0.037 A 
ATOM     54  C   UNL A   1      40.179  33.316  35.568  1.00  0.00     0.037 A 
ATOM     55  C   UNL A   1      41.420  28.567  31.301  1.00  0.00     0.049 A 
ATOM     56  C   UNL A   1      41.089  32.113  35.595  1.00  0.00     0.074 A 
ATOM     57  C   UNL A   1      42.393  27.584  31.373  1.00  0.00     0.029 A 
ATOM     58  N   UNL A   1      41.491  29.287  32.483  1.00  0.00    -0.354 N 
ATOM     59  N   UNL A   1      41.306  31.216  34.663  1.00  0.00    -0.248 NA
ATOM     60  C   UNL A   1      41.851  31.882  36.832  1.00  0.00     0.031 C 
ATOM     61  C   UNL A   1      43.012  27.673  32.623  1.00  0.00     0.029 A 
ATOM     62  C   UNL A   1      42.459  28.741  33.310  1.00  0.00     0.049 A 
ATOM     63  H   UNL A   1      40.936  30.070  32.702  1.00  0.00     0.167 HD
ATOM     64  C   UNL A   1      42.237  30.331  35.192  1.00  0.00     0.074 A 
ATOM     65  C   UNL A   1      42.560  30.806  36.520  1.00  0.00     0.031 C 
ATOM     66  C   UNL A   1      42.774  29.221  34.629  1.00  0.00     0.037 A 
BRANCH  53  67
ATOM     67  C   UNL A   1      40.462  27.861  29.090  1.00  0.00     0.064 A 
ATOM     68  C   UNL A   1      39.628  26.735  29.086  1.00  0.00     0.173 A 
ATOM     69  C   UNL A   1      41.222  28.122  27.940  1.00  0.00     0.173 A 
ATOM     70  F   UNL A   1      38.887  26.440  30.165  1.00  0.00    -0.203 F 
ATOM     71  C   UNL A   1      39.561  25.900  27.975  1.00  0.00     0.198 A 
ATOM     72  C   UNL A   1      41.137  27.297  26.823  1.00  0.00     0.198 A 
ATOM     73  F   UNL A   1      42.029  29.193  27.893  1.00  0.00    -0.203 F 
ATOM     74  F   UNL A   1      38.772  24.816  27.997  1.00  0.00    -0.200 F 
ATOM     75  C   UNL A   1      40.309  26.187  26.841  1.00  0.00     0.200 A 
ATOM     76  F   UNL A   1      41.850  27.584  25.724  1.00  0.00    -0.200 F 
ATOM     77  F   UNL A   1      40.229  25.392  25.765  1.00  0.00    -0.200 F 
ENDBRANCH  53  67
BRANCH  54  78
ATOM     78  C   UNL A   1      40.061  34.188  36.766  1.00  0.00     0.064 A 
ATOM     79  C   UNL A   1      40.873  35.319  36.924  1.00  0.00     0.173 A 
ATOM     80  C   UNL A   1      39.168  33.875  37.803  1.00  0.00     0.173 A 
ATOM     81  F   UNL A   1      41.764  35.639  35.975  1.00  0.00    -0.203 F 
ATOM     82  C   UNL A   1      40.814  36.090  38.083  1.00  0.00     0.198 A 
ATOM     83  C   UNL A   1      39.088  34.664  38.948  1.00  0.00     0.198 A 
ATOM     84  F   UNL A   1      38.374  32.798  37.705  1.00  0.00    -0.203 F 
ATOM     85  F   UNL A   1      41.645  37.131  38.235  1.00  0.00    -0.200 F 
ATOM     86  C   UNL A   1      39.919  35.764  39.092  1.00  0.00     0.200 A 
ATOM     87  F   UNL A   1      38.218  34.350  39.916  1.00  0.00    -0.200 F 
ATOM     88  F   UNL A   1      39.870  36.502  40.210  1.00  0.00    -0.200 F 
ENDBRANCH  54  78
BRANCH  66  89
ATOM     89  C   UNL A   1      43.777  28.449  35.433  1.00  0.00     0.064 A 
ATOM     90  C   UNL A   1      45.152  28.704  35.327  1.00  0.00     0.173 A 
ATOM     91  C   UNL A   1      43.358  27.486  36.364  1.00  0.00     0.173 A 
ATOM     92  F   UNL A   1      45.605  29.604  34.442  1.00  0.00    -0.203 F 
ATOM     93  C   UNL A   1      46.071  28.012  36.112  1.00  0.00     0.198 A 
ATOM     94  C   UNL A   1      44.277  26.815  37.166  1.00  0.00     0.198 A 
ATOM     95  F   UNL A   1      42.053  27.209  36.509  1.00  0.00    -0.203 F 
ATOM     96  F   UNL A   1      47.383  28.246  35.967  1.00  0.00    -0.200 F 
ATOM     97  C   UNL A   1      45.633  27.075  37.036  1.00  0.00     0.200 A 
ATOM     98  F   UNL A   1      43.850  25.920  38.068  1.00  0.00    -0.200 F 
ATOM     99  F   UNL A   1      46.518  26.420  37.799  1.00  0.00    -0.200 F 
ENDBRANCH  66  89
ENDBRANCH  40  41
ENDBRANCH  33  35
ENDBRANCH  32  33
ENDBRANCH  31  32
ENDBRANCH  30  31
ENDBRANCH  29  30
ENDBRANCH  28  29
ENDBRANCH   1  28
TORSDOF 21
ENDMDL
MODEL 2
REMARK VINA RESULT:     -11.3      1.637      3.098
REMARK SMILES O=C(CNc1nc(-c2ccccc2)c(-c2ccccc2)s1)OCCOCCOCCOC(=O)c1ccc(-c2c3nc(c(-c4c(F)c(F)c(F)c(F)c4F)c4ccc([nH]4)c(-c4c(F)c(F)c(F)c(F)c4F)c4nc(c(-c5c(F)c(F)c(F)c(F)c5F)c5ccc2[nH]5)C=C4)C=C3)cc1
REMARK SMILES IDX 26 1 25 2 24 3 23 4 22 5 2 6 1 7 3 8 4 9 5 11 6 12 21 13
REMARK SMILES IDX 7 14 14 15 8 16 9 17 13 18 10 19 12 20 11 21 15 22 16 23
REMARK SMILES IDX 20 24 17 25 19 26 18 27 27 28 28 29 29 30 30 31 31 32 32 33
REMARK SMILES IDX 33 34 34 35 35 36 96 37 36 38 95 39 37 40 38 41 39 42 89 43
REMARK SMILES IDX 40 44 94 45 88 46 90 47 41 48 93 49 87 50 86 51 42 53 74 54
REMARK SMILES IDX 54 55 73 56 55 57 58 58 72 59 91 60 56 61 57 62 71 64 92 65
REMARK SMILES IDX 59 66 43 67 44 68 52 69 45 70 46 71 50 72 53 73 47 74 48 75
REMARK SMILES IDX 51 76 49 77 75 78 76 79 84 80 77 81 78 82 82 83 85 84 79 85
REMARK SMILES IDX 80 86 83 87 81 88 60 89 61 90 69 91 62 92 63 93 67 94 70 95
REMARK SMILES IDX 64 96 65 97 68 98 66 99
REMARK H PARENT 4 10 90 52 58 63
REMARK Flexibility Score: inf
ROOT
ATOM      1  C   UNL A   1      31.731  27.981  27.415  1.00  0.00     0.188 C 
ENDROOT
BRANCH   1   2
ATOM      2  O   UNL A   1      31.677  26.586  27.198  1.00  0.00    -0.376 OA
BRANCH   2   3
ATOM      3  C   UNL A   1      31.933  26.103  25.895  1.00  0.00     0.202 C 
BRANCH   3   4
ATOM      4  C   UNL A   1      30.758  26.303  24.940  1.00  0.00     0.261 C 
BRANCH   4   5
ATOM      5  O   UNL A   1      30.944  27.224  23.835  1.00  0.00    -0.462 OA
BRANCH   5   6
ATOM      6  C   UNL A   1      31.799  27.164  22.792  1.00  0.00     0.325 C 
ATOM      7  O   UNL A   1      32.841  27.821  22.831  1.00  0.00    -0.250 OA
BRANCH   6   8
ATOM      8  C   UNL A   1      31.474  26.305  21.580  1.00  0.00     0.238 C 
BRANCH   8   9
ATOM      9  N   UNL A   1      32.530  25.353  21.305  1.00  0.00    -0.351 N 
ATOM     10  H   UNL A   1      32.936  25.339  20.408  1.00  0.00     0.163 HD
BRANCH   9  11
ATOM     11  C   UNL A   1      32.975  24.486  22.230  1.00  0.00     0.184 A 
ATOM     12  N   UNL A   1      34.150  24.508  22.817  1.00  0.00    -0.220 NA
ATOM     13  S   UNL A   1      31.978  23.149  22.633  1.00  0.00    -0.096 S 
ATOM     14  C   UNL A   1      34.319  23.361  23.586  1.00  0.00     0.091 A 
ATOM     15  C   UNL A   1      33.259  22.468  23.543  1.00  0.00     0.064 A 
BRANCH  14  16
ATOM     16  C   UNL A   1      35.510  23.154  24.403  1.00  0.00     0.002 A 
ATOM     17  C   UNL A   1      35.785  23.966  25.514  1.00  0.00     0.010 A 
ATOM     18  C   UNL A   1      36.446  22.186  24.022  1.00  0.00     0.010 A 
ATOM     19  C   UNL A   1      37.002  23.851  26.192  1.00  0.00     0.001 A 
ATOM     20  C   UNL A   1      37.663  22.072  24.700  1.00  0.00     0.001 A 
ATOM     21  C   UNL A   1      37.945  22.914  25.775  1.00  0.00     0.000 A 
ENDBRANCH  14  16
BRANCH  15  22
ATOM     22  C   UNL A   1      33.050  21.169  24.170  1.00  0.00    -0.006 A 
ATOM     23  C   UNL A   1      33.420  20.962  25.507  1.00  0.00     0.009 A 
ATOM     24  C   UNL A   1      32.486  20.119  23.440  1.00  0.00     0.009 A 
ATOM     25  C   UNL A   1      33.246  19.709  26.097  1.00  0.00     0.001 A 
ATOM     26  C   UNL A   1      32.316  18.868  24.031  1.00  0.00     0.001 A 
ATOM     27  C   UNL A   1      32.700  18.662  25.356  1.00  0.00     0.000 A 
ENDBRANCH  15  22
ENDBRANCH   9  11
ENDBRANCH   8   9
ENDBRANCH   6   8
ENDBRANCH   5   6
ENDBRANCH   4   5
ENDBRANCH   3   4
ENDBRANCH   2   3
ENDBRANCH   1   2
BRANCH   1  28
ATOM     28  C   UNL A   1      33.007  28.595  26.816  1.00  0.00     0.188 C 
BRANCH  28  29
ATOM     29  O   UNL A   1      32.863  29.508  25.734  1.00  0.00    -0.376 OA
BRANCH  29  30
ATOM     30  C   UNL A   1      31.777  30.435  25.770  1.00  0.00     0.202 C 
BRANCH  30  31
ATOM     31  C   UNL A   1      31.809  31.537  26.837  1.00  0.00     0.261 C 
BRANCH  31  32
ATOM     32  O   UNL A   1      32.712  32.625  26.549  1.00  0.00    -0.460 OA
BRANCH  32  33
ATOM     33  C   UNL A   1      33.186  33.280  27.639  1.00  0.00     0.338 C 
ATOM     34  O   UNL A   1      32.657  34.189  28.250  1.00  0.00    -0.246 OA
BRANCH  33  35
ATOM     35  C   UNL A   1      34.460  32.688  28.086  1.00  0.00     0.060 A 
ATOM     36  C   UNL A   1      34.459  31.401  28.638  1.00  0.00     0.016 A 
ATOM     37  C   UNL A   1      35.614  33.470  28.116  1.00  0.00     0.016 A 
ATOM     38  C   UNL A   1      35.618  30.894  29.233  1.00  0.00     0.010 A 
ATOM     39  C   UNL A   1      36.768  32.968  28.725  1.00  0.00     0.010 A 
ATOM     40  C   UNL A   1      36.773  31.686  29.305  1.00  0.00    -0.014 A 
BRANCH  40  41
ATOM     41  C   UNL A   1      37.968  31.231  30.060  1.00  0.00     0.031 A 
ATOM     42  C   UNL A   1      38.900  30.229  29.440  1.00  0.00     0.074 A 
ATOM     43  C   UNL A   1      38.186  31.666  31.314  1.00  0.00     0.049 A 
ATOM     44  N   UNL A   1      39.903  29.583  29.981  1.00  0.00    -0.248 NA
ATOM     45  C   UNL A   1      38.672  29.907  28.023  1.00  0.00     0.031 C 
ATOM     46  C   UNL A   1      37.376  32.660  32.015  1.00  0.00     0.029 A 
ATOM     47  N   UNL A   1      39.139  31.297  32.233  1.00  0.00    -0.354 N 
ATOM     48  C   UNL A   1      40.411  28.766  28.981  1.00  0.00     0.074 A 
ATOM     49  C   UNL A   1      39.607  28.994  27.799  1.00  0.00     0.031 C 
ATOM     50  C   UNL A   1      37.842  32.793  33.269  1.00  0.00     0.029 A 
ATOM     51  C   UNL A   1      38.952  31.863  33.470  1.00  0.00     0.049 A 
ATOM     52  H   UNL A   1      39.882  30.686  32.025  1.00  0.00     0.167 HD
ATOM     53  C   UNL A   1      41.450  27.901  29.047  1.00  0.00     0.037 A 
ATOM     54  C   UNL A   1      39.571  31.622  34.642  1.00  0.00     0.037 A 
ATOM     55  C   UNL A   1      42.259  27.684  30.218  1.00  0.00     0.049 A 
ATOM     56  C   UNL A   1      40.675  30.595  34.705  1.00  0.00     0.074 A 
ATOM     57  C   UNL A   1      43.377  26.878  30.355  1.00  0.00     0.029 A 
ATOM     58  N   UNL A   1      42.028  28.262  31.456  1.00  0.00    -0.354 N 
ATOM     59  N   UNL A   1      41.183  29.863  33.743  1.00  0.00    -0.248 NA
ATOM     60  C   UNL A   1      41.285  30.353  36.022  1.00  0.00     0.031 C 
ATOM     61  C   UNL A   1      43.786  26.923  31.692  1.00  0.00     0.029 A 
ATOM     62  C   UNL A   1      42.954  27.794  32.374  1.00  0.00     0.049 A 
ATOM     63  H   UNL A   1      41.312  28.908  31.652  1.00  0.00     0.167 HD
ATOM     64  C   UNL A   1      42.178  29.093  34.332  1.00  0.00     0.074 A 
ATOM     65  C   UNL A   1      42.217  29.456  35.732  1.00  0.00     0.031 C 
ATOM     66  C   UNL A   1      42.985  28.164  33.765  1.00  0.00     0.037 A 
BRANCH  53  67
ATOM     67  C   UNL A   1      41.770  27.089  27.828  1.00  0.00     0.064 A 
ATOM     68  C   UNL A   1      42.696  27.527  26.872  1.00  0.00     0.173 A 
ATOM     69  C   UNL A   1      41.205  25.815  27.665  1.00  0.00     0.173 A 
ATOM     70  F   UNL A   1      43.258  28.740  26.982  1.00  0.00    -0.203 F 
ATOM     71  C   UNL A   1      43.040  26.720  25.791  1.00  0.00     0.198 A 
ATOM     72  C   UNL A   1      41.568  25.003  26.595  1.00  0.00     0.198 A 
ATOM     73  F   UNL A   1      40.319  25.349  28.558  1.00  0.00    -0.203 F 
ATOM     74  F   UNL A   1      43.914  27.164  24.876  1.00  0.00    -0.200 F 
ATOM     75  C   UNL A   1      42.483  25.456  25.658  1.00  0.00     0.200 A 
ATOM     76  F   UNL A   1      41.039  23.777  26.476  1.00  0.00    -0.200 F 
ATOM     77  F   UNL A   1      42.831  24.673  24.627  1.00  0.00    -0.200 F 
ENDBRANCH  53  67
BRANCH  54  78
ATOM     78  C   UNL A   1      39.126  32.315  35.879  1.00  0.00     0.064 A 
ATOM     79  C   UNL A   1      39.585  33.600  36.196  1.00  0.00     0.173 A 
ATOM     80  C   UNL A   1      38.272  31.681  36.795  1.00  0.00     0.173 A 
ATOM     81  F   UNL A   1      40.428  34.232  35.368  1.00  0.00    -0.203 F 
ATOM     82  C   UNL A   1      39.227  34.215  37.394  1.00  0.00     0.198 A 
ATOM     83  C   UNL A   1      37.891  32.309  37.978  1.00  0.00     0.198 A 
ATOM     84  F   UNL A   1      37.812  30.446  36.543  1.00  0.00    -0.203 F 
ATOM     85  F   UNL A   1      39.729  35.420  37.701  1.00  0.00    -0.200 F 
ATOM     86  C   UNL A   1      38.377  33.572  38.282  1.00  0.00     0.200 A 
ATOM     87  F   UNL A   1      37.065  31.687  38.829  1.00  0.00    -0.200 F 
ATOM     88  F   UNL A   1      38.041  34.162  39.437  1.00  0.00    -0.200 F 
ENDBRANCH  54  78
BRANCH  66  89
ATOM     89  C   UNL A   1      43.990  27.484  34.646  1.00  0.00     0.064 A 
ATOM     90  C   UNL A   1      45.243  28.058  34.905  1.00  0.00     0.173 A 
ATOM     91  C   UNL A   1      43.676  26.275  35.287  1.00  0.00     0.173 A 
ATOM     92  F   UNL A   1      45.596  29.204  34.306  1.00  0.00    -0.203 F 
ATOM     93  C   UNL A   1      46.151  27.439  35.762  1.00  0.00     0.198 A 
ATOM     94  C   UNL A   1      44.575  25.673  36.162  1.00  0.00     0.198 A 
ATOM     95  F   UNL A   1      42.489  25.687  35.078  1.00  0.00    -0.203 F 
ATOM     96  F   UNL A   1      47.357  27.988  35.966  1.00  0.00    -0.200 F 
ATOM     97  C   UNL A   1      45.814  26.252  36.396  1.00  0.00     0.200 A 
ATOM     98  F   UNL A   1      44.243  24.533  36.785  1.00  0.00    -0.200 F 
ATOM     99  F   UNL A   1      46.683  25.666  37.229  1.00  0.00    -0.200 F 
ENDBRANCH  66  89
ENDBRANCH  40  41
ENDBRANCH  33  35
ENDBRANCH  32  33
ENDBRANCH  31  32
ENDBRANCH  30  31
ENDBRANCH  29  30
ENDBRANCH  28  29
ENDBRANCH   1  28
TORSDOF 21
ENDMDL
MODEL 3
REMARK VINA RESULT:     -11.0      6.416     10.947
REMARK SMILES O=C(CNc1nc(-c2ccccc2)c(-c2ccccc2)s1)OCCOCCOCCOC(=O)c1ccc(-c2c3nc(c(-c4c(F)c(F)c(F)c(F)c4F)c4ccc([nH]4)c(-c4c(F)c(F)c(F)c(F)c4F)c4nc(c(-c5c(F)c(F)c(F)c(F)c5F)c5ccc2[nH]5)C=C4)C=C3)cc1
REMARK SMILES IDX 26 1 25 2 24 3 23 4 22 5 2 6 1 7 3 8 4 9 5 11 6 12 21 13
REMARK SMILES IDX 7 14 14 15 8 16 9 17 13 18 10 19 12 20 11 21 15 22 16 23
REMARK SMILES IDX 20 24 17 25 19 26 18 27 27 28 28 29 29 30 30 31 31 32 32 33
REMARK SMILES IDX 33 34 34 35 35 36 96 37 36 38 95 39 37 40 38 41 39 42 89 43
REMARK SMILES IDX 40 44 94 45 88 46 90 47 41 48 93 49 87 50 86 51 42 53 74 54
REMARK SMILES IDX 54 55 73 56 55 57 58 58 72 59 91 60 56 61 57 62 71 64 92 65
REMARK SMILES IDX 59 66 43 67 44 68 52 69 45 70 46 71 50 72 53 73 47 74 48 75
REMARK SMILES IDX 51 76 49 77 75 78 76 79 84 80 77 81 78 82 82 83 85 84 79 85
REMARK SMILES IDX 80 86 83 87 81 88 60 89 61 90 69 91 62 92 63 93 67 94 70 95
REMARK SMILES IDX 64 96 65 97 68 98 66 99
REMARK H PARENT 4 10 90 52 58 63
REMARK Flexibility Score: inf
ROOT
ATOM      1  C   UNL A   1      38.588  22.221  25.964  1.00  0.00     0.188 C 
ENDROOT
BRANCH   1   2
ATOM      2  O   UNL A   1      38.175  20.982  25.426  1.00  0.00    -0.376 OA
BRANCH   2   3
ATOM      3  C   UNL A   1      37.027  20.961  24.603  1.00  0.00     0.202 C 
BRANCH   3   4
ATOM      4  C   UNL A   1      35.889  21.828  25.140  1.00  0.00     0.261 C 
BRANCH   4   5
ATOM      5  O   UNL A   1      34.549  21.277  25.090  1.00  0.00    -0.462 OA
BRANCH   5   6
ATOM      6  C   UNL A   1      33.573  21.452  24.173  1.00  0.00     0.325 C 
ATOM      7  O   UNL A   1      32.658  20.629  24.104  1.00  0.00    -0.250 OA
BRANCH   6   8
ATOM      8  C   UNL A   1      33.611  22.645  23.231  1.00  0.00     0.238 C 
BRANCH   8   9
ATOM      9  N   UNL A   1      32.282  23.160  22.972  1.00  0.00    -0.351 N 
ATOM     10  H   UNL A   1      31.652  22.609  22.453  1.00  0.00     0.163 HD
BRANCH   9  11
ATOM     11  C   UNL A   1      31.878  24.362  23.414  1.00  0.00     0.184 A 
ATOM     12  N   UNL A   1      31.028  25.167  22.818  1.00  0.00    -0.220 NA
ATOM     13  S   UNL A   1      32.600  24.984  24.841  1.00  0.00    -0.096 S 
ATOM     14  C   UNL A   1      30.986  26.390  23.480  1.00  0.00     0.091 A 
ATOM     15  C   UNL A   1      31.839  26.494  24.568  1.00  0.00     0.064 A 
BRANCH  14  16
ATOM     16  C   UNL A   1      30.073  27.452  23.072  1.00  0.00     0.002 A 
ATOM     17  C   UNL A   1      30.530  28.581  22.376  1.00  0.00     0.010 A 
ATOM     18  C   UNL A   1      28.729  27.391  23.460  1.00  0.00     0.010 A 
ATOM     19  C   UNL A   1      29.671  29.656  22.128  1.00  0.00     0.001 A 
ATOM     20  C   UNL A   1      27.872  28.467  23.211  1.00  0.00     0.001 A 
ATOM     21  C   UNL A   1      28.346  29.603  22.558  1.00  0.00     0.000 A 
ENDBRANCH  14  16
BRANCH  15  22
ATOM     22  C   UNL A   1      32.111  27.585  25.496  1.00  0.00    -0.006 A 
ATOM     23  C   UNL A   1      31.477  27.625  26.746  1.00  0.00     0.009 A 
ATOM     24  C   UNL A   1      33.000  28.604  25.140  1.00  0.00     0.009 A 
ATOM     25  C   UNL A   1      31.716  28.686  27.620  1.00  0.00     0.001 A 
ATOM     26  C   UNL A   1      33.235  29.664  26.015  1.00  0.00     0.001 A 
ATOM     27  C   UNL A   1      32.590  29.707  27.251  1.00  0.00     0.000 A 
ENDBRANCH  15  22
ENDBRANCH   9  11
ENDBRANCH   8   9
ENDBRANCH   6   8
ENDBRANCH   5   6
ENDBRANCH   4   5
ENDBRANCH   3   4
ENDBRANCH   2   3
ENDBRANCH   1   2
BRANCH   1  28
ATOM     28  C   UNL A   1      40.001  22.131  26.564  1.00  0.00     0.188 C 
BRANCH  28  29
ATOM     29  O   UNL A   1      40.884  21.142  26.046  1.00  0.00    -0.376 OA
BRANCH  29  30
ATOM     30  C   UNL A   1      41.193  20.014  26.866  1.00  0.00     0.202 C 
BRANCH  30  31
ATOM     31  C   UNL A   1      42.279  19.048  26.378  1.00  0.00     0.261 C 
BRANCH  31  32
ATOM     32  O   UNL A   1      42.669  19.229  25.001  1.00  0.00    -0.460 OA
BRANCH  32  33
ATOM     33  C   UNL A   1      44.006  19.331  24.792  1.00  0.00     0.338 C 
ATOM     34  O   UNL A   1      44.774  18.453  24.443  1.00  0.00    -0.246 OA
BRANCH  33  35
ATOM     35  C   UNL A   1      44.454  20.724  24.966  1.00  0.00     0.060 A 
ATOM     36  C   UNL A   1      45.021  21.111  26.187  1.00  0.00     0.016 A 
ATOM     37  C   UNL A   1      44.154  21.674  23.992  1.00  0.00     0.016 A 
ATOM     38  C   UNL A   1      45.284  22.462  26.439  1.00  0.00     0.010 A 
ATOM     39  C   UNL A   1      44.403  23.026  24.251  1.00  0.00     0.010 A 
ATOM     40  C   UNL A   1      44.950  23.431  25.483  1.00  0.00    -0.014 A 
BRANCH  40  41
ATOM     41  C   UNL A   1      45.079  24.879  25.782  1.00  0.00     0.031 A 
ATOM     42  C   UNL A   1      46.424  25.541  25.680  1.00  0.00     0.074 A 
ATOM     43  C   UNL A   1      44.014  25.585  26.201  1.00  0.00     0.049 A 
ATOM     44  N   UNL A   1      46.788  26.744  26.048  1.00  0.00    -0.248 NA
ATOM     45  C   UNL A   1      47.507  24.740  25.087  1.00  0.00     0.031 C 
ATOM     46  C   UNL A   1      42.651  25.070  26.311  1.00  0.00     0.029 A 
ATOM     47  N   UNL A   1      43.922  26.882  26.645  1.00  0.00    -0.354 N 
ATOM     48  C   UNL A   1      48.141  26.838  25.752  1.00  0.00     0.074 A 
ATOM     49  C   UNL A   1      48.537  25.571  25.175  1.00  0.00     0.031 C 
ATOM     50  C   UNL A   1      41.865  26.029  26.830  1.00  0.00     0.029 A 
ATOM     51  C   UNL A   1      42.678  27.207  27.128  1.00  0.00     0.049 A 
ATOM     52  H   UNL A   1      44.674  27.517  26.619  1.00  0.00     0.167 HD
ATOM     53  C   UNL A   1      48.975  27.886  25.949  1.00  0.00     0.037 A 
ATOM     54  C   UNL A   1      42.256  28.307  27.781  1.00  0.00     0.037 A 
ATOM     55  C   UNL A   1      48.578  29.151  26.510  1.00  0.00     0.049 A 
ATOM     56  C   UNL A   1      43.226  29.428  28.058  1.00  0.00     0.074 A 
ATOM     57  C   UNL A   1      49.341  30.295  26.682  1.00  0.00     0.029 A 
ATOM     58  N   UNL A   1      47.315  29.435  27.003  1.00  0.00    -0.354 N 
ATOM     59  N   UNL A   1      44.492  29.531  27.731  1.00  0.00    -0.248 NA
ATOM     60  C   UNL A   1      42.711  30.585  28.808  1.00  0.00     0.031 C 
ATOM     61  C   UNL A   1      48.555  31.250  27.334  1.00  0.00     0.029 A 
ATOM     62  C   UNL A   1      47.290  30.719  27.523  1.00  0.00     0.049 A 
ATOM     63  H   UNL A   1      46.550  28.816  26.987  1.00  0.00     0.167 HD
ATOM     64  C   UNL A   1      44.915  30.762  28.214  1.00  0.00     0.074 A 
ATOM     65  C   UNL A   1      43.769  31.382  28.845  1.00  0.00     0.031 C 
ATOM     66  C   UNL A   1      46.145  31.327  28.147  1.00  0.00     0.037 A 
BRANCH  53  67
ATOM     67  C   UNL A   1      50.419  27.715  25.586  1.00  0.00     0.064 A 
ATOM     68  C   UNL A   1      50.882  27.924  24.281  1.00  0.00     0.173 A 
ATOM     69  C   UNL A   1      51.363  27.425  26.583  1.00  0.00     0.173 A 
ATOM     70  F   UNL A   1      50.016  28.198  23.293  1.00  0.00    -0.203 F 
ATOM     71  C   UNL A   1      52.240  27.842  23.983  1.00  0.00     0.198 A 
ATOM     72  C   UNL A   1      52.722  27.364  26.286  1.00  0.00     0.198 A 
ATOM     73  F   UNL A   1      50.970  27.224  27.850  1.00  0.00    -0.203 F 
ATOM     74  F   UNL A   1      52.662  28.026  22.724  1.00  0.00    -0.200 F 
ATOM     75  C   UNL A   1      53.159  27.571  24.987  1.00  0.00     0.200 A 
ATOM     76  F   UNL A   1      53.609  27.116  27.260  1.00  0.00    -0.200 F 
ATOM     77  F   UNL A   1      54.467  27.511  24.702  1.00  0.00    -0.200 F 
ENDBRANCH  53  67
BRANCH  54  78
ATOM     78  C   UNL A   1      40.860  28.387  28.285  1.00  0.00     0.064 A 
ATOM     79  C   UNL A   1      39.835  28.930  27.498  1.00  0.00     0.173 A 
ATOM     80  C   UNL A   1      40.535  27.970  29.585  1.00  0.00     0.173 A 
ATOM     81  F   UNL A   1      40.104  29.373  26.262  1.00  0.00    -0.203 F 
ATOM     82  C   UNL A   1      38.543  29.077  28.001  1.00  0.00     0.198 A 
ATOM     83  C   UNL A   1      39.236  28.088  30.076  1.00  0.00     0.198 A 
ATOM     84  F   UNL A   1      41.481  27.452  30.382  1.00  0.00    -0.203 F 
ATOM     85  F   UNL A   1      37.597  29.655  27.250  1.00  0.00    -0.200 F 
ATOM     86  C   UNL A   1      38.245  28.651  29.287  1.00  0.00     0.200 A 
ATOM     87  F   UNL A   1      38.951  27.670  31.316  1.00  0.00    -0.200 F 
ATOM     88  F   UNL A   1      37.004  28.800  29.772  1.00  0.00    -0.200 F 
ENDBRANCH  54  78
BRANCH  66  89
ATOM     89  C   UNL A   1      46.319  32.689  28.752  1.00  0.00     0.064 A 
ATOM     90  C   UNL A   1      46.761  32.852  30.072  1.00  0.00     0.173 A 
ATOM     91  C   UNL A   1      46.098  33.844  27.985  1.00  0.00     0.173 A 
ATOM     92  F   UNL A   1      46.971  31.780  30.850  1.00  0.00    -0.203 F 
ATOM     93  C   UNL A   1      46.962  34.122  30.608  1.00  0.00     0.198 A 
ATOM     94  C   UNL A   1      46.325  35.111  28.516  1.00  0.00     0.198 A 
ATOM     95  F   UNL A   1      45.680  33.743  26.714  1.00  0.00    -0.203 F 
ATOM     96  F   UNL A   1      47.350  34.254  31.885  1.00  0.00    -0.200 F 
ATOM     97  C   UNL A   1      46.752  35.250  29.828  1.00  0.00     0.200 A 
ATOM     98  F   UNL A   1      46.135  36.198  27.756  1.00  0.00    -0.200 F 
ATOM     99  F   UNL A   1      46.958  36.469  30.342  1.00  0.00    -0.200 F 
ENDBRANCH  66  89
ENDBRANCH  40  41
ENDBRANCH  33  35
ENDBRANCH  32  33
ENDBRANCH  31  32
ENDBRANCH  30  31
ENDBRANCH  29  30
ENDBRANCH  28  29
ENDBRANCH   1  28
TORSDOF 21
ENDMDL
