MODEL 1
REMARK VINA RESULT:     -11.7      0.000      0.000
REMARK SMILES Cc1cc2n(n1)[C@H](C(F)(F)F)CCN2C(=O)c1cnn([C@@H](C)C(=O)OCCOCCOCCOC(=O)c2ccc(-c3c4nc(c(-c5c(F)c(F)c(F)c(F)c5F)c5ccc([nH]5)c(-c5c(F)c(F)c(F)c(F)c5F)c5nc(c(-c6c(F)c(F)c(F)c(F)c6F)c6ccc3[nH]6)C=C5)C=C4)cc2)c1
REMARK SMILES IDX 29 1 28 2 27 3 26 4 25 5 23 6 24 7 21 8 22 9 20 10 17 11
REMARK SMILES IDX 18 12 100 13 19 14 15 15 16 16 14 17 1 18 2 19 3 20 6 21
REMARK SMILES IDX 4 22 5 23 7 24 13 25 12 26 8 27 9 28 10 29 11 30 30 31 31 32
REMARK SMILES IDX 32 33 33 34 34 35 35 36 36 37 37 38 38 39 99 40 39 41 98 42
REMARK SMILES IDX 40 43 41 44 42 45 92 46 43 47 97 48 91 49 93 50 44 51 96 52
REMARK SMILES IDX 90 53 89 54 45 56 77 57 57 58 76 59 58 60 61 61 75 62 94 63
REMARK SMILES IDX 59 64 60 65 74 67 95 68 62 69 46 70 47 71 55 72 48 73 49 74
REMARK SMILES IDX 53 75 56 76 50 77 51 78 54 79 52 80 78 81 79 82 87 83 80 84
REMARK SMILES IDX 81 85 85 86 88 87 82 88 83 89 86 90 84 91 63 92 64 93 72 94
REMARK SMILES IDX 65 95 66 96 70 97 73 98 67 99 68 100 71 101 69 102
REMARK H PARENT 93 55 61 66
REMARK Flexibility Score: inf
ROOT
ATOM      1  C   UNL A   1      34.273  31.240  27.977  1.00  0.00     0.188 C 
ENDROOT
BRANCH   1   2
ATOM      2  O   UNL A   1      34.880  29.997  27.750  1.00  0.00    -0.376 OA
BRANCH   2   3
ATOM      3  C   UNL A   1      34.207  29.058  26.930  1.00  0.00     0.202 C 
BRANCH   3   4
ATOM      4  C   UNL A   1      33.205  29.469  25.825  1.00  0.00     0.261 C 
BRANCH   4   5
ATOM      5  O   UNL A   1      31.823  29.068  25.997  1.00  0.00    -0.462 OA
BRANCH   5   6
ATOM      6  C   UNL A   1      31.140  28.722  24.880  1.00  0.00     0.330 C 
ATOM      7  O   UNL A   1      30.760  29.555  24.054  1.00  0.00    -0.250 OA
BRANCH   6   8
ATOM      8  C   UNL A   1      30.896  27.243  24.612  1.00  0.00     0.213 C 
ATOM      9  C   UNL A   1      30.840  26.491  25.935  1.00  0.00     0.046 C 
BRANCH   8  10
ATOM     10  N   UNL A   1      31.711  26.514  23.632  1.00  0.00    -0.258 N 
ATOM     11  C   UNL A   1      32.822  24.874  22.608  1.00  0.00     0.078 A 
ATOM     12  C   UNL A   1      32.988  26.135  21.989  1.00  0.00     0.149 A 
ATOM     13  C   UNL A   1      31.984  25.158  23.675  1.00  0.00     0.123 A 
ATOM     14  N   UNL A   1      32.454  27.138  22.698  1.00  0.00    -0.180 NA
BRANCH  11  15
ATOM     15  C   UNL A   1      33.322  23.574  22.221  1.00  0.00     0.262 C 
ATOM     16  O   UNL A   1      33.652  23.286  21.065  1.00  0.00    -0.269 OA
BRANCH  15  17
ATOM     17  N   UNL A   1      33.276  22.564  23.278  1.00  0.00    -0.293 N 
ATOM     18  C   UNL A   1      37.856  22.077  25.360  1.00  0.00     0.069 C 
ATOM     19  C   UNL A   1      36.426  21.985  24.968  1.00  0.00     0.062 A 
ATOM     20  C   UNL A   1      35.707  22.743  24.003  1.00  0.00     0.072 A 
ATOM     21  N   UNL A   1      35.635  21.090  25.569  1.00  0.00    -0.176 NA
ATOM     22  C   UNL A   1      34.427  22.228  24.008  1.00  0.00     0.134 A 
ATOM     23  N   UNL A   1      34.465  21.223  24.937  1.00  0.00    -0.237 N 
ATOM     24  C   UNL A   1      33.352  20.371  25.281  1.00  0.00     0.216 C 
ATOM     25  C   UNL A   1      32.075  21.707  23.454  1.00  0.00     0.130 C 
ATOM     26  C   UNL A   1      32.030  20.977  24.799  1.00  0.00     0.059 C 
BRANCH  24  27
ATOM     27  C   UNL A   1      33.572  18.971  24.752  1.00  0.00     0.410 C 
ATOM     28  F   UNL A   1      34.864  18.777  24.401  1.00  0.00    -0.169 F 
ATOM     29  F   UNL A   1      33.216  18.005  25.619  1.00  0.00    -0.169 F 
ATOM     30  F   UNL A   1      32.829  18.784  23.632  1.00  0.00    -0.169 F 
ENDBRANCH  24  27
ENDBRANCH  15  17
ENDBRANCH  11  15
ENDBRANCH   8  10
ENDBRANCH   6   8
ENDBRANCH   5   6
ENDBRANCH   4   5
ENDBRANCH   3   4
ENDBRANCH   2   3
ENDBRANCH   1   2
BRANCH   1  31
ATOM     31  C   UNL A   1      35.041  32.532  27.679  1.00  0.00     0.188 C 
BRANCH  31  32
ATOM     32  O   UNL A   1      34.503  33.836  27.703  1.00  0.00    -0.376 OA
BRANCH  32  33
ATOM     33  C   UNL A   1      33.311  34.288  28.324  1.00  0.00     0.202 C 
BRANCH  33  34
ATOM     34  C   UNL A   1      33.261  35.137  29.587  1.00  0.00     0.261 C 
BRANCH  34  35
ATOM     35  O   UNL A   1      34.119  34.672  30.593  1.00  0.00    -0.460 OA
BRANCH  35  36
ATOM     36  C   UNL A   1      33.609  34.812  31.832  1.00  0.00     0.338 C 
ATOM     37  O   UNL A   1      32.534  35.288  32.158  1.00  0.00    -0.246 OA
BRANCH  36  38
ATOM     38  C   UNL A   1      34.595  34.240  32.753  1.00  0.00     0.060 A 
ATOM     39  C   UNL A   1      35.633  35.091  33.131  1.00  0.00     0.016 A 
ATOM     40  C   UNL A   1      34.673  32.847  32.826  1.00  0.00     0.016 A 
ATOM     41  C   UNL A   1      36.886  34.547  33.158  1.00  0.00     0.010 A 
ATOM     42  C   UNL A   1      35.921  32.315  32.780  1.00  0.00     0.010 A 
ATOM     43  C   UNL A   1      36.998  33.199  32.820  1.00  0.00    -0.014 A 
BRANCH  43  44
ATOM     44  C   UNL A   1      38.294  32.683  32.482  1.00  0.00     0.031 A 
ATOM     45  C   UNL A   1      39.151  32.573  33.672  1.00  0.00     0.074 A 
ATOM     46  C   UNL A   1      38.544  32.251  31.233  1.00  0.00     0.049 A 
ATOM     47  N   UNL A   1      40.176  33.298  33.966  1.00  0.00    -0.248 NA
ATOM     48  C   UNL A   1      38.657  31.747  34.789  1.00  0.00     0.031 C 
ATOM     49  C   UNL A   1      37.604  32.102  30.116  1.00  0.00     0.029 A 
ATOM     50  N   UNL A   1      39.687  31.702  30.748  1.00  0.00    -0.354 N 
ATOM     51  C   UNL A   1      40.592  32.825  35.203  1.00  0.00     0.074 A 
ATOM     52  C   UNL A   1      39.472  32.133  35.769  1.00  0.00     0.031 C 
ATOM     53  C   UNL A   1      38.147  31.282  29.187  1.00  0.00     0.029 A 
ATOM     54  C   UNL A   1      39.494  30.938  29.598  1.00  0.00     0.049 A 
ATOM     55  H   UNL A   1      40.568  31.831  31.168  1.00  0.00     0.167 HD
ATOM     56  C   UNL A   1      41.917  32.704  35.476  1.00  0.00     0.037 A 
ATOM     57  C   UNL A   1      40.363  29.985  29.171  1.00  0.00     0.037 A 
ATOM     58  C   UNL A   1      42.696  33.538  34.589  1.00  0.00     0.049 A 
ATOM     59  C   UNL A   1      41.669  30.260  29.847  1.00  0.00     0.074 A 
ATOM     60  C   UNL A   1      42.678  34.888  34.281  1.00  0.00     0.029 A 
ATOM     61  N   UNL A   1      43.375  32.932  33.558  1.00  0.00    -0.354 N 
ATOM     62  N   UNL A   1      42.398  31.318  29.605  1.00  0.00    -0.248 NA
ATOM     63  C   UNL A   1      41.880  29.647  31.156  1.00  0.00     0.031 C 
ATOM     64  C   UNL A   1      42.896  34.951  32.874  1.00  0.00     0.029 A 
ATOM     65  C   UNL A   1      43.125  33.653  32.417  1.00  0.00     0.049 A 
ATOM     66  H   UNL A   1      43.938  32.127  33.625  1.00  0.00     0.167 HD
ATOM     67  C   UNL A   1      42.824  31.749  30.855  1.00  0.00     0.074 A 
ATOM     68  C   UNL A   1      42.512  30.652  31.768  1.00  0.00     0.031 C 
ATOM     69  C   UNL A   1      43.105  33.064  31.100  1.00  0.00     0.037 A 
BRANCH  56  70
ATOM     70  C   UNL A   1      42.506  31.521  36.216  1.00  0.00     0.064 A 
ATOM     71  C   UNL A   1      43.428  31.781  37.245  1.00  0.00     0.173 A 
ATOM     72  C   UNL A   1      42.447  30.172  35.790  1.00  0.00     0.173 A 
ATOM     73  F   UNL A   1      43.571  33.022  37.734  1.00  0.00    -0.203 F 
ATOM     74  C   UNL A   1      44.298  30.799  37.724  1.00  0.00     0.198 A 
ATOM     75  C   UNL A   1      43.278  29.184  36.308  1.00  0.00     0.198 A 
ATOM     76  F   UNL A   1      41.669  29.750  34.788  1.00  0.00    -0.203 F 
ATOM     77  F   UNL A   1      45.253  31.133  38.600  1.00  0.00    -0.200 F 
ATOM     78  C   UNL A   1      44.230  29.504  37.246  1.00  0.00     0.200 A 
ATOM     79  F   UNL A   1      43.197  27.937  35.820  1.00  0.00    -0.200 F 
ATOM     80  F   UNL A   1      45.107  28.578  37.651  1.00  0.00    -0.200 F 
ENDBRANCH  56  70
BRANCH  57  81
ATOM     81  C   UNL A   1      40.026  28.671  28.566  1.00  0.00     0.064 A 
ATOM     82  C   UNL A   1      40.525  28.301  27.307  1.00  0.00     0.173 A 
ATOM     83  C   UNL A   1      39.407  27.646  29.312  1.00  0.00     0.173 A 
ATOM     84  F   UNL A   1      41.179  29.197  26.552  1.00  0.00    -0.203 F 
ATOM     85  C   UNL A   1      40.418  26.989  26.829  1.00  0.00     0.198 A 
ATOM     86  C   UNL A   1      39.290  26.343  28.831  1.00  0.00     0.198 A 
ATOM     87  F   UNL A   1      38.984  27.861  30.565  1.00  0.00    -0.203 F 
ATOM     88  F   UNL A   1      40.954  26.662  25.644  1.00  0.00    -0.200 F 
ATOM     89  C   UNL A   1      39.804  26.010  27.594  1.00  0.00     0.200 A 
ATOM     90  F   UNL A   1      38.728  25.400  29.601  1.00  0.00    -0.200 F 
ATOM     91  F   UNL A   1      39.744  24.743  27.159  1.00  0.00    -0.200 F 
ENDBRANCH  57  81
BRANCH  69  92
ATOM     92  C   UNL A   1      43.180  34.014  29.938  1.00  0.00     0.064 A 
ATOM     93  C   UNL A   1      44.331  34.216  29.157  1.00  0.00     0.173 A 
ATOM     94  C   UNL A   1      41.988  34.605  29.494  1.00  0.00     0.173 A 
ATOM     95  F   UNL A   1      45.480  33.590  29.447  1.00  0.00    -0.203 F 
ATOM     96  C   UNL A   1      44.295  35.011  28.011  1.00  0.00     0.198 A 
ATOM     97  C   UNL A   1      41.948  35.364  28.329  1.00  0.00     0.198 A 
ATOM     98  F   UNL A   1      40.845  34.396  30.165  1.00  0.00    -0.203 F 
ATOM     99  F   UNL A   1      45.408  35.190  27.284  1.00  0.00    -0.200 F 
ATOM    100  C   UNL A   1      43.102  35.576  27.594  1.00  0.00     0.200 A 
ATOM    101  F   UNL A   1      40.779  35.858  27.898  1.00  0.00    -0.200 F 
ATOM    102  F   UNL A   1      43.056  36.296  26.465  1.00  0.00    -0.200 F 
ENDBRANCH  69  92
ENDBRANCH  43  44
ENDBRANCH  36  38
ENDBRANCH  35  36
ENDBRANCH  34  35
ENDBRANCH  33  34
ENDBRANCH  32  33
ENDBRANCH  31  32
ENDBRANCH   1  31
TORSDOF 21
ENDMDL
MODEL 2
REMARK VINA RESULT:     -11.4      1.294      2.123
REMARK SMILES Cc1cc2n(n1)[C@H](C(F)(F)F)CCN2C(=O)c1cnn([C@@H](C)C(=O)OCCOCCOCCOC(=O)c2ccc(-c3c4nc(c(-c5c(F)c(F)c(F)c(F)c5F)c5ccc([nH]5)c(-c5c(F)c(F)c(F)c(F)c5F)c5nc(c(-c6c(F)c(F)c(F)c(F)c6F)c6ccc3[nH]6)C=C5)C=C4)cc2)c1
REMARK SMILES IDX 29 1 28 2 27 3 26 4 25 5 23 6 24 7 21 8 22 9 20 10 17 11
REMARK SMILES IDX 18 12 100 13 19 14 15 15 16 16 14 17 1 18 2 19 3 20 6 21
REMARK SMILES IDX 4 22 5 23 7 24 13 25 12 26 8 27 9 28 10 29 11 30 30 31 31 32
REMARK SMILES IDX 32 33 33 34 34 35 35 36 36 37 37 38 38 39 99 40 39 41 98 42
REMARK SMILES IDX 40 43 41 44 42 45 92 46 43 47 97 48 91 49 93 50 44 51 96 52
REMARK SMILES IDX 90 53 89 54 45 56 77 57 57 58 76 59 58 60 61 61 75 62 94 63
REMARK SMILES IDX 59 64 60 65 74 67 95 68 62 69 46 70 47 71 55 72 48 73 49 74
REMARK SMILES IDX 53 75 56 76 50 77 51 78 54 79 52 80 78 81 79 82 87 83 80 84
REMARK SMILES IDX 81 85 85 86 88 87 82 88 83 89 86 90 84 91 63 92 64 93 72 94
REMARK SMILES IDX 65 95 66 96 70 97 73 98 67 99 68 100 71 101 69 102
REMARK H PARENT 93 55 61 66
REMARK Flexibility Score: inf
ROOT
ATOM      1  C   UNL A   1      33.308  30.120  27.186  1.00  0.00     0.188 C 
ENDROOT
BRANCH   1   2
ATOM      2  O   UNL A   1      33.539  28.829  26.692  1.00  0.00    -0.376 OA
BRANCH   2   3
ATOM      3  C   UNL A   1      33.529  28.632  25.289  1.00  0.00     0.202 C 
BRANCH   3   4
ATOM      4  C   UNL A   1      32.520  29.330  24.346  1.00  0.00     0.261 C 
BRANCH   4   5
ATOM      5  O   UNL A   1      31.111  29.093  24.587  1.00  0.00    -0.462 OA
BRANCH   5   6
ATOM      6  C   UNL A   1      30.302  29.040  23.501  1.00  0.00     0.330 C 
ATOM      7  O   UNL A   1      29.995  30.046  22.858  1.00  0.00    -0.250 OA
BRANCH   6   8
ATOM      8  C   UNL A   1      29.815  27.677  23.029  1.00  0.00     0.213 C 
ATOM      9  C   UNL A   1      28.384  27.458  23.503  1.00  0.00     0.046 C 
BRANCH   8  10
ATOM     10  N   UNL A   1      30.627  26.473  23.250  1.00  0.00    -0.258 N 
ATOM     11  C   UNL A   1      31.766  24.848  24.267  1.00  0.00     0.078 A 
ATOM     12  C   UNL A   1      31.869  24.807  22.857  1.00  0.00     0.149 A 
ATOM     13  C   UNL A   1      30.949  25.945  24.488  1.00  0.00     0.123 A 
ATOM     14  N   UNL A   1      31.321  25.874  22.263  1.00  0.00    -0.180 NA
BRANCH  11  15
ATOM     15  C   UNL A   1      32.301  23.950  25.266  1.00  0.00     0.262 C 
ATOM     16  O   UNL A   1      31.871  23.882  26.423  1.00  0.00    -0.269 OA
BRANCH  15  17
ATOM     17  N   UNL A   1      33.496  23.218  24.849  1.00  0.00    -0.293 N 
ATOM     18  C   UNL A   1      32.667  18.248  25.252  1.00  0.00     0.069 C 
ATOM     19  C   UNL A   1      33.210  19.611  25.028  1.00  0.00     0.062 A 
ATOM     20  C   UNL A   1      32.567  20.873  25.173  1.00  0.00     0.072 A 
ATOM     21  N   UNL A   1      34.477  19.757  24.623  1.00  0.00    -0.176 NA
ATOM     22  C   UNL A   1      33.531  21.814  24.879  1.00  0.00     0.134 A 
ATOM     23  N   UNL A   1      34.653  21.081  24.597  1.00  0.00    -0.237 N 
ATOM     24  C   UNL A   1      35.939  21.636  24.249  1.00  0.00     0.216 C 
ATOM     25  C   UNL A   1      34.775  23.933  24.601  1.00  0.00     0.130 C 
ATOM     26  C   UNL A   1      35.805  23.105  23.831  1.00  0.00     0.059 C 
BRANCH  24  27
ATOM     27  C   UNL A   1      36.923  21.446  25.382  1.00  0.00     0.410 C 
ATOM     28  F   UNL A   1      37.892  22.388  25.353  1.00  0.00    -0.169 F 
ATOM     29  F   UNL A   1      36.352  21.459  26.601  1.00  0.00    -0.169 F 
ATOM     30  F   UNL A   1      37.540  20.244  25.253  1.00  0.00    -0.169 F 
ENDBRANCH  24  27
ENDBRANCH  15  17
ENDBRANCH  11  15
ENDBRANCH   8  10
ENDBRANCH   6   8
ENDBRANCH   5   6
ENDBRANCH   4   5
ENDBRANCH   3   4
ENDBRANCH   2   3
ENDBRANCH   1   2
BRANCH   1  31
ATOM     31  C   UNL A   1      34.489  30.995  27.619  1.00  0.00     0.188 C 
BRANCH  31  32
ATOM     32  O   UNL A   1      34.433  32.378  27.896  1.00  0.00    -0.376 OA
BRANCH  32  33
ATOM     33  C   UNL A   1      33.291  33.198  28.069  1.00  0.00     0.202 C 
BRANCH  33  34
ATOM     34  C   UNL A   1      33.308  34.586  28.696  1.00  0.00     0.261 C 
BRANCH  34  35
ATOM     35  O   UNL A   1      34.206  34.691  29.766  1.00  0.00    -0.460 OA
BRANCH  35  36
ATOM     36  C   UNL A   1      33.596  34.789  30.963  1.00  0.00     0.338 C 
ATOM     37  O   UNL A   1      32.526  35.315  31.227  1.00  0.00    -0.246 OA
BRANCH  36  38
ATOM     38  C   UNL A   1      34.458  34.098  31.926  1.00  0.00     0.060 A 
ATOM     39  C   UNL A   1      35.474  34.869  32.490  1.00  0.00     0.016 A 
ATOM     40  C   UNL A   1      34.486  32.702  31.876  1.00  0.00     0.016 A 
ATOM     41  C   UNL A   1      36.699  34.276  32.598  1.00  0.00     0.010 A 
ATOM     42  C   UNL A   1      35.715  32.127  31.913  1.00  0.00     0.010 A 
ATOM     43  C   UNL A   1      36.807  32.960  32.149  1.00  0.00    -0.014 A 
BRANCH  43  44
ATOM     44  C   UNL A   1      38.117  32.425  31.903  1.00  0.00     0.031 A 
ATOM     45  C   UNL A   1      38.898  32.338  33.145  1.00  0.00     0.074 A 
ATOM     46  C   UNL A   1      38.437  31.960  30.682  1.00  0.00     0.049 A 
ATOM     47  N   UNL A   1      39.911  33.061  33.483  1.00  0.00    -0.248 NA
ATOM     48  C   UNL A   1      38.329  31.544  34.250  1.00  0.00     0.031 C 
ATOM     49  C   UNL A   1      37.565  31.792  29.513  1.00  0.00     0.029 A 
ATOM     50  N   UNL A   1      39.602  31.390  30.280  1.00  0.00    -0.354 N 
ATOM     51  C   UNL A   1      40.246  32.616  34.754  1.00  0.00     0.074 A 
ATOM     52  C   UNL A   1      39.087  31.947  35.267  1.00  0.00     0.031 C 
ATOM     53  C   UNL A   1      38.155  30.945  28.640  1.00  0.00     0.029 A 
ATOM     54  C   UNL A   1      39.472  30.599  29.140  1.00  0.00     0.049 A 
ATOM     55  H   UNL A   1      40.457  31.522  30.750  1.00  0.00     0.167 HD
ATOM     56  C   UNL A   1      41.552  32.490  35.110  1.00  0.00     0.037 A 
ATOM     57  C   UNL A   1      40.355  29.630  28.790  1.00  0.00     0.037 A 
ATOM     58  C   UNL A   1      42.390  33.296  34.252  1.00  0.00     0.049 A 
ATOM     59  C   UNL A   1      41.621  29.910  29.537  1.00  0.00     0.074 A 
ATOM     60  C   UNL A   1      42.404  34.638  33.912  1.00  0.00     0.029 A 
ATOM     61  N   UNL A   1      43.125  32.659  33.279  1.00  0.00    -0.354 N 
ATOM     62  N   UNL A   1      42.374  30.956  29.314  1.00  0.00    -0.248 NA
ATOM     63  C   UNL A   1      41.746  29.328  30.870  1.00  0.00     0.031 C 
ATOM     64  C   UNL A   1      42.707  34.664  32.519  1.00  0.00     0.029 A 
ATOM     65  C   UNL A   1      42.951  33.353  32.109  1.00  0.00     0.049 A 
ATOM     66  H   UNL A   1      43.675  31.851  33.400  1.00  0.00     0.167 HD
ATOM     67  C   UNL A   1      42.727  31.414  30.577  1.00  0.00     0.074 A 
ATOM     68  C   UNL A   1      42.350  30.343  31.496  1.00  0.00     0.031 C 
ATOM     69  C   UNL A   1      43.005  32.732  30.807  1.00  0.00     0.037 A 
BRANCH  56  70
ATOM     70  C   UNL A   1      42.082  31.321  35.913  1.00  0.00     0.064 A 
ATOM     71  C   UNL A   1      42.972  31.596  36.967  1.00  0.00     0.173 A 
ATOM     72  C   UNL A   1      42.006  29.959  35.532  1.00  0.00     0.173 A 
ATOM     73  F   UNL A   1      43.127  32.851  37.417  1.00  0.00    -0.203 F 
ATOM     74  C   UNL A   1      43.798  30.612  37.512  1.00  0.00     0.198 A 
ATOM     75  C   UNL A   1      42.792  28.971  36.116  1.00  0.00     0.198 A 
ATOM     76  F   UNL A   1      41.256  29.520  34.517  1.00  0.00    -0.203 F 
ATOM     77  F   UNL A   1      44.728  30.955  38.412  1.00  0.00    -0.200 F 
ATOM     78  C   UNL A   1      43.717  29.303  37.077  1.00  0.00     0.200 A 
ATOM     79  F   UNL A   1      42.699  27.710  35.669  1.00  0.00    -0.200 F 
ATOM     80  F   UNL A   1      44.555  28.371  37.548  1.00  0.00    -0.200 F 
ENDBRANCH  56  70
BRANCH  57  81
ATOM     81  C   UNL A   1      40.044  28.304  28.197  1.00  0.00     0.064 A 
ATOM     82  C   UNL A   1      40.593  27.909  26.967  1.00  0.00     0.173 A 
ATOM     83  C   UNL A   1      39.394  27.293  28.937  1.00  0.00     0.173 A 
ATOM     84  F   UNL A   1      41.277  28.791  26.222  1.00  0.00    -0.203 F 
ATOM     85  C   UNL A   1      40.506  26.588  26.511  1.00  0.00     0.198 A 
ATOM     86  C   UNL A   1      39.296  25.981  28.477  1.00  0.00     0.198 A 
ATOM     87  F   UNL A   1      38.920  27.533  30.167  1.00  0.00    -0.203 F 
ATOM     88  F   UNL A   1      41.089  26.239  25.356  1.00  0.00    -0.200 F 
ATOM     89  C   UNL A   1      39.860  25.624  27.269  1.00  0.00     0.200 A 
ATOM     90  F   UNL A   1      38.703  25.053  29.241  1.00  0.00    -0.200 F 
ATOM     91  F   UNL A   1      39.818  24.349  26.857  1.00  0.00    -0.200 F 
ENDBRANCH  57  81
BRANCH  69  92
ATOM     92  C   UNL A   1      43.160  33.652  29.629  1.00  0.00     0.064 A 
ATOM     93  C   UNL A   1      42.114  34.416  29.082  1.00  0.00     0.173 A 
ATOM     94  C   UNL A   1      44.455  33.900  29.153  1.00  0.00     0.173 A 
ATOM     95  F   UNL A   1      40.867  34.323  29.564  1.00  0.00    -0.203 F 
ATOM     96  C   UNL A   1      42.353  35.352  28.075  1.00  0.00     0.198 A 
ATOM     97  C   UNL A   1      44.696  34.863  28.178  1.00  0.00     0.198 A 
ATOM     98  F   UNL A   1      45.500  33.246  29.682  1.00  0.00    -0.203 F 
ATOM     99  F   UNL A   1      41.338  36.067  27.568  1.00  0.00    -0.200 F 
ATOM    100  C   UNL A   1      43.645  35.580  27.631  1.00  0.00     0.200 A 
ATOM    101  F   UNL A   1      45.954  35.120  27.796  1.00  0.00    -0.200 F 
ATOM    102  F   UNL A   1      43.883  36.515  26.701  1.00  0.00    -0.200 F 
ENDBRANCH  69  92
ENDBRANCH  43  44
ENDBRANCH  36  38
ENDBRANCH  35  36
ENDBRANCH  34  35
ENDBRANCH  33  34
ENDBRANCH  32  33
ENDBRANCH  31  32
ENDBRANCH   1  31
TORSDOF 21
ENDMDL
MODEL 3
REMARK VINA RESULT:     -11.0      4.413      6.879
REMARK SMILES Cc1cc2n(n1)[C@H](C(F)(F)F)CCN2C(=O)c1cnn([C@@H](C)C(=O)OCCOCCOCCOC(=O)c2ccc(-c3c4nc(c(-c5c(F)c(F)c(F)c(F)c5F)c5ccc([nH]5)c(-c5c(F)c(F)c(F)c(F)c5F)c5nc(c(-c6c(F)c(F)c(F)c(F)c6F)c6ccc3[nH]6)C=C5)C=C4)cc2)c1
REMARK SMILES IDX 29 1 28 2 27 3 26 4 25 5 23 6 24 7 21 8 22 9 20 10 17 11
REMARK SMILES IDX 18 12 100 13 19 14 15 15 16 16 14 17 1 18 2 19 3 20 6 21
REMARK SMILES IDX 4 22 5 23 7 24 13 25 12 26 8 27 9 28 10 29 11 30 30 31 31 32
REMARK SMILES IDX 32 33 33 34 34 35 35 36 36 37 37 38 38 39 99 40 39 41 98 42
REMARK SMILES IDX 40 43 41 44 42 45 92 46 43 47 97 48 91 49 93 50 44 51 96 52
REMARK SMILES IDX 90 53 89 54 45 56 77 57 57 58 76 59 58 60 61 61 75 62 94 63
REMARK SMILES IDX 59 64 60 65 74 67 95 68 62 69 46 70 47 71 55 72 48 73 49 74
REMARK SMILES IDX 53 75 56 76 50 77 51 78 54 79 52 80 78 81 79 82 87 83 80 84
REMARK SMILES IDX 81 85 85 86 88 87 82 88 83 89 86 90 84 91 63 92 64 93 72 94
REMARK SMILES IDX 65 95 66 96 70 97 73 98 67 99 68 100 71 101 69 102
REMARK H PARENT 93 55 61 66
REMARK Flexibility Score: inf
ROOT
ATOM      1  C   UNL A   1      34.983  33.706  31.813  1.00  0.00     0.188 C 
ENDROOT
BRANCH   1   2
ATOM      2  O   UNL A   1      34.373  33.160  30.675  1.00  0.00    -0.376 OA
BRANCH   2   3
ATOM      3  C   UNL A   1      34.575  33.800  29.428  1.00  0.00     0.202 C 
BRANCH   3   4
ATOM      4  C   UNL A   1      34.427  33.072  28.071  1.00  0.00     0.261 C 
BRANCH   4   5
ATOM      5  O   UNL A   1      34.640  31.639  28.058  1.00  0.00    -0.462 OA
BRANCH   5   6
ATOM      6  C   UNL A   1      33.663  30.876  27.513  1.00  0.00     0.330 C 
ATOM      7  O   UNL A   1      32.555  31.333  27.220  1.00  0.00    -0.250 OA
BRANCH   6   8
ATOM      8  C   UNL A   1      33.976  29.421  27.193  1.00  0.00     0.213 C 
ATOM      9  C   UNL A   1      35.481  29.199  27.264  1.00  0.00     0.046 C 
BRANCH   8  10
ATOM     10  N   UNL A   1      33.410  28.776  26.001  1.00  0.00    -0.258 N 
ATOM     11  C   UNL A   1      32.430  27.277  24.672  1.00  0.00     0.078 A 
ATOM     12  C   UNL A   1      32.921  28.407  23.977  1.00  0.00     0.149 A 
ATOM     13  C   UNL A   1      32.765  27.552  25.988  1.00  0.00     0.123 A 
ATOM     14  N   UNL A   1      33.648  29.221  24.752  1.00  0.00    -0.180 NA
BRANCH  11  15
ATOM     15  C   UNL A   1      31.692  26.133  24.186  1.00  0.00     0.262 C 
ATOM     16  O   UNL A   1      30.459  26.100  24.105  1.00  0.00    -0.269 OA
BRANCH  15  17
ATOM     17  N   UNL A   1      32.509  24.948  23.926  1.00  0.00    -0.293 N 
ATOM     18  C   UNL A   1      32.904  22.202  28.151  1.00  0.00     0.069 C 
ATOM     19  C   UNL A   1      32.978  22.769  26.781  1.00  0.00     0.062 A 
ATOM     20  C   UNL A   1      32.350  23.931  26.252  1.00  0.00     0.072 A 
ATOM     21  N   UNL A   1      33.715  22.151  25.852  1.00  0.00    -0.176 NA
ATOM     22  C   UNL A   1      32.784  24.022  24.946  1.00  0.00     0.134 A 
ATOM     23  N   UNL A   1      33.623  22.951  24.786  1.00  0.00    -0.237 N 
ATOM     24  C   UNL A   1      34.341  22.636  23.576  1.00  0.00     0.216 C 
ATOM     25  C   UNL A   1      33.255  24.808  22.649  1.00  0.00     0.130 C 
ATOM     26  C   UNL A   1      33.749  23.385  22.377  1.00  0.00     0.059 C 
BRANCH  24  27
ATOM     27  C   UNL A   1      35.820  22.905  23.751  1.00  0.00     0.410 C 
ATOM     28  F   UNL A   1      36.427  21.893  24.411  1.00  0.00    -0.169 F 
ATOM     29  F   UNL A   1      36.472  23.108  22.591  1.00  0.00    -0.169 F 
ATOM     30  F   UNL A   1      35.995  24.023  24.499  1.00  0.00    -0.169 F 
ENDBRANCH  24  27
ENDBRANCH  15  17
ENDBRANCH  11  15
ENDBRANCH   8  10
ENDBRANCH   6   8
ENDBRANCH   5   6
ENDBRANCH   4   5
ENDBRANCH   3   4
ENDBRANCH   2   3
ENDBRANCH   1   2
BRANCH   1  31
ATOM     31  C   UNL A   1      36.454  34.133  31.761  1.00  0.00     0.188 C 
BRANCH  31  32
ATOM     32  O   UNL A   1      37.363  34.092  32.839  1.00  0.00    -0.376 OA
BRANCH  32  33
ATOM     33  C   UNL A   1      38.594  33.394  32.930  1.00  0.00     0.202 C 
BRANCH  33  34
ATOM     34  C   UNL A   1      38.819  31.970  32.442  1.00  0.00     0.261 C 
BRANCH  34  35
ATOM     35  O   UNL A   1      39.323  31.912  31.137  1.00  0.00    -0.460 OA
BRANCH  35  36
ATOM     36  C   UNL A   1      38.573  31.158  30.310  1.00  0.00     0.338 C 
ATOM     37  O   UNL A   1      37.376  30.930  30.373  1.00  0.00    -0.246 OA
BRANCH  36  38
ATOM     38  C   UNL A   1      39.474  30.666  29.264  1.00  0.00     0.060 A 
ATOM     39  C   UNL A   1      39.023  29.557  28.550  1.00  0.00     0.016 A 
ATOM     40  C   UNL A   1      40.820  31.033  29.352  1.00  0.00     0.016 A 
ATOM     41  C   UNL A   1      39.942  28.579  28.300  1.00  0.00     0.010 A 
ATOM     42  C   UNL A   1      41.724  30.037  29.172  1.00  0.00     0.010 A 
ATOM     43  C   UNL A   1      41.238  28.793  28.771  1.00  0.00    -0.014 A 
BRANCH  43  44
ATOM     44  C   UNL A   1      42.129  27.671  28.859  1.00  0.00     0.031 A 
ATOM     45  C   UNL A   1      42.659  27.518  30.222  1.00  0.00     0.074 A 
ATOM     46  C   UNL A   1      42.278  26.844  27.809  1.00  0.00     0.049 A 
ATOM     47  N   UNL A   1      43.865  27.742  30.620  1.00  0.00    -0.248 NA
ATOM     48  C   UNL A   1      41.683  27.357  31.315  1.00  0.00     0.031 C 
ATOM     49  C   UNL A   1      41.537  26.837  26.542  1.00  0.00     0.029 A 
ATOM     50  N   UNL A   1      43.039  25.723  27.725  1.00  0.00    -0.354 N 
ATOM     51  C   UNL A   1      43.830  27.498  31.986  1.00  0.00     0.074 A 
ATOM     52  C   UNL A   1      42.454  27.583  32.377  1.00  0.00     0.031 C 
ATOM     53  C   UNL A   1      41.703  25.638  25.939  1.00  0.00     0.029 A 
ATOM     54  C   UNL A   1      42.631  24.846  26.722  1.00  0.00     0.049 A 
ATOM     55  H   UNL A   1      43.805  25.546  28.317  1.00  0.00     0.167 HD
ATOM     56  C   UNL A   1      44.868  26.864  32.592  1.00  0.00     0.037 A 
ATOM     57  C   UNL A   1      42.947  23.525  26.701  1.00  0.00     0.037 A 
ATOM     58  C   UNL A   1      46.064  26.967  31.785  1.00  0.00     0.049 A 
ATOM     59  C   UNL A   1      44.119  23.347  27.613  1.00  0.00     0.074 A 
ATOM     60  C   UNL A   1      46.766  28.029  31.243  1.00  0.00     0.029 A 
ATOM     61  N   UNL A   1      46.466  25.857  31.079  1.00  0.00    -0.354 N 
ATOM     62  N   UNL A   1      45.305  23.841  27.368  1.00  0.00    -0.248 NA
ATOM     63  C   UNL A   1      43.830  23.098  29.022  1.00  0.00     0.031 C 
ATOM     64  C   UNL A   1      47.157  27.592  29.945  1.00  0.00     0.029 A 
ATOM     65  C   UNL A   1      46.756  26.263  29.801  1.00  0.00     0.049 A 
ATOM     66  H   UNL A   1      46.534  24.939  31.427  1.00  0.00     0.167 HD
ATOM     67  C   UNL A   1      45.733  24.358  28.585  1.00  0.00     0.074 A 
ATOM     68  C   UNL A   1      44.801  23.828  29.578  1.00  0.00     0.031 C 
ATOM     69  C   UNL A   1      46.604  25.408  28.648  1.00  0.00     0.037 A 
BRANCH  56  70
ATOM     70  C   UNL A   1      44.685  25.802  33.655  1.00  0.00     0.064 A 
ATOM     71  C   UNL A   1      45.234  26.043  34.928  1.00  0.00     0.173 A 
ATOM     72  C   UNL A   1      44.270  24.468  33.423  1.00  0.00     0.173 A 
ATOM     73  F   UNL A   1      45.659  27.270  35.265  1.00  0.00    -0.203 F 
ATOM     74  C   UNL A   1      45.456  25.012  35.843  1.00  0.00     0.198 A 
ATOM     75  C   UNL A   1      44.444  23.454  34.359  1.00  0.00     0.198 A 
ATOM     76  F   UNL A   1      43.776  24.045  32.256  1.00  0.00    -0.203 F 
ATOM     77  F   UNL A   1      46.113  25.270  36.981  1.00  0.00    -0.200 F 
ATOM     78  C   UNL A   1      45.073  23.717  35.553  1.00  0.00     0.200 A 
ATOM     79  F   UNL A   1      44.070  22.205  34.048  1.00  0.00    -0.200 F 
ATOM     80  F   UNL A   1      45.347  22.715  36.398  1.00  0.00    -0.200 F 
ENDBRANCH  56  70
BRANCH  57  81
ATOM     81  C   UNL A   1      42.072  22.400  26.280  1.00  0.00     0.064 A 
ATOM     82  C   UNL A   1      42.611  21.156  25.918  1.00  0.00     0.173 A 
ATOM     83  C   UNL A   1      40.673  22.442  26.457  1.00  0.00     0.173 A 
ATOM     84  F   UNL A   1      43.938  21.010  25.782  1.00  0.00    -0.203 F 
ATOM     85  C   UNL A   1      41.803  20.024  25.751  1.00  0.00     0.198 A 
ATOM     86  C   UNL A   1      39.867  21.317  26.280  1.00  0.00     0.198 A 
ATOM     87  F   UNL A   1      40.064  23.550  26.899  1.00  0.00    -0.203 F 
ATOM     88  F   UNL A   1      42.360  18.841  25.457  1.00  0.00    -0.200 F 
ATOM     89  C   UNL A   1      40.432  20.105  25.936  1.00  0.00     0.200 A 
ATOM     90  F   UNL A   1      38.548  21.405  26.501  1.00  0.00    -0.200 F 
ATOM     91  F   UNL A   1      39.663  19.012  25.826  1.00  0.00    -0.200 F 
ENDBRANCH  57  81
BRANCH  69  92
ATOM     92  C   UNL A   1      47.290  25.853  27.387  1.00  0.00     0.064 A 
ATOM     93  C   UNL A   1      46.775  26.822  26.509  1.00  0.00     0.173 A 
ATOM     94  C   UNL A   1      48.599  25.406  27.157  1.00  0.00     0.173 A 
ATOM     95  F   UNL A   1      45.579  27.385  26.728  1.00  0.00    -0.203 F 
ATOM     96  C   UNL A   1      47.524  27.287  25.427  1.00  0.00     0.198 A 
ATOM     97  C   UNL A   1      49.358  25.902  26.102  1.00  0.00     0.198 A 
ATOM     98  F   UNL A   1      49.165  24.528  27.999  1.00  0.00    -0.203 F 
ATOM     99  F   UNL A   1      47.010  28.211  24.603  1.00  0.00    -0.200 F 
ATOM    100  C   UNL A   1      48.817  26.833  25.231  1.00  0.00     0.200 A 
ATOM    101  F   UNL A   1      50.628  25.503  25.953  1.00  0.00    -0.200 F 
ATOM    102  F   UNL A   1      49.556  27.318  24.223  1.00  0.00    -0.200 F 
ENDBRANCH  69  92
ENDBRANCH  43  44
ENDBRANCH  36  38
ENDBRANCH  35  36
ENDBRANCH  34  35
ENDBRANCH  33  34
ENDBRANCH  32  33
ENDBRANCH  31  32
ENDBRANCH   1  31
TORSDOF 21
ENDMDL
