MODEL 1
REMARK VINA RESULT:     -10.7      0.000      0.000
REMARK SMILES CC[C@]1(C(=O)OCCOCCOCCOC(=O)c2ccc(-c3c4nc(c(-c5c(F)c(F)c(F)c(F)c5F)c5ccc([nH]5)c(-c5c(F)c(F)c(F)c(F)c5F)c5nc(c(-c6c(F)c(F)c(F)c(F)c6F)c6ccc3[nH]6)C=C5)C=C4)cc2)CCC[N@@H+]([C@@H]2CCC[C@H](S(C)(=O)=O)C2)C1
REMARK SMILES IDX 10 1 9 2 8 3 7 4 6 5 4 6 5 7 3 8 81 9 95 10 82 11 84 12
REMARK SMILES IDX 83 13 2 15 1 16 85 17 86 18 94 19 87 20 89 21 88 22 90 23
REMARK SMILES IDX 91 24 92 25 93 26 11 27 12 28 13 29 14 30 15 31 16 32 17 33
REMARK SMILES IDX 18 34 19 35 80 36 20 37 79 38 21 39 22 40 23 41 73 42 24 43
REMARK SMILES IDX 78 44 72 45 74 46 25 47 77 48 71 49 70 50 26 52 58 53 38 54
REMARK SMILES IDX 57 55 39 56 42 57 56 58 75 59 40 60 41 61 55 63 76 64 43 65
REMARK SMILES IDX 27 66 28 67 36 68 29 69 30 70 34 71 37 72 31 73 32 74 35 75
REMARK SMILES IDX 33 76 59 77 60 78 68 79 61 80 62 81 66 82 69 83 63 84 64 85
REMARK SMILES IDX 67 86 65 87 44 88 45 89 53 90 46 91 47 92 51 93 54 94 48 95
REMARK SMILES IDX 49 96 52 97 50 98
REMARK H PARENT 84 14 74 51 42 62
REMARK Flexibility Score: inf
ROOT
ATOM      1  C   UNL A   1      39.507  21.805  25.985  1.00  0.00     0.188 C 
ENDROOT
BRANCH   1   2
ATOM      2  O   UNL A   1      38.121  22.069  26.140  1.00  0.00    -0.376 OA
BRANCH   2   3
ATOM      3  C   UNL A   1      37.587  23.316  25.711  1.00  0.00     0.202 C 
BRANCH   3   4
ATOM      4  C   UNL A   1      36.655  23.369  24.484  1.00  0.00     0.261 C 
BRANCH   4   5
ATOM      5  O   UNL A   1      35.281  23.766  24.714  1.00  0.00    -0.463 OA
BRANCH   5   6
ATOM      6  C   UNL A   1      34.374  22.757  24.831  1.00  0.00     0.317 C 
ATOM      7  O   UNL A   1      34.688  21.571  24.803  1.00  0.00    -0.251 OA
BRANCH   6   8
ATOM      8  C   UNL A   1      32.897  23.223  24.906  1.00  0.00     0.117 C 
ATOM      9  C   UNL A   1      32.100  22.918  26.201  1.00  0.00     0.030 C 
ATOM     10  C   UNL A   1      33.049  24.757  24.835  1.00  0.00     0.281 C 
ATOM     11  C   UNL A   1      30.779  23.680  26.252  1.00  0.00     0.063 C 
ATOM     12  N   UNL A   1      31.757  25.462  24.852  1.00  0.00    -0.332 N 
ATOM     13  C   UNL A   1      30.998  25.174  26.077  1.00  0.00     0.262 C 
ATOM     14  H   UNL A   1      31.174  25.101  24.098  1.00  0.00     0.348 HD
BRANCH   8  15
ATOM     15  C   UNL A   1      32.151  22.702  23.630  1.00  0.00     0.021 C 
ATOM     16  C   UNL A   1      32.929  22.779  22.320  1.00  0.00     0.005 C 
ENDBRANCH   8  15
BRANCH  12  17
ATOM     17  C   UNL A   1      31.934  26.895  24.555  1.00  0.00     0.185 C 
ATOM     18  C   UNL A   1      32.263  27.757  25.787  1.00  0.00     0.065 C 
ATOM     19  C   UNL A   1      30.725  27.426  23.773  1.00  0.00     0.084 C 
ATOM     20  C   UNL A   1      32.391  29.226  25.418  1.00  0.00     0.007 C 
ATOM     21  C   UNL A   1      30.815  28.922  23.471  1.00  0.00     0.114 C 
ATOM     22  C   UNL A   1      31.126  29.726  24.735  1.00  0.00     0.020 C 
BRANCH  21  23
ATOM     23  S   UNL A   1      29.256  29.436  22.715  1.00  0.00     0.150 S 
ATOM     24  C   UNL A   1      28.834  30.946  23.541  1.00  0.00     0.158 C 
ATOM     25  O   UNL A   1      29.530  29.773  21.331  1.00  0.00    -0.229 OA
ATOM     26  O   UNL A   1      28.238  28.458  23.050  1.00  0.00    -0.229 OA
ENDBRANCH  21  23
ENDBRANCH  12  17
ENDBRANCH   6   8
ENDBRANCH   5   6
ENDBRANCH   4   5
ENDBRANCH   3   4
ENDBRANCH   2   3
ENDBRANCH   1   2
BRANCH   1  27
ATOM     27  C   UNL A   1      40.412  21.815  27.220  1.00  0.00     0.188 C 
BRANCH  27  28
ATOM     28  O   UNL A   1      41.125  20.628  27.456  1.00  0.00    -0.376 OA
BRANCH  28  29
ATOM     29  C   UNL A   1      41.171  19.644  26.443  1.00  0.00     0.202 C 
BRANCH  29  30
ATOM     30  C   UNL A   1      42.531  19.042  26.057  1.00  0.00     0.261 C 
BRANCH  30  31
ATOM     31  O   UNL A   1      43.007  19.327  24.729  1.00  0.00    -0.460 OA
BRANCH  31  32
ATOM     32  C   UNL A   1      44.346  19.491  24.571  1.00  0.00     0.338 C 
ATOM     33  O   UNL A   1      45.121  18.710  24.064  1.00  0.00    -0.246 OA
BRANCH  32  34
ATOM     34  C   UNL A   1      44.661  20.915  24.883  1.00  0.00     0.060 A 
ATOM     35  C   UNL A   1      45.243  21.216  26.124  1.00  0.00     0.016 A 
ATOM     36  C   UNL A   1      44.431  21.933  23.955  1.00  0.00     0.016 A 
ATOM     37  C   UNL A   1      45.574  22.536  26.448  1.00  0.00     0.010 A 
ATOM     38  C   UNL A   1      44.736  23.259  24.294  1.00  0.00     0.010 A 
ATOM     39  C   UNL A   1      45.284  23.572  25.552  1.00  0.00    -0.014 A 
BRANCH  39  40
ATOM     40  C   UNL A   1      45.343  24.986  26.009  1.00  0.00     0.031 A 
ATOM     41  C   UNL A   1      46.672  25.691  25.950  1.00  0.00     0.074 A 
ATOM     42  C   UNL A   1      44.259  25.650  26.448  1.00  0.00     0.049 A 
ATOM     43  N   UNL A   1      47.002  26.893  26.351  1.00  0.00    -0.248 NA
ATOM     44  C   UNL A   1      47.782  24.930  25.353  1.00  0.00     0.031 C 
ATOM     45  C   UNL A   1      42.901  25.119  26.497  1.00  0.00     0.029 A 
ATOM     46  N   UNL A   1      44.142  26.926  26.948  1.00  0.00    -0.354 N 
ATOM     47  C   UNL A   1      48.352  27.030  26.058  1.00  0.00     0.074 A 
ATOM     48  C   UNL A   1      48.789  25.781  25.474  1.00  0.00     0.031 C 
ATOM     49  C   UNL A   1      42.086  26.056  27.016  1.00  0.00     0.029 A 
ATOM     50  C   UNL A   1      42.872  27.239  27.370  1.00  0.00     0.049 A 
ATOM     51  H   UNL A   1      44.897  27.556  26.999  1.00  0.00     0.167 HD
ATOM     52  C   UNL A   1      49.158  28.102  26.252  1.00  0.00     0.037 A 
ATOM     53  C   UNL A   1      42.409  28.341  27.995  1.00  0.00     0.037 A 
ATOM     54  C   UNL A   1      48.735  29.341  26.846  1.00  0.00     0.049 A 
ATOM     55  C   UNL A   1      43.352  29.481  28.303  1.00  0.00     0.074 A 
ATOM     56  C   UNL A   1      49.483  30.481  27.087  1.00  0.00     0.029 A 
ATOM     57  N   UNL A   1      47.454  29.600  27.308  1.00  0.00    -0.354 N 
ATOM     58  N   UNL A   1      44.624  29.611  28.013  1.00  0.00    -0.248 NA
ATOM     59  C   UNL A   1      42.789  30.633  29.027  1.00  0.00     0.031 C 
ATOM     60  C   UNL A   1      48.671  31.404  27.753  1.00  0.00     0.029 A 
ATOM     61  C   UNL A   1      47.398  30.869  27.861  1.00  0.00     0.049 A 
ATOM     62  H   UNL A   1      46.695  28.974  27.251  1.00  0.00     0.167 HD
ATOM     63  C   UNL A   1      45.001  30.866  28.482  1.00  0.00     0.074 A 
ATOM     64  C   UNL A   1      43.821  31.464  29.065  1.00  0.00     0.031 C 
ATOM     65  C   UNL A   1      46.215  31.468  28.429  1.00  0.00     0.037 A 
BRANCH  52  66
ATOM     66  C   UNL A   1      50.598  27.960  25.850  1.00  0.00     0.064 A 
ATOM     67  C   UNL A   1      51.019  28.142  24.523  1.00  0.00     0.173 A 
ATOM     68  C   UNL A   1      51.573  27.656  26.811  1.00  0.00     0.173 A 
ATOM     69  F   UNL A   1      50.123  28.418  23.563  1.00  0.00    -0.203 F 
ATOM     70  C   UNL A   1      52.357  27.993  24.170  1.00  0.00     0.198 A 
ATOM     71  C   UNL A   1      52.916  27.542  26.460  1.00  0.00     0.198 A 
ATOM     72  F   UNL A   1      51.226  27.474  28.095  1.00  0.00    -0.203 F 
ATOM     73  F   UNL A   1      52.727  28.115  22.887  1.00  0.00    -0.200 F 
ATOM     74  C   UNL A   1      53.306  27.701  25.139  1.00  0.00     0.200 A 
ATOM     75  F   UNL A   1      53.832  27.273  27.401  1.00  0.00    -0.200 F 
ATOM     76  F   UNL A   1      54.594  27.563  24.798  1.00  0.00    -0.200 F 
ENDBRANCH  52  66
BRANCH  53  77
ATOM     77  C   UNL A   1      40.978  28.427  28.403  1.00  0.00     0.064 A 
ATOM     78  C   UNL A   1      40.006  28.953  27.539  1.00  0.00     0.173 A 
ATOM     79  C   UNL A   1      40.563  28.039  29.687  1.00  0.00     0.173 A 
ATOM     80  F   UNL A   1      40.358  29.374  26.315  1.00  0.00    -0.203 F 
ATOM     81  C   UNL A   1      38.684  29.108  27.950  1.00  0.00     0.198 A 
ATOM     82  C   UNL A   1      39.233  28.163  30.084  1.00  0.00     0.198 A 
ATOM     83  F   UNL A   1      41.453  27.543  30.559  1.00  0.00    -0.203 F 
ATOM     84  F   UNL A   1      37.790  29.673  27.125  1.00  0.00    -0.200 F 
ATOM     85  C   UNL A   1      38.296  28.707  29.219  1.00  0.00     0.200 A 
ATOM     86  F   UNL A   1      38.864  27.770  31.310  1.00  0.00    -0.200 F 
ATOM     87  F   UNL A   1      37.026  28.862  29.615  1.00  0.00    -0.200 F 
ENDBRANCH  53  77
BRANCH  65  88
ATOM     88  C   UNL A   1      46.328  32.869  28.965  1.00  0.00     0.064 A 
ATOM     89  C   UNL A   1      46.078  33.995  28.167  1.00  0.00     0.173 A 
ATOM     90  C   UNL A   1      46.648  33.085  30.316  1.00  0.00     0.173 A 
ATOM     91  F   UNL A   1      45.778  33.849  26.868  1.00  0.00    -0.203 F 
ATOM     92  C   UNL A   1      46.173  35.283  28.692  1.00  0.00     0.198 A 
ATOM     93  C   UNL A   1      46.706  34.372  30.845  1.00  0.00     0.198 A 
ATOM     94  F   UNL A   1      46.887  32.046  31.130  1.00  0.00    -0.203 F 
ATOM     95  F   UNL A   1      45.981  36.345  27.896  1.00  0.00    -0.200 F 
ATOM     96  C   UNL A   1      46.477  35.470  30.032  1.00  0.00     0.200 A 
ATOM     97  F   UNL A   1      46.981  34.548  32.146  1.00  0.00    -0.200 F 
ATOM     98  F   UNL A   1      46.558  36.709  30.536  1.00  0.00    -0.200 F 
ENDBRANCH  65  88
ENDBRANCH  39  40
ENDBRANCH  32  34
ENDBRANCH  31  32
ENDBRANCH  30  31
ENDBRANCH  29  30
ENDBRANCH  28  29
ENDBRANCH  27  28
ENDBRANCH   1  27
TORSDOF 20
ENDMDL
MODEL 2
REMARK VINA RESULT:     -10.2      4.932      9.281
REMARK SMILES CC[C@]1(C(=O)OCCOCCOCCOC(=O)c2ccc(-c3c4nc(c(-c5c(F)c(F)c(F)c(F)c5F)c5ccc([nH]5)c(-c5c(F)c(F)c(F)c(F)c5F)c5nc(c(-c6c(F)c(F)c(F)c(F)c6F)c6ccc3[nH]6)C=C5)C=C4)cc2)CCC[N@@H+]([C@@H]2CCC[C@H](S(C)(=O)=O)C2)C1
REMARK SMILES IDX 10 1 9 2 8 3 7 4 6 5 4 6 5 7 3 8 81 9 95 10 82 11 84 12
REMARK SMILES IDX 83 13 2 15 1 16 85 17 86 18 94 19 87 20 89 21 88 22 90 23
REMARK SMILES IDX 91 24 92 25 93 26 11 27 12 28 13 29 14 30 15 31 16 32 17 33
REMARK SMILES IDX 18 34 19 35 80 36 20 37 79 38 21 39 22 40 23 41 73 42 24 43
REMARK SMILES IDX 78 44 72 45 74 46 25 47 77 48 71 49 70 50 26 52 58 53 38 54
REMARK SMILES IDX 57 55 39 56 42 57 56 58 75 59 40 60 41 61 55 63 76 64 43 65
REMARK SMILES IDX 27 66 28 67 36 68 29 69 30 70 34 71 37 72 31 73 32 74 35 75
REMARK SMILES IDX 33 76 59 77 60 78 68 79 61 80 62 81 66 82 69 83 63 84 64 85
REMARK SMILES IDX 67 86 65 87 44 88 45 89 53 90 46 91 47 92 51 93 54 94 48 95
REMARK SMILES IDX 49 96 52 97 50 98
REMARK H PARENT 84 14 74 51 42 62
REMARK Flexibility Score: inf
ROOT
ATOM      1  C   UNL A   1      39.643  21.793  26.495  1.00  0.00     0.188 C 
ENDROOT
BRANCH   1   2
ATOM      2  O   UNL A   1      38.662  21.642  25.480  1.00  0.00    -0.376 OA
BRANCH   2   3
ATOM      3  C   UNL A   1      37.810  20.502  25.484  1.00  0.00     0.202 C 
BRANCH   3   4
ATOM      4  C   UNL A   1      36.333  20.646  25.069  1.00  0.00     0.261 C 
BRANCH   4   5
ATOM      5  O   UNL A   1      35.482  21.449  25.923  1.00  0.00    -0.463 OA
BRANCH   5   6
ATOM      6  C   UNL A   1      35.371  22.766  25.596  1.00  0.00     0.317 C 
ATOM      7  O   UNL A   1      36.035  23.645  26.136  1.00  0.00    -0.251 OA
BRANCH   6   8
ATOM      8  C   UNL A   1      34.267  23.082  24.554  1.00  0.00     0.117 C 
ATOM      9  C   UNL A   1      32.854  22.484  24.783  1.00  0.00     0.030 C 
ATOM     10  C   UNL A   1      34.125  24.612  24.703  1.00  0.00     0.281 C 
ATOM     11  C   UNL A   1      31.813  23.108  23.859  1.00  0.00     0.063 C 
ATOM     12  N   UNL A   1      33.139  25.188  23.776  1.00  0.00    -0.332 N 
ATOM     13  C   UNL A   1      31.799  24.623  23.988  1.00  0.00     0.262 C 
ATOM     14  H   UNL A   1      33.383  24.918  22.823  1.00  0.00     0.348 HD
BRANCH   8  15
ATOM     15  C   UNL A   1      34.820  22.734  23.130  1.00  0.00     0.021 C 
ATOM     16  C   UNL A   1      36.242  23.198  22.831  1.00  0.00     0.005 C 
ENDBRANCH   8  15
BRANCH  12  17
ATOM     17  C   UNL A   1      33.199  26.661  23.790  1.00  0.00     0.185 C 
ATOM     18  C   UNL A   1      33.657  27.260  25.131  1.00  0.00     0.065 C 
ATOM     19  C   UNL A   1      31.865  27.249  23.309  1.00  0.00     0.084 C 
ATOM     20  C   UNL A   1      33.657  28.779  25.091  1.00  0.00     0.007 C 
ATOM     21  C   UNL A   1      31.835  28.777  23.344  1.00  0.00     0.114 C 
ATOM     22  C   UNL A   1      32.283  29.311  24.706  1.00  0.00     0.020 C 
BRANCH  21  23
ATOM     23  S   UNL A   1      30.160  29.314  22.931  1.00  0.00     0.150 S 
ATOM     24  C   UNL A   1      29.163  27.863  23.126  1.00  0.00     0.158 C 
ATOM     25  O   UNL A   1      29.738  30.257  23.950  1.00  0.00    -0.229 OA
ATOM     26  O   UNL A   1      30.127  29.678  21.527  1.00  0.00    -0.229 OA
ENDBRANCH  21  23
ENDBRANCH  12  17
ENDBRANCH   6   8
ENDBRANCH   5   6
ENDBRANCH   4   5
ENDBRANCH   3   4
ENDBRANCH   2   3
ENDBRANCH   1   2
BRANCH   1  27
ATOM     27  C   UNL A   1      41.022  22.345  26.125  1.00  0.00     0.188 C 
BRANCH  27  28
ATOM     28  O   UNL A   1      42.114  21.553  26.516  1.00  0.00    -0.376 OA
BRANCH  28  29
ATOM     29  C   UNL A   1      43.180  21.361  25.608  1.00  0.00     0.202 C 
BRANCH  29  30
ATOM     30  C   UNL A   1      44.228  22.473  25.450  1.00  0.00     0.261 C 
BRANCH  30  31
ATOM     31  O   UNL A   1      43.753  23.741  24.959  1.00  0.00    -0.460 OA
BRANCH  31  32
ATOM     32  C   UNL A   1      44.493  24.839  25.258  1.00  0.00     0.338 C 
ATOM     33  O   UNL A   1      45.437  25.274  24.635  1.00  0.00    -0.246 OA
BRANCH  32  34
ATOM     34  C   UNL A   1      43.777  25.579  26.337  1.00  0.00     0.060 A 
ATOM     35  C   UNL A   1      44.098  26.929  26.550  1.00  0.00     0.016 A 
ATOM     36  C   UNL A   1      42.776  24.972  27.098  1.00  0.00     0.016 A 
ATOM     37  C   UNL A   1      43.436  27.666  27.538  1.00  0.00     0.010 A 
ATOM     38  C   UNL A   1      42.134  25.704  28.106  1.00  0.00     0.010 A 
ATOM     39  C   UNL A   1      42.478  27.047  28.351  1.00  0.00    -0.014 A 
BRANCH  39  40
ATOM     40  C   UNL A   1      42.004  27.725  29.586  1.00  0.00     0.031 A 
ATOM     41  C   UNL A   1      40.744  28.545  29.501  1.00  0.00     0.074 A 
ATOM     42  C   UNL A   1      42.646  27.616  30.763  1.00  0.00     0.049 A 
ATOM     43  N   UNL A   1      40.163  29.286  30.412  1.00  0.00    -0.248 NA
ATOM     44  C   UNL A   1      40.044  28.521  28.207  1.00  0.00     0.031 C 
ATOM     45  C   UNL A   1      43.835  26.806  31.009  1.00  0.00     0.029 A 
ATOM     46  N   UNL A   1      42.381  28.206  31.977  1.00  0.00    -0.354 N 
ATOM     47  C   UNL A   1      39.034  29.816  29.800  1.00  0.00     0.074 A 
ATOM     48  C   UNL A   1      39.027  29.338  28.435  1.00  0.00     0.031 C 
ATOM     49  C   UNL A   1      44.210  26.962  32.293  1.00  0.00     0.029 A 
ATOM     50  C   UNL A   1      43.308  27.912  32.948  1.00  0.00     0.049 A 
ATOM     51  H   UNL A   1      41.601  28.784  32.136  1.00  0.00     0.167 HD
ATOM     52  C   UNL A   1      38.084  30.625  30.328  1.00  0.00     0.037 A 
ATOM     53  C   UNL A   1      43.429  28.379  34.208  1.00  0.00     0.037 A 
ATOM     54  C   UNL A   1      38.093  31.116  31.680  1.00  0.00     0.049 A 
ATOM     55  C   UNL A   1      42.418  29.369  34.740  1.00  0.00     0.074 A 
ATOM     56  C   UNL A   1      37.175  31.944  32.302  1.00  0.00     0.029 A 
ATOM     57  N   UNL A   1      39.078  30.838  32.616  1.00  0.00    -0.354 N 
ATOM     58  N   UNL A   1      41.347  29.858  34.163  1.00  0.00    -0.248 NA
ATOM     59  C   UNL A   1      42.636  29.872  36.106  1.00  0.00     0.031 C 
ATOM     60  C   UNL A   1      37.637  32.219  33.593  1.00  0.00     0.029 A 
ATOM     61  C   UNL A   1      38.805  31.503  33.801  1.00  0.00     0.049 A 
ATOM     62  H   UNL A   1      39.855  30.253  32.462  1.00  0.00     0.167 HD
ATOM     63  C   UNL A   1      40.747  30.690  35.103  1.00  0.00     0.074 A 
ATOM     64  C   UNL A   1      41.567  30.632  36.293  1.00  0.00     0.031 C 
ATOM     65  C   UNL A   1      39.617  31.431  34.990  1.00  0.00     0.037 A 
BRANCH  52  66
ATOM     66  C   UNL A   1      36.972  31.062  29.419  1.00  0.00     0.064 A 
ATOM     67  C   UNL A   1      36.953  32.337  28.832  1.00  0.00     0.173 A 
ATOM     68  C   UNL A   1      35.919  30.186  29.118  1.00  0.00     0.173 A 
ATOM     69  F   UNL A   1      37.927  33.219  29.101  1.00  0.00    -0.203 F 
ATOM     70  C   UNL A   1      35.905  32.727  28.003  1.00  0.00     0.198 A 
ATOM     71  C   UNL A   1      34.890  30.567  28.260  1.00  0.00     0.198 A 
ATOM     72  F   UNL A   1      35.889  28.954  29.650  1.00  0.00    -0.203 F 
ATOM     73  F   UNL A   1      35.878  33.969  27.500  1.00  0.00    -0.200 F 
ATOM     74  C   UNL A   1      34.878  31.840  27.712  1.00  0.00     0.200 A 
ATOM     75  F   UNL A   1      33.908  29.703  27.970  1.00  0.00    -0.200 F 
ATOM     76  F   UNL A   1      33.873  32.215  26.910  1.00  0.00    -0.200 F 
ENDBRANCH  52  66
BRANCH  53  77
ATOM     77  C   UNL A   1      44.566  27.941  35.066  1.00  0.00     0.064 A 
ATOM     78  C   UNL A   1      44.462  26.810  35.888  1.00  0.00     0.173 A 
ATOM     79  C   UNL A   1      45.758  28.679  35.124  1.00  0.00     0.173 A 
ATOM     80  F   UNL A   1      43.329  26.093  35.898  1.00  0.00    -0.203 F 
ATOM     81  C   UNL A   1      45.495  26.447  36.749  1.00  0.00     0.198 A 
ATOM     82  C   UNL A   1      46.804  28.295  35.961  1.00  0.00     0.198 A 
ATOM     83  F   UNL A   1      45.907  29.778  34.370  1.00  0.00    -0.203 F 
ATOM     84  F   UNL A   1      45.343  25.398  37.571  1.00  0.00    -0.200 F 
ATOM     85  C   UNL A   1      46.668  27.185  36.781  1.00  0.00     0.200 A 
ATOM     86  F   UNL A   1      47.937  29.010  35.984  1.00  0.00    -0.200 F 
ATOM     87  F   UNL A   1      47.658  26.839  37.614  1.00  0.00    -0.200 F 
ENDBRANCH  53  77
BRANCH  65  88
ATOM     88  C   UNL A   1      39.158  32.201  36.199  1.00  0.00     0.064 A 
ATOM     89  C   UNL A   1      39.588  33.512  36.454  1.00  0.00     0.173 A 
ATOM     90  C   UNL A   1      38.237  31.632  37.092  1.00  0.00     0.173 A 
ATOM     91  F   UNL A   1      40.475  34.103  35.639  1.00  0.00    -0.203 F 
ATOM     92  C   UNL A   1      39.136  34.211  37.572  1.00  0.00     0.198 A 
ATOM     93  C   UNL A   1      37.759  32.346  38.188  1.00  0.00     0.198 A 
ATOM     94  F   UNL A   1      37.782  30.385  36.893  1.00  0.00    -0.203 F 
ATOM     95  F   UNL A   1      39.601  35.443  37.823  1.00  0.00    -0.200 F 
ATOM     96  C   UNL A   1      38.216  33.631  38.433  1.00  0.00     0.200 A 
ATOM     97  F   UNL A   1      36.855  31.790  39.007  1.00  0.00    -0.200 F 
ATOM     98  F   UNL A   1      37.776  34.310  39.501  1.00  0.00    -0.200 F 
ENDBRANCH  65  88
ENDBRANCH  39  40
ENDBRANCH  32  34
ENDBRANCH  31  32
ENDBRANCH  30  31
ENDBRANCH  29  30
ENDBRANCH  28  29
ENDBRANCH  27  28
ENDBRANCH   1  27
TORSDOF 20
ENDMDL
MODEL 3
REMARK VINA RESULT:     -10.1      1.481      2.129
REMARK SMILES CC[C@]1(C(=O)OCCOCCOCCOC(=O)c2ccc(-c3c4nc(c(-c5c(F)c(F)c(F)c(F)c5F)c5ccc([nH]5)c(-c5c(F)c(F)c(F)c(F)c5F)c5nc(c(-c6c(F)c(F)c(F)c(F)c6F)c6ccc3[nH]6)C=C5)C=C4)cc2)CCC[N@@H+]([C@@H]2CCC[C@H](S(C)(=O)=O)C2)C1
REMARK SMILES IDX 10 1 9 2 8 3 7 4 6 5 4 6 5 7 3 8 81 9 95 10 82 11 84 12
REMARK SMILES IDX 83 13 2 15 1 16 85 17 86 18 94 19 87 20 89 21 88 22 90 23
REMARK SMILES IDX 91 24 92 25 93 26 11 27 12 28 13 29 14 30 15 31 16 32 17 33
REMARK SMILES IDX 18 34 19 35 80 36 20 37 79 38 21 39 22 40 23 41 73 42 24 43
REMARK SMILES IDX 78 44 72 45 74 46 25 47 77 48 71 49 70 50 26 52 58 53 38 54
REMARK SMILES IDX 57 55 39 56 42 57 56 58 75 59 40 60 41 61 55 63 76 64 43 65
REMARK SMILES IDX 27 66 28 67 36 68 29 69 30 70 34 71 37 72 31 73 32 74 35 75
REMARK SMILES IDX 33 76 59 77 60 78 68 79 61 80 62 81 66 82 69 83 63 84 64 85
REMARK SMILES IDX 67 86 65 87 44 88 45 89 53 90 46 91 47 92 51 93 54 94 48 95
REMARK SMILES IDX 49 96 52 97 50 98
REMARK H PARENT 84 14 74 51 42 62
REMARK Flexibility Score: inf
ROOT
ATOM      1  C   UNL A   1      38.847  23.865  27.104  1.00  0.00     0.188 C 
ENDROOT
BRANCH   1   2
ATOM      2  O   UNL A   1      38.024  24.345  26.051  1.00  0.00    -0.376 OA
BRANCH   2   3
ATOM      3  C   UNL A   1      36.866  23.612  25.670  1.00  0.00     0.202 C 
BRANCH   3   4
ATOM      4  C   UNL A   1      36.727  23.094  24.225  1.00  0.00     0.261 C 
BRANCH   4   5
ATOM      5  O   UNL A   1      35.621  22.201  23.946  1.00  0.00    -0.463 OA
BRANCH   5   6
ATOM      6  C   UNL A   1      34.468  22.786  23.517  1.00  0.00     0.317 C 
ATOM      7  O   UNL A   1      34.403  23.459  22.493  1.00  0.00    -0.251 OA
BRANCH   6   8
ATOM      8  C   UNL A   1      33.263  22.615  24.476  1.00  0.00     0.117 C 
ATOM      9  C   UNL A   1      33.550  22.208  25.945  1.00  0.00     0.030 C 
ATOM     10  C   UNL A   1      32.693  24.049  24.521  1.00  0.00     0.281 C 
ATOM     11  C   UNL A   1      32.319  22.363  26.833  1.00  0.00     0.063 C 
ATOM     12  N   UNL A   1      31.488  24.159  25.358  1.00  0.00    -0.332 N 
ATOM     13  C   UNL A   1      31.755  23.773  26.750  1.00  0.00     0.262 C 
ATOM     14  H   UNL A   1      30.796  23.485  25.033  1.00  0.00     0.348 HD
BRANCH   8  15
ATOM     15  C   UNL A   1      32.228  21.652  23.800  1.00  0.00     0.021 C 
ATOM     16  C   UNL A   1      32.552  20.163  23.869  1.00  0.00     0.005 C 
ENDBRANCH   8  15
BRANCH  12  17
ATOM     17  C   UNL A   1      30.850  25.479  25.193  1.00  0.00     0.185 C 
ATOM     18  C   UNL A   1      30.216  25.703  23.809  1.00  0.00     0.065 C 
ATOM     19  C   UNL A   1      31.835  26.592  25.576  1.00  0.00     0.084 C 
ATOM     20  C   UNL A   1      29.615  27.094  23.693  1.00  0.00     0.007 C 
ATOM     21  C   UNL A   1      31.259  27.996  25.383  1.00  0.00     0.114 C 
ATOM     22  C   UNL A   1      30.660  28.163  23.985  1.00  0.00     0.020 C 
BRANCH  21  23
ATOM     23  S   UNL A   1      32.577  29.190  25.695  1.00  0.00     0.150 S 
ATOM     24  C   UNL A   1      33.289  28.680  27.235  1.00  0.00     0.158 C 
ATOM     25  O   UNL A   1      33.593  28.999  24.676  1.00  0.00    -0.229 OA
ATOM     26  O   UNL A   1      31.977  30.494  25.905  1.00  0.00    -0.229 OA
ENDBRANCH  21  23
ENDBRANCH  12  17
ENDBRANCH   6   8
ENDBRANCH   5   6
ENDBRANCH   4   5
ENDBRANCH   3   4
ENDBRANCH   2   3
ENDBRANCH   1   2
BRANCH   1  27
ATOM     27  C   UNL A   1      39.893  22.788  26.804  1.00  0.00     0.188 C 
BRANCH  27  28
ATOM     28  O   UNL A   1      39.440  21.462  26.904  1.00  0.00    -0.376 OA
BRANCH  28  29
ATOM     29  C   UNL A   1      39.456  20.645  25.751  1.00  0.00     0.202 C 
BRANCH  29  30
ATOM     30  C   UNL A   1      40.270  19.342  25.777  1.00  0.00     0.261 C 
BRANCH  30  31
ATOM     31  O   UNL A   1      41.520  19.378  26.490  1.00  0.00    -0.460 OA
BRANCH  31  32
ATOM     32  C   UNL A   1      42.652  19.515  25.752  1.00  0.00     0.338 C 
ATOM     33  O   UNL A   1      43.054  18.765  24.890  1.00  0.00    -0.246 OA
BRANCH  32  34
ATOM     34  C   UNL A   1      43.178  20.889  25.994  1.00  0.00     0.060 A 
ATOM     35  C   UNL A   1      43.173  21.388  27.305  1.00  0.00     0.016 A 
ATOM     36  C   UNL A   1      43.711  21.658  24.957  1.00  0.00     0.016 A 
ATOM     37  C   UNL A   1      43.676  22.663  27.579  1.00  0.00     0.010 A 
ATOM     38  C   UNL A   1      44.189  22.947  25.228  1.00  0.00     0.010 A 
ATOM     39  C   UNL A   1      44.151  23.469  26.535  1.00  0.00    -0.014 A 
BRANCH  39  40
ATOM     40  C   UNL A   1      44.393  24.917  26.768  1.00  0.00     0.031 A 
ATOM     41  C   UNL A   1      45.790  25.440  26.566  1.00  0.00     0.074 A 
ATOM     42  C   UNL A   1      43.414  25.766  27.130  1.00  0.00     0.049 A 
ATOM     43  N   UNL A   1      46.274  26.640  26.770  1.00  0.00    -0.248 NA
ATOM     44  C   UNL A   1      46.777  24.471  26.063  1.00  0.00     0.031 C 
ATOM     45  C   UNL A   1      42.006  25.415  27.296  1.00  0.00     0.029 A 
ATOM     46  N   UNL A   1      43.466  27.106  27.431  1.00  0.00    -0.354 N 
ATOM     47  C   UNL A   1      47.617  26.568  26.422  1.00  0.00     0.074 A 
ATOM     48  C   UNL A   1      47.879  25.202  26.025  1.00  0.00     0.031 C 
ATOM     49  C   UNL A   1      41.329  26.511  27.687  1.00  0.00     0.029 A 
ATOM     50  C   UNL A   1      42.262  27.630  27.834  1.00  0.00     0.049 A 
ATOM     51  H   UNL A   1      44.290  27.641  27.364  1.00  0.00     0.167 HD
ATOM     52  C   UNL A   1      48.549  27.551  26.428  1.00  0.00     0.037 A 
ATOM     53  C   UNL A   1      41.956  28.861  28.295  1.00  0.00     0.037 A 
ATOM     54  C   UNL A   1      48.298  28.907  26.837  1.00  0.00     0.049 A 
ATOM     55  C   UNL A   1      43.038  29.912  28.399  1.00  0.00     0.074 A 
ATOM     56  C   UNL A   1      49.182  29.972  26.879  1.00  0.00     0.029 A 
ATOM     57  N   UNL A   1      47.077  29.384  27.288  1.00  0.00    -0.354 N 
ATOM     58  N   UNL A   1      44.302  29.842  28.059  1.00  0.00    -0.248 NA
ATOM     59  C   UNL A   1      42.645  31.218  28.952  1.00  0.00     0.031 C 
ATOM     60  C   UNL A   1      48.513  31.075  27.418  1.00  0.00     0.029 A 
ATOM     61  C   UNL A   1      47.193  30.720  27.641  1.00  0.00     0.049 A 
ATOM     62  H   UNL A   1      46.250  28.854  27.347  1.00  0.00     0.167 HD
ATOM     63  C   UNL A   1      44.842  31.098  28.319  1.00  0.00     0.074 A 
ATOM     64  C   UNL A   1      43.766  31.915  28.835  1.00  0.00     0.031 C 
ATOM     65  C   UNL A   1      46.114  31.535  28.141  1.00  0.00     0.037 A 
BRANCH  52  66
ATOM     66  C   UNL A   1      49.943  27.178  26.014  1.00  0.00     0.064 A 
ATOM     67  C   UNL A   1      50.908  26.769  26.948  1.00  0.00     0.173 A 
ATOM     68  C   UNL A   1      50.313  27.215  24.662  1.00  0.00     0.173 A 
ATOM     69  F   UNL A   1      50.610  26.732  28.255  1.00  0.00    -0.203 F 
ATOM     70  C   UNL A   1      52.200  26.441  26.544  1.00  0.00     0.198 A 
ATOM     71  C   UNL A   1      51.595  26.853  24.258  1.00  0.00     0.198 A 
ATOM     72  F   UNL A   1      49.428  27.597  23.727  1.00  0.00    -0.203 F 
ATOM     73  F   UNL A   1      53.121  26.108  27.459  1.00  0.00    -0.200 F 
ATOM     74  C   UNL A   1      52.540  26.476  25.200  1.00  0.00     0.200 A 
ATOM     75  F   UNL A   1      51.917  26.873  22.957  1.00  0.00    -0.200 F 
ATOM     76  F   UNL A   1      53.782  26.154  24.813  1.00  0.00    -0.200 F 
ENDBRANCH  52  66
BRANCH  53  77
ATOM     77  C   UNL A   1      40.565  29.179  28.723  1.00  0.00     0.064 A 
ATOM     78  C   UNL A   1      39.550  29.409  27.784  1.00  0.00     0.173 A 
ATOM     79  C   UNL A   1      40.236  29.316  30.081  1.00  0.00     0.173 A 
ATOM     80  F   UNL A   1      39.822  29.328  26.473  1.00  0.00    -0.203 F 
ATOM     81  C   UNL A   1      38.269  29.785  28.182  1.00  0.00     0.198 A 
ATOM     82  C   UNL A   1      38.945  29.659  30.479  1.00  0.00     0.198 A 
ATOM     83  F   UNL A   1      41.171  29.122  31.023  1.00  0.00    -0.203 F 
ATOM     84  F   UNL A   1      37.336  30.061  27.260  1.00  0.00    -0.200 F 
ATOM     85  C   UNL A   1      37.965  29.904  29.529  1.00  0.00     0.200 A 
ATOM     86  F   UNL A   1      38.656  29.768  31.783  1.00  0.00    -0.200 F 
ATOM     87  F   UNL A   1      36.735  30.271  29.912  1.00  0.00    -0.200 F 
ENDBRANCH  53  77
BRANCH  65  88
ATOM     88  C   UNL A   1      46.411  32.976  28.454  1.00  0.00     0.064 A 
ATOM     89  C   UNL A   1      46.273  33.990  27.494  1.00  0.00     0.173 A 
ATOM     90  C   UNL A   1      46.797  33.354  29.750  1.00  0.00     0.173 A 
ATOM     91  F   UNL A   1      45.917  33.687  26.237  1.00  0.00    -0.203 F 
ATOM     92  C   UNL A   1      46.539  35.321  27.812  1.00  0.00     0.198 A 
ATOM     93  C   UNL A   1      47.027  34.689  30.074  1.00  0.00     0.198 A 
ATOM     94  F   UNL A   1      46.935  32.428  30.712  1.00  0.00    -0.203 F 
ATOM     95  F   UNL A   1      46.451  36.266  26.865  1.00  0.00    -0.200 F 
ATOM     96  C   UNL A   1      46.906  35.670  29.103  1.00  0.00     0.200 A 
ATOM     97  F   UNL A   1      47.362  35.024  31.328  1.00  0.00    -0.200 F 
ATOM     98  F   UNL A   1      47.151  36.952  29.409  1.00  0.00    -0.200 F 
ENDBRANCH  65  88
ENDBRANCH  39  40
ENDBRANCH  32  34
ENDBRANCH  31  32
ENDBRANCH  30  31
ENDBRANCH  29  30
ENDBRANCH  28  29
ENDBRANCH  27  28
ENDBRANCH   1  27
TORSDOF 20
ENDMDL
