MODEL 1
REMARK VINA RESULT:     -12.1      0.000      0.000
REMARK SMILES C=C(C)[C@@H]1CC=C(CN2C[C@]34C=C[C@@H](O3)[C@H](C(=O)OCCOCCOCCOC(=O)c3ccc(-c5c6nc(c(-c7c(F)c(F)c(F)c(F)c7F)c7ccc([nH]7)c(-c7c(F)c(F)c(F)c(F)c7F)c7nc(c(-c8c(F)c(F)c(F)c(F)c8F)c8ccc5[nH]8)C=C7)C=C6)cc3)[C@@H]4C2=O)CC1
REMARK SMILES IDX 23 1 22 2 21 3 20 4 19 5 17 6 18 7 16 8 9 9 10 10 95 11
REMARK SMILES IDX 11 12 94 13 96 14 12 15 15 16 13 17 14 18 8 19 7 20 4 21
REMARK SMILES IDX 5 22 98 23 6 24 97 25 2 26 1 27 3 28 24 29 25 30 26 31 27 32
REMARK SMILES IDX 28 33 29 34 30 35 31 36 32 37 93 38 33 39 92 40 34 41 35 42
REMARK SMILES IDX 36 43 86 44 37 45 91 46 85 47 87 48 38 49 90 50 84 51 83 52
REMARK SMILES IDX 39 54 71 55 51 56 70 57 52 58 55 59 69 60 88 61 53 62 54 63
REMARK SMILES IDX 68 65 89 66 56 67 40 68 41 69 49 70 42 71 43 72 47 73 50 74
REMARK SMILES IDX 44 75 45 76 48 77 46 78 72 79 73 80 81 81 74 82 75 83 79 84
REMARK SMILES IDX 82 85 76 86 77 87 80 88 78 89 57 90 58 91 66 92 59 93 60 94
REMARK SMILES IDX 64 95 67 96 61 97 62 98 65 99 63 100
REMARK H PARENT 87 53 55 64
REMARK Flexibility Score: inf
ROOT
ATOM      1  C   UNL A   1      33.767  32.964  28.023  1.00  0.00     0.188 C 
ENDROOT
BRANCH   1   2
ATOM      2  O   UNL A   1      34.273  31.877  27.256  1.00  0.00    -0.376 OA
BRANCH   2   3
ATOM      3  C   UNL A   1      33.635  30.619  27.424  1.00  0.00     0.202 C 
BRANCH   3   4
ATOM      4  C   UNL A   1      34.506  29.380  27.191  1.00  0.00     0.261 C 
BRANCH   4   5
ATOM      5  O   UNL A   1      33.811  28.220  26.676  1.00  0.00    -0.463 OA
BRANCH   5   6
ATOM      6  C   UNL A   1      33.309  28.388  25.420  1.00  0.00     0.312 C 
ATOM      7  O   UNL A   1      34.013  28.564  24.430  1.00  0.00    -0.252 OA
BRANCH   6   8
ATOM      8  C   UNL A   1      31.790  28.307  25.296  1.00  0.00     0.148 C 
ATOM      9  N   UNL A   1      31.424  24.653  24.853  1.00  0.00    -0.335 N 
ATOM     10  C   UNL A   1      31.930  25.655  23.989  1.00  0.00     0.160 C 
ATOM     11  C   UNL A   1      30.785  25.426  25.838  1.00  0.00     0.230 C 
ATOM     12  C   UNL A   1      30.715  26.622  23.947  1.00  0.00     0.117 C 
ATOM     13  C   UNL A   1      31.076  26.925  25.530  1.00  0.00     0.133 C 
ATOM     14  O   UNL A   1      30.037  25.018  26.711  1.00  0.00    -0.274 OA
ATOM     15  C   UNL A   1      31.190  27.133  22.587  1.00  0.00     0.009 C 
ATOM     16  O   UNL A   1      30.037  27.897  24.089  1.00  0.00    -0.360 OA
ATOM     17  C   UNL A   1      31.564  28.405  22.675  1.00  0.00     0.004 C 
ATOM     18  C   UNL A   1      31.145  28.826  24.026  1.00  0.00     0.157 C 
BRANCH   9  19
ATOM     19  C   UNL A   1      30.831  23.399  24.347  1.00  0.00     0.150 C 
BRANCH  19  20
ATOM     20  C   UNL A   1      31.808  22.229  24.353  1.00  0.00    -0.055 C 
ATOM     21  C   UNL A   1      33.259  19.641  24.231  1.00  0.00     0.018 C 
ATOM     22  C   UNL A   1      32.820  20.289  25.540  1.00  0.00     0.035 C 
ATOM     23  C   UNL A   1      32.466  20.141  23.013  1.00  0.00     0.013 C 
ATOM     24  C   UNL A   1      32.454  21.729  25.424  1.00  0.00    -0.025 C 
ATOM     25  C   UNL A   1      32.162  21.639  23.009  1.00  0.00     0.033 C 
BRANCH  21  26
ATOM     26  C   UNL A   1      33.193  18.117  24.310  1.00  0.00    -0.077 C 
ATOM     27  C   UNL A   1      33.703  17.302  23.369  1.00  0.00     0.008 C 
ATOM     28  C   UNL A   1      32.534  17.560  25.537  1.00  0.00     0.039 C 
ENDBRANCH  21  26
ENDBRANCH  19  20
ENDBRANCH   9  19
ENDBRANCH   6   8
ENDBRANCH   5   6
ENDBRANCH   4   5
ENDBRANCH   3   4
ENDBRANCH   2   3
ENDBRANCH   1   2
BRANCH   1  29
ATOM     29  C   UNL A   1      34.477  34.326  27.912  1.00  0.00     0.188 C 
BRANCH  29  30
ATOM     30  O   UNL A   1      34.560  35.126  29.088  1.00  0.00    -0.376 OA
BRANCH  30  31
ATOM     31  C   UNL A   1      33.735  34.775  30.195  1.00  0.00     0.202 C 
BRANCH  31  32
ATOM     32  C   UNL A   1      34.498  34.218  31.396  1.00  0.00     0.261 C 
BRANCH  32  33
ATOM     33  O   UNL A   1      34.888  32.852  31.158  1.00  0.00    -0.460 OA
BRANCH  33  34
ATOM     34  C   UNL A   1      35.667  32.290  32.109  1.00  0.00     0.338 C 
ATOM     35  O   UNL A   1      35.513  32.316  33.315  1.00  0.00    -0.246 OA
BRANCH  34  36
ATOM     36  C   UNL A   1      36.694  31.465  31.453  1.00  0.00     0.060 A 
ATOM     37  C   UNL A   1      37.507  30.662  32.262  1.00  0.00     0.016 A 
ATOM     38  C   UNL A   1      36.913  31.546  30.077  1.00  0.00     0.016 A 
ATOM     39  C   UNL A   1      38.570  29.955  31.700  1.00  0.00     0.010 A 
ATOM     40  C   UNL A   1      37.991  30.857  29.519  1.00  0.00     0.010 A 
ATOM     41  C   UNL A   1      38.841  30.085  30.332  1.00  0.00    -0.014 A 
BRANCH  41  42
ATOM     42  C   UNL A   1      40.109  29.567  29.768  1.00  0.00     0.031 A 
ATOM     43  C   UNL A   1      41.268  30.511  29.626  1.00  0.00     0.074 A 
ATOM     44  C   UNL A   1      40.222  28.291  29.367  1.00  0.00     0.049 A 
ATOM     45  N   UNL A   1      42.413  30.339  29.018  1.00  0.00    -0.248 NA
ATOM     46  C   UNL A   1      41.114  31.832  30.259  1.00  0.00     0.031 C 
ATOM     47  C   UNL A   1      39.198  27.262  29.521  1.00  0.00     0.029 A 
ATOM     48  N   UNL A   1      41.254  27.650  28.728  1.00  0.00    -0.354 N 
ATOM     49  C   UNL A   1      43.104  31.532  29.174  1.00  0.00     0.074 A 
ATOM     50  C   UNL A   1      42.254  32.422  29.934  1.00  0.00     0.031 C 
ATOM     51  C   UNL A   1      39.645  26.119  28.972  1.00  0.00     0.029 A 
ATOM     52  C   UNL A   1      40.964  26.353  28.385  1.00  0.00     0.049 A 
ATOM     53  H   UNL A   1      42.119  28.079  28.534  1.00  0.00     0.167 HD
ATOM     54  C   UNL A   1      44.335  31.859  28.713  1.00  0.00     0.037 A 
ATOM     55  C   UNL A   1      41.668  25.475  27.644  1.00  0.00     0.037 A 
ATOM     56  C   UNL A   1      45.177  30.972  27.958  1.00  0.00     0.049 A 
ATOM     57  C   UNL A   1      42.992  25.895  27.058  1.00  0.00     0.074 A 
ATOM     58  C   UNL A   1      46.442  31.206  27.451  1.00  0.00     0.029 A 
ATOM     59  N   UNL A   1      44.830  29.679  27.596  1.00  0.00    -0.354 N 
ATOM     60  N   UNL A   1      43.638  27.027  27.195  1.00  0.00    -0.248 NA
ATOM     61  C   UNL A   1      43.677  24.918  26.197  1.00  0.00     0.031 C 
ATOM     62  C   UNL A   1      46.845  30.068  26.744  1.00  0.00     0.029 A 
ATOM     63  C   UNL A   1      45.848  29.111  26.848  1.00  0.00     0.049 A 
ATOM     64  H   UNL A   1      43.987  29.232  27.835  1.00  0.00     0.167 HD
ATOM     65  C   UNL A   1      44.813  26.889  26.468  1.00  0.00     0.074 A 
ATOM     66  C   UNL A   1      44.793  25.563  25.888  1.00  0.00     0.031 C 
ATOM     67  C   UNL A   1      45.820  27.780  26.299  1.00  0.00     0.037 A 
BRANCH  54  68
ATOM     68  C   UNL A   1      44.821  33.250  28.974  1.00  0.00     0.064 A 
ATOM     69  C   UNL A   1      45.587  33.565  30.105  1.00  0.00     0.173 A 
ATOM     70  C   UNL A   1      44.532  34.279  28.065  1.00  0.00     0.173 A 
ATOM     71  F   UNL A   1      45.873  32.619  31.011  1.00  0.00    -0.203 F 
ATOM     72  C   UNL A   1      46.030  34.866  30.327  1.00  0.00     0.198 A 
ATOM     73  C   UNL A   1      44.997  35.575  28.279  1.00  0.00     0.198 A 
ATOM     74  F   UNL A   1      43.802  34.028  26.969  1.00  0.00    -0.203 F 
ATOM     75  F   UNL A   1      46.727  35.156  31.435  1.00  0.00    -0.200 F 
ATOM     76  C   UNL A   1      45.739  35.868  29.412  1.00  0.00     0.200 A 
ATOM     77  F   UNL A   1      44.719  36.538  27.390  1.00  0.00    -0.200 F 
ATOM     78  F   UNL A   1      46.169  37.120  29.626  1.00  0.00    -0.200 F 
ENDBRANCH  54  68
BRANCH  55  79
ATOM     79  C   UNL A   1      41.122  24.119  27.378  1.00  0.00     0.064 A 
ATOM     80  C   UNL A   1      41.706  22.983  27.954  1.00  0.00     0.173 A 
ATOM     81  C   UNL A   1      40.023  23.929  26.527  1.00  0.00     0.173 A 
ATOM     82  F   UNL A   1      42.777  23.112  28.750  1.00  0.00    -0.203 F 
ATOM     83  C   UNL A   1      41.218  21.707  27.679  1.00  0.00     0.198 A 
ATOM     84  C   UNL A   1      39.521  22.655  26.273  1.00  0.00     0.198 A 
ATOM     85  F   UNL A   1      39.433  24.984  25.945  1.00  0.00    -0.203 F 
ATOM     86  F   UNL A   1      41.821  20.633  28.210  1.00  0.00    -0.200 F 
ATOM     87  C   UNL A   1      40.123  21.544  26.845  1.00  0.00     0.200 A 
ATOM     88  F   UNL A   1      38.458  22.503  25.472  1.00  0.00    -0.200 F 
ATOM     89  F   UNL A   1      39.654  20.316  26.582  1.00  0.00    -0.200 F 
ENDBRANCH  55  79
BRANCH  67  90
ATOM     90  C   UNL A   1      47.008  27.344  25.496  1.00  0.00     0.064 A 
ATOM     91  C   UNL A   1      47.156  27.699  24.148  1.00  0.00     0.173 A 
ATOM     92  C   UNL A   1      48.049  26.628  26.108  1.00  0.00     0.173 A 
ATOM     93  F   UNL A   1      46.182  28.371  23.517  1.00  0.00    -0.203 F 
ATOM     94  C   UNL A   1      48.300  27.346  23.439  1.00  0.00     0.198 A 
ATOM     95  C   UNL A   1      49.201  26.296  25.402  1.00  0.00     0.198 A 
ATOM     96  F   UNL A   1      47.956  26.271  27.398  1.00  0.00    -0.203 F 
ATOM     97  F   UNL A   1      48.412  27.674  22.144  1.00  0.00    -0.200 F 
ATOM     98  C   UNL A   1      49.325  26.653  24.068  1.00  0.00     0.200 A 
ATOM     99  F   UNL A   1      50.195  25.638  26.015  1.00  0.00    -0.200 F 
ATOM    100  F   UNL A   1      50.433  26.329  23.387  1.00  0.00    -0.200 F 
ENDBRANCH  67  90
ENDBRANCH  41  42
ENDBRANCH  34  36
ENDBRANCH  33  34
ENDBRANCH  32  33
ENDBRANCH  31  32
ENDBRANCH  30  31
ENDBRANCH  29  30
ENDBRANCH   1  29
TORSDOF 20
ENDMDL
MODEL 2
REMARK VINA RESULT:     -11.9      5.144      7.581
REMARK SMILES C=C(C)[C@@H]1CC=C(CN2C[C@]34C=C[C@@H](O3)[C@H](C(=O)OCCOCCOCCOC(=O)c3ccc(-c5c6nc(c(-c7c(F)c(F)c(F)c(F)c7F)c7ccc([nH]7)c(-c7c(F)c(F)c(F)c(F)c7F)c7nc(c(-c8c(F)c(F)c(F)c(F)c8F)c8ccc5[nH]8)C=C7)C=C6)cc3)[C@@H]4C2=O)CC1
REMARK SMILES IDX 23 1 22 2 21 3 20 4 19 5 17 6 18 7 16 8 9 9 10 10 95 11
REMARK SMILES IDX 11 12 94 13 96 14 12 15 15 16 13 17 14 18 8 19 7 20 4 21
REMARK SMILES IDX 5 22 98 23 6 24 97 25 2 26 1 27 3 28 24 29 25 30 26 31 27 32
REMARK SMILES IDX 28 33 29 34 30 35 31 36 32 37 93 38 33 39 92 40 34 41 35 42
REMARK SMILES IDX 36 43 86 44 37 45 91 46 85 47 87 48 38 49 90 50 84 51 83 52
REMARK SMILES IDX 39 54 71 55 51 56 70 57 52 58 55 59 69 60 88 61 53 62 54 63
REMARK SMILES IDX 68 65 89 66 56 67 40 68 41 69 49 70 42 71 43 72 47 73 50 74
REMARK SMILES IDX 44 75 45 76 48 77 46 78 72 79 73 80 81 81 74 82 75 83 79 84
REMARK SMILES IDX 82 85 76 86 77 87 80 88 78 89 57 90 58 91 66 92 59 93 60 94
REMARK SMILES IDX 64 95 67 96 61 97 62 98 65 99 63 100
REMARK H PARENT 87 53 55 64
REMARK Flexibility Score: inf
ROOT
ATOM      1  C   UNL A   1      34.565  31.632  28.009  1.00  0.00     0.188 C 
ENDROOT
BRANCH   1   2
ATOM      2  O   UNL A   1      35.295  30.519  27.506  1.00  0.00    -0.376 OA
BRANCH   2   3
ATOM      3  C   UNL A   1      34.570  29.315  27.297  1.00  0.00     0.202 C 
BRANCH   3   4
ATOM      4  C   UNL A   1      33.072  29.465  27.013  1.00  0.00     0.261 C 
BRANCH   4   5
ATOM      5  O   UNL A   1      32.456  28.351  26.326  1.00  0.00    -0.463 OA
BRANCH   5   6
ATOM      6  C   UNL A   1      32.358  28.519  24.977  1.00  0.00     0.312 C 
ATOM      7  O   UNL A   1      33.093  29.262  24.334  1.00  0.00    -0.252 OA
BRANCH   6   8
ATOM      8  C   UNL A   1      31.284  27.687  24.281  1.00  0.00     0.148 C 
ATOM      9  N   UNL A   1      31.435  24.646  26.382  1.00  0.00    -0.335 N 
ATOM     10  C   UNL A   1      32.340  25.169  25.426  1.00  0.00     0.160 C 
ATOM     11  C   UNL A   1      30.281  25.406  26.124  1.00  0.00     0.230 C 
ATOM     12  C   UNL A   1      31.404  25.280  24.192  1.00  0.00     0.117 C 
ATOM     13  C   UNL A   1      30.643  26.470  25.047  1.00  0.00     0.133 C 
ATOM     14  O   UNL A   1      29.163  25.203  26.568  1.00  0.00    -0.274 OA
ATOM     15  C   UNL A   1      32.625  25.181  23.277  1.00  0.00     0.009 C 
ATOM     16  O   UNL A   1      30.745  25.958  23.090  1.00  0.00    -0.360 OA
ATOM     17  C   UNL A   1      32.802  26.322  22.619  1.00  0.00     0.004 C 
ATOM     18  C   UNL A   1      31.593  27.116  22.911  1.00  0.00     0.157 C 
BRANCH   9  19
ATOM     19  C   UNL A   1      31.361  23.204  26.692  1.00  0.00     0.150 C 
BRANCH  19  20
ATOM     20  C   UNL A   1      32.624  22.442  26.310  1.00  0.00    -0.055 C 
ATOM     21  C   UNL A   1      35.287  21.465  25.432  1.00  0.00     0.018 C 
ATOM     22  C   UNL A   1      34.041  21.387  24.556  1.00  0.00     0.035 C 
ATOM     23  C   UNL A   1      35.178  22.519  26.546  1.00  0.00     0.013 C 
ATOM     24  C   UNL A   1      32.757  21.571  25.290  1.00  0.00    -0.025 C 
ATOM     25  C   UNL A   1      33.812  22.603  27.226  1.00  0.00     0.033 C 
BRANCH  21  26
ATOM     26  C   UNL A   1      36.544  21.711  24.599  1.00  0.00    -0.077 C 
ATOM     27  C   UNL A   1      36.601  22.592  23.584  1.00  0.00     0.008 C 
ATOM     28  C   UNL A   1      37.752  20.917  24.999  1.00  0.00     0.039 C 
ENDBRANCH  21  26
ENDBRANCH  19  20
ENDBRANCH   9  19
ENDBRANCH   6   8
ENDBRANCH   5   6
ENDBRANCH   4   5
ENDBRANCH   3   4
ENDBRANCH   2   3
ENDBRANCH   1   2
BRANCH   1  29
ATOM     29  C   UNL A   1      35.314  32.961  28.215  1.00  0.00     0.188 C 
BRANCH  29  30
ATOM     30  O   UNL A   1      34.679  33.963  29.005  1.00  0.00    -0.376 OA
BRANCH  30  31
ATOM     31  C   UNL A   1      34.031  35.037  28.328  1.00  0.00     0.202 C 
BRANCH  31  32
ATOM     32  C   UNL A   1      33.190  35.936  29.233  1.00  0.00     0.261 C 
BRANCH  32  33
ATOM     33  O   UNL A   1      32.592  35.167  30.293  1.00  0.00    -0.460 OA
BRANCH  33  34
ATOM     34  C   UNL A   1      32.692  35.698  31.532  1.00  0.00     0.338 C 
ATOM     35  O   UNL A   1      31.956  36.507  32.063  1.00  0.00    -0.246 OA
BRANCH  34  36
ATOM     36  C   UNL A   1      33.779  35.014  32.253  1.00  0.00     0.060 A 
ATOM     37  C   UNL A   1      35.044  35.613  32.256  1.00  0.00     0.016 A 
ATOM     38  C   UNL A   1      33.578  33.765  32.841  1.00  0.00     0.016 A 
ATOM     39  C   UNL A   1      36.130  34.947  32.823  1.00  0.00     0.010 A 
ATOM     40  C   UNL A   1      34.671  33.088  33.387  1.00  0.00     0.010 A 
ATOM     41  C   UNL A   1      35.955  33.662  33.352  1.00  0.00    -0.014 A 
BRANCH  41  42
ATOM     42  C   UNL A   1      37.129  32.833  33.710  1.00  0.00     0.031 A 
ATOM     43  C   UNL A   1      37.823  33.100  35.015  1.00  0.00     0.074 A 
ATOM     44  C   UNL A   1      37.585  31.879  32.883  1.00  0.00     0.049 A 
ATOM     45  N   UNL A   1      38.953  32.625  35.469  1.00  0.00    -0.248 NA
ATOM     46  C   UNL A   1      37.147  34.032  35.934  1.00  0.00     0.031 C 
ATOM     47  C   UNL A   1      36.956  31.475  31.629  1.00  0.00     0.029 A 
ATOM     48  N   UNL A   1      38.702  31.087  32.973  1.00  0.00    -0.354 N 
ATOM     49  C   UNL A   1      39.136  33.214  36.712  1.00  0.00     0.074 A 
ATOM     50  C   UNL A   1      38.001  34.081  36.944  1.00  0.00     0.031 C 
ATOM     51  C   UNL A   1      37.709  30.522  31.053  1.00  0.00     0.029 A 
ATOM     52  C   UNL A   1      38.896  30.288  31.874  1.00  0.00     0.049 A 
ATOM     53  H   UNL A   1      39.306  31.092  33.751  1.00  0.00     0.167 HD
ATOM     54  C   UNL A   1      40.164  33.053  37.578  1.00  0.00     0.037 A 
ATOM     55  C   UNL A   1      39.936  29.493  31.554  1.00  0.00     0.037 A 
ATOM     56  C   UNL A   1      41.290  32.191  37.343  1.00  0.00     0.049 A 
ATOM     57  C   UNL A   1      41.116  29.406  32.488  1.00  0.00     0.074 A 
ATOM     58  C   UNL A   1      42.381  31.954  38.160  1.00  0.00     0.029 A 
ATOM     59  N   UNL A   1      41.470  31.427  36.200  1.00  0.00    -0.354 N 
ATOM     60  N   UNL A   1      41.293  29.973  33.656  1.00  0.00    -0.248 NA
ATOM     61  C   UNL A   1      42.252  28.580  32.048  1.00  0.00     0.031 C 
ATOM     62  C   UNL A   1      43.243  31.079  37.492  1.00  0.00     0.029 A 
ATOM     63  C   UNL A   1      42.668  30.738  36.278  1.00  0.00     0.049 A 
ATOM     64  H   UNL A   1      40.840  31.382  35.446  1.00  0.00     0.167 HD
ATOM     65  C   UNL A   1      42.539  29.552  34.103  1.00  0.00     0.074 A 
ATOM     66  C   UNL A   1      43.078  28.681  33.080  1.00  0.00     0.031 C 
ATOM     67  C   UNL A   1      43.177  29.856  35.259  1.00  0.00     0.037 A 
BRANCH  54  68
ATOM     68  C   UNL A   1      40.140  33.865  38.835  1.00  0.00     0.064 A 
ATOM     69  C   UNL A   1      39.442  33.441  39.974  1.00  0.00     0.173 A 
ATOM     70  C   UNL A   1      40.845  35.076  38.906  1.00  0.00     0.173 A 
ATOM     71  F   UNL A   1      38.739  32.300  39.949  1.00  0.00    -0.203 F 
ATOM     72  C   UNL A   1      39.434  34.212  41.134  1.00  0.00     0.198 A 
ATOM     73  C   UNL A   1      40.855  35.832  40.074  1.00  0.00     0.198 A 
ATOM     74  F   UNL A   1      41.528  35.524  37.841  1.00  0.00    -0.203 F 
ATOM     75  F   UNL A   1      38.727  33.810  42.200  1.00  0.00    -0.200 F 
ATOM     76  C   UNL A   1      40.144  35.403  41.185  1.00  0.00     0.200 A 
ATOM     77  F   UNL A   1      41.546  36.979  40.123  1.00  0.00    -0.200 F 
ATOM     78  F   UNL A   1      40.137  36.142  42.303  1.00  0.00    -0.200 F 
ENDBRANCH  54  68
BRANCH  55  79
ATOM     79  C   UNL A   1      39.931  28.740  30.274  1.00  0.00     0.064 A 
ATOM     80  C   UNL A   1      39.378  27.454  30.196  1.00  0.00     0.173 A 
ATOM     81  C   UNL A   1      40.498  29.278  29.109  1.00  0.00     0.173 A 
ATOM     82  F   UNL A   1      38.850  26.887  31.291  1.00  0.00    -0.203 F 
ATOM     83  C   UNL A   1      39.402  26.732  29.006  1.00  0.00     0.198 A 
ATOM     84  C   UNL A   1      40.500  28.564  27.913  1.00  0.00     0.198 A 
ATOM     85  F   UNL A   1      41.048  30.501  29.132  1.00  0.00    -0.203 F 
ATOM     86  F   UNL A   1      38.903  25.488  28.969  1.00  0.00    -0.200 F 
ATOM     87  C   UNL A   1      39.958  27.288  27.864  1.00  0.00     0.200 A 
ATOM     88  F   UNL A   1      41.031  29.109  26.810  1.00  0.00    -0.200 F 
ATOM     89  F   UNL A   1      39.980  26.593  26.719  1.00  0.00    -0.200 F 
ENDBRANCH  55  79
BRANCH  67  90
ATOM     90  C   UNL A   1      44.507  29.212  35.510  1.00  0.00     0.064 A 
ATOM     91  C   UNL A   1      45.707  29.837  35.145  1.00  0.00     0.173 A 
ATOM     92  C   UNL A   1      44.580  27.991  36.197  1.00  0.00     0.173 A 
ATOM     93  F   UNL A   1      45.687  30.998  34.475  1.00  0.00    -0.203 F 
ATOM     94  C   UNL A   1      46.935  29.256  35.452  1.00  0.00     0.198 A 
ATOM     95  C   UNL A   1      45.809  27.425  36.522  1.00  0.00     0.198 A 
ATOM     96  F   UNL A   1      43.458  27.358  36.574  1.00  0.00    -0.203 F 
ATOM     97  F   UNL A   1      48.072  29.857  35.072  1.00  0.00    -0.200 F 
ATOM     98  C   UNL A   1      46.985  28.056  36.147  1.00  0.00     0.200 A 
ATOM     99  F   UNL A   1      45.856  26.272  37.205  1.00  0.00    -0.200 F 
ATOM    100  F   UNL A   1      48.169  27.509  36.456  1.00  0.00    -0.200 F 
ENDBRANCH  67  90
ENDBRANCH  41  42
ENDBRANCH  34  36
ENDBRANCH  33  34
ENDBRANCH  32  33
ENDBRANCH  31  32
ENDBRANCH  30  31
ENDBRANCH  29  30
ENDBRANCH   1  29
TORSDOF 20
ENDMDL
MODEL 3
REMARK VINA RESULT:     -11.8      3.719      9.239
REMARK SMILES C=C(C)[C@@H]1CC=C(CN2C[C@]34C=C[C@@H](O3)[C@H](C(=O)OCCOCCOCCOC(=O)c3ccc(-c5c6nc(c(-c7c(F)c(F)c(F)c(F)c7F)c7ccc([nH]7)c(-c7c(F)c(F)c(F)c(F)c7F)c7nc(c(-c8c(F)c(F)c(F)c(F)c8F)c8ccc5[nH]8)C=C7)C=C6)cc3)[C@@H]4C2=O)CC1
REMARK SMILES IDX 23 1 22 2 21 3 20 4 19 5 17 6 18 7 16 8 9 9 10 10 95 11
REMARK SMILES IDX 11 12 94 13 96 14 12 15 15 16 13 17 14 18 8 19 7 20 4 21
REMARK SMILES IDX 5 22 98 23 6 24 97 25 2 26 1 27 3 28 24 29 25 30 26 31 27 32
REMARK SMILES IDX 28 33 29 34 30 35 31 36 32 37 93 38 33 39 92 40 34 41 35 42
REMARK SMILES IDX 36 43 86 44 37 45 91 46 85 47 87 48 38 49 90 50 84 51 83 52
REMARK SMILES IDX 39 54 71 55 51 56 70 57 52 58 55 59 69 60 88 61 53 62 54 63
REMARK SMILES IDX 68 65 89 66 56 67 40 68 41 69 49 70 42 71 43 72 47 73 50 74
REMARK SMILES IDX 44 75 45 76 48 77 46 78 72 79 73 80 81 81 74 82 75 83 79 84
REMARK SMILES IDX 82 85 76 86 77 87 80 88 78 89 57 90 58 91 66 92 59 93 60 94
REMARK SMILES IDX 64 95 67 96 61 97 62 98 65 99 63 100
REMARK H PARENT 87 53 55 64
REMARK Flexibility Score: inf
ROOT
ATOM      1  C   UNL A   1      39.446  22.657  26.676  1.00  0.00     0.188 C 
ENDROOT
BRANCH   1   2
ATOM      2  O   UNL A   1      38.321  22.629  25.804  1.00  0.00    -0.376 OA
BRANCH   2   3
ATOM      3  C   UNL A   1      37.911  21.357  25.323  1.00  0.00     0.202 C 
BRANCH   3   4
ATOM      4  C   UNL A   1      36.409  21.174  25.083  1.00  0.00     0.261 C 
BRANCH   4   5
ATOM      5  O   UNL A   1      35.609  22.372  25.206  1.00  0.00    -0.463 OA
BRANCH   5   6
ATOM      6  C   UNL A   1      34.486  22.213  25.960  1.00  0.00     0.312 C 
ATOM      7  O   UNL A   1      34.502  22.116  27.183  1.00  0.00    -0.252 OA
BRANCH   6   8
ATOM      8  C   UNL A   1      33.167  22.198  25.191  1.00  0.00     0.148 C 
ATOM      9  N   UNL A   1      33.790  25.024  22.887  1.00  0.00    -0.335 N 
ATOM     10  C   UNL A   1      33.541  24.990  24.280  1.00  0.00     0.160 C 
ATOM     11  C   UNL A   1      33.433  23.720  22.504  1.00  0.00     0.230 C 
ATOM     12  C   UNL A   1      32.194  24.217  24.301  1.00  0.00     0.117 C 
ATOM     13  C   UNL A   1      33.087  22.922  23.796  1.00  0.00     0.133 C 
ATOM     14  O   UNL A   1      33.298  23.308  21.363  1.00  0.00    -0.274 OA
ATOM     15  C   UNL A   1      31.856  24.874  25.639  1.00  0.00     0.009 C 
ATOM     16  O   UNL A   1      31.287  23.155  24.695  1.00  0.00    -0.360 OA
ATOM     17  C   UNL A   1      31.820  23.962  26.606  1.00  0.00     0.004 C 
ATOM     18  C   UNL A   1      31.914  22.668  25.904  1.00  0.00     0.157 C 
BRANCH   9  19
ATOM     19  C   UNL A   1      33.456  26.196  22.053  1.00  0.00     0.150 C 
BRANCH  19  20
ATOM     20  C   UNL A   1      32.995  27.399  22.866  1.00  0.00    -0.055 C 
ATOM     21  C   UNL A   1      32.261  29.439  24.895  1.00  0.00     0.018 C 
ATOM     22  C   UNL A   1      31.243  28.510  24.242  1.00  0.00     0.035 C 
ATOM     23  C   UNL A   1      33.701  28.908  24.818  1.00  0.00     0.013 C 
ATOM     24  C   UNL A   1      31.727  27.834  23.005  1.00  0.00    -0.025 C 
ATOM     25  C   UNL A   1      34.077  28.244  23.494  1.00  0.00     0.033 C 
BRANCH  21  26
ATOM     26  C   UNL A   1      31.892  29.746  26.345  1.00  0.00    -0.077 C 
ATOM     27  C   UNL A   1      31.908  28.825  27.326  1.00  0.00     0.008 C 
ATOM     28  C   UNL A   1      31.527  31.172  26.633  1.00  0.00     0.039 C 
ENDBRANCH  21  26
ENDBRANCH  19  20
ENDBRANCH   9  19
ENDBRANCH   6   8
ENDBRANCH   5   6
ENDBRANCH   4   5
ENDBRANCH   3   4
ENDBRANCH   2   3
ENDBRANCH   1   2
BRANCH   1  29
ATOM     29  C   UNL A   1      40.798  22.154  26.138  1.00  0.00     0.188 C 
BRANCH  29  30
ATOM     30  O   UNL A   1      41.501  21.189  26.915  1.00  0.00    -0.376 OA
BRANCH  30  31
ATOM     31  C   UNL A   1      41.201  19.812  26.701  1.00  0.00     0.202 C 
BRANCH  31  32
ATOM     32  C   UNL A   1      42.390  18.975  26.232  1.00  0.00     0.261 C 
BRANCH  32  33
ATOM     33  O   UNL A   1      42.814  19.389  24.920  1.00  0.00    -0.460 OA
BRANCH  33  34
ATOM     34  C   UNL A   1      44.150  19.446  24.725  1.00  0.00     0.338 C 
ATOM     35  O   UNL A   1      44.891  18.561  24.342  1.00  0.00    -0.246 OA
BRANCH  34  36
ATOM     36  C   UNL A   1      44.593  20.840  24.895  1.00  0.00     0.060 A 
ATOM     37  C   UNL A   1      45.272  21.175  26.073  1.00  0.00     0.016 A 
ATOM     38  C   UNL A   1      44.270  21.818  23.954  1.00  0.00     0.016 A 
ATOM     39  C   UNL A   1      45.606  22.503  26.332  1.00  0.00     0.010 A 
ATOM     40  C   UNL A   1      44.584  23.151  24.226  1.00  0.00     0.010 A 
ATOM     41  C   UNL A   1      45.224  23.502  25.429  1.00  0.00    -0.014 A 
BRANCH  41  42
ATOM     42  C   UNL A   1      45.325  24.931  25.805  1.00  0.00     0.031 A 
ATOM     43  C   UNL A   1      46.660  25.609  25.689  1.00  0.00     0.074 A 
ATOM     44  C   UNL A   1      44.260  25.607  26.263  1.00  0.00     0.049 A 
ATOM     45  N   UNL A   1      47.033  26.791  26.106  1.00  0.00    -0.248 NA
ATOM     46  C   UNL A   1      47.721  24.848  25.007  1.00  0.00     0.031 C 
ATOM     47  C   UNL A   1      42.900  25.084  26.350  1.00  0.00     0.029 A 
ATOM     48  N   UNL A   1      44.165  26.883  26.761  1.00  0.00    -0.354 N 
ATOM     49  C   UNL A   1      48.372  26.907  25.760  1.00  0.00     0.074 A 
ATOM     50  C   UNL A   1      48.749  25.678  25.097  1.00  0.00     0.031 C 
ATOM     51  C   UNL A   1      42.106  26.026  26.890  1.00  0.00     0.029 A 
ATOM     52  C   UNL A   1      42.915  27.195  27.231  1.00  0.00     0.049 A 
ATOM     53  H   UNL A   1      44.922  27.513  26.778  1.00  0.00     0.167 HD
ATOM     54  C   UNL A   1      49.213  27.944  25.985  1.00  0.00     0.037 A 
ATOM     55  C   UNL A   1      42.488  28.285  27.899  1.00  0.00     0.037 A 
ATOM     56  C   UNL A   1      48.835  29.163  26.645  1.00  0.00     0.049 A 
ATOM     57  C   UNL A   1      43.467  29.384  28.226  1.00  0.00     0.074 A 
ATOM     58  C   UNL A   1      49.612  30.275  26.916  1.00  0.00     0.029 A 
ATOM     59  N   UNL A   1      47.567  29.426  27.143  1.00  0.00    -0.354 N 
ATOM     60  N   UNL A   1      44.735  29.486  27.910  1.00  0.00    -0.248 NA
ATOM     61  C   UNL A   1      42.958  30.512  29.022  1.00  0.00     0.031 C 
ATOM     62  C   UNL A   1      48.826  31.195  27.618  1.00  0.00     0.029 A 
ATOM     63  C   UNL A   1      47.548  30.673  27.744  1.00  0.00     0.049 A 
ATOM     64  H   UNL A   1      46.797  28.817  27.078  1.00  0.00     0.167 HD
ATOM     65  C   UNL A   1      45.166  30.697  28.436  1.00  0.00     0.074 A 
ATOM     66  C   UNL A   1      44.025  31.296  29.096  1.00  0.00     0.031 C 
ATOM     67  C   UNL A   1      46.396  31.263  28.376  1.00  0.00     0.037 A 
BRANCH  54  68
ATOM     68  C   UNL A   1      50.638  27.779  25.557  1.00  0.00     0.064 A 
ATOM     69  C   UNL A   1      51.645  27.418  26.463  1.00  0.00     0.173 A 
ATOM     70  C   UNL A   1      50.996  27.965  24.213  1.00  0.00     0.173 A 
ATOM     71  F   UNL A   1      51.355  27.247  27.761  1.00  0.00    -0.203 F 
ATOM     72  C   UNL A   1      52.964  27.268  26.042  1.00  0.00     0.198 A 
ATOM     73  C   UNL A   1      52.311  27.792  23.791  1.00  0.00     0.198 A 
ATOM     74  F   UNL A   1      50.068  28.312  23.308  1.00  0.00    -0.203 F 
ATOM     75  F   UNL A   1      53.919  26.963  26.931  1.00  0.00    -0.200 F 
ATOM     76  C   UNL A   1      53.295  27.450  24.707  1.00  0.00     0.200 A 
ATOM     77  F   UNL A   1      52.627  27.962  22.500  1.00  0.00    -0.200 F 
ATOM     78  F   UNL A   1      54.564  27.304  24.303  1.00  0.00    -0.200 F 
ENDBRANCH  54  68
BRANCH  55  79
ATOM     79  C   UNL A   1      41.073  28.382  28.340  1.00  0.00     0.064 A 
ATOM     80  C   UNL A   1      40.096  28.944  27.507  1.00  0.00     0.173 A 
ATOM     81  C   UNL A   1      40.672  27.936  29.608  1.00  0.00     0.173 A 
ATOM     82  F   UNL A   1      40.437  29.411  26.297  1.00  0.00    -0.203 F 
ATOM     83  C   UNL A   1      38.774  29.068  27.931  1.00  0.00     0.198 A 
ATOM     84  C   UNL A   1      39.345  28.037  30.021  1.00  0.00     0.198 A 
ATOM     85  F   UNL A   1      41.569  27.397  30.446  1.00  0.00    -0.203 F 
ATOM     86  F   UNL A   1      37.868  29.648  27.131  1.00  0.00    -0.200 F 
ATOM     87  C   UNL A   1      38.399  28.609  29.184  1.00  0.00     0.200 A 
ATOM     88  F   UNL A   1      38.985  27.585  31.230  1.00  0.00    -0.200 F 
ATOM     89  F   UNL A   1      37.127  28.727  29.590  1.00  0.00    -0.200 F 
ENDBRANCH  55  79
BRANCH  67  90
ATOM     90  C   UNL A   1      46.570  32.617  28.996  1.00  0.00     0.064 A 
ATOM     91  C   UNL A   1      47.002  32.770  30.320  1.00  0.00     0.173 A 
ATOM     92  C   UNL A   1      46.377  33.774  28.225  1.00  0.00     0.173 A 
ATOM     93  F   UNL A   1      47.186  31.693  31.098  1.00  0.00    -0.203 F 
ATOM     94  C   UNL A   1      47.227  34.035  30.854  1.00  0.00     0.198 A 
ATOM     95  C   UNL A   1      46.625  35.036  28.756  1.00  0.00     0.198 A 
ATOM     96  F   UNL A   1      45.971  33.678  26.950  1.00  0.00    -0.203 F 
ATOM     97  F   UNL A   1      47.617  34.162  32.131  1.00  0.00    -0.200 F 
ATOM     98  C   UNL A   1      47.048  35.166  30.070  1.00  0.00     0.200 A 
ATOM     99  F   UNL A   1      46.464  36.127  27.994  1.00  0.00    -0.200 F 
ATOM    100  F   UNL A   1      47.282  36.382  30.583  1.00  0.00    -0.200 F 
ENDBRANCH  67  90
ENDBRANCH  41  42
ENDBRANCH  34  36
ENDBRANCH  33  34
ENDBRANCH  32  33
ENDBRANCH  31  32
ENDBRANCH  30  31
ENDBRANCH  29  30
ENDBRANCH   1  29
TORSDOF 20
ENDMDL
