MODEL 1
REMARK VINA RESULT:     -10.3      0.000      0.000
REMARK SMILES CC[C@@](O)(C(=O)OCCOCCOCCOC(=O)c1ccc(-c2c3nc(c(-c4c(F)c(F)c(F)c(F)c4F)c4ccc([nH]4)c(-c4c(F)c(F)c(F)c(F)c4F)c4nc(c(-c5c(F)c(F)c(F)c(F)c5F)c5ccc2[nH]5)C=C4)C=C3)cc1)[C@H](C)c1cc(F)c(C)cc1F
REMARK SMILES IDX 11 1 10 2 9 3 8 4 7 5 5 6 6 7 3 8 2 9 1 10 4 11 82 13 83 14
REMARK SMILES IDX 84 15 85 16 91 17 86 18 90 19 92 20 87 21 88 22 89 23 12 24
REMARK SMILES IDX 13 25 14 26 15 27 16 28 17 29 18 30 19 31 20 32 81 33 21 34
REMARK SMILES IDX 80 35 22 36 23 37 24 38 74 39 25 40 79 41 73 42 75 43 26 44
REMARK SMILES IDX 78 45 72 46 71 47 27 49 59 50 39 51 58 52 40 53 43 54 57 55
REMARK SMILES IDX 76 56 41 57 42 58 56 60 77 61 44 62 28 63 29 64 37 65 30 66
REMARK SMILES IDX 31 67 35 68 38 69 32 70 33 71 36 72 34 73 60 74 61 75 69 76
REMARK SMILES IDX 62 77 63 78 67 79 70 80 64 81 65 82 68 83 66 84 45 85 46 86
REMARK SMILES IDX 54 87 47 88 48 89 52 90 55 91 49 92 50 93 53 94 51 95
REMARK H PARENT 4 12 75 48 43 59
REMARK Flexibility Score: inf
ROOT
ATOM      1  C   UNL A   1      34.233  32.066  28.141  1.00  0.00     0.188 C 
ENDROOT
BRANCH   1   2
ATOM      2  O   UNL A   1      34.335  30.951  27.273  1.00  0.00    -0.376 OA
BRANCH   2   3
ATOM      3  C   UNL A   1      33.132  30.287  26.894  1.00  0.00     0.202 C 
BRANCH   3   4
ATOM      4  C   UNL A   1      33.047  28.750  27.008  1.00  0.00     0.261 C 
BRANCH   4   5
ATOM      5  O   UNL A   1      32.468  28.081  25.861  1.00  0.00    -0.461 OA
BRANCH   5   6
ATOM      6  C   UNL A   1      31.629  27.040  26.127  1.00  0.00     0.338 C 
ATOM      7  O   UNL A   1      30.780  27.079  27.015  1.00  0.00    -0.249 OA
BRANCH   6   8
ATOM      8  C   UNL A   1      31.800  25.799  25.182  1.00  0.00     0.168 C 
BRANCH   8   9
ATOM      9  C   UNL A   1      33.163  25.749  24.445  1.00  0.00     0.044 C 
ATOM     10  C   UNL A   1      34.306  25.155  25.272  1.00  0.00     0.007 C 
ENDBRANCH   8   9
BRANCH   8  11
ATOM     11  O   UNL A   1      31.876  24.658  26.088  1.00  0.00    -0.378 OA
ATOM     12  H   UNL A   1      32.806  24.432  26.244  1.00  0.00     0.212 HD
ENDBRANCH   8  11
BRANCH   8  13
ATOM     13  C   UNL A   1      30.551  25.547  24.245  1.00  0.00     0.062 C 
ATOM     14  C   UNL A   1      30.654  24.402  23.227  1.00  0.00     0.016 C 
BRANCH  13  15
ATOM     15  C   UNL A   1      30.011  26.810  23.569  1.00  0.00    -0.003 A 
ATOM     16  C   UNL A   1      30.825  27.699  22.850  1.00  0.00     0.046 A 
ATOM     17  C   UNL A   1      28.655  27.135  23.693  1.00  0.00     0.127 A 
ATOM     18  C   UNL A   1      30.293  28.872  22.313  1.00  0.00     0.126 A 
ATOM     19  C   UNL A   1      28.119  28.301  23.148  1.00  0.00     0.046 A 
ATOM     20  F   UNL A   1      27.841  26.326  24.386  1.00  0.00    -0.207 F 
ATOM     21  F   UNL A   1      31.110  29.708  21.658  1.00  0.00    -0.207 F 
ATOM     22  C   UNL A   1      28.942  29.191  22.454  1.00  0.00    -0.012 A 
ATOM     23  C   UNL A   1      28.416  30.490  21.926  1.00  0.00     0.047 C 
ENDBRANCH  13  15
ENDBRANCH   8  13
ENDBRANCH   6   8
ENDBRANCH   5   6
ENDBRANCH   4   5
ENDBRANCH   3   4
ENDBRANCH   2   3
ENDBRANCH   1   2
BRANCH   1  24
ATOM     24  C   UNL A   1      35.305  33.158  28.068  1.00  0.00     0.188 C 
BRANCH  24  25
ATOM     25  O   UNL A   1      35.165  34.259  28.921  1.00  0.00    -0.376 OA
BRANCH  25  26
ATOM     26  C   UNL A   1      34.161  35.229  28.696  1.00  0.00     0.202 C 
BRANCH  26  27
ATOM     27  C   UNL A   1      32.902  35.425  29.565  1.00  0.00     0.261 C 
BRANCH  27  28
ATOM     28  O   UNL A   1      32.994  36.254  30.728  1.00  0.00    -0.460 OA
BRANCH  28  29
ATOM     29  C   UNL A   1      32.621  35.703  31.907  1.00  0.00     0.338 C 
ATOM     30  O   UNL A   1      31.491  35.624  32.360  1.00  0.00    -0.246 OA
BRANCH  29  31
ATOM     31  C   UNL A   1      33.796  34.983  32.454  1.00  0.00     0.060 A 
ATOM     32  C   UNL A   1      35.057  35.590  32.369  1.00  0.00     0.016 A 
ATOM     33  C   UNL A   1      33.654  33.738  33.070  1.00  0.00     0.016 A 
ATOM     34  C   UNL A   1      36.185  34.946  32.884  1.00  0.00     0.010 A 
ATOM     35  C   UNL A   1      34.790  33.079  33.557  1.00  0.00     0.010 A 
ATOM     36  C   UNL A   1      36.063  33.668  33.445  1.00  0.00    -0.014 A 
BRANCH  36  37
ATOM     37  C   UNL A   1      37.278  32.860  33.720  1.00  0.00     0.031 A 
ATOM     38  C   UNL A   1      38.030  33.123  34.996  1.00  0.00     0.074 A 
ATOM     39  C   UNL A   1      37.710  31.910  32.873  1.00  0.00     0.049 A 
ATOM     40  N   UNL A   1      39.158  32.614  35.421  1.00  0.00    -0.248 NA
ATOM     41  C   UNL A   1      37.420  34.093  35.919  1.00  0.00     0.031 C 
ATOM     42  C   UNL A   1      37.045  31.507  31.636  1.00  0.00     0.029 A 
ATOM     43  N   UNL A   1      38.832  31.117  32.927  1.00  0.00    -0.354 N 
ATOM     44  C   UNL A   1      39.398  33.209  36.652  1.00  0.00     0.074 A 
ATOM     45  C   UNL A   1      38.310  34.131  36.898  1.00  0.00     0.031 C 
ATOM     46  C   UNL A   1      37.781  30.554  31.038  1.00  0.00     0.029 A 
ATOM     47  C   UNL A   1      38.989  30.308  31.828  1.00  0.00     0.049 A 
ATOM     48  H   UNL A   1      39.462  31.127  33.682  1.00  0.00     0.167 HD
ATOM     49  C   UNL A   1      40.432  33.007  37.503  1.00  0.00     0.037 A 
ATOM     50  C   UNL A   1      40.007  29.491  31.488  1.00  0.00     0.037 A 
ATOM     51  C   UNL A   1      41.520  32.097  37.259  1.00  0.00     0.049 A 
ATOM     52  C   UNL A   1      41.200  29.361  32.406  1.00  0.00     0.074 A 
ATOM     53  C   UNL A   1      42.607  31.817  38.069  1.00  0.00     0.029 A 
ATOM     54  N   UNL A   1      41.668  31.332  36.112  1.00  0.00    -0.354 N 
ATOM     55  N   UNL A   1      41.415  29.911  33.576  1.00  0.00    -0.248 NA
ATOM     56  C   UNL A   1      42.298  28.493  31.948  1.00  0.00     0.031 C 
ATOM     57  C   UNL A   1      43.445  30.931  37.385  1.00  0.00     0.029 A 
ATOM     58  C   UNL A   1      42.846  30.605  36.179  1.00  0.00     0.049 A 
ATOM     59  H   UNL A   1      41.030  31.309  35.363  1.00  0.00     0.167 HD
ATOM     60  C   UNL A   1      42.645  29.430  34.009  1.00  0.00     0.074 A 
ATOM     61  C   UNL A   1      43.128  28.535  32.980  1.00  0.00     0.031 C 
ATOM     62  C   UNL A   1      43.313  29.702  35.158  1.00  0.00     0.037 A 
BRANCH  49  63
ATOM     63  C   UNL A   1      40.457  33.820  38.764  1.00  0.00     0.064 A 
ATOM     64  C   UNL A   1      39.750  33.433  39.911  1.00  0.00     0.173 A 
ATOM     65  C   UNL A   1      41.222  34.995  38.829  1.00  0.00     0.173 A 
ATOM     66  F   UNL A   1      38.990  32.327  39.895  1.00  0.00    -0.203 F 
ATOM     67  C   UNL A   1      39.787  34.205  41.069  1.00  0.00     0.198 A 
ATOM     68  C   UNL A   1      41.283  35.747  39.998  1.00  0.00     0.198 A 
ATOM     69  F   UNL A   1      41.919  35.409  37.759  1.00  0.00    -0.203 F 
ATOM     70  F   UNL A   1      39.062  33.844  42.137  1.00  0.00    -0.200 F 
ATOM     71  C   UNL A   1      40.559  35.357  41.114  1.00  0.00     0.200 A 
ATOM     72  F   UNL A   1      42.039  36.852  40.043  1.00  0.00    -0.200 F 
ATOM     73  F   UNL A   1      40.598  36.096  42.231  1.00  0.00    -0.200 F 
ENDBRANCH  49  63
BRANCH  50  74
ATOM     74  C   UNL A   1      39.967  28.739  30.205  1.00  0.00     0.064 A 
ATOM     75  C   UNL A   1      39.382  27.467  30.129  1.00  0.00     0.173 A 
ATOM     76  C   UNL A   1      40.560  29.252  29.041  1.00  0.00     0.173 A 
ATOM     77  F   UNL A   1      38.833  26.917  31.222  1.00  0.00    -0.203 F 
ATOM     78  C   UNL A   1      39.412  26.728  28.948  1.00  0.00     0.198 A 
ATOM     79  C   UNL A   1      40.561  28.526  27.851  1.00  0.00     0.198 A 
ATOM     80  F   UNL A   1      41.144  30.459  29.061  1.00  0.00    -0.203 F 
ATOM     81  F   UNL A   1      38.898  25.491  28.920  1.00  0.00    -0.200 F 
ATOM     82  C   UNL A   1      39.995  27.261  27.808  1.00  0.00     0.200 A 
ATOM     83  F   UNL A   1      41.120  29.048  26.751  1.00  0.00    -0.200 F 
ATOM     84  F   UNL A   1      40.026  26.550  26.673  1.00  0.00    -0.200 F 
ENDBRANCH  50  74
BRANCH  62  85
ATOM     85  C   UNL A   1      44.614  28.988  35.399  1.00  0.00     0.064 A 
ATOM     86  C   UNL A   1      44.672  27.740  36.038  1.00  0.00     0.173 A 
ATOM     87  C   UNL A   1      45.820  29.540  34.935  1.00  0.00     0.173 A 
ATOM     88  F   UNL A   1      43.552  27.171  36.510  1.00  0.00    -0.203 F 
ATOM     89  C   UNL A   1      45.887  27.085  36.226  1.00  0.00     0.198 A 
ATOM     90  C   UNL A   1      47.029  28.867  35.095  1.00  0.00     0.198 A 
ATOM     91  F   UNL A   1      45.824  30.726  34.308  1.00  0.00    -0.203 F 
ATOM     92  F   UNL A   1      45.922  25.918  36.882  1.00  0.00    -0.200 F 
ATOM     93  C   UNL A   1      47.063  27.645  35.747  1.00  0.00     0.200 A 
ATOM     94  F   UNL A   1      48.160  29.402  34.614  1.00  0.00    -0.200 F 
ATOM     95  F   UNL A   1      48.229  27.009  35.919  1.00  0.00    -0.200 F 
ENDBRANCH  62  85
ENDBRANCH  36  37
ENDBRANCH  29  31
ENDBRANCH  28  29
ENDBRANCH  27  28
ENDBRANCH  26  27
ENDBRANCH  25  26
ENDBRANCH  24  25
ENDBRANCH   1  24
TORSDOF 21
ENDMDL
MODEL 2
REMARK VINA RESULT:     -10.1      3.812      9.051
REMARK SMILES CC[C@@](O)(C(=O)OCCOCCOCCOC(=O)c1ccc(-c2c3nc(c(-c4c(F)c(F)c(F)c(F)c4F)c4ccc([nH]4)c(-c4c(F)c(F)c(F)c(F)c4F)c4nc(c(-c5c(F)c(F)c(F)c(F)c5F)c5ccc2[nH]5)C=C4)C=C3)cc1)[C@H](C)c1cc(F)c(C)cc1F
REMARK SMILES IDX 11 1 10 2 9 3 8 4 7 5 5 6 6 7 3 8 2 9 1 10 4 11 82 13 83 14
REMARK SMILES IDX 84 15 85 16 91 17 86 18 90 19 92 20 87 21 88 22 89 23 12 24
REMARK SMILES IDX 13 25 14 26 15 27 16 28 17 29 18 30 19 31 20 32 81 33 21 34
REMARK SMILES IDX 80 35 22 36 23 37 24 38 74 39 25 40 79 41 73 42 75 43 26 44
REMARK SMILES IDX 78 45 72 46 71 47 27 49 59 50 39 51 58 52 40 53 43 54 57 55
REMARK SMILES IDX 76 56 41 57 42 58 56 60 77 61 44 62 28 63 29 64 37 65 30 66
REMARK SMILES IDX 31 67 35 68 38 69 32 70 33 71 36 72 34 73 60 74 61 75 69 76
REMARK SMILES IDX 62 77 63 78 67 79 70 80 64 81 65 82 68 83 66 84 45 85 46 86
REMARK SMILES IDX 54 87 47 88 48 89 52 90 55 91 49 92 50 93 53 94 51 95
REMARK H PARENT 4 12 75 48 43 59
REMARK Flexibility Score: inf
ROOT
ATOM      1  C   UNL A   1      39.506  20.946  26.083  1.00  0.00     0.188 C 
ENDROOT
BRANCH   1   2
ATOM      2  O   UNL A   1      38.526  21.944  26.309  1.00  0.00    -0.376 OA
BRANCH   2   3
ATOM      3  C   UNL A   1      37.866  22.501  25.175  1.00  0.00     0.202 C 
BRANCH   3   4
ATOM      4  C   UNL A   1      37.030  21.583  24.259  1.00  0.00     0.261 C 
BRANCH   4   5
ATOM      5  O   UNL A   1      35.596  21.676  24.440  1.00  0.00    -0.461 OA
BRANCH   5   6
ATOM      6  C   UNL A   1      35.029  22.887  24.173  1.00  0.00     0.338 C 
ATOM      7  O   UNL A   1      35.219  23.493  23.121  1.00  0.00    -0.249 OA
BRANCH   6   8
ATOM      8  C   UNL A   1      34.078  23.429  25.296  1.00  0.00     0.168 C 
BRANCH   8   9
ATOM      9  C   UNL A   1      34.474  22.989  26.729  1.00  0.00     0.044 C 
ATOM     10  C   UNL A   1      33.709  21.769  27.249  1.00  0.00     0.007 C 
ENDBRANCH   8   9
BRANCH   8  11
ATOM     11  O   UNL A   1      34.321  24.867  25.318  1.00  0.00    -0.378 OA
ATOM     12  H   UNL A   1      35.091  25.056  25.878  1.00  0.00     0.212 HD
ENDBRANCH   8  11
BRANCH   8  13
ATOM     13  C   UNL A   1      32.543  23.239  24.965  1.00  0.00     0.062 C 
ATOM     14  C   UNL A   1      32.161  22.082  24.031  1.00  0.00     0.016 C 
BRANCH  13  15
ATOM     15  C   UNL A   1      31.833  24.525  24.533  1.00  0.00    -0.003 A 
ATOM     16  C   UNL A   1      31.790  24.963  23.200  1.00  0.00     0.046 A 
ATOM     17  C   UNL A   1      31.224  25.338  25.498  1.00  0.00     0.127 A 
ATOM     18  C   UNL A   1      31.189  26.179  22.872  1.00  0.00     0.126 A 
ATOM     19  C   UNL A   1      30.614  26.547  25.170  1.00  0.00     0.046 A 
ATOM     20  F   UNL A   1      31.255  24.970  26.787  1.00  0.00    -0.207 F 
ATOM     21  F   UNL A   1      31.195  26.574  21.591  1.00  0.00    -0.207 F 
ATOM     22  C   UNL A   1      30.598  26.986  23.844  1.00  0.00    -0.012 A 
ATOM     23  C   UNL A   1      30.021  28.316  23.470  1.00  0.00     0.047 C 
ENDBRANCH  13  15
ENDBRANCH   8  13
ENDBRANCH   6   8
ENDBRANCH   5   6
ENDBRANCH   4   5
ENDBRANCH   3   4
ENDBRANCH   2   3
ENDBRANCH   1   2
BRANCH   1  24
ATOM     24  C   UNL A   1      40.982  21.302  26.291  1.00  0.00     0.188 C 
BRANCH  24  25
ATOM     25  O   UNL A   1      41.934  20.536  25.607  1.00  0.00    -0.376 OA
BRANCH  25  26
ATOM     26  C   UNL A   1      43.286  20.517  26.023  1.00  0.00     0.202 C 
BRANCH  26  27
ATOM     27  C   UNL A   1      44.387  21.468  25.511  1.00  0.00     0.261 C 
BRANCH  27  28
ATOM     28  O   UNL A   1      44.590  22.711  26.191  1.00  0.00    -0.460 OA
BRANCH  28  29
ATOM     29  C   UNL A   1      44.346  23.843  25.489  1.00  0.00     0.338 C 
ATOM     30  O   UNL A   1      44.481  24.010  24.289  1.00  0.00    -0.246 OA
BRANCH  29  31
ATOM     31  C   UNL A   1      43.645  24.786  26.393  1.00  0.00     0.060 A 
ATOM     32  C   UNL A   1      43.999  26.143  26.356  1.00  0.00     0.016 A 
ATOM     33  C   UNL A   1      42.631  24.346  27.247  1.00  0.00     0.016 A 
ATOM     34  C   UNL A   1      43.352  27.062  27.186  1.00  0.00     0.010 A 
ATOM     35  C   UNL A   1      42.007  25.263  28.101  1.00  0.00     0.010 A 
ATOM     36  C   UNL A   1      42.380  26.620  28.093  1.00  0.00    -0.014 A 
BRANCH  36  37
ATOM     37  C   UNL A   1      41.906  27.524  29.171  1.00  0.00     0.031 A 
ATOM     38  C   UNL A   1      42.637  27.503  30.486  1.00  0.00     0.074 A 
ATOM     39  C   UNL A   1      40.861  28.352  29.000  1.00  0.00     0.049 A 
ATOM     40  N   UNL A   1      42.367  28.130  31.602  1.00  0.00    -0.248 NA
ATOM     41  C   UNL A   1      43.840  26.657  30.544  1.00  0.00     0.031 C 
ATOM     42  C   UNL A   1      40.104  28.522  27.763  1.00  0.00     0.029 A 
ATOM     43  N   UNL A   1      40.248  29.202  29.891  1.00  0.00    -0.354 N 
ATOM     44  C   UNL A   1      43.358  27.747  32.496  1.00  0.00     0.074 A 
ATOM     45  C   UNL A   1      44.223  26.818  31.801  1.00  0.00     0.031 C 
ATOM     46  C   UNL A   1      39.115  29.408  27.977  1.00  0.00     0.029 A 
ATOM     47  C   UNL A   1      39.145  29.837  29.376  1.00  0.00     0.049 A 
ATOM     48  H   UNL A   1      40.571  29.342  30.810  1.00  0.00     0.167 HD
ATOM     49  C   UNL A   1      43.533  28.134  33.782  1.00  0.00     0.037 A 
ATOM     50  C   UNL A   1      38.247  30.644  29.978  1.00  0.00     0.037 A 
ATOM     51  C   UNL A   1      42.670  29.050  34.480  1.00  0.00     0.049 A 
ATOM     52  C   UNL A   1      38.404  30.977  31.443  1.00  0.00     0.074 A 
ATOM     53  C   UNL A   1      42.775  29.509  35.782  1.00  0.00     0.029 A 
ATOM     54  N   UNL A   1      41.536  29.634  33.939  1.00  0.00    -0.354 N 
ATOM     55  N   UNL A   1      39.351  30.628  32.280  1.00  0.00    -0.248 NA
ATOM     56  C   UNL A   1      37.359  31.820  32.047  1.00  0.00     0.031 C 
ATOM     57  C   UNL A   1      41.668  30.321  36.049  1.00  0.00     0.029 A 
ATOM     58  C   UNL A   1      40.911  30.424  34.892  1.00  0.00     0.049 A 
ATOM     59  H   UNL A   1      41.220  29.507  33.016  1.00  0.00     0.167 HD
ATOM     60  C   UNL A   1      39.039  31.235  33.491  1.00  0.00     0.074 A 
ATOM     61  C   UNL A   1      37.819  31.983  33.280  1.00  0.00     0.031 C 
ATOM     62  C   UNL A   1      39.705  31.181  34.671  1.00  0.00     0.037 A 
BRANCH  49  63
ATOM     63  C   UNL A   1      44.682  27.528  34.534  1.00  0.00     0.064 A 
ATOM     64  C   UNL A   1      45.941  28.144  34.587  1.00  0.00     0.173 A 
ATOM     65  C   UNL A   1      44.509  26.323  35.233  1.00  0.00     0.173 A 
ATOM     66  F   UNL A   1      46.162  29.287  33.921  1.00  0.00    -0.203 F 
ATOM     67  C   UNL A   1      46.993  27.561  35.290  1.00  0.00     0.198 A 
ATOM     68  C   UNL A   1      45.554  25.762  35.962  1.00  0.00     0.198 A 
ATOM     69  F   UNL A   1      43.324  25.695  35.217  1.00  0.00    -0.203 F 
ATOM     70  F   UNL A   1      48.202  28.140  35.283  1.00  0.00    -0.200 F 
ATOM     71  C   UNL A   1      46.796  26.376  35.983  1.00  0.00     0.200 A 
ATOM     72  F   UNL A   1      45.358  24.623  36.641  1.00  0.00    -0.200 F 
ATOM     73  F   UNL A   1      47.808  25.821  36.664  1.00  0.00    -0.200 F 
ENDBRANCH  49  63
BRANCH  50  74
ATOM     74  C   UNL A   1      37.092  31.184  29.209  1.00  0.00     0.064 A 
ATOM     75  C   UNL A   1      37.042  32.533  28.832  1.00  0.00     0.173 A 
ATOM     76  C   UNL A   1      35.992  30.376  28.884  1.00  0.00     0.173 A 
ATOM     77  F   UNL A   1      38.053  33.355  29.150  1.00  0.00    -0.203 F 
ATOM     78  C   UNL A   1      35.928  33.059  28.180  1.00  0.00     0.198 A 
ATOM     79  C   UNL A   1      34.892  30.895  28.203  1.00  0.00     0.198 A 
ATOM     80  F   UNL A   1      35.983  29.081  29.232  1.00  0.00    -0.203 F 
ATOM     81  F   UNL A   1      35.881  34.365  27.884  1.00  0.00    -0.200 F 
ATOM     82  C   UNL A   1      34.857  32.239  27.861  1.00  0.00     0.200 A 
ATOM     83  F   UNL A   1      33.862  30.097  27.891  1.00  0.00    -0.200 F 
ATOM     84  F   UNL A   1      33.785  32.744  27.236  1.00  0.00    -0.200 F 
ENDBRANCH  50  74
BRANCH  62  85
ATOM     85  C   UNL A   1      39.168  31.991  35.818  1.00  0.00     0.064 A 
ATOM     86  C   UNL A   1      38.288  31.447  36.766  1.00  0.00     0.173 A 
ATOM     87  C   UNL A   1      39.583  33.320  36.000  1.00  0.00     0.173 A 
ATOM     88  F   UNL A   1      37.851  30.186  36.635  1.00  0.00    -0.203 F 
ATOM     89  C   UNL A   1      37.825  32.210  37.836  1.00  0.00     0.198 A 
ATOM     90  C   UNL A   1      39.145  34.069  37.089  1.00  0.00     0.198 A 
ATOM     91  F   UNL A   1      40.432  33.889  35.130  1.00  0.00    -0.203 F 
ATOM     92  F   UNL A   1      36.947  31.684  38.701  1.00  0.00    -0.200 F 
ATOM     93  C   UNL A   1      38.260  33.517  38.001  1.00  0.00     0.200 A 
ATOM     94  F   UNL A   1      39.582  35.326  37.256  1.00  0.00    -0.200 F 
ATOM     95  F   UNL A   1      37.822  34.246  39.037  1.00  0.00    -0.200 F 
ENDBRANCH  62  85
ENDBRANCH  36  37
ENDBRANCH  29  31
ENDBRANCH  28  29
ENDBRANCH  27  28
ENDBRANCH  26  27
ENDBRANCH  25  26
ENDBRANCH  24  25
ENDBRANCH   1  24
TORSDOF 21
ENDMDL
MODEL 3
REMARK VINA RESULT:     -10.0      2.629      4.447
REMARK SMILES CC[C@@](O)(C(=O)OCCOCCOCCOC(=O)c1ccc(-c2c3nc(c(-c4c(F)c(F)c(F)c(F)c4F)c4ccc([nH]4)c(-c4c(F)c(F)c(F)c(F)c4F)c4nc(c(-c5c(F)c(F)c(F)c(F)c5F)c5ccc2[nH]5)C=C4)C=C3)cc1)[C@H](C)c1cc(F)c(C)cc1F
REMARK SMILES IDX 11 1 10 2 9 3 8 4 7 5 5 6 6 7 3 8 2 9 1 10 4 11 82 13 83 14
REMARK SMILES IDX 84 15 85 16 91 17 86 18 90 19 92 20 87 21 88 22 89 23 12 24
REMARK SMILES IDX 13 25 14 26 15 27 16 28 17 29 18 30 19 31 20 32 81 33 21 34
REMARK SMILES IDX 80 35 22 36 23 37 24 38 74 39 25 40 79 41 73 42 75 43 26 44
REMARK SMILES IDX 78 45 72 46 71 47 27 49 59 50 39 51 58 52 40 53 43 54 57 55
REMARK SMILES IDX 76 56 41 57 42 58 56 60 77 61 44 62 28 63 29 64 37 65 30 66
REMARK SMILES IDX 31 67 35 68 38 69 32 70 33 71 36 72 34 73 60 74 61 75 69 76
REMARK SMILES IDX 62 77 63 78 67 79 70 80 64 81 65 82 68 83 66 84 45 85 46 86
REMARK SMILES IDX 54 87 47 88 48 89 52 90 55 91 49 92 50 93 53 94 51 95
REMARK H PARENT 4 12 75 48 43 59
REMARK Flexibility Score: inf
ROOT
ATOM      1  C   UNL A   1      33.563  28.544  26.515  1.00  0.00     0.188 C 
ENDROOT
BRANCH   1   2
ATOM      2  O   UNL A   1      32.632  27.617  27.044  1.00  0.00    -0.376 OA
BRANCH   2   3
ATOM      3  C   UNL A   1      31.390  27.452  26.363  1.00  0.00     0.202 C 
BRANCH   3   4
ATOM      4  C   UNL A   1      30.849  26.029  26.107  1.00  0.00     0.261 C 
BRANCH   4   5
ATOM      5  O   UNL A   1      31.816  25.092  25.574  1.00  0.00    -0.461 OA
BRANCH   5   6
ATOM      6  C   UNL A   1      31.478  23.773  25.638  1.00  0.00     0.338 C 
ATOM      7  O   UNL A   1      30.316  23.379  25.571  1.00  0.00    -0.249 OA
BRANCH   6   8
ATOM      8  C   UNL A   1      32.694  22.788  25.758  1.00  0.00     0.168 C 
BRANCH   8   9
ATOM      9  C   UNL A   1      33.747  23.210  26.814  1.00  0.00     0.044 C 
ATOM     10  C   UNL A   1      33.869  22.252  28.002  1.00  0.00     0.007 C 
ENDBRANCH   8   9
BRANCH   8  11
ATOM     11  O   UNL A   1      32.124  21.574  26.332  1.00  0.00    -0.378 OA
ATOM     12  H   UNL A   1      31.948  21.715  27.276  1.00  0.00     0.212 HD
ENDBRANCH   8  11
BRANCH   8  13
ATOM     13  C   UNL A   1      33.310  22.377  24.361  1.00  0.00     0.062 C 
ATOM     14  C   UNL A   1      32.694  23.011  23.105  1.00  0.00     0.016 C 
BRANCH  13  15
ATOM     15  C   UNL A   1      33.470  20.867  24.168  1.00  0.00    -0.003 A 
ATOM     16  C   UNL A   1      32.528  20.080  23.487  1.00  0.00     0.046 A 
ATOM     17  C   UNL A   1      34.578  20.212  24.719  1.00  0.00     0.127 A 
ATOM     18  C   UNL A   1      32.689  18.696  23.401  1.00  0.00     0.126 A 
ATOM     19  C   UNL A   1      34.746  18.831  24.625  1.00  0.00     0.046 A 
ATOM     20  F   UNL A   1      35.495  20.919  25.394  1.00  0.00    -0.207 F 
ATOM     21  F   UNL A   1      31.751  17.978  22.767  1.00  0.00    -0.207 F 
ATOM     22  C   UNL A   1      33.790  18.054  23.966  1.00  0.00    -0.012 A 
ATOM     23  C   UNL A   1      33.900  16.561  23.916  1.00  0.00     0.047 C 
ENDBRANCH  13  15
ENDBRANCH   8  13
ENDBRANCH   6   8
ENDBRANCH   5   6
ENDBRANCH   4   5
ENDBRANCH   3   4
ENDBRANCH   2   3
ENDBRANCH   1   2
BRANCH   1  24
ATOM     24  C   UNL A   1      33.042  29.707  25.663  1.00  0.00     0.188 C 
BRANCH  24  25
ATOM     25  O   UNL A   1      32.260  30.675  26.302  1.00  0.00    -0.376 OA
BRANCH  25  26
ATOM     26  C   UNL A   1      32.844  31.612  27.186  1.00  0.00     0.202 C 
BRANCH  26  27
ATOM     27  C   UNL A   1      32.199  32.943  27.625  1.00  0.00     0.261 C 
BRANCH  27  28
ATOM     28  O   UNL A   1      32.927  34.158  27.421  1.00  0.00    -0.460 OA
BRANCH  28  29
ATOM     29  C   UNL A   1      33.144  34.935  28.509  1.00  0.00     0.338 C 
ATOM     30  O   UNL A   1      32.447  35.850  28.913  1.00  0.00    -0.246 OA
BRANCH  29  31
ATOM     31  C   UNL A   1      34.255  34.324  29.278  1.00  0.00     0.060 A 
ATOM     32  C   UNL A   1      35.552  34.384  28.749  1.00  0.00     0.016 A 
ATOM     33  C   UNL A   1      34.027  33.726  30.519  1.00  0.00     0.016 A 
ATOM     34  C   UNL A   1      36.625  33.829  29.451  1.00  0.00     0.010 A 
ATOM     35  C   UNL A   1      35.098  33.142  31.206  1.00  0.00     0.010 A 
ATOM     36  C   UNL A   1      36.397  33.169  30.665  1.00  0.00    -0.014 A 
BRANCH  36  37
ATOM     37  C   UNL A   1      37.465  32.329  31.265  1.00  0.00     0.031 A 
ATOM     38  C   UNL A   1      37.952  32.680  32.643  1.00  0.00     0.074 A 
ATOM     39  C   UNL A   1      37.991  31.275  30.617  1.00  0.00     0.049 A 
ATOM     40  N   UNL A   1      38.927  32.157  33.343  1.00  0.00    -0.248 NA
ATOM     41  C   UNL A   1      37.238  33.770  33.325  1.00  0.00     0.031 C 
ATOM     42  C   UNL A   1      37.570  30.785  29.307  1.00  0.00     0.029 A 
ATOM     43  N   UNL A   1      39.015  30.432  30.980  1.00  0.00    -0.354 N 
ATOM     44  C   UNL A   1      38.949  32.861  34.540  1.00  0.00     0.074 A 
ATOM     45  C   UNL A   1      37.906  33.861  34.464  1.00  0.00     0.031 C 
ATOM     46  C   UNL A   1      38.342  29.736  28.967  1.00  0.00     0.029 A 
ATOM     47  C   UNL A   1      39.336  29.508  30.017  1.00  0.00     0.049 A 
ATOM     48  H   UNL A   1      39.474  30.486  31.849  1.00  0.00     0.167 HD
ATOM     49  C   UNL A   1      39.765  32.691  35.607  1.00  0.00     0.037 A 
ATOM     50  C   UNL A   1      40.339  28.607  29.976  1.00  0.00     0.037 A 
ATOM     51  C   UNL A   1      40.810  31.705  35.683  1.00  0.00     0.049 A 
ATOM     52  C   UNL A   1      41.302  28.507  31.136  1.00  0.00     0.074 A 
ATOM     53  C   UNL A   1      41.680  31.451  36.729  1.00  0.00     0.029 A 
ATOM     54  N   UNL A   1      41.135  30.819  34.667  1.00  0.00    -0.354 N 
ATOM     55  N   UNL A   1      41.310  29.162  32.271  1.00  0.00    -0.248 NA
ATOM     56  C   UNL A   1      42.404  27.539  31.002  1.00  0.00     0.031 C 
ATOM     57  C   UNL A   1      42.574  30.455  36.321  1.00  0.00     0.029 A 
ATOM     58  C   UNL A   1      42.216  30.040  35.048  1.00  0.00     0.049 A 
ATOM     59  H   UNL A   1      40.667  30.753  33.803  1.00  0.00     0.167 HD
ATOM     60  C   UNL A   1      42.384  28.662  32.998  1.00  0.00     0.074 A 
ATOM     61  C   UNL A   1      43.002  27.641  32.180  1.00  0.00     0.031 C 
ATOM     62  C   UNL A   1      42.817  29.013  34.235  1.00  0.00     0.037 A 
BRANCH  49  63
ATOM     63  C   UNL A   1      39.588  33.627  36.767  1.00  0.00     0.064 A 
ATOM     64  C   UNL A   1      40.192  34.892  36.798  1.00  0.00     0.173 A 
ATOM     65  C   UNL A   1      38.779  33.258  37.852  1.00  0.00     0.173 A 
ATOM     66  F   UNL A   1      40.990  35.285  35.793  1.00  0.00    -0.203 F 
ATOM     67  C   UNL A   1      40.015  35.743  37.887  1.00  0.00     0.198 A 
ATOM     68  C   UNL A   1      38.577  34.124  38.923  1.00  0.00     0.198 A 
ATOM     69  F   UNL A   1      38.176  32.059  37.870  1.00  0.00    -0.203 F 
ATOM     70  F   UNL A   1      40.644  36.926  37.920  1.00  0.00    -0.200 F 
ATOM     71  C   UNL A   1      39.201  35.361  38.944  1.00  0.00     0.200 A 
ATOM     72  F   UNL A   1      37.781  33.758  39.937  1.00  0.00    -0.200 F 
ATOM     73  F   UNL A   1      39.027  36.183  39.987  1.00  0.00    -0.200 F 
ENDBRANCH  49  63
BRANCH  50  74
ATOM     74  C   UNL A   1      40.512  27.731  28.786  1.00  0.00     0.064 A 
ATOM     75  C   UNL A   1      41.301  28.134  27.699  1.00  0.00     0.173 A 
ATOM     76  C   UNL A   1      39.849  26.498  28.686  1.00  0.00     0.173 A 
ATOM     77  F   UNL A   1      41.927  29.320  27.730  1.00  0.00    -0.203 F 
ATOM     78  C   UNL A   1      41.402  27.351  26.551  1.00  0.00     0.198 A 
ATOM     79  C   UNL A   1      39.977  25.700  27.550  1.00  0.00     0.198 A 
ATOM     80  F   UNL A   1      39.072  26.069  29.691  1.00  0.00    -0.203 F 
ATOM     81  F   UNL A   1      42.115  27.788  25.504  1.00  0.00    -0.200 F 
ATOM     82  C   UNL A   1      40.745  26.132  26.479  1.00  0.00     0.200 A 
ATOM     83  F   UNL A   1      39.345  24.520  27.488  1.00  0.00    -0.200 F 
ATOM     84  F   UNL A   1      40.841  25.380  25.375  1.00  0.00    -0.200 F 
ENDBRANCH  50  74
BRANCH  62  85
ATOM     85  C   UNL A   1      43.983  28.258  34.811  1.00  0.00     0.064 A 
ATOM     86  C   UNL A   1      43.816  27.064  35.528  1.00  0.00     0.173 A 
ATOM     87  C   UNL A   1      45.295  28.713  34.597  1.00  0.00     0.173 A 
ATOM     88  F   UNL A   1      42.585  26.590  35.771  1.00  0.00    -0.203 F 
ATOM     89  C   UNL A   1      44.914  26.369  36.029  1.00  0.00     0.198 A 
ATOM     90  C   UNL A   1      46.392  27.998  35.070  1.00  0.00     0.198 A 
ATOM     91  F   UNL A   1      45.515  29.844  33.909  1.00  0.00    -0.203 F 
ATOM     92  F   UNL A   1      44.727  25.256  36.752  1.00  0.00    -0.200 F 
ATOM     93  C   UNL A   1      46.200  26.830  35.793  1.00  0.00     0.200 A 
ATOM     94  F   UNL A   1      47.634  28.437  34.823  1.00  0.00    -0.200 F 
ATOM     95  F   UNL A   1      47.256  26.155  36.266  1.00  0.00    -0.200 F 
ENDBRANCH  62  85
ENDBRANCH  36  37
ENDBRANCH  29  31
ENDBRANCH  28  29
ENDBRANCH  27  28
ENDBRANCH  26  27
ENDBRANCH  25  26
ENDBRANCH  24  25
ENDBRANCH   1  24
TORSDOF 21
ENDMDL
