MODEL 1
REMARK VINA RESULT:     -10.7      0.000      0.000
REMARK SMILES CCSc1nc(CC(=O)N[C@@H](C(=O)OCCOCCOCCOC(=O)c2ccc(-c3c4nc(c(-c5c(F)c(F)c(F)c(F)c5F)c5ccc([nH]5)c(-c5c(F)c(F)c(F)c(F)c5F)c5nc(c(-c6c(F)c(F)c(F)c(F)c6F)c6ccc3[nH]6)C=C5)C=C4)cc2)C2=C(C)N=N[C@@H]2C)cs1
REMARK SMILES IDX 17 1 16 2 15 3 14 4 12 5 13 6 11 7 10 8 8 9 9 10 7 12 6 13
REMARK SMILES IDX 4 14 5 15 97 16 96 17 3 18 2 19 1 20 89 21 90 22 94 23 91 24
REMARK SMILES IDX 92 25 93 26 95 27 18 28 19 29 20 30 21 31 22 32 23 33 24 34
REMARK SMILES IDX 25 35 26 36 27 37 88 38 28 39 87 40 29 41 30 42 31 43 81 44
REMARK SMILES IDX 32 45 86 46 80 47 82 48 33 49 85 50 79 51 78 52 34 54 66 55
REMARK SMILES IDX 46 56 65 57 47 58 50 59 64 60 83 61 48 62 49 63 63 65 84 66
REMARK SMILES IDX 51 67 35 68 36 69 44 70 37 71 38 72 42 73 45 74 39 75 40 76
REMARK SMILES IDX 43 77 41 78 67 79 68 80 76 81 69 82 70 83 74 84 77 85 71 86
REMARK SMILES IDX 72 87 75 88 73 89 52 90 53 91 61 92 54 93 55 94 59 95 62 96
REMARK SMILES IDX 56 97 57 98 60 99 58 100
REMARK H PARENT 10 11 82 53 50 64
REMARK Flexibility Score: inf
ROOT
ATOM      1  O   UNL A   1      36.852  21.926  25.994  1.00  0.00    -0.376 OA
ENDROOT
BRANCH   1   2
ATOM      2  C   UNL A   1      36.478  23.290  26.138  1.00  0.00     0.202 C 
BRANCH   2   3
ATOM      3  C   UNL A   1      35.658  23.822  24.963  1.00  0.00     0.261 C 
BRANCH   3   4
ATOM      4  O   UNL A   1      34.939  25.058  25.166  1.00  0.00    -0.461 OA
BRANCH   4   5
ATOM      5  C   UNL A   1      33.643  25.075  25.579  1.00  0.00     0.333 C 
ATOM      6  O   UNL A   1      33.286  24.829  26.724  1.00  0.00    -0.249 OA
BRANCH   5   7
ATOM      7  C   UNL A   1      32.664  25.373  24.388  1.00  0.00     0.223 C 
BRANCH   7   8
ATOM      8  N   UNL A   1      33.161  24.901  23.095  1.00  0.00    -0.339 N 
ATOM      9  C   UNL A   1      32.886  23.729  22.456  1.00  0.00     0.226 C 
ATOM     10  O   UNL A   1      33.515  23.465  21.429  1.00  0.00    -0.275 OA
ATOM     11  H   UNL A   1      33.776  25.511  22.625  1.00  0.00     0.164 HD
BRANCH   9  12
ATOM     12  C   UNL A   1      31.770  22.831  22.943  1.00  0.00     0.157 C 
BRANCH  12  13
ATOM     13  C   UNL A   1      32.246  21.692  23.780  1.00  0.00     0.062 A 
ATOM     14  C   UNL A   1      32.785  19.559  24.065  1.00  0.00     0.150 A 
ATOM     15  N   UNL A   1      32.234  20.414  23.231  1.00  0.00    -0.234 NA
ATOM     16  S   UNL A   1      33.299  20.214  25.562  1.00  0.00    -0.116 S 
ATOM     17  C   UNL A   1      32.744  21.760  25.068  1.00  0.00     0.092 A 
BRANCH  14  18
ATOM     18  S   UNL A   1      33.035  17.884  23.632  1.00  0.00    -0.096 SA
BRANCH  18  19
ATOM     19  C   UNL A   1      34.656  17.549  24.380  1.00  0.00     0.074 C 
ATOM     20  C   UNL A   1      34.755  16.099  24.823  1.00  0.00     0.016 C 
ENDBRANCH  18  19
ENDBRANCH  14  18
ENDBRANCH  12  13
ENDBRANCH   9  12
ENDBRANCH   7   8
BRANCH   7  21
ATOM     21  C   UNL A   1      32.239  26.799  24.220  1.00  0.00     0.012 C 
ATOM     22  C   UNL A   1      31.019  27.286  23.950  1.00  0.00     0.064 C 
ATOM     23  C   UNL A   1      33.082  28.009  24.453  1.00  0.00     0.156 C 
ATOM     24  C   UNL A   1      29.769  26.552  23.612  1.00  0.00     0.069 C 
ATOM     25  N   UNL A   1      30.963  28.653  24.056  1.00  0.00    -0.160 NA
ATOM     26  N   UNL A   1      32.081  29.110  24.414  1.00  0.00    -0.181 NA
ATOM     27  C   UNL A   1      34.076  28.277  23.333  1.00  0.00     0.040 C 
ENDBRANCH   7  21
ENDBRANCH   5   7
ENDBRANCH   4   5
ENDBRANCH   3   4
ENDBRANCH   2   3
ENDBRANCH   1   2
BRANCH   1  28
ATOM     28  C   UNL A   1      38.102  21.698  25.364  1.00  0.00     0.188 C 
BRANCH  28  29
ATOM     29  C   UNL A   1      39.334  22.075  26.206  1.00  0.00     0.188 C 
BRANCH  29  30
ATOM     30  O   UNL A   1      40.126  21.076  26.827  1.00  0.00    -0.376 OA
BRANCH  30  31
ATOM     31  C   UNL A   1      41.472  20.908  26.416  1.00  0.00     0.202 C 
BRANCH  31  32
ATOM     32  C   UNL A   1      42.092  22.023  25.567  1.00  0.00     0.261 C 
BRANCH  32  33
ATOM     33  O   UNL A   1      43.352  22.503  26.062  1.00  0.00    -0.460 OA
BRANCH  33  34
ATOM     34  C   UNL A   1      43.706  23.744  25.647  1.00  0.00     0.338 C 
ATOM     35  O   UNL A   1      44.364  24.035  24.661  1.00  0.00    -0.246 OA
BRANCH  34  36
ATOM     36  C   UNL A   1      43.008  24.757  26.472  1.00  0.00     0.060 A 
ATOM     37  C   UNL A   1      43.306  26.112  26.254  1.00  0.00     0.016 A 
ATOM     38  C   UNL A   1      42.080  24.393  27.450  1.00  0.00     0.016 A 
ATOM     39  C   UNL A   1      42.702  27.100  27.033  1.00  0.00     0.010 A 
ATOM     40  C   UNL A   1      41.503  25.382  28.253  1.00  0.00     0.010 A 
ATOM     41  C   UNL A   1      41.834  26.735  28.070  1.00  0.00    -0.014 A 
BRANCH  41  42
ATOM     42  C   UNL A   1      41.468  27.718  29.119  1.00  0.00     0.031 A 
ATOM     43  C   UNL A   1      42.239  27.685  30.408  1.00  0.00     0.074 A 
ATOM     44  C   UNL A   1      40.453  28.586  28.964  1.00  0.00     0.049 A 
ATOM     45  N   UNL A   1      42.027  28.337  31.522  1.00  0.00    -0.248 NA
ATOM     46  C   UNL A   1      43.409  26.792  30.446  1.00  0.00     0.031 C 
ATOM     47  C   UNL A   1      39.667  28.763  27.747  1.00  0.00     0.029 A 
ATOM     48  N   UNL A   1      39.897  29.472  29.855  1.00  0.00    -0.354 N 
ATOM     49  C   UNL A   1      43.034  27.932  32.388  1.00  0.00     0.074 A 
ATOM     50  C   UNL A   1      43.852  26.977  31.678  1.00  0.00     0.031 C 
ATOM     51  C   UNL A   1      38.718  29.689  27.971  1.00  0.00     0.029 A 
ATOM     52  C   UNL A   1      38.795  30.130  29.364  1.00  0.00     0.049 A 
ATOM     53  H   UNL A   1      40.255  29.623  30.760  1.00  0.00     0.167 HD
ATOM     54  C   UNL A   1      43.249  28.312  33.668  1.00  0.00     0.037 A 
ATOM     55  C   UNL A   1      37.928  30.956  29.983  1.00  0.00     0.037 A 
ATOM     56  C   UNL A   1      42.409  29.223  34.394  1.00  0.00     0.049 A 
ATOM     57  C   UNL A   1      38.119  31.270  31.447  1.00  0.00     0.074 A 
ATOM     58  C   UNL A   1      42.524  29.640  35.708  1.00  0.00     0.029 A 
ATOM     59  N   UNL A   1      41.284  29.840  33.871  1.00  0.00    -0.354 N 
ATOM     60  N   UNL A   1      39.074  30.889  32.261  1.00  0.00    -0.248 NA
ATOM     61  C   UNL A   1      37.100  32.120  32.085  1.00  0.00     0.031 C 
ATOM     62  C   UNL A   1      41.439  30.473  35.995  1.00  0.00     0.029 A 
ATOM     63  C   UNL A   1      40.680  30.618  34.844  1.00  0.00     0.049 A 
ATOM     64  H   UNL A   1      40.963  29.740  32.946  1.00  0.00     0.167 HD
ATOM     65  C   UNL A   1      38.796  31.481  33.487  1.00  0.00     0.074 A 
ATOM     66  C   UNL A   1      37.579  32.246  33.316  1.00  0.00     0.031 C 
ATOM     67  C   UNL A   1      39.488  31.401  34.648  1.00  0.00     0.037 A 
BRANCH  54  68
ATOM     68  C   UNL A   1      44.411  27.688  34.377  1.00  0.00     0.064 A 
ATOM     69  C   UNL A   1      44.291  26.461  35.045  1.00  0.00     0.173 A 
ATOM     70  C   UNL A   1      45.660  28.327  34.386  1.00  0.00     0.173 A 
ATOM     71  F   UNL A   1      43.110  25.826  35.083  1.00  0.00    -0.203 F 
ATOM     72  C   UNL A   1      45.376  25.906  35.717  1.00  0.00     0.198 A 
ATOM     73  C   UNL A   1      46.748  27.756  35.038  1.00  0.00     0.198 A 
ATOM     74  F   UNL A   1      45.821  29.504  33.765  1.00  0.00    -0.203 F 
ATOM     75  F   UNL A   1      45.228  24.756  36.390  1.00  0.00    -0.200 F 
ATOM     76  C   UNL A   1      46.604  26.550  35.708  1.00  0.00     0.200 A 
ATOM     77  F   UNL A   1      47.936  28.377  35.022  1.00  0.00    -0.200 F 
ATOM     78  F   UNL A   1      47.649  26.015  36.355  1.00  0.00    -0.200 F 
ENDBRANCH  54  68
BRANCH  55  79
ATOM     79  C   UNL A   1      36.767  31.519  29.243  1.00  0.00     0.064 A 
ATOM     80  C   UNL A   1      36.712  32.881  28.913  1.00  0.00     0.173 A 
ATOM     81  C   UNL A   1      35.666  30.721  28.896  1.00  0.00     0.173 A 
ATOM     82  F   UNL A   1      37.724  33.693  29.254  1.00  0.00    -0.203 F 
ATOM     83  C   UNL A   1      35.593  33.426  28.286  1.00  0.00     0.198 A 
ATOM     84  C   UNL A   1      34.559  31.262  28.243  1.00  0.00     0.198 A 
ATOM     85  F   UNL A   1      35.661  29.414  29.198  1.00  0.00    -0.203 F 
ATOM     86  F   UNL A   1      35.543  34.742  28.034  1.00  0.00    -0.200 F 
ATOM     87  C   UNL A   1      34.519  32.617  27.948  1.00  0.00     0.200 A 
ATOM     88  F   UNL A   1      33.528  30.474  27.913  1.00  0.00    -0.200 F 
ATOM     89  F   UNL A   1      33.441  33.142  27.351  1.00  0.00    -0.200 F 
ENDBRANCH  55  79
BRANCH  67  90
ATOM     90  C   UNL A   1      39.002  32.205  35.818  1.00  0.00     0.064 A 
ATOM     91  C   UNL A   1      38.217  31.637  36.831  1.00  0.00     0.173 A 
ATOM     92  C   UNL A   1      39.413  33.537  35.972  1.00  0.00     0.173 A 
ATOM     93  F   UNL A   1      37.789  30.370  36.724  1.00  0.00    -0.203 F 
ATOM     94  C   UNL A   1      37.860  32.376  37.956  1.00  0.00     0.198 A 
ATOM     95  C   UNL A   1      39.077  34.266  37.109  1.00  0.00     0.198 A 
ATOM     96  F   UNL A   1      40.173  34.123  35.033  1.00  0.00    -0.203 F 
ATOM     97  F   UNL A   1      37.090  31.822  38.903  1.00  0.00    -0.200 F 
ATOM     98  C   UNL A   1      38.299  33.685  38.099  1.00  0.00     0.200 A 
ATOM     99  F   UNL A   1      39.517  35.523  37.254  1.00  0.00    -0.200 F 
ATOM    100  F   UNL A   1      37.973  34.386  39.194  1.00  0.00    -0.200 F 
ENDBRANCH  67  90
ENDBRANCH  41  42
ENDBRANCH  34  36
ENDBRANCH  33  34
ENDBRANCH  32  33
ENDBRANCH  31  32
ENDBRANCH  30  31
ENDBRANCH  29  30
ENDBRANCH  28  29
ENDBRANCH   1  28
TORSDOF 23
ENDMDL
MODEL 2
REMARK VINA RESULT:     -10.5      4.483      7.594
REMARK SMILES CCSc1nc(CC(=O)N[C@@H](C(=O)OCCOCCOCCOC(=O)c2ccc(-c3c4nc(c(-c5c(F)c(F)c(F)c(F)c5F)c5ccc([nH]5)c(-c5c(F)c(F)c(F)c(F)c5F)c5nc(c(-c6c(F)c(F)c(F)c(F)c6F)c6ccc3[nH]6)C=C5)C=C4)cc2)C2=C(C)N=N[C@@H]2C)cs1
REMARK SMILES IDX 17 1 16 2 15 3 14 4 12 5 13 6 11 7 10 8 8 9 9 10 7 12 6 13
REMARK SMILES IDX 4 14 5 15 97 16 96 17 3 18 2 19 1 20 89 21 90 22 94 23 91 24
REMARK SMILES IDX 92 25 93 26 95 27 18 28 19 29 20 30 21 31 22 32 23 33 24 34
REMARK SMILES IDX 25 35 26 36 27 37 88 38 28 39 87 40 29 41 30 42 31 43 81 44
REMARK SMILES IDX 32 45 86 46 80 47 82 48 33 49 85 50 79 51 78 52 34 54 66 55
REMARK SMILES IDX 46 56 65 57 47 58 50 59 64 60 83 61 48 62 49 63 63 65 84 66
REMARK SMILES IDX 51 67 35 68 36 69 44 70 37 71 38 72 42 73 45 74 39 75 40 76
REMARK SMILES IDX 43 77 41 78 67 79 68 80 76 81 69 82 70 83 74 84 77 85 71 86
REMARK SMILES IDX 72 87 75 88 73 89 52 90 53 91 61 92 54 93 55 94 59 95 62 96
REMARK SMILES IDX 56 97 57 98 60 99 58 100
REMARK H PARENT 10 11 82 53 50 64
REMARK Flexibility Score: inf
ROOT
ATOM      1  O   UNL A   1      31.769  22.540  24.415  1.00  0.00    -0.376 OA
ENDROOT
BRANCH   1   2
ATOM      2  C   UNL A   1      31.736  22.495  25.835  1.00  0.00     0.202 C 
BRANCH   2   3
ATOM      3  C   UNL A   1      30.732  23.469  26.451  1.00  0.00     0.261 C 
BRANCH   3   4
ATOM      4  O   UNL A   1      31.166  24.835  26.635  1.00  0.00    -0.461 OA
BRANCH   4   5
ATOM      5  C   UNL A   1      30.853  25.814  25.744  1.00  0.00     0.333 C 
ATOM      6  O   UNL A   1      29.734  25.981  25.276  1.00  0.00    -0.249 OA
BRANCH   5   7
ATOM      7  C   UNL A   1      32.120  26.648  25.339  1.00  0.00     0.223 C 
BRANCH   7   8
ATOM      8  N   UNL A   1      31.817  28.040  25.004  1.00  0.00    -0.339 N 
ATOM      9  C   UNL A   1      31.809  29.128  25.824  1.00  0.00     0.226 C 
ATOM     10  O   UNL A   1      31.394  30.197  25.369  1.00  0.00    -0.275 OA
ATOM     11  H   UNL A   1      31.588  28.212  24.062  1.00  0.00     0.164 HD
BRANCH   9  12
ATOM     12  C   UNL A   1      32.386  29.043  27.221  1.00  0.00     0.157 C 
BRANCH  12  13
ATOM     13  C   UNL A   1      33.649  29.818  27.390  1.00  0.00     0.062 A 
ATOM     14  C   UNL A   1      34.757  31.710  27.728  1.00  0.00     0.150 A 
ATOM     15  N   UNL A   1      33.570  31.205  27.474  1.00  0.00    -0.234 NA
ATOM     16  S   UNL A   1      36.037  30.575  27.830  1.00  0.00    -0.116 S 
ATOM     17  C   UNL A   1      34.927  29.307  27.508  1.00  0.00     0.092 A 
BRANCH  14  18
ATOM     18  S   UNL A   1      34.987  33.420  28.013  1.00  0.00    -0.096 SA
BRANCH  18  19
ATOM     19  C   UNL A   1      33.286  33.973  28.323  1.00  0.00     0.074 C 
ATOM     20  C   UNL A   1      33.277  35.345  28.978  1.00  0.00     0.016 C 
ENDBRANCH  18  19
ENDBRANCH  14  18
ENDBRANCH  12  13
ENDBRANCH   9  12
ENDBRANCH   7   8
BRANCH   7  21
ATOM     21  C   UNL A   1      32.959  26.086  24.233  1.00  0.00     0.012 C 
ATOM     22  C   UNL A   1      33.995  25.237  24.312  1.00  0.00     0.064 C 
ATOM     23  C   UNL A   1      32.726  26.256  22.768  1.00  0.00     0.156 C 
ATOM     24  C   UNL A   1      34.690  24.714  25.519  1.00  0.00     0.069 C 
ATOM     25  N   UNL A   1      34.402  24.789  23.081  1.00  0.00    -0.160 NA
ATOM     26  N   UNL A   1      33.670  25.271  22.175  1.00  0.00    -0.181 NA
ATOM     27  C   UNL A   1      33.134  27.627  22.248  1.00  0.00     0.040 C 
ENDBRANCH   7  21
ENDBRANCH   5   7
ENDBRANCH   4   5
ENDBRANCH   3   4
ENDBRANCH   2   3
ENDBRANCH   1   2
BRANCH   1  28
ATOM     28  C   UNL A   1      32.485  21.489  23.787  1.00  0.00     0.188 C 
BRANCH  28  29
ATOM     29  C   UNL A   1      34.003  21.494  24.039  1.00  0.00     0.188 C 
BRANCH  29  30
ATOM     30  O   UNL A   1      34.635  20.412  24.704  1.00  0.00    -0.376 OA
BRANCH  30  31
ATOM     31  C   UNL A   1      35.713  20.678  25.584  1.00  0.00     0.202 C 
BRANCH  31  32
ATOM     32  C   UNL A   1      37.123  20.694  24.985  1.00  0.00     0.261 C 
BRANCH  32  33
ATOM     33  O   UNL A   1      37.891  21.857  25.328  1.00  0.00    -0.460 OA
BRANCH  33  34
ATOM     34  C   UNL A   1      38.993  21.626  26.085  1.00  0.00     0.338 C 
ATOM     35  O   UNL A   1      39.638  20.593  26.156  1.00  0.00    -0.246 OA
BRANCH  34  36
ATOM     36  C   UNL A   1      39.444  22.898  26.697  1.00  0.00     0.060 A 
ATOM     37  C   UNL A   1      38.777  24.080  26.340  1.00  0.00     0.016 A 
ATOM     38  C   UNL A   1      40.506  22.939  27.603  1.00  0.00     0.016 A 
ATOM     39  C   UNL A   1      39.190  25.307  26.861  1.00  0.00     0.010 A 
ATOM     40  C   UNL A   1      40.942  24.173  28.097  1.00  0.00     0.010 A 
ATOM     41  C   UNL A   1      40.308  25.364  27.705  1.00  0.00    -0.014 A 
BRANCH  41  42
ATOM     42  C   UNL A   1      40.972  26.661  27.979  1.00  0.00     0.031 A 
ATOM     43  C   UNL A   1      42.392  26.832  27.515  1.00  0.00     0.074 A 
ATOM     44  C   UNL A   1      40.364  27.648  28.659  1.00  0.00     0.049 A 
ATOM     45  N   UNL A   1      43.233  27.806  27.750  1.00  0.00    -0.248 NA
ATOM     46  C   UNL A   1      42.937  25.754  26.674  1.00  0.00     0.031 C 
ATOM     47  C   UNL A   1      38.976  27.637  29.109  1.00  0.00     0.029 A 
ATOM     48  N   UNL A   1      40.852  28.852  29.107  1.00  0.00    -0.354 N 
ATOM     49  C   UNL A   1      44.402  27.456  27.088  1.00  0.00     0.074 A 
ATOM     50  C   UNL A   1      44.168  26.182  26.448  1.00  0.00     0.031 C 
ATOM     51  C   UNL A   1      38.726  28.772  29.785  1.00  0.00     0.029 A 
ATOM     52  C   UNL A   1      39.952  29.566  29.862  1.00  0.00     0.049 A 
ATOM     53  H   UNL A   1      41.761  29.174  28.905  1.00  0.00     0.167 HD
ATOM     54  C   UNL A   1      45.573  28.130  27.030  1.00  0.00     0.037 A 
ATOM     55  C   UNL A   1      40.118  30.703  30.566  1.00  0.00     0.037 A 
ATOM     56  C   UNL A   1      45.827  29.371  27.706  1.00  0.00     0.049 A 
ATOM     57  C   UNL A   1      41.470  31.375  30.585  1.00  0.00     0.074 A 
ATOM     58  C   UNL A   1      46.994  30.112  27.737  1.00  0.00     0.029 A 
ATOM     59  N   UNL A   1      44.900  30.043  28.487  1.00  0.00    -0.354 N 
ATOM     60  N   UNL A   1      42.571  31.043  29.954  1.00  0.00    -0.248 NA
ATOM     61  C   UNL A   1      41.608  32.573  31.429  1.00  0.00     0.031 C 
ATOM     62  C   UNL A   1      46.790  31.208  28.580  1.00  0.00     0.029 A 
ATOM     63  C   UNL A   1      45.478  31.179  29.027  1.00  0.00     0.049 A 
ATOM     64  H   UNL A   1      43.971  29.755  28.636  1.00  0.00     0.167 HD
ATOM     65  C   UNL A   1      43.513  32.008  30.290  1.00  0.00     0.074 A 
ATOM     66  C   UNL A   1      42.860  32.938  31.185  1.00  0.00     0.031 C 
ATOM     67  C   UNL A   1      44.803  32.115  29.889  1.00  0.00     0.037 A 
BRANCH  54  68
ATOM     68  C   UNL A   1      46.684  27.497  26.251  1.00  0.00     0.064 A 
ATOM     69  C   UNL A   1      47.581  26.599  26.849  1.00  0.00     0.173 A 
ATOM     70  C   UNL A   1      46.853  27.793  24.891  1.00  0.00     0.173 A 
ATOM     71  F   UNL A   1      47.472  26.305  28.153  1.00  0.00    -0.203 F 
ATOM     72  C   UNL A   1      48.621  26.037  26.116  1.00  0.00     0.198 A 
ATOM     73  C   UNL A   1      47.880  27.209  24.156  1.00  0.00     0.198 A 
ATOM     74  F   UNL A   1      46.024  28.650  24.277  1.00  0.00    -0.203 F 
ATOM     75  F   UNL A   1      49.496  25.218  26.718  1.00  0.00    -0.200 F 
ATOM     76  C   UNL A   1      48.767  26.337  24.770  1.00  0.00     0.200 A 
ATOM     77  F   UNL A   1      48.015  27.496  22.854  1.00  0.00    -0.200 F 
ATOM     78  F   UNL A   1      49.769  25.795  24.065  1.00  0.00    -0.200 F 
ENDBRANCH  54  68
BRANCH  55  79
ATOM     79  C   UNL A   1      38.991  31.270  31.354  1.00  0.00     0.064 A 
ATOM     80  C   UNL A   1      38.763  30.870  32.679  1.00  0.00     0.173 A 
ATOM     81  C   UNL A   1      38.088  32.181  30.786  1.00  0.00     0.173 A 
ATOM     82  F   UNL A   1      39.577  29.974  33.257  1.00  0.00    -0.203 F 
ATOM     83  C   UNL A   1      37.665  31.343  33.396  1.00  0.00     0.198 A 
ATOM     84  C   UNL A   1      37.007  32.676  31.514  1.00  0.00     0.198 A 
ATOM     85  F   UNL A   1      38.253  32.589  29.519  1.00  0.00    -0.203 F 
ATOM     86  F   UNL A   1      37.439  30.900  34.641  1.00  0.00    -0.200 F 
ATOM     87  C   UNL A   1      36.790  32.248  32.815  1.00  0.00     0.200 A 
ATOM     88  F   UNL A   1      36.169  33.555  30.949  1.00  0.00    -0.200 F 
ATOM     89  F   UNL A   1      35.731  32.698  33.501  1.00  0.00    -0.200 F 
ENDBRANCH  55  79
BRANCH  67  90
ATOM     90  C   UNL A   1      45.590  33.306  30.350  1.00  0.00     0.064 A 
ATOM     91  C   UNL A   1      45.553  34.528  29.664  1.00  0.00     0.173 A 
ATOM     92  C   UNL A   1      46.311  33.247  31.552  1.00  0.00     0.173 A 
ATOM     93  F   UNL A   1      44.887  34.632  28.504  1.00  0.00    -0.203 F 
ATOM     94  C   UNL A   1      46.213  35.647  30.164  1.00  0.00     0.198 A 
ATOM     95  C   UNL A   1      46.948  34.374  32.063  1.00  0.00     0.198 A 
ATOM     96  F   UNL A   1      46.369  32.102  32.249  1.00  0.00    -0.203 F 
ATOM     97  F   UNL A   1      46.185  36.801  29.482  1.00  0.00    -0.200 F 
ATOM     98  C   UNL A   1      46.900  35.572  31.368  1.00  0.00     0.200 A 
ATOM     99  F   UNL A   1      47.595  34.303  33.234  1.00  0.00    -0.200 F 
ATOM    100  F   UNL A   1      47.514  36.657  31.859  1.00  0.00    -0.200 F 
ENDBRANCH  67  90
ENDBRANCH  41  42
ENDBRANCH  34  36
ENDBRANCH  33  34
ENDBRANCH  32  33
ENDBRANCH  31  32
ENDBRANCH  30  31
ENDBRANCH  29  30
ENDBRANCH  28  29
ENDBRANCH   1  28
TORSDOF 23
ENDMDL
MODEL 3
REMARK VINA RESULT:     -10.2      4.243      7.492
REMARK SMILES CCSc1nc(CC(=O)N[C@@H](C(=O)OCCOCCOCCOC(=O)c2ccc(-c3c4nc(c(-c5c(F)c(F)c(F)c(F)c5F)c5ccc([nH]5)c(-c5c(F)c(F)c(F)c(F)c5F)c5nc(c(-c6c(F)c(F)c(F)c(F)c6F)c6ccc3[nH]6)C=C5)C=C4)cc2)C2=C(C)N=N[C@@H]2C)cs1
REMARK SMILES IDX 17 1 16 2 15 3 14 4 12 5 13 6 11 7 10 8 8 9 9 10 7 12 6 13
REMARK SMILES IDX 4 14 5 15 97 16 96 17 3 18 2 19 1 20 89 21 90 22 94 23 91 24
REMARK SMILES IDX 92 25 93 26 95 27 18 28 19 29 20 30 21 31 22 32 23 33 24 34
REMARK SMILES IDX 25 35 26 36 27 37 88 38 28 39 87 40 29 41 30 42 31 43 81 44
REMARK SMILES IDX 32 45 86 46 80 47 82 48 33 49 85 50 79 51 78 52 34 54 66 55
REMARK SMILES IDX 46 56 65 57 47 58 50 59 64 60 83 61 48 62 49 63 63 65 84 66
REMARK SMILES IDX 51 67 35 68 36 69 44 70 37 71 38 72 42 73 45 74 39 75 40 76
REMARK SMILES IDX 43 77 41 78 67 79 68 80 76 81 69 82 70 83 74 84 77 85 71 86
REMARK SMILES IDX 72 87 75 88 73 89 52 90 53 91 61 92 54 93 55 94 59 95 62 96
REMARK SMILES IDX 56 97 57 98 60 99 58 100
REMARK H PARENT 10 11 82 53 50 64
REMARK Flexibility Score: inf
ROOT
ATOM      1  O   UNL A   1      31.862  22.814  24.364  1.00  0.00    -0.376 OA
ENDROOT
BRANCH   1   2
ATOM      2  C   UNL A   1      31.902  22.697  25.780  1.00  0.00     0.202 C 
BRANCH   2   3
ATOM      3  C   UNL A   1      30.972  23.675  26.497  1.00  0.00     0.261 C 
BRANCH   3   4
ATOM      4  O   UNL A   1      31.440  25.032  26.659  1.00  0.00    -0.461 OA
BRANCH   4   5
ATOM      5  C   UNL A   1      31.058  26.028  25.815  1.00  0.00     0.333 C 
ATOM      6  O   UNL A   1      29.906  26.202  25.439  1.00  0.00    -0.249 OA
BRANCH   5   7
ATOM      7  C   UNL A   1      32.288  26.874  25.330  1.00  0.00     0.223 C 
BRANCH   7   8
ATOM      8  N   UNL A   1      31.940  28.245  24.954  1.00  0.00    -0.339 N 
ATOM      9  C   UNL A   1      31.797  29.336  25.759  1.00  0.00     0.226 C 
ATOM     10  O   UNL A   1      31.367  30.376  25.258  1.00  0.00    -0.275 OA
ATOM     11  H   UNL A   1      31.787  28.399  23.994  1.00  0.00     0.164 HD
BRANCH   9  12
ATOM     12  C   UNL A   1      32.250  29.291  27.203  1.00  0.00     0.157 C 
BRANCH  12  13
ATOM     13  C   UNL A   1      33.655  29.751  27.399  1.00  0.00     0.062 A 
ATOM     14  C   UNL A   1      35.158  31.179  28.190  1.00  0.00     0.150 A 
ATOM     15  N   UNL A   1      33.870  30.987  28.002  1.00  0.00    -0.234 NA
ATOM     16  S   UNL A   1      36.183  29.931  27.617  1.00  0.00    -0.116 S 
ATOM     17  C   UNL A   1      34.808  29.063  27.071  1.00  0.00     0.092 A 
BRANCH  14  18
ATOM     18  S   UNL A   1      35.764  32.585  29.036  1.00  0.00    -0.096 SA
BRANCH  18  19
ATOM     19  C   UNL A   1      34.290  33.644  29.091  1.00  0.00     0.074 C 
ATOM     20  C   UNL A   1      34.264  34.591  27.903  1.00  0.00     0.016 C 
ENDBRANCH  18  19
ENDBRANCH  14  18
ENDBRANCH  12  13
ENDBRANCH   9  12
ENDBRANCH   7   8
BRANCH   7  21
ATOM     21  C   UNL A   1      33.098  26.288  24.215  1.00  0.00     0.012 C 
ATOM     22  C   UNL A   1      34.111  25.412  24.283  1.00  0.00     0.064 C 
ATOM     23  C   UNL A   1      32.852  26.464  22.753  1.00  0.00     0.156 C 
ATOM     24  C   UNL A   1      34.806  24.871  25.482  1.00  0.00     0.069 C 
ATOM     25  N   UNL A   1      34.491  24.952  23.047  1.00  0.00    -0.160 NA
ATOM     26  N   UNL A   1      33.762  25.453  22.150  1.00  0.00    -0.181 NA
ATOM     27  C   UNL A   1      33.292  27.823  22.226  1.00  0.00     0.040 C 
ENDBRANCH   7  21
ENDBRANCH   5   7
ENDBRANCH   4   5
ENDBRANCH   3   4
ENDBRANCH   2   3
ENDBRANCH   1   2
BRANCH   1  28
ATOM     28  C   UNL A   1      32.586  21.827  23.648  1.00  0.00     0.188 C 
BRANCH  28  29
ATOM     29  C   UNL A   1      34.072  21.705  24.030  1.00  0.00     0.188 C 
BRANCH  29  30
ATOM     30  O   UNL A   1      34.565  20.541  24.673  1.00  0.00    -0.376 OA
BRANCH  30  31
ATOM     31  C   UNL A   1      35.732  20.636  25.472  1.00  0.00     0.202 C 
BRANCH  31  32
ATOM     32  C   UNL A   1      37.003  21.165  24.800  1.00  0.00     0.261 C 
BRANCH  32  33
ATOM     33  O   UNL A   1      37.648  22.227  25.520  1.00  0.00    -0.460 OA
BRANCH  33  34
ATOM     34  C   UNL A   1      38.881  21.939  26.005  1.00  0.00     0.338 C 
ATOM     35  O   UNL A   1      39.558  20.952  25.764  1.00  0.00    -0.246 OA
BRANCH  34  36
ATOM     36  C   UNL A   1      39.404  23.109  26.747  1.00  0.00     0.060 A 
ATOM     37  C   UNL A   1      38.780  24.352  26.552  1.00  0.00     0.016 A 
ATOM     38  C   UNL A   1      40.490  23.001  27.617  1.00  0.00     0.016 A 
ATOM     39  C   UNL A   1      39.261  25.491  27.199  1.00  0.00     0.010 A 
ATOM     40  C   UNL A   1      40.993  24.148  28.238  1.00  0.00     0.010 A 
ATOM     41  C   UNL A   1      40.401  25.402  28.008  1.00  0.00    -0.014 A 
BRANCH  41  42
ATOM     42  C   UNL A   1      41.130  26.630  28.410  1.00  0.00     0.031 A 
ATOM     43  C   UNL A   1      42.554  26.779  27.955  1.00  0.00     0.074 A 
ATOM     44  C   UNL A   1      40.572  27.569  29.195  1.00  0.00     0.049 A 
ATOM     45  N   UNL A   1      43.443  27.682  28.283  1.00  0.00    -0.248 NA
ATOM     46  C   UNL A   1      43.043  25.770  27.002  1.00  0.00     0.031 C 
ATOM     47  C   UNL A   1      39.187  27.577  29.653  1.00  0.00     0.029 A 
ATOM     48  N   UNL A   1      41.120  28.694  29.762  1.00  0.00    -0.354 N 
ATOM     49  C   UNL A   1      44.591  27.347  27.578  1.00  0.00     0.074 A 
ATOM     50  C   UNL A   1      44.293  26.160  26.811  1.00  0.00     0.031 C 
ATOM     51  C   UNL A   1      38.995  28.646  30.446  1.00  0.00     0.029 A 
ATOM     52  C   UNL A   1      40.259  29.367  30.595  1.00  0.00     0.049 A 
ATOM     53  H   UNL A   1      42.044  28.991  29.587  1.00  0.00     0.167 HD
ATOM     54  C   UNL A   1      45.793  27.966  27.581  1.00  0.00     0.037 A 
ATOM     55  C   UNL A   1      40.483  30.415  31.413  1.00  0.00     0.037 A 
ATOM     56  C   UNL A   1      46.110  29.116  28.381  1.00  0.00     0.049 A 
ATOM     57  C   UNL A   1      41.866  31.015  31.491  1.00  0.00     0.074 A 
ATOM     58  C   UNL A   1      47.312  29.792  28.480  1.00  0.00     0.029 A 
ATOM     59  N   UNL A   1      45.220  29.746  29.237  1.00  0.00    -0.354 N 
ATOM     60  N   UNL A   1      42.948  30.699  30.819  1.00  0.00    -0.248 NA
ATOM     61  C   UNL A   1      42.066  32.110  32.454  1.00  0.00     0.031 C 
ATOM     62  C   UNL A   1      47.165  30.802  29.435  1.00  0.00     0.029 A 
ATOM     63  C   UNL A   1      45.854  30.790  29.887  1.00  0.00     0.049 A 
ATOM     64  H   UNL A   1      44.278  29.490  29.362  1.00  0.00     0.167 HD
ATOM     65  C   UNL A   1      43.937  31.576  31.246  1.00  0.00     0.074 A 
ATOM     66  C   UNL A   1      43.333  32.438  32.239  1.00  0.00     0.031 C 
ATOM     67  C   UNL A   1      45.229  31.662  30.847  1.00  0.00     0.037 A 
BRANCH  54  68
ATOM     68  C   UNL A   1      46.870  27.365  26.732  1.00  0.00     0.064 A 
ATOM     69  C   UNL A   1      47.076  27.779  25.407  1.00  0.00     0.173 A 
ATOM     70  C   UNL A   1      47.706  26.365  27.250  1.00  0.00     0.173 A 
ATOM     71  F   UNL A   1      46.286  28.715  24.862  1.00  0.00    -0.203 F 
ATOM     72  C   UNL A   1      48.068  27.195  24.625  1.00  0.00     0.198 A 
ATOM     73  C   UNL A   1      48.713  25.803  26.472  1.00  0.00     0.198 A 
ATOM     74  F   UNL A   1      47.543  25.934  28.509  1.00  0.00    -0.203 F 
ATOM     75  F   UNL A   1      48.217  27.570  23.346  1.00  0.00    -0.200 F 
ATOM     76  C   UNL A   1      48.888  26.213  25.159  1.00  0.00     0.200 A 
ATOM     77  F   UNL A   1      49.508  24.858  26.992  1.00  0.00    -0.200 F 
ATOM     78  F   UNL A   1      49.843  25.651  24.404  1.00  0.00    -0.200 F 
ENDBRANCH  54  68
BRANCH  55  79
ATOM     79  C   UNL A   1      39.387  30.950  32.266  1.00  0.00     0.064 A 
ATOM     80  C   UNL A   1      38.570  31.998  31.818  1.00  0.00     0.173 A 
ATOM     81  C   UNL A   1      39.168  30.464  33.563  1.00  0.00     0.173 A 
ATOM     82  F   UNL A   1      38.762  32.522  30.598  1.00  0.00    -0.203 F 
ATOM     83  C   UNL A   1      37.591  32.552  32.642  1.00  0.00     0.198 A 
ATOM     84  C   UNL A   1      38.170  30.999  34.376  1.00  0.00     0.198 A 
ATOM     85  F   UNL A   1      39.929  29.470  34.046  1.00  0.00    -0.203 F 
ATOM     86  F   UNL A   1      36.862  33.590  32.209  1.00  0.00    -0.200 F 
ATOM     87  C   UNL A   1      37.389  32.050  33.918  1.00  0.00     0.200 A 
ATOM     88  F   UNL A   1      37.976  30.506  35.606  1.00  0.00    -0.200 F 
ATOM     89  F   UNL A   1      36.453  32.586  34.713  1.00  0.00    -0.200 F 
ENDBRANCH  55  79
BRANCH  67  90
ATOM     90  C   UNL A   1      46.075  32.759  31.424  1.00  0.00     0.064 A 
ATOM     91  C   UNL A   1      46.859  32.565  32.569  1.00  0.00     0.173 A 
ATOM     92  C   UNL A   1      46.174  33.990  30.758  1.00  0.00     0.173 A 
ATOM     93  F   UNL A   1      46.790  31.409  33.247  1.00  0.00    -0.203 F 
ATOM     94  C   UNL A   1      47.711  33.566  33.028  1.00  0.00     0.198 A 
ATOM     95  C   UNL A   1      47.046  34.979  31.204  1.00  0.00     0.198 A 
ATOM     96  F   UNL A   1      45.449  34.221  29.652  1.00  0.00    -0.203 F 
ATOM     97  F   UNL A   1      48.437  33.369  34.138  1.00  0.00    -0.200 F 
ATOM     98  C   UNL A   1      47.812  34.767  32.340  1.00  0.00     0.200 A 
ATOM     99  F   UNL A   1      47.154  36.131  30.528  1.00  0.00    -0.200 F 
ATOM    100  F   UNL A   1      48.651  35.719  32.771  1.00  0.00    -0.200 F 
ENDBRANCH  67  90
ENDBRANCH  41  42
ENDBRANCH  34  36
ENDBRANCH  33  34
ENDBRANCH  32  33
ENDBRANCH  31  32
ENDBRANCH  30  31
ENDBRANCH  29  30
ENDBRANCH  28  29
ENDBRANCH   1  28
TORSDOF 23
ENDMDL
