MODEL 1
REMARK VINA RESULT:     -10.3      0.000      0.000
REMARK SMILES O=C(Cc1ccn(C(F)F)c(=O)c1)OCCOCCOCCOC(=O)c1ccc(-c2c3nc(c(-c4c(F)c(F)c(F)c(F)c4F)c4ccc([nH]4)c(-c4c(F)c(F)c(F)c(F)c4F)c4nc(c(-c5c(F)c(F)c(F)c(F)c5F)c5ccc2[nH]5)C=C4)C=C3)cc1
REMARK SMILES IDX 18 1 17 2 16 3 15 4 14 5 2 6 1 7 3 8 4 9 5 10 13 11 6 12
REMARK SMILES IDX 11 13 7 14 12 15 8 16 9 17 10 18 19 19 20 20 21 21 22 22
REMARK SMILES IDX 23 23 24 24 25 25 26 26 27 27 88 28 28 29 87 30 29 31 30 32
REMARK SMILES IDX 31 33 81 34 32 35 86 36 80 37 82 38 33 39 85 40 79 41 78 42
REMARK SMILES IDX 34 44 66 45 46 46 65 47 47 48 50 49 64 50 83 51 48 52 49 53
REMARK SMILES IDX 63 55 84 56 51 57 35 58 36 59 44 60 37 61 38 62 42 63 45 64
REMARK SMILES IDX 39 65 40 66 43 67 41 68 67 69 68 70 76 71 69 72 70 73 74 74
REMARK SMILES IDX 77 75 71 76 72 77 75 78 73 79 52 80 53 81 61 82 54 83 55 84
REMARK SMILES IDX 59 85 62 86 56 87 57 88 60 89 58 90
REMARK H PARENT 82 43 50 54
REMARK Flexibility Score: inf
ROOT
ATOM      1  C   UNL A   1      33.919  35.159  29.010  1.00  0.00     0.188 C 
ENDROOT
BRANCH   1   2
ATOM      2  O   UNL A   1      33.757  33.870  28.459  1.00  0.00    -0.376 OA
BRANCH   2   3
ATOM      3  C   UNL A   1      34.785  33.266  27.689  1.00  0.00     0.202 C 
BRANCH   3   4
ATOM      4  C   UNL A   1      35.032  31.754  27.671  1.00  0.00     0.261 C 
BRANCH   4   5
ATOM      5  O   UNL A   1      33.953  30.818  27.913  1.00  0.00    -0.463 OA
BRANCH   5   6
ATOM      6  C   UNL A   1      33.523  29.728  27.253  1.00  0.00     0.310 C 
ATOM      7  O   UNL A   1      34.341  29.001  26.689  1.00  0.00    -0.252 OA
BRANCH   6   8
ATOM      8  C   UNL A   1      32.055  29.369  27.245  1.00  0.00     0.158 C 
BRANCH   8   9
ATOM      9  C   UNL A   1      31.729  28.665  25.965  1.00  0.00    -0.030 A 
ATOM     10  C   UNL A   1      31.833  27.225  25.913  1.00  0.00     0.023 A 
ATOM     11  C   UNL A   1      31.426  29.345  24.847  1.00  0.00     0.076 A 
ATOM     12  C   UNL A   1      31.911  26.607  24.731  1.00  0.00     0.095 A 
ATOM     13  C   UNL A   1      31.388  28.652  23.531  1.00  0.00     0.255 A 
ATOM     14  N   UNL A   1      31.769  27.319  23.555  1.00  0.00    -0.258 N 
ATOM     15  O   UNL A   1      31.087  29.298  22.535  1.00  0.00    -0.269 OA
BRANCH  14  16
ATOM     16  C   UNL A   1      31.950  26.670  22.286  1.00  0.00     0.451 C 
ATOM     17  F   UNL A   1      33.262  26.565  21.973  1.00  0.00    -0.185 F 
ATOM     18  F   UNL A   1      31.413  25.426  22.297  1.00  0.00    -0.185 F 
ENDBRANCH  14  16
ENDBRANCH   8   9
ENDBRANCH   6   8
ENDBRANCH   5   6
ENDBRANCH   4   5
ENDBRANCH   3   4
ENDBRANCH   2   3
ENDBRANCH   1   2
BRANCH   1  19
ATOM     19  C   UNL A   1      33.056  35.427  30.247  1.00  0.00     0.188 C 
BRANCH  19  20
ATOM     20  O   UNL A   1      33.716  35.426  31.503  1.00  0.00    -0.376 OA
BRANCH  20  21
ATOM     21  C   UNL A   1      34.747  34.460  31.713  1.00  0.00     0.202 C 
BRANCH  21  22
ATOM     22  C   UNL A   1      34.354  33.064  32.228  1.00  0.00     0.261 C 
BRANCH  22  23
ATOM     23  O   UNL A   1      35.234  32.002  31.797  1.00  0.00    -0.460 OA
BRANCH  23  24
ATOM     24  C   UNL A   1      36.385  31.867  32.502  1.00  0.00     0.338 C 
ATOM     25  O   UNL A   1      36.597  32.228  33.646  1.00  0.00    -0.246 OA
BRANCH  24  26
ATOM     26  C   UNL A   1      37.372  31.083  31.735  1.00  0.00     0.060 A 
ATOM     27  C   UNL A   1      37.515  31.280  30.363  1.00  0.00     0.016 A 
ATOM     28  C   UNL A   1      38.265  30.254  32.430  1.00  0.00     0.016 A 
ATOM     29  C   UNL A   1      38.579  30.668  29.689  1.00  0.00     0.010 A 
ATOM     30  C   UNL A   1      39.325  29.641  31.753  1.00  0.00     0.010 A 
ATOM     31  C   UNL A   1      39.506  29.865  30.381  1.00  0.00    -0.014 A 
BRANCH  31  32
ATOM     32  C   UNL A   1      40.740  29.410  29.688  1.00  0.00     0.031 A 
ATOM     33  C   UNL A   1      40.882  28.021  29.145  1.00  0.00     0.074 A 
ATOM     34  C   UNL A   1      41.754  30.284  29.541  1.00  0.00     0.049 A 
ATOM     35  N   UNL A   1      41.811  27.540  28.356  1.00  0.00    -0.248 NA
ATOM     36  C   UNL A   1      39.860  27.044  29.543  1.00  0.00     0.031 C 
ATOM     37  C   UNL A   1      41.771  31.641  30.087  1.00  0.00     0.029 A 
ATOM     38  N   UNL A   1      42.953  30.172  28.880  1.00  0.00    -0.354 N 
ATOM     39  C   UNL A   1      41.472  26.213  28.137  1.00  0.00     0.074 A 
ATOM     40  C   UNL A   1      40.283  25.949  28.923  1.00  0.00     0.031 C 
ATOM     41  C   UNL A   1      42.905  32.251  29.705  1.00  0.00     0.029 A 
ATOM     42  C   UNL A   1      43.696  31.327  28.896  1.00  0.00     0.049 A 
ATOM     43  H   UNL A   1      43.250  29.345  28.437  1.00  0.00     0.167 HD
ATOM     44  C   UNL A   1      42.086  25.310  27.333  1.00  0.00     0.037 A 
ATOM     45  C   UNL A   1      44.872  31.621  28.307  1.00  0.00     0.037 A 
ATOM     46  C   UNL A   1      43.282  25.573  26.571  1.00  0.00     0.049 A 
ATOM     47  C   UNL A   1      45.546  30.597  27.439  1.00  0.00     0.074 A 
ATOM     48  C   UNL A   1      43.926  24.745  25.666  1.00  0.00     0.029 A 
ATOM     49  N   UNL A   1      44.031  26.738  26.645  1.00  0.00    -0.354 N 
ATOM     50  N   UNL A   1      45.142  29.392  27.119  1.00  0.00    -0.248 NA
ATOM     51  C   UNL A   1      46.835  30.976  26.840  1.00  0.00     0.031 C 
ATOM     52  C   UNL A   1      45.095  25.384  25.241  1.00  0.00     0.029 A 
ATOM     53  C   UNL A   1      45.154  26.633  25.837  1.00  0.00     0.049 A 
ATOM     54  H   UNL A   1      43.800  27.525  27.191  1.00  0.00     0.167 HD
ATOM     55  C   UNL A   1      46.115  28.873  26.276  1.00  0.00     0.074 A 
ATOM     56  C   UNL A   1      47.122  29.902  26.116  1.00  0.00     0.031 C 
ATOM     57  C   UNL A   1      46.164  27.652  25.690  1.00  0.00     0.037 A 
BRANCH  44  58
ATOM     58  C   UNL A   1      41.468  23.947  27.210  1.00  0.00     0.064 A 
ATOM     59  C   UNL A   1      40.276  23.752  26.498  1.00  0.00     0.173 A 
ATOM     60  C   UNL A   1      42.117  22.815  27.726  1.00  0.00     0.173 A 
ATOM     61  F   UNL A   1      39.616  24.802  25.985  1.00  0.00    -0.203 F 
ATOM     62  C   UNL A   1      39.745  22.476  26.322  1.00  0.00     0.198 A 
ATOM     63  C   UNL A   1      41.597  21.538  27.525  1.00  0.00     0.198 A 
ATOM     64  F   UNL A   1      43.269  22.944  28.401  1.00  0.00    -0.203 F 
ATOM     65  F   UNL A   1      38.590  22.320  25.661  1.00  0.00    -0.200 F 
ATOM     66  C   UNL A   1      40.410  21.370  26.827  1.00  0.00     0.200 A 
ATOM     67  F   UNL A   1      42.252  20.468  27.997  1.00  0.00    -0.200 F 
ATOM     68  F   UNL A   1      39.909  20.141  26.640  1.00  0.00    -0.200 F 
ENDBRANCH  44  58
BRANCH  45  69
ATOM     69  C   UNL A   1      45.443  32.981  28.477  1.00  0.00     0.064 A 
ATOM     70  C   UNL A   1      46.380  33.245  29.483  1.00  0.00     0.173 A 
ATOM     71  C   UNL A   1      45.106  34.026  27.604  1.00  0.00     0.173 A 
ATOM     72  F   UNL A   1      46.720  32.281  30.352  1.00  0.00    -0.203 F 
ATOM     73  C   UNL A   1      46.962  34.504  29.610  1.00  0.00     0.198 A 
ATOM     74  C   UNL A   1      45.706  35.278  27.717  1.00  0.00     0.198 A 
ATOM     75  F   UNL A   1      44.216  33.819  26.621  1.00  0.00    -0.203 F 
ATOM     76  F   UNL A   1      47.843  34.737  30.593  1.00  0.00    -0.200 F 
ATOM     77  C   UNL A   1      46.632  35.516  28.721  1.00  0.00     0.200 A 
ATOM     78  F   UNL A   1      45.396  36.247  26.846  1.00  0.00    -0.200 F 
ATOM     79  F   UNL A   1      47.208  36.721  28.830  1.00  0.00    -0.200 F 
ENDBRANCH  45  69
BRANCH  57  80
ATOM     80  C   UNL A   1      47.349  27.336  24.823  1.00  0.00     0.064 A 
ATOM     81  C   UNL A   1      47.433  27.807  23.504  1.00  0.00     0.173 A 
ATOM     82  C   UNL A   1      48.448  26.634  25.340  1.00  0.00     0.173 A 
ATOM     83  F   UNL A   1      46.403  28.469  22.957  1.00  0.00    -0.203 F 
ATOM     84  C   UNL A   1      48.573  27.584  22.735  1.00  0.00     0.198 A 
ATOM     85  C   UNL A   1      49.596  26.436  24.578  1.00  0.00     0.198 A 
ATOM     86  F   UNL A   1      48.420  26.166  26.597  1.00  0.00    -0.203 F 
ATOM     87  F   UNL A   1      48.622  28.022  21.470  1.00  0.00    -0.200 F 
ATOM     88  C   UNL A   1      49.658  26.909  23.276  1.00  0.00     0.200 A 
ATOM     89  F   UNL A   1      50.649  25.797  25.108  1.00  0.00    -0.200 F 
ATOM     90  F   UNL A   1      50.763  26.716  22.542  1.00  0.00    -0.200 F 
ENDBRANCH  57  80
ENDBRANCH  31  32
ENDBRANCH  24  26
ENDBRANCH  23  24
ENDBRANCH  22  23
ENDBRANCH  21  22
ENDBRANCH  20  21
ENDBRANCH  19  20
ENDBRANCH   1  19
TORSDOF 19
ENDMDL
MODEL 2
REMARK VINA RESULT:     -10.2      5.084     10.075
REMARK SMILES O=C(Cc1ccn(C(F)F)c(=O)c1)OCCOCCOCCOC(=O)c1ccc(-c2c3nc(c(-c4c(F)c(F)c(F)c(F)c4F)c4ccc([nH]4)c(-c4c(F)c(F)c(F)c(F)c4F)c4nc(c(-c5c(F)c(F)c(F)c(F)c5F)c5ccc2[nH]5)C=C4)C=C3)cc1
REMARK SMILES IDX 18 1 17 2 16 3 15 4 14 5 2 6 1 7 3 8 4 9 5 10 13 11 6 12
REMARK SMILES IDX 11 13 7 14 12 15 8 16 9 17 10 18 19 19 20 20 21 21 22 22
REMARK SMILES IDX 23 23 24 24 25 25 26 26 27 27 88 28 28 29 87 30 29 31 30 32
REMARK SMILES IDX 31 33 81 34 32 35 86 36 80 37 82 38 33 39 85 40 79 41 78 42
REMARK SMILES IDX 34 44 66 45 46 46 65 47 47 48 50 49 64 50 83 51 48 52 49 53
REMARK SMILES IDX 63 55 84 56 51 57 35 58 36 59 44 60 37 61 38 62 42 63 45 64
REMARK SMILES IDX 39 65 40 66 43 67 41 68 67 69 68 70 76 71 69 72 70 73 74 74
REMARK SMILES IDX 77 75 71 76 72 77 75 78 73 79 52 80 53 81 61 82 54 83 55 84
REMARK SMILES IDX 59 85 62 86 56 87 57 88 60 89 58 90
REMARK H PARENT 82 43 50 54
REMARK Flexibility Score: inf
ROOT
ATOM      1  C   UNL A   1      33.583  28.497  26.584  1.00  0.00     0.188 C 
ENDROOT
BRANCH   1   2
ATOM      2  O   UNL A   1      33.987  27.459  25.717  1.00  0.00    -0.376 OA
BRANCH   2   3
ATOM      3  C   UNL A   1      33.500  26.136  25.880  1.00  0.00     0.202 C 
BRANCH   3   4
ATOM      4  C   UNL A   1      32.062  25.826  26.308  1.00  0.00     0.261 C 
BRANCH   4   5
ATOM      5  O   UNL A   1      31.380  24.640  25.832  1.00  0.00    -0.463 OA
BRANCH   5   6
ATOM      6  C   UNL A   1      31.244  23.399  26.334  1.00  0.00     0.310 C 
ATOM      7  O   UNL A   1      30.823  23.255  27.481  1.00  0.00    -0.252 OA
BRANCH   6   8
ATOM      8  C   UNL A   1      31.558  22.192  25.481  1.00  0.00     0.158 C 
BRANCH   8   9
ATOM      9  C   UNL A   1      33.034  22.134  25.236  1.00  0.00    -0.030 A 
ATOM     10  C   UNL A   1      33.905  21.718  26.312  1.00  0.00     0.023 A 
ATOM     11  C   UNL A   1      33.569  22.540  24.073  1.00  0.00     0.076 A 
ATOM     12  C   UNL A   1      35.209  22.001  26.255  1.00  0.00     0.095 A 
ATOM     13  C   UNL A   1      35.038  22.745  23.951  1.00  0.00     0.255 A 
ATOM     14  N   UNL A   1      35.756  22.576  25.125  1.00  0.00    -0.258 N 
ATOM     15  O   UNL A   1      35.494  23.094  22.869  1.00  0.00    -0.269 OA
BRANCH  14  16
ATOM     16  C   UNL A   1      37.139  22.967  25.103  1.00  0.00     0.451 C 
ATOM     17  F   UNL A   1      37.297  24.228  25.566  1.00  0.00    -0.185 F 
ATOM     18  F   UNL A   1      37.890  22.135  25.865  1.00  0.00    -0.185 F 
ENDBRANCH  14  16
ENDBRANCH   8   9
ENDBRANCH   6   8
ENDBRANCH   5   6
ENDBRANCH   4   5
ENDBRANCH   3   4
ENDBRANCH   2   3
ENDBRANCH   1   2
BRANCH   1  19
ATOM     19  C   UNL A   1      32.508  29.420  26.002  1.00  0.00     0.188 C 
BRANCH  19  20
ATOM     20  O   UNL A   1      32.344  30.685  26.624  1.00  0.00    -0.376 OA
BRANCH  20  21
ATOM     21  C   UNL A   1      33.335  31.099  27.565  1.00  0.00     0.202 C 
BRANCH  21  22
ATOM     22  C   UNL A   1      33.754  32.580  27.591  1.00  0.00     0.261 C 
BRANCH  22  23
ATOM     23  O   UNL A   1      32.700  33.489  27.980  1.00  0.00    -0.460 OA
BRANCH  23  24
ATOM     24  C   UNL A   1      33.097  34.591  28.664  1.00  0.00     0.338 C 
ATOM     25  O   UNL A   1      32.504  35.651  28.765  1.00  0.00    -0.246 OA
BRANCH  24  26
ATOM     26  C   UNL A   1      34.336  34.314  29.417  1.00  0.00     0.060 A 
ATOM     27  C   UNL A   1      34.282  33.655  30.644  1.00  0.00     0.016 A 
ATOM     28  C   UNL A   1      35.571  34.584  28.810  1.00  0.00     0.016 A 
ATOM     29  C   UNL A   1      35.472  33.234  31.249  1.00  0.00     0.010 A 
ATOM     30  C   UNL A   1      36.759  34.166  29.420  1.00  0.00     0.010 A 
ATOM     31  C   UNL A   1      36.717  33.464  30.633  1.00  0.00    -0.014 A 
BRANCH  31  32
ATOM     32  C   UNL A   1      37.938  32.820  31.186  1.00  0.00     0.031 A 
ATOM     33  C   UNL A   1      38.597  33.308  32.439  1.00  0.00     0.074 A 
ATOM     34  C   UNL A   1      38.454  31.758  30.537  1.00  0.00     0.049 A 
ATOM     35  N   UNL A   1      39.544  32.739  33.143  1.00  0.00    -0.248 NA
ATOM     36  C   UNL A   1      38.147  34.603  32.965  1.00  0.00     0.031 C 
ATOM     37  C   UNL A   1      37.951  31.230  29.269  1.00  0.00     0.029 A 
ATOM     38  N   UNL A   1      39.499  30.927  30.857  1.00  0.00    -0.354 N 
ATOM     39  C   UNL A   1      39.784  33.588  34.212  1.00  0.00     0.074 A 
ATOM     40  C   UNL A   1      38.924  34.741  34.033  1.00  0.00     0.031 C 
ATOM     41  C   UNL A   1      38.660  30.139  28.939  1.00  0.00     0.029 A 
ATOM     42  C   UNL A   1      39.672  29.897  29.965  1.00  0.00     0.049 A 
ATOM     43  H   UNL A   1      40.068  31.056  31.649  1.00  0.00     0.167 HD
ATOM     44  C   UNL A   1      40.628  33.405  35.258  1.00  0.00     0.037 A 
ATOM     45  C   UNL A   1      40.530  28.859  29.980  1.00  0.00     0.037 A 
ATOM     46  C   UNL A   1      41.498  32.266  35.418  1.00  0.00     0.049 A 
ATOM     47  C   UNL A   1      41.473  28.689  31.138  1.00  0.00     0.074 A 
ATOM     48  C   UNL A   1      42.325  31.957  36.486  1.00  0.00     0.029 A 
ATOM     49  N   UNL A   1      41.678  31.265  34.475  1.00  0.00    -0.354 N 
ATOM     50  N   UNL A   1      41.591  29.419  32.219  1.00  0.00    -0.248 NA
ATOM     51  C   UNL A   1      42.395  27.545  31.084  1.00  0.00     0.031 C 
ATOM     52  C   UNL A   1      43.049  30.805  36.162  1.00  0.00     0.029 A 
ATOM     53  C   UNL A   1      42.636  30.363  34.916  1.00  0.00     0.049 A 
ATOM     54  H   UNL A   1      41.197  31.203  33.618  1.00  0.00     0.167 HD
ATOM     55  C   UNL A   1      42.587  28.821  32.979  1.00  0.00     0.074 A 
ATOM     56  C   UNL A   1      43.029  27.654  32.244  1.00  0.00     0.031 C 
ATOM     57  C   UNL A   1      43.086  29.209  34.177  1.00  0.00     0.037 A 
BRANCH  44  58
ATOM     58  C   UNL A   1      40.644  34.451  36.336  1.00  0.00     0.064 A 
ATOM     59  C   UNL A   1      39.753  34.393  37.417  1.00  0.00     0.173 A 
ATOM     60  C   UNL A   1      41.615  35.464  36.339  1.00  0.00     0.173 A 
ATOM     61  F   UNL A   1      38.805  33.444  37.461  1.00  0.00    -0.203 F 
ATOM     62  C   UNL A   1      39.820  35.321  38.453  1.00  0.00     0.198 A 
ATOM     63  C   UNL A   1      41.697  36.374  37.391  1.00  0.00     0.198 A 
ATOM     64  F   UNL A   1      42.502  35.554  35.337  1.00  0.00    -0.203 F 
ATOM     65  F   UNL A   1      38.940  35.260  39.461  1.00  0.00    -0.200 F 
ATOM     66  C   UNL A   1      40.797  36.304  38.444  1.00  0.00     0.200 A 
ATOM     67  F   UNL A   1      42.654  37.312  37.390  1.00  0.00    -0.200 F 
ATOM     68  F   UNL A   1      40.874  37.185  39.452  1.00  0.00    -0.200 F 
ENDBRANCH  44  58
BRANCH  45  69
ATOM     69  C   UNL A   1      40.478  27.864  28.878  1.00  0.00     0.064 A 
ATOM     70  C   UNL A   1      39.654  26.736  28.969  1.00  0.00     0.173 A 
ATOM     71  C   UNL A   1      41.206  28.051  27.694  1.00  0.00     0.173 A 
ATOM     72  F   UNL A   1      38.952  26.507  30.089  1.00  0.00    -0.203 F 
ATOM     73  C   UNL A   1      39.557  25.831  27.915  1.00  0.00     0.198 A 
ATOM     74  C   UNL A   1      41.091  27.159  26.632  1.00  0.00     0.198 A 
ATOM     75  F   UNL A   1      42.005  29.120  27.559  1.00  0.00    -0.203 F 
ATOM     76  F   UNL A   1      38.775  24.749  28.033  1.00  0.00    -0.200 F 
ATOM     77  C   UNL A   1      40.267  26.048  26.743  1.00  0.00     0.200 A 
ATOM     78  F   UNL A   1      41.766  27.381  25.497  1.00  0.00    -0.200 F 
ATOM     79  F   UNL A   1      40.157  25.188  25.722  1.00  0.00    -0.200 F 
ENDBRANCH  45  69
BRANCH  57  80
ATOM     80  C   UNL A   1      44.182  28.381  34.783  1.00  0.00     0.064 A 
ATOM     81  C   UNL A   1      43.896  27.303  35.634  1.00  0.00     0.173 A 
ATOM     82  C   UNL A   1      45.524  28.609  34.442  1.00  0.00     0.173 A 
ATOM     83  F   UNL A   1      42.631  27.053  36.004  1.00  0.00    -0.203 F 
ATOM     84  C   UNL A   1      44.913  26.486  36.122  1.00  0.00     0.198 A 
ATOM     85  C   UNL A   1      46.535  27.774  34.911  1.00  0.00     0.198 A 
ATOM     86  F   UNL A   1      45.852  29.624  33.629  1.00  0.00    -0.203 F 
ATOM     87  F   UNL A   1      44.618  25.476  36.953  1.00  0.00    -0.200 F 
ATOM     88  C   UNL A   1      46.229  26.714  35.751  1.00  0.00     0.200 A 
ATOM     89  F   UNL A   1      47.805  27.987  34.539  1.00  0.00    -0.200 F 
ATOM     90  F   UNL A   1      47.204  25.912  36.204  1.00  0.00    -0.200 F 
ENDBRANCH  57  80
ENDBRANCH  31  32
ENDBRANCH  24  26
ENDBRANCH  23  24
ENDBRANCH  22  23
ENDBRANCH  21  22
ENDBRANCH  20  21
ENDBRANCH  19  20
ENDBRANCH   1  19
TORSDOF 19
ENDMDL
MODEL 3
REMARK VINA RESULT:     -10.2      4.925      9.832
REMARK SMILES O=C(Cc1ccn(C(F)F)c(=O)c1)OCCOCCOCCOC(=O)c1ccc(-c2c3nc(c(-c4c(F)c(F)c(F)c(F)c4F)c4ccc([nH]4)c(-c4c(F)c(F)c(F)c(F)c4F)c4nc(c(-c5c(F)c(F)c(F)c(F)c5F)c5ccc2[nH]5)C=C4)C=C3)cc1
REMARK SMILES IDX 18 1 17 2 16 3 15 4 14 5 2 6 1 7 3 8 4 9 5 10 13 11 6 12
REMARK SMILES IDX 11 13 7 14 12 15 8 16 9 17 10 18 19 19 20 20 21 21 22 22
REMARK SMILES IDX 23 23 24 24 25 25 26 26 27 27 88 28 28 29 87 30 29 31 30 32
REMARK SMILES IDX 31 33 81 34 32 35 86 36 80 37 82 38 33 39 85 40 79 41 78 42
REMARK SMILES IDX 34 44 66 45 46 46 65 47 47 48 50 49 64 50 83 51 48 52 49 53
REMARK SMILES IDX 63 55 84 56 51 57 35 58 36 59 44 60 37 61 38 62 42 63 45 64
REMARK SMILES IDX 39 65 40 66 43 67 41 68 67 69 68 70 76 71 69 72 70 73 74 74
REMARK SMILES IDX 77 75 71 76 72 77 75 78 73 79 52 80 53 81 61 82 54 83 55 84
REMARK SMILES IDX 59 85 62 86 56 87 57 88 60 89 58 90
REMARK H PARENT 82 43 50 54
REMARK Flexibility Score: inf
ROOT
ATOM      1  C   UNL A   1      32.703  28.467  26.748  1.00  0.00     0.188 C 
ENDROOT
BRANCH   1   2
ATOM      2  O   UNL A   1      33.693  28.109  25.807  1.00  0.00    -0.376 OA
BRANCH   2   3
ATOM      3  C   UNL A   1      34.041  26.751  25.590  1.00  0.00     0.202 C 
BRANCH   3   4
ATOM      4  C   UNL A   1      33.081  25.737  24.959  1.00  0.00     0.261 C 
BRANCH   4   5
ATOM      5  O   UNL A   1      31.861  25.344  25.634  1.00  0.00    -0.463 OA
BRANCH   5   6
ATOM      6  C   UNL A   1      30.561  25.591  25.391  1.00  0.00     0.310 C 
ATOM      7  O   UNL A   1      29.832  25.951  26.315  1.00  0.00    -0.252 OA
BRANCH   6   8
ATOM      8  C   UNL A   1      30.011  25.474  23.989  1.00  0.00     0.158 C 
BRANCH   8   9
ATOM      9  C   UNL A   1      29.622  26.835  23.500  1.00  0.00    -0.030 A 
ATOM     10  C   UNL A   1      30.660  27.757  23.099  1.00  0.00     0.023 A 
ATOM     11  C   UNL A   1      28.343  27.244  23.506  1.00  0.00     0.076 A 
ATOM     12  C   UNL A   1      30.391  29.063  23.015  1.00  0.00     0.095 A 
ATOM     13  C   UNL A   1      28.010  28.679  23.292  1.00  0.00     0.255 A 
ATOM     14  N   UNL A   1      29.102  29.528  23.185  1.00  0.00    -0.258 N 
ATOM     15  O   UNL A   1      26.832  29.013  23.282  1.00  0.00    -0.269 OA
BRANCH  14  16
ATOM     16  C   UNL A   1      28.831  30.939  23.189  1.00  0.00     0.451 C 
ATOM     17  F   UNL A   1      29.398  31.542  24.259  1.00  0.00    -0.185 F 
ATOM     18  F   UNL A   1      29.308  31.527  22.065  1.00  0.00    -0.185 F 
ENDBRANCH  14  16
ENDBRANCH   8   9
ENDBRANCH   6   8
ENDBRANCH   5   6
ENDBRANCH   4   5
ENDBRANCH   3   4
ENDBRANCH   2   3
ENDBRANCH   1   2
BRANCH   1  19
ATOM     19  C   UNL A   1      31.786  29.607  26.293  1.00  0.00     0.188 C 
BRANCH  19  20
ATOM     20  O   UNL A   1      32.095  30.908  26.770  1.00  0.00    -0.376 OA
BRANCH  20  21
ATOM     21  C   UNL A   1      33.253  31.059  27.593  1.00  0.00     0.202 C 
BRANCH  21  22
ATOM     22  C   UNL A   1      33.887  32.455  27.722  1.00  0.00     0.261 C 
BRANCH  22  23
ATOM     23  O   UNL A   1      32.934  33.541  27.737  1.00  0.00    -0.460 OA
BRANCH  23  24
ATOM     24  C   UNL A   1      33.191  34.537  28.622  1.00  0.00     0.338 C 
ATOM     25  O   UNL A   1      32.489  35.499  28.877  1.00  0.00    -0.246 OA
BRANCH  24  26
ATOM     26  C   UNL A   1      34.427  34.251  29.377  1.00  0.00     0.060 A 
ATOM     27  C   UNL A   1      34.373  33.545  30.577  1.00  0.00     0.016 A 
ATOM     28  C   UNL A   1      35.664  34.564  28.793  1.00  0.00     0.016 A 
ATOM     29  C   UNL A   1      35.564  33.121  31.178  1.00  0.00     0.010 A 
ATOM     30  C   UNL A   1      36.853  34.142  29.399  1.00  0.00     0.010 A 
ATOM     31  C   UNL A   1      36.811  33.394  30.584  1.00  0.00    -0.014 A 
BRANCH  31  32
ATOM     32  C   UNL A   1      38.036  32.749  31.124  1.00  0.00     0.031 A 
ATOM     33  C   UNL A   1      38.709  33.237  32.370  1.00  0.00     0.074 A 
ATOM     34  C   UNL A   1      38.544  31.686  30.471  1.00  0.00     0.049 A 
ATOM     35  N   UNL A   1      39.663  32.668  33.064  1.00  0.00    -0.248 NA
ATOM     36  C   UNL A   1      38.267  34.533  32.900  1.00  0.00     0.031 C 
ATOM     37  C   UNL A   1      38.027  31.157  29.209  1.00  0.00     0.029 A 
ATOM     38  N   UNL A   1      39.591  30.853  30.781  1.00  0.00    -0.354 N 
ATOM     39  C   UNL A   1      39.916  33.517  34.130  1.00  0.00     0.074 A 
ATOM     40  C   UNL A   1      39.055  34.671  33.959  1.00  0.00     0.031 C 
ATOM     41  C   UNL A   1      38.732  30.065  28.872  1.00  0.00     0.029 A 
ATOM     42  C   UNL A   1      39.754  29.822  29.888  1.00  0.00     0.049 A 
ATOM     43  H   UNL A   1      40.169  30.983  31.567  1.00  0.00     0.167 HD
ATOM     44  C   UNL A   1      40.770  33.335  35.167  1.00  0.00     0.037 A 
ATOM     45  C   UNL A   1      40.611  28.783  29.895  1.00  0.00     0.037 A 
ATOM     46  C   UNL A   1      41.641  32.195  35.319  1.00  0.00     0.049 A 
ATOM     47  C   UNL A   1      41.565  28.613  31.043  1.00  0.00     0.074 A 
ATOM     48  C   UNL A   1      42.479  31.886  36.378  1.00  0.00     0.029 A 
ATOM     49  N   UNL A   1      41.810  31.192  34.375  1.00  0.00    -0.354 N 
ATOM     50  N   UNL A   1      41.696  29.344  32.122  1.00  0.00    -0.248 NA
ATOM     51  C   UNL A   1      42.486  27.468  30.980  1.00  0.00     0.031 C 
ATOM     52  C   UNL A   1      43.198  30.733  36.047  1.00  0.00     0.029 A 
ATOM     53  C   UNL A   1      42.771  30.290  34.807  1.00  0.00     0.049 A 
ATOM     54  H   UNL A   1      41.319  31.130  33.523  1.00  0.00     0.167 HD
ATOM     55  C   UNL A   1      42.699  28.746  32.872  1.00  0.00     0.074 A 
ATOM     56  C   UNL A   1      43.132  27.577  32.133  1.00  0.00     0.031 C 
ATOM     57  C   UNL A   1      43.211  29.135  34.065  1.00  0.00     0.037 A 
BRANCH  44  58
ATOM     58  C   UNL A   1      40.800  34.381  36.244  1.00  0.00     0.064 A 
ATOM     59  C   UNL A   1      41.724  35.435  36.206  1.00  0.00     0.173 A 
ATOM     60  C   UNL A   1      39.841  34.385  37.268  1.00  0.00     0.173 A 
ATOM     61  F   UNL A   1      42.662  35.477  35.247  1.00  0.00    -0.203 F 
ATOM     62  C   UNL A   1      41.700  36.445  37.165  1.00  0.00     0.198 A 
ATOM     63  C   UNL A   1      39.803  35.412  38.210  1.00  0.00     0.198 A 
ATOM     64  F   UNL A   1      38.924  33.409  37.340  1.00  0.00    -0.203 F 
ATOM     65  F   UNL A   1      42.612  37.426  37.123  1.00  0.00    -0.200 F 
ATOM     66  C   UNL A   1      40.735  36.437  38.160  1.00  0.00     0.200 A 
ATOM     67  F   UNL A   1      38.857  35.413  39.159  1.00  0.00    -0.200 F 
ATOM     68  F   UNL A   1      40.700  37.421  39.070  1.00  0.00    -0.200 F 
ENDBRANCH  44  58
BRANCH  45  69
ATOM     69  C   UNL A   1      40.546  27.788  28.795  1.00  0.00     0.064 A 
ATOM     70  C   UNL A   1      39.733  26.652  28.903  1.00  0.00     0.173 A 
ATOM     71  C   UNL A   1      41.249  27.980  27.597  1.00  0.00     0.173 A 
ATOM     72  F   UNL A   1      39.056  26.418  30.036  1.00  0.00    -0.203 F 
ATOM     73  C   UNL A   1      39.624  25.746  27.850  1.00  0.00     0.198 A 
ATOM     74  C   UNL A   1      41.120  27.086  26.537  1.00  0.00     0.198 A 
ATOM     75  F   UNL A   1      42.036  29.056  27.445  1.00  0.00    -0.203 F 
ATOM     76  F   UNL A   1      38.854  24.657  27.984  1.00  0.00    -0.200 F 
ATOM     77  C   UNL A   1      40.309  25.969  26.665  1.00  0.00     0.200 A 
ATOM     78  F   UNL A   1      41.770  27.314  25.389  1.00  0.00    -0.200 F 
ATOM     79  F   UNL A   1      40.186  25.107  25.646  1.00  0.00    -0.200 F 
ENDBRANCH  45  69
BRANCH  57  80
ATOM     80  C   UNL A   1      44.313  28.306  34.660  1.00  0.00     0.064 A 
ATOM     81  C   UNL A   1      45.662  28.634  34.458  1.00  0.00     0.173 A 
ATOM     82  C   UNL A   1      44.021  27.228  35.510  1.00  0.00     0.173 A 
ATOM     83  F   UNL A   1      45.996  29.645  33.643  1.00  0.00    -0.203 F 
ATOM     84  C   UNL A   1      46.676  27.913  35.085  1.00  0.00     0.198 A 
ATOM     85  C   UNL A   1      45.036  26.526  36.155  1.00  0.00     0.198 A 
ATOM     86  F   UNL A   1      42.747  26.875  35.739  1.00  0.00    -0.203 F 
ATOM     87  F   UNL A   1      47.959  28.231  34.859  1.00  0.00    -0.200 F 
ATOM     88  C   UNL A   1      46.362  26.868  35.941  1.00  0.00     0.200 A 
ATOM     89  F   UNL A   1      44.729  25.527  36.993  1.00  0.00    -0.200 F 
ATOM     90  F   UNL A   1      47.339  26.191  36.560  1.00  0.00    -0.200 F 
ENDBRANCH  57  80
ENDBRANCH  31  32
ENDBRANCH  24  26
ENDBRANCH  23  24
ENDBRANCH  22  23
ENDBRANCH  21  22
ENDBRANCH  20  21
ENDBRANCH  19  20
ENDBRANCH   1  19
TORSDOF 19
ENDMDL
