MODEL 1
REMARK VINA RESULT:     -11.0      0.000      0.000
REMARK SMILES O=C(Cc1csc(Sc2ncnc3c2CCCC3)n1)OCCOCCOCCOC(=O)c1ccc(-c2c3nc(c(-c4c(F)c(F)c(F)c(F)c4F)c4ccc([nH]4)c(-c4c(F)c(F)c(F)c(F)c4F)c4nc(c(-c5c(F)c(F)c(F)c(F)c5F)c5ccc2[nH]5)C=C4)C=C3)cc1
REMARK SMILES IDX 24 1 23 2 22 3 21 4 20 5 2 6 1 7 3 8 4 9 5 10 19 11 6 12
REMARK SMILES IDX 7 13 8 14 9 15 10 16 14 17 11 18 13 19 15 20 12 21 18 22
REMARK SMILES IDX 16 23 17 24 25 25 26 26 27 27 28 28 29 29 30 30 31 31 32 32
REMARK SMILES IDX 33 33 94 34 34 35 93 36 35 37 36 38 37 39 87 40 38 41 92 42
REMARK SMILES IDX 86 43 88 44 39 45 91 46 85 47 84 48 40 50 72 51 52 52 71 53
REMARK SMILES IDX 53 54 56 55 70 56 89 57 54 58 55 59 69 61 90 62 57 63 41 64
REMARK SMILES IDX 42 65 50 66 43 67 44 68 48 69 51 70 45 71 46 72 49 73 47 74
REMARK SMILES IDX 73 75 74 76 82 77 75 78 76 79 80 80 83 81 77 82 78 83 81 84
REMARK SMILES IDX 79 85 58 86 59 87 67 88 60 89 61 90 65 91 68 92 62 93 63 94
REMARK SMILES IDX 66 95 64 96
REMARK H PARENT 88 49 56 60
REMARK Flexibility Score: inf
ROOT
ATOM      1  C   UNL A   1      36.668  22.545  23.538  1.00  0.00     0.188 C 
ENDROOT
BRANCH   1   2
ATOM      2  O   UNL A   1      35.812  23.330  22.734  1.00  0.00    -0.376 OA
BRANCH   2   3
ATOM      3  C   UNL A   1      34.458  23.465  23.131  1.00  0.00     0.202 C 
BRANCH   3   4
ATOM      4  C   UNL A   1      33.418  23.327  22.024  1.00  0.00     0.261 C 
BRANCH   4   5
ATOM      5  O   UNL A   1      33.178  24.475  21.173  1.00  0.00    -0.463 OA
BRANCH   5   6
ATOM      6  C   UNL A   1      32.887  25.745  21.531  1.00  0.00     0.311 C 
ATOM      7  O   UNL A   1      33.807  26.553  21.674  1.00  0.00    -0.252 OA
BRANCH   6   8
ATOM      8  C   UNL A   1      31.501  26.105  21.992  1.00  0.00     0.179 C 
BRANCH   8   9
ATOM      9  C   UNL A   1      31.184  25.898  23.430  1.00  0.00     0.064 A 
ATOM     10  C   UNL A   1      31.091  26.919  24.360  1.00  0.00     0.092 A 
ATOM     11  N   UNL A   1      31.045  24.627  23.960  1.00  0.00    -0.234 NA
ATOM     12  S   UNL A   1      30.840  26.275  25.923  1.00  0.00    -0.116 S 
ATOM     13  C   UNL A   1      30.896  24.688  25.266  1.00  0.00     0.156 A 
BRANCH  13  14
ATOM     14  S   UNL A   1      30.710  23.290  26.297  1.00  0.00    -0.039 SA
BRANCH  14  15
ATOM     15  C   UNL A   1      32.379  22.652  26.302  1.00  0.00     0.110 A 
ATOM     16  N   UNL A   1      33.188  23.178  27.250  1.00  0.00    -0.229 NA
ATOM     17  C   UNL A   1      32.752  21.581  25.495  1.00  0.00     0.006 A 
ATOM     18  C   UNL A   1      34.384  22.597  27.392  1.00  0.00     0.223 A 
ATOM     19  C   UNL A   1      33.998  21.030  25.773  1.00  0.00     0.048 A 
ATOM     20  C   UNL A   1      31.845  20.993  24.446  1.00  0.00     0.040 C 
ATOM     21  N   UNL A   1      34.832  21.543  26.702  1.00  0.00    -0.241 NA
ATOM     22  C   UNL A   1      34.498  19.801  25.054  1.00  0.00     0.056 C 
ATOM     23  C   UNL A   1      32.512  19.939  23.561  1.00  0.00     0.005 C 
ATOM     24  C   UNL A   1      33.371  19.005  24.400  1.00  0.00     0.007 C 
ENDBRANCH  14  15
ENDBRANCH  13  14
ENDBRANCH   8   9
ENDBRANCH   6   8
ENDBRANCH   5   6
ENDBRANCH   4   5
ENDBRANCH   3   4
ENDBRANCH   2   3
ENDBRANCH   1   2
BRANCH   1  25
ATOM     25  C   UNL A   1      37.238  23.267  24.771  1.00  0.00     0.188 C 
BRANCH  25  26
ATOM     26  O   UNL A   1      37.964  22.527  25.742  1.00  0.00    -0.376 OA
BRANCH  26  27
ATOM     27  C   UNL A   1      38.457  21.235  25.410  1.00  0.00     0.202 C 
BRANCH  27  28
ATOM     28  C   UNL A   1      39.579  20.628  26.267  1.00  0.00     0.261 C 
BRANCH  28  29
ATOM     29  O   UNL A   1      40.220  19.471  25.688  1.00  0.00    -0.460 OA
BRANCH  29  30
ATOM     30  C   UNL A   1      41.504  19.252  26.065  1.00  0.00     0.338 C 
ATOM     31  O   UNL A   1      42.102  18.191  26.081  1.00  0.00    -0.246 OA
BRANCH  30  32
ATOM     32  C   UNL A   1      42.183  20.538  26.331  1.00  0.00     0.060 A 
ATOM     33  C   UNL A   1      42.282  20.978  27.659  1.00  0.00     0.016 A 
ATOM     34  C   UNL A   1      42.640  21.343  25.287  1.00  0.00     0.016 A 
ATOM     35  C   UNL A   1      42.829  22.230  27.946  1.00  0.00     0.010 A 
ATOM     36  C   UNL A   1      43.154  22.615  25.574  1.00  0.00     0.010 A 
ATOM     37  C   UNL A   1      43.226  23.076  26.903  1.00  0.00    -0.014 A 
BRANCH  37  38
ATOM     38  C   UNL A   1      43.513  24.505  27.190  1.00  0.00     0.031 A 
ATOM     39  C   UNL A   1      44.908  25.015  26.945  1.00  0.00     0.074 A 
ATOM     40  C   UNL A   1      42.558  25.349  27.619  1.00  0.00     0.049 A 
ATOM     41  N   UNL A   1      45.405  26.209  27.149  1.00  0.00    -0.248 NA
ATOM     42  C   UNL A   1      45.870  24.049  26.390  1.00  0.00     0.031 C 
ATOM     43  C   UNL A   1      41.157  24.999  27.841  1.00  0.00     0.029 A 
ATOM     44  N   UNL A   1      42.628  26.682  27.950  1.00  0.00    -0.354 N 
ATOM     45  C   UNL A   1      46.731  26.138  26.742  1.00  0.00     0.074 A 
ATOM     46  C   UNL A   1      46.974  24.779  26.310  1.00  0.00     0.031 C 
ATOM     47  C   UNL A   1      40.500  26.089  28.278  1.00  0.00     0.029 A 
ATOM     48  C   UNL A   1      41.440  27.205  28.399  1.00  0.00     0.049 A 
ATOM     49  H   UNL A   1      43.454  27.212  27.870  1.00  0.00     0.167 HD
ATOM     50  C   UNL A   1      47.661  27.120  26.720  1.00  0.00     0.037 A 
ATOM     51  C   UNL A   1      41.152  28.435  28.871  1.00  0.00     0.037 A 
ATOM     52  C   UNL A   1      47.428  28.472  27.150  1.00  0.00     0.049 A 
ATOM     53  C   UNL A   1      42.237  29.484  28.933  1.00  0.00     0.074 A 
ATOM     54  C   UNL A   1      48.312  29.536  27.155  1.00  0.00     0.029 A 
ATOM     55  N   UNL A   1      46.227  28.945  27.655  1.00  0.00    -0.354 N 
ATOM     56  N   UNL A   1      43.481  29.413  28.529  1.00  0.00    -0.248 NA
ATOM     57  C   UNL A   1      41.876  30.784  29.522  1.00  0.00     0.031 C 
ATOM     58  C   UNL A   1      47.664  30.640  27.713  1.00  0.00     0.029 A 
ATOM     59  C   UNL A   1      46.358  30.279  28.004  1.00  0.00     0.049 A 
ATOM     60  H   UNL A   1      45.405  28.412  27.751  1.00  0.00     0.167 HD
ATOM     61  C   UNL A   1      44.041  30.659  28.790  1.00  0.00     0.074 A 
ATOM     62  C   UNL A   1      42.997  31.474  29.370  1.00  0.00     0.031 C 
ATOM     63  C   UNL A   1      45.309  31.086  28.572  1.00  0.00     0.037 A 
BRANCH  50  64
ATOM     64  C   UNL A   1      49.031  26.777  26.219  1.00  0.00     0.064 A 
ATOM     65  C   UNL A   1      49.409  27.034  24.892  1.00  0.00     0.173 A 
ATOM     66  C   UNL A   1      50.003  26.272  27.094  1.00  0.00     0.173 A 
ATOM     67  F   UNL A   1      48.511  27.504  24.014  1.00  0.00    -0.203 F 
ATOM     68  C   UNL A   1      50.710  26.792  24.461  1.00  0.00     0.198 A 
ATOM     69  C   UNL A   1      51.310  26.057  26.666  1.00  0.00     0.198 A 
ATOM     70  F   UNL A   1      49.691  26.014  28.374  1.00  0.00    -0.203 F 
ATOM     71  F   UNL A   1      51.045  27.025  23.184  1.00  0.00    -0.200 F 
ATOM     72  C   UNL A   1      51.661  26.316  25.350  1.00  0.00     0.200 A 
ATOM     73  F   UNL A   1      52.231  25.610  27.532  1.00  0.00    -0.200 F 
ATOM     74  F   UNL A   1      52.920  26.109  24.940  1.00  0.00    -0.200 F 
ENDBRANCH  50  64
BRANCH  51  75
ATOM     75  C   UNL A   1      39.776  28.753  29.345  1.00  0.00     0.064 A 
ATOM     76  C   UNL A   1      39.371  28.440  30.651  1.00  0.00     0.173 A 
ATOM     77  C   UNL A   1      38.829  29.342  28.495  1.00  0.00     0.173 A 
ATOM     78  F   UNL A   1      40.229  27.848  31.494  1.00  0.00    -0.203 F 
ATOM     79  C   UNL A   1      38.067  28.685  31.079  1.00  0.00     0.198 A 
ATOM     80  C   UNL A   1      37.535  29.614  28.934  1.00  0.00     0.198 A 
ATOM     81  F   UNL A   1      39.161  29.656  27.234  1.00  0.00    -0.203 F 
ATOM     82  F   UNL A   1      37.693  28.328  32.316  1.00  0.00    -0.200 F 
ATOM     83  C   UNL A   1      37.152  29.279  30.223  1.00  0.00     0.200 A 
ATOM     84  F   UNL A   1      36.658  30.199  28.106  1.00  0.00    -0.200 F 
ATOM     85  F   UNL A   1      35.901  29.518  30.636  1.00  0.00    -0.200 F 
ENDBRANCH  51  75
BRANCH  63  86
ATOM     86  C   UNL A   1      45.651  32.501  28.939  1.00  0.00     0.064 A 
ATOM     87  C   UNL A   1      45.430  33.562  28.049  1.00  0.00     0.173 A 
ATOM     88  C   UNL A   1      46.114  32.812  30.228  1.00  0.00     0.173 A 
ATOM     89  F   UNL A   1      44.999  33.318  26.802  1.00  0.00    -0.203 F 
ATOM     90  C   UNL A   1      45.671  34.880  28.431  1.00  0.00     0.198 A 
ATOM     91  C   UNL A   1      46.324  34.132  30.617  1.00  0.00     0.198 A 
ATOM     92  F   UNL A   1      46.330  31.836  31.122  1.00  0.00    -0.203 F 
ATOM     93  F   UNL A   1      45.482  35.875  27.554  1.00  0.00    -0.200 F 
ATOM     94  C   UNL A   1      46.106  35.165  29.718  1.00  0.00     0.200 A 
ATOM     95  F   UNL A   1      46.725  34.407  31.865  1.00  0.00    -0.200 F 
ATOM     96  F   UNL A   1      46.316  36.435  30.089  1.00  0.00    -0.200 F 
ENDBRANCH  63  86
ENDBRANCH  37  38
ENDBRANCH  30  32
ENDBRANCH  29  30
ENDBRANCH  28  29
ENDBRANCH  27  28
ENDBRANCH  26  27
ENDBRANCH  25  26
ENDBRANCH   1  25
TORSDOF 20
ENDMDL
MODEL 2
REMARK VINA RESULT:     -10.9      2.101      7.902
REMARK SMILES O=C(Cc1csc(Sc2ncnc3c2CCCC3)n1)OCCOCCOCCOC(=O)c1ccc(-c2c3nc(c(-c4c(F)c(F)c(F)c(F)c4F)c4ccc([nH]4)c(-c4c(F)c(F)c(F)c(F)c4F)c4nc(c(-c5c(F)c(F)c(F)c(F)c5F)c5ccc2[nH]5)C=C4)C=C3)cc1
REMARK SMILES IDX 24 1 23 2 22 3 21 4 20 5 2 6 1 7 3 8 4 9 5 10 19 11 6 12
REMARK SMILES IDX 7 13 8 14 9 15 10 16 14 17 11 18 13 19 15 20 12 21 18 22
REMARK SMILES IDX 16 23 17 24 25 25 26 26 27 27 28 28 29 29 30 30 31 31 32 32
REMARK SMILES IDX 33 33 94 34 34 35 93 36 35 37 36 38 37 39 87 40 38 41 92 42
REMARK SMILES IDX 86 43 88 44 39 45 91 46 85 47 84 48 40 50 72 51 52 52 71 53
REMARK SMILES IDX 53 54 56 55 70 56 89 57 54 58 55 59 69 61 90 62 57 63 41 64
REMARK SMILES IDX 42 65 50 66 43 67 44 68 48 69 51 70 45 71 46 72 49 73 47 74
REMARK SMILES IDX 73 75 74 76 82 77 75 78 76 79 80 80 83 81 77 82 78 83 81 84
REMARK SMILES IDX 79 85 58 86 59 87 67 88 60 89 61 90 65 91 68 92 62 93 63 94
REMARK SMILES IDX 66 95 64 96
REMARK H PARENT 88 49 56 60
REMARK Flexibility Score: inf
ROOT
ATOM      1  C   UNL A   1      35.445  23.374  25.363  1.00  0.00     0.188 C 
ENDROOT
BRANCH   1   2
ATOM      2  O   UNL A   1      34.476  23.658  26.350  1.00  0.00    -0.376 OA
BRANCH   2   3
ATOM      3  C   UNL A   1      34.124  22.628  27.259  1.00  0.00     0.202 C 
BRANCH   3   4
ATOM      4  C   UNL A   1      32.649  22.547  27.643  1.00  0.00     0.261 C 
BRANCH   4   5
ATOM      5  O   UNL A   1      31.822  23.710  27.400  1.00  0.00    -0.463 OA
BRANCH   5   6
ATOM      6  C   UNL A   1      30.777  23.841  26.552  1.00  0.00     0.311 C 
ATOM      7  O   UNL A   1      29.833  24.566  26.872  1.00  0.00    -0.252 OA
BRANCH   6   8
ATOM      8  C   UNL A   1      30.647  22.930  25.362  1.00  0.00     0.179 C 
BRANCH   8   9
ATOM      9  C   UNL A   1      31.528  23.201  24.195  1.00  0.00     0.064 A 
ATOM     10  C   UNL A   1      32.311  22.243  23.572  1.00  0.00     0.092 A 
ATOM     11  N   UNL A   1      31.692  24.484  23.700  1.00  0.00    -0.234 NA
ATOM     12  S   UNL A   1      33.275  22.964  22.360  1.00  0.00    -0.116 S 
ATOM     13  C   UNL A   1      32.610  24.498  22.758  1.00  0.00     0.156 A 
BRANCH  13  14
ATOM     14  S   UNL A   1      33.114  25.937  21.904  1.00  0.00    -0.039 SA
BRANCH  14  15
ATOM     15  C   UNL A   1      32.102  27.173  22.701  1.00  0.00     0.110 A 
ATOM     16  N   UNL A   1      30.934  27.445  22.076  1.00  0.00    -0.229 NA
ATOM     17  C   UNL A   1      32.429  27.686  23.954  1.00  0.00     0.006 A 
ATOM     18  C   UNL A   1      30.080  28.232  22.739  1.00  0.00     0.223 A 
ATOM     19  C   UNL A   1      31.439  28.448  24.564  1.00  0.00     0.048 A 
ATOM     20  C   UNL A   1      33.728  27.375  24.651  1.00  0.00     0.040 C 
ATOM     21  N   UNL A   1      30.271  28.748  23.957  1.00  0.00    -0.241 NA
ATOM     22  C   UNL A   1      31.605  28.986  25.964  1.00  0.00     0.056 C 
ATOM     23  C   UNL A   1      33.956  28.173  25.935  1.00  0.00     0.005 C 
ATOM     24  C   UNL A   1      32.677  28.241  26.755  1.00  0.00     0.007 C 
ENDBRANCH  14  15
ENDBRANCH  13  14
ENDBRANCH   8   9
ENDBRANCH   6   8
ENDBRANCH   5   6
ENDBRANCH   4   5
ENDBRANCH   3   4
ENDBRANCH   2   3
ENDBRANCH   1   2
BRANCH   1  25
ATOM     25  C   UNL A   1      36.511  22.346  25.780  1.00  0.00     0.188 C 
BRANCH  25  26
ATOM     26  O   UNL A   1      36.391  20.999  25.347  1.00  0.00    -0.376 OA
BRANCH  26  27
ATOM     27  C   UNL A   1      37.472  20.391  24.651  1.00  0.00     0.202 C 
BRANCH  27  28
ATOM     28  C   UNL A   1      38.569  19.681  25.460  1.00  0.00     0.261 C 
BRANCH  28  29
ATOM     29  O   UNL A   1      39.813  20.406  25.553  1.00  0.00    -0.460 OA
BRANCH  29  30
ATOM     30  C   UNL A   1      40.402  20.420  26.773  1.00  0.00     0.338 C 
ATOM     31  O   UNL A   1      40.756  19.462  27.438  1.00  0.00    -0.246 OA
BRANCH  30  32
ATOM     32  C   UNL A   1      40.721  21.808  27.171  1.00  0.00     0.060 A 
ATOM     33  C   UNL A   1      40.278  22.856  26.351  1.00  0.00     0.016 A 
ATOM     34  C   UNL A   1      41.518  22.075  28.284  1.00  0.00     0.016 A 
ATOM     35  C   UNL A   1      40.639  24.174  26.636  1.00  0.00     0.010 A 
ATOM     36  C   UNL A   1      41.910  23.394  28.548  1.00  0.00     0.010 A 
ATOM     37  C   UNL A   1      41.496  24.447  27.710  1.00  0.00    -0.014 A 
BRANCH  37  38
ATOM     38  C   UNL A   1      42.118  25.791  27.824  1.00  0.00     0.031 A 
ATOM     39  C   UNL A   1      41.359  26.869  28.549  1.00  0.00     0.074 A 
ATOM     40  C   UNL A   1      43.344  26.049  27.334  1.00  0.00     0.049 A 
ATOM     41  N   UNL A   1      41.681  28.122  28.749  1.00  0.00    -0.248 NA
ATOM     42  C   UNL A   1      40.065  26.480  29.132  1.00  0.00     0.031 C 
ATOM     43  C   UNL A   1      44.208  25.081  26.663  1.00  0.00     0.029 A 
ATOM     44  N   UNL A   1      44.074  27.214  27.327  1.00  0.00    -0.354 N 
ATOM     45  C   UNL A   1      40.635  28.665  29.485  1.00  0.00     0.074 A 
ATOM     46  C   UNL A   1      39.654  27.620  29.669  1.00  0.00     0.031 C 
ATOM     47  C   UNL A   1      45.350  25.695  26.301  1.00  0.00     0.029 A 
ATOM     48  C   UNL A   1      45.284  27.106  26.686  1.00  0.00     0.049 A 
ATOM     49  H   UNL A   1      43.759  28.049  27.743  1.00  0.00     0.167 HD
ATOM     50  C   UNL A   1      40.509  29.921  29.973  1.00  0.00     0.037 A 
ATOM     51  C   UNL A   1      46.219  28.042  26.424  1.00  0.00     0.037 A 
ATOM     52  C   UNL A   1      41.480  30.967  29.791  1.00  0.00     0.049 A 
ATOM     53  C   UNL A   1      46.004  29.462  26.890  1.00  0.00     0.074 A 
ATOM     54  C   UNL A   1      41.437  32.269  30.258  1.00  0.00     0.029 A 
ATOM     55  N   UNL A   1      42.664  30.832  29.084  1.00  0.00    -0.354 N 
ATOM     56  N   UNL A   1      45.023  29.962  27.599  1.00  0.00    -0.248 NA
ATOM     57  C   UNL A   1      47.029  30.451  26.513  1.00  0.00     0.031 C 
ATOM     58  C   UNL A   1      42.570  32.938  29.788  1.00  0.00     0.029 A 
ATOM     59  C   UNL A   1      43.345  32.038  29.076  1.00  0.00     0.049 A 
ATOM     60  H   UNL A   1      42.974  30.003  28.652  1.00  0.00     0.167 HD
ATOM     61  C   UNL A   1      45.322  31.309  27.775  1.00  0.00     0.074 A 
ATOM     62  C   UNL A   1      46.586  31.547  27.114  1.00  0.00     0.031 C 
ATOM     63  C   UNL A   1      44.609  32.263  28.423  1.00  0.00     0.037 A 
BRANCH  50  64
ATOM     64  C   UNL A   1      39.271  30.250  30.751  1.00  0.00     0.064 A 
ATOM     65  C   UNL A   1      39.221  30.089  32.143  1.00  0.00     0.173 A 
ATOM     66  C   UNL A   1      38.159  30.815  30.111  1.00  0.00     0.173 A 
ATOM     67  F   UNL A   1      40.255  29.540  32.798  1.00  0.00    -0.203 F 
ATOM     68  C   UNL A   1      38.097  30.480  32.867  1.00  0.00     0.198 A 
ATOM     69  C   UNL A   1      37.048  31.229  30.841  1.00  0.00     0.198 A 
ATOM     70  F   UNL A   1      38.162  30.993  28.781  1.00  0.00    -0.203 F 
ATOM     71  F   UNL A   1      38.060  30.299  34.194  1.00  0.00    -0.200 F 
ATOM     72  C   UNL A   1      37.018  31.060  32.217  1.00  0.00     0.200 A 
ATOM     73  F   UNL A   1      36.012  31.803  30.213  1.00  0.00    -0.200 F 
ATOM     74  F   UNL A   1      35.948  31.459  32.918  1.00  0.00    -0.200 F 
ENDBRANCH  50  64
BRANCH  51  75
ATOM     75  C   UNL A   1      47.449  27.683  25.664  1.00  0.00     0.064 A 
ATOM     76  C   UNL A   1      48.621  27.291  26.328  1.00  0.00     0.173 A 
ATOM     77  C   UNL A   1      47.490  27.758  24.264  1.00  0.00     0.173 A 
ATOM     78  F   UNL A   1      48.643  27.233  27.667  1.00  0.00    -0.203 F 
ATOM     79  C   UNL A   1      49.789  27.008  25.622  1.00  0.00     0.198 A 
ATOM     80  C   UNL A   1      48.650  27.445  23.558  1.00  0.00     0.198 A 
ATOM     81  F   UNL A   1      46.400  28.134  23.579  1.00  0.00    -0.203 F 
ATOM     82  F   UNL A   1      50.908  26.686  26.285  1.00  0.00    -0.200 F 
ATOM     83  C   UNL A   1      49.801  27.078  24.237  1.00  0.00     0.200 A 
ATOM     84  F   UNL A   1      48.653  27.503  22.219  1.00  0.00    -0.200 F 
ATOM     85  F   UNL A   1      50.923  26.803  23.559  1.00  0.00    -0.200 F 
ENDBRANCH  51  75
BRANCH  63  86
ATOM     86  C   UNL A   1      45.173  33.653  28.473  1.00  0.00     0.064 A 
ATOM     87  C   UNL A   1      44.795  34.630  27.541  1.00  0.00     0.173 A 
ATOM     88  C   UNL A   1      46.027  34.040  29.519  1.00  0.00     0.173 A 
ATOM     89  F   UNL A   1      43.990  34.309  26.517  1.00  0.00    -0.203 F 
ATOM     90  C   UNL A   1      45.259  35.940  27.647  1.00  0.00     0.198 A 
ATOM     91  C   UNL A   1      46.464  35.356  29.640  1.00  0.00     0.198 A 
ATOM     92  F   UNL A   1      46.410  33.148  30.444  1.00  0.00    -0.203 F 
ATOM     93  F   UNL A   1      44.908  36.849  26.727  1.00  0.00    -0.200 F 
ATOM     94  C   UNL A   1      46.082  36.305  28.703  1.00  0.00     0.200 A 
ATOM     95  F   UNL A   1      47.244  35.711  30.670  1.00  0.00    -0.200 F 
ATOM     96  F   UNL A   1      46.509  37.569  28.814  1.00  0.00    -0.200 F 
ENDBRANCH  63  86
ENDBRANCH  37  38
ENDBRANCH  30  32
ENDBRANCH  29  30
ENDBRANCH  28  29
ENDBRANCH  27  28
ENDBRANCH  26  27
ENDBRANCH  25  26
ENDBRANCH   1  25
TORSDOF 20
ENDMDL
MODEL 3
REMARK VINA RESULT:     -10.9      4.989     10.151
REMARK SMILES O=C(Cc1csc(Sc2ncnc3c2CCCC3)n1)OCCOCCOCCOC(=O)c1ccc(-c2c3nc(c(-c4c(F)c(F)c(F)c(F)c4F)c4ccc([nH]4)c(-c4c(F)c(F)c(F)c(F)c4F)c4nc(c(-c5c(F)c(F)c(F)c(F)c5F)c5ccc2[nH]5)C=C4)C=C3)cc1
REMARK SMILES IDX 24 1 23 2 22 3 21 4 20 5 2 6 1 7 3 8 4 9 5 10 19 11 6 12
REMARK SMILES IDX 7 13 8 14 9 15 10 16 14 17 11 18 13 19 15 20 12 21 18 22
REMARK SMILES IDX 16 23 17 24 25 25 26 26 27 27 28 28 29 29 30 30 31 31 32 32
REMARK SMILES IDX 33 33 94 34 34 35 93 36 35 37 36 38 37 39 87 40 38 41 92 42
REMARK SMILES IDX 86 43 88 44 39 45 91 46 85 47 84 48 40 50 72 51 52 52 71 53
REMARK SMILES IDX 53 54 56 55 70 56 89 57 54 58 55 59 69 61 90 62 57 63 41 64
REMARK SMILES IDX 42 65 50 66 43 67 44 68 48 69 51 70 45 71 46 72 49 73 47 74
REMARK SMILES IDX 73 75 74 76 82 77 75 78 76 79 80 80 83 81 77 82 78 83 81 84
REMARK SMILES IDX 79 85 58 86 59 87 67 88 60 89 61 90 65 91 68 92 62 93 63 94
REMARK SMILES IDX 66 95 64 96
REMARK H PARENT 88 49 56 60
REMARK Flexibility Score: inf
ROOT
ATOM      1  C   UNL A   1      33.693  29.058  27.337  1.00  0.00     0.188 C 
ENDROOT
BRANCH   1   2
ATOM      2  O   UNL A   1      33.151  28.169  26.382  1.00  0.00    -0.376 OA
BRANCH   2   3
ATOM      3  C   UNL A   1      33.998  27.702  25.346  1.00  0.00     0.202 C 
BRANCH   3   4
ATOM      4  C   UNL A   1      33.572  28.050  23.923  1.00  0.00     0.261 C 
BRANCH   4   5
ATOM      5  O   UNL A   1      32.558  29.070  23.750  1.00  0.00    -0.463 OA
BRANCH   5   6
ATOM      6  C   UNL A   1      31.238  28.914  23.504  1.00  0.00     0.311 C 
ATOM      7  O   UNL A   1      30.437  29.697  24.019  1.00  0.00    -0.252 OA
BRANCH   6   8
ATOM      8  C   UNL A   1      30.734  27.670  22.827  1.00  0.00     0.179 C 
BRANCH   8   9
ATOM      9  C   UNL A   1      30.738  26.411  23.618  1.00  0.00     0.064 A 
ATOM     10  C   UNL A   1      30.375  26.330  24.951  1.00  0.00     0.092 A 
ATOM     11  N   UNL A   1      31.203  25.224  23.078  1.00  0.00    -0.234 NA
ATOM     12  S   UNL A   1      30.634  24.747  25.540  1.00  0.00    -0.116 S 
ATOM     13  C   UNL A   1      31.232  24.283  23.997  1.00  0.00     0.156 A 
BRANCH  13  14
ATOM     14  S   UNL A   1      31.779  22.649  23.708  1.00  0.00    -0.039 SA
BRANCH  14  15
ATOM     15  C   UNL A   1      32.998  22.469  25.001  1.00  0.00     0.110 A 
ATOM     16  N   UNL A   1      32.501  22.122  26.210  1.00  0.00    -0.229 NA
ATOM     17  C   UNL A   1      34.363  22.524  24.728  1.00  0.00     0.006 A 
ATOM     18  C   UNL A   1      33.401  21.810  27.149  1.00  0.00     0.223 A 
ATOM     19  C   UNL A   1      35.195  22.126  25.769  1.00  0.00     0.048 A 
ATOM     20  C   UNL A   1      34.912  22.902  23.378  1.00  0.00     0.040 C 
ATOM     21  N   UNL A   1      34.728  21.791  26.990  1.00  0.00    -0.241 NA
ATOM     22  C   UNL A   1      36.691  22.033  25.593  1.00  0.00     0.056 C 
ATOM     23  C   UNL A   1      36.432  23.064  23.344  1.00  0.00     0.005 C 
ATOM     24  C   UNL A   1      37.105  21.947  24.126  1.00  0.00     0.007 C 
ENDBRANCH  14  15
ENDBRANCH  13  14
ENDBRANCH   8   9
ENDBRANCH   6   8
ENDBRANCH   5   6
ENDBRANCH   4   5
ENDBRANCH   3   4
ENDBRANCH   2   3
ENDBRANCH   1   2
BRANCH   1  25
ATOM     25  C   UNL A   1      33.287  30.530  27.155  1.00  0.00     0.188 C 
BRANCH  25  26
ATOM     26  O   UNL A   1      31.994  30.844  26.660  1.00  0.00    -0.376 OA
BRANCH  26  27
ATOM     27  C   UNL A   1      31.453  32.139  26.892  1.00  0.00     0.202 C 
BRANCH  27  28
ATOM     28  C   UNL A   1      32.412  33.337  26.977  1.00  0.00     0.261 C 
BRANCH  28  29
ATOM     29  O   UNL A   1      32.476  33.965  28.275  1.00  0.00    -0.460 OA
BRANCH  29  30
ATOM     30  C   UNL A   1      33.621  34.636  28.554  1.00  0.00     0.338 C 
ATOM     31  O   UNL A   1      33.764  35.839  28.683  1.00  0.00    -0.246 OA
BRANCH  30  32
ATOM     32  C   UNL A   1      34.713  33.682  28.844  1.00  0.00     0.060 A 
ATOM     33  C   UNL A   1      34.451  32.610  29.708  1.00  0.00     0.016 A 
ATOM     34  C   UNL A   1      36.000  33.886  28.346  1.00  0.00     0.016 A 
ATOM     35  C   UNL A   1      35.478  31.743  30.085  1.00  0.00     0.010 A 
ATOM     36  C   UNL A   1      37.038  33.037  28.755  1.00  0.00     0.010 A 
ATOM     37  C   UNL A   1      36.788  31.978  29.648  1.00  0.00    -0.014 A 
BRANCH  37  38
ATOM     38  C   UNL A   1      37.914  31.251  30.288  1.00  0.00     0.031 A 
ATOM     39  C   UNL A   1      38.233  31.557  31.727  1.00  0.00     0.074 A 
ATOM     40  C   UNL A   1      38.618  30.311  29.632  1.00  0.00     0.049 A 
ATOM     41  N   UNL A   1      39.184  31.077  32.489  1.00  0.00    -0.248 NA
ATOM     42  C   UNL A   1      37.359  32.533  32.399  1.00  0.00     0.031 C 
ATOM     43  C   UNL A   1      38.375  29.879  28.258  1.00  0.00     0.029 A 
ATOM     44  N   UNL A   1      39.688  29.551  30.041  1.00  0.00    -0.354 N 
ATOM     45  C   UNL A   1      39.016  31.685  33.726  1.00  0.00     0.074 A 
ATOM     46  C   UNL A   1      37.897  32.593  33.609  1.00  0.00     0.031 C 
ATOM     47  C   UNL A   1      39.277  28.934  27.934  1.00  0.00     0.029 A 
ATOM     48  C   UNL A   1      40.180  28.718  29.065  1.00  0.00     0.049 A 
ATOM     49  H   UNL A   1      40.066  29.599  30.948  1.00  0.00     0.167 HD
ATOM     50  C   UNL A   1      39.726  31.496  34.863  1.00  0.00     0.037 A 
ATOM     51  C   UNL A   1      41.248  27.893  29.080  1.00  0.00     0.037 A 
ATOM     52  C   UNL A   1      40.841  30.597  34.987  1.00  0.00     0.049 A 
ATOM     53  C   UNL A   1      42.086  27.780  30.331  1.00  0.00     0.074 A 
ATOM     54  C   UNL A   1      41.615  30.336  36.104  1.00  0.00     0.029 A 
ATOM     55  N   UNL A   1      41.345  29.817  33.958  1.00  0.00    -0.354 N 
ATOM     56  N   UNL A   1      41.909  28.344  31.501  1.00  0.00    -0.248 NA
ATOM     57  C   UNL A   1      43.276  26.916  30.262  1.00  0.00     0.031 C 
ATOM     58  C   UNL A   1      42.620  29.438  35.739  1.00  0.00     0.029 A 
ATOM     59  C   UNL A   1      42.440  29.097  34.409  1.00  0.00     0.049 A 
ATOM     60  H   UNL A   1      40.980  29.780  33.045  1.00  0.00     0.167 HD
ATOM     61  C   UNL A   1      42.945  27.886  32.309  1.00  0.00     0.074 A 
ATOM     62  C   UNL A   1      43.737  26.983  31.503  1.00  0.00     0.031 C 
ATOM     63  C   UNL A   1      43.216  28.192  33.601  1.00  0.00     0.037 A 
BRANCH  50  64
ATOM     64  C   UNL A   1      39.327  32.280  36.076  1.00  0.00     0.064 A 
ATOM     65  C   UNL A   1      39.823  33.571  36.307  1.00  0.00     0.173 A 
ATOM     66  C   UNL A   1      38.373  31.771  36.969  1.00  0.00     0.173 A 
ATOM     67  F   UNL A   1      40.748  34.095  35.488  1.00  0.00    -0.203 F 
ATOM     68  C   UNL A   1      39.380  34.324  37.390  1.00  0.00     0.198 A 
ATOM     69  C   UNL A   1      37.912  32.537  38.036  1.00  0.00     0.198 A 
ATOM     70  F   UNL A   1      37.866  30.542  36.789  1.00  0.00    -0.203 F 
ATOM     71  F   UNL A   1      39.881  35.548  37.604  1.00  0.00    -0.200 F 
ATOM     72  C   UNL A   1      38.417  33.811  38.246  1.00  0.00     0.200 A 
ATOM     73  F   UNL A   1      36.970  32.045  38.855  1.00  0.00    -0.200 F 
ATOM     74  F   UNL A   1      37.971  34.547  39.274  1.00  0.00    -0.200 F 
ENDBRANCH  50  64
BRANCH  51  75
ATOM     75  C   UNL A   1      41.609  27.112  27.865  1.00  0.00     0.064 A 
ATOM     76  C   UNL A   1      41.104  25.820  27.660  1.00  0.00     0.173 A 
ATOM     77  C   UNL A   1      42.493  27.624  26.905  1.00  0.00     0.173 A 
ATOM     78  F   UNL A   1      40.279  25.272  28.563  1.00  0.00    -0.203 F 
ATOM     79  C   UNL A   1      41.485  25.065  26.551  1.00  0.00     0.198 A 
ATOM     80  C   UNL A   1      42.849  26.880  25.781  1.00  0.00     0.198 A 
ATOM     81  F   UNL A   1      43.012  28.852  27.055  1.00  0.00    -0.203 F 
ATOM     82  F   UNL A   1      41.027  23.814  26.406  1.00  0.00    -0.200 F 
ATOM     83  C   UNL A   1      42.351  25.599  25.609  1.00  0.00     0.200 A 
ATOM     84  F   UNL A   1      43.678  27.405  24.868  1.00  0.00    -0.200 F 
ATOM     85  F   UNL A   1      42.714  24.874  24.542  1.00  0.00    -0.200 F 
ENDBRANCH  51  75
BRANCH  63  86
ATOM     86  C   UNL A   1      44.405  27.540  34.246  1.00  0.00     0.064 A 
ATOM     87  C   UNL A   1      45.645  28.191  34.323  1.00  0.00     0.173 A 
ATOM     88  C   UNL A   1      44.280  26.292  34.877  1.00  0.00     0.173 A 
ATOM     89  F   UNL A   1      45.820  29.381  33.727  1.00  0.00    -0.203 F 
ATOM     90  C   UNL A   1      46.718  27.613  34.997  1.00  0.00     0.198 A 
ATOM     91  C   UNL A   1      45.345  25.731  35.576  1.00  0.00     0.198 A 
ATOM     92  F   UNL A   1      43.113  25.632  34.844  1.00  0.00    -0.203 F 
ATOM     93  F   UNL A   1      47.902  28.240  35.031  1.00  0.00    -0.200 F 
ATOM     94  C   UNL A   1      46.564  26.390  35.634  1.00  0.00     0.200 A 
ATOM     95  F   UNL A   1      45.190  24.559  36.206  1.00  0.00    -0.200 F 
ATOM     96  F   UNL A   1      47.591  25.846  36.300  1.00  0.00    -0.200 F 
ENDBRANCH  63  86
ENDBRANCH  37  38
ENDBRANCH  30  32
ENDBRANCH  29  30
ENDBRANCH  28  29
ENDBRANCH  27  28
ENDBRANCH  26  27
ENDBRANCH  25  26
ENDBRANCH   1  25
TORSDOF 20
ENDMDL
