MODEL 1
REMARK VINA RESULT:     -11.3      0.000      0.000
REMARK SMILES O=C(OCCOCCOCCOC(=O)c1cccc(Nc2ccnc3ccc(F)cc23)c1)c1ccc(-c2c3nc(c(-c4c(F)c(F)c(F)c(F)c4F)c4ccc([nH]4)c(-c4c(F)c(F)c(F)c(F)c4F)c4nc(c(-c5c(F)c(F)c(F)c(F)c5F)c5ccc2[nH]5)C=C4)C=C3)cc1
REMARK SMILES IDX 7 1 6 2 5 3 4 4 3 5 2 6 1 7 33 8 34 9 95 10 35 11 94 12
REMARK SMILES IDX 36 13 37 14 38 15 88 16 39 17 93 18 87 19 89 20 40 21 92 22
REMARK SMILES IDX 86 23 85 24 41 26 73 27 53 28 72 29 54 30 57 31 71 32 90 33
REMARK SMILES IDX 55 34 56 35 70 37 91 38 58 39 42 40 43 41 51 42 44 43 45 44
REMARK SMILES IDX 49 45 52 46 46 47 47 48 50 49 48 50 74 51 75 52 83 53 76 54
REMARK SMILES IDX 77 55 81 56 84 57 78 58 79 59 82 60 80 61 59 62 60 63 68 64
REMARK SMILES IDX 61 65 62 66 66 67 69 68 63 69 64 70 67 71 65 72 8 73 9 74
REMARK SMILES IDX 10 75 11 76 12 77 13 78 14 79 15 80 16 81 32 82 17 83 19 84
REMARK SMILES IDX 18 85 20 86 21 88 22 89 31 90 23 91 25 92 30 93 24 94 26 95
REMARK SMILES IDX 28 96 27 97 29 98
REMARK H PARENT 89 25 57 36 20 87
REMARK Flexibility Score: inf
ROOT
ATOM      1  C   UNL A   1      34.294  29.744  26.938  1.00  0.00     0.188 C 
ENDROOT
BRANCH   1   2
ATOM      2  O   UNL A   1      33.380  30.626  27.596  1.00  0.00    -0.376 OA
BRANCH   2   3
ATOM      3  C   UNL A   1      32.574  31.388  26.689  1.00  0.00     0.202 C 
BRANCH   3   4
ATOM      4  C   UNL A   1      31.724  32.489  27.349  1.00  0.00     0.261 C 
BRANCH   4   5
ATOM      5  O   UNL A   1      32.359  33.782  27.316  1.00  0.00    -0.460 OA
BRANCH   5   6
ATOM      6  C   UNL A   1      32.950  34.448  28.343  1.00  0.00     0.338 C 
ATOM      7  O   UNL A   1      32.436  35.483  28.762  1.00  0.00    -0.246 OA
BRANCH   6   8
ATOM      8  C   UNL A   1      34.186  33.958  29.020  1.00  0.00     0.060 A 
ATOM      9  C   UNL A   1      35.463  34.418  28.718  1.00  0.00     0.016 A 
ATOM     10  C   UNL A   1      34.052  33.024  30.062  1.00  0.00     0.016 A 
ATOM     11  C   UNL A   1      36.587  33.855  29.297  1.00  0.00     0.010 A 
ATOM     12  C   UNL A   1      35.180  32.526  30.730  1.00  0.00     0.010 A 
ATOM     13  C   UNL A   1      36.459  32.911  30.315  1.00  0.00    -0.014 A 
BRANCH  13  14
ATOM     14  C   UNL A   1      37.706  32.314  30.844  1.00  0.00     0.031 A 
ATOM     15  C   UNL A   1      38.156  32.673  32.227  1.00  0.00     0.074 A 
ATOM     16  C   UNL A   1      38.296  31.315  30.161  1.00  0.00     0.049 A 
ATOM     17  N   UNL A   1      39.168  32.212  32.912  1.00  0.00    -0.248 NA
ATOM     18  C   UNL A   1      37.343  33.666  32.949  1.00  0.00     0.031 C 
ATOM     19  C   UNL A   1      37.846  30.820  28.859  1.00  0.00     0.029 A 
ATOM     20  N   UNL A   1      39.349  30.496  30.476  1.00  0.00    -0.354 N 
ATOM     21  C   UNL A   1      39.117  32.859  34.137  1.00  0.00     0.074 A 
ATOM     22  C   UNL A   1      37.991  33.764  34.099  1.00  0.00     0.031 C 
ATOM     23  C   UNL A   1      38.579  29.754  28.510  1.00  0.00     0.029 A 
ATOM     24  C   UNL A   1      39.606  29.541  29.521  1.00  0.00     0.049 A 
ATOM     25  H   UNL A   1      39.871  30.584  31.306  1.00  0.00     0.167 HD
ATOM     26  C   UNL A   1      39.937  32.700  35.201  1.00  0.00     0.037 A 
ATOM     27  C   UNL A   1      40.581  28.616  29.459  1.00  0.00     0.037 A 
ATOM     28  C   UNL A   1      41.056  31.798  35.213  1.00  0.00     0.049 A 
ATOM     29  C   UNL A   1      41.541  28.535  30.615  1.00  0.00     0.074 A 
ATOM     30  C   UNL A   1      42.018  31.620  36.190  1.00  0.00     0.029 A 
ATOM     31  N   UNL A   1      41.353  30.910  34.187  1.00  0.00    -0.354 N 
ATOM     32  N   UNL A   1      41.533  29.209  31.741  1.00  0.00    -0.248 NA
ATOM     33  C   UNL A   1      42.647  27.577  30.495  1.00  0.00     0.031 C 
ATOM     34  C   UNL A   1      42.917  30.646  35.739  1.00  0.00     0.029 A 
ATOM     35  C   UNL A   1      42.491  30.186  34.502  1.00  0.00     0.049 A 
ATOM     36  H   UNL A   1      40.833  30.809  33.358  1.00  0.00     0.167 HD
ATOM     37  C   UNL A   1      42.624  28.755  32.466  1.00  0.00     0.074 A 
ATOM     38  C   UNL A   1      43.249  27.720  31.666  1.00  0.00     0.031 C 
ATOM     39  C   UNL A   1      43.079  29.162  33.676  1.00  0.00     0.037 A 
BRANCH  26  40
ATOM     40  C   UNL A   1      39.672  33.561  36.399  1.00  0.00     0.064 A 
ATOM     41  C   UNL A   1      38.840  33.134  37.445  1.00  0.00     0.173 A 
ATOM     42  C   UNL A   1      40.229  34.846  36.485  1.00  0.00     0.173 A 
ATOM     43  F   UNL A   1      38.258  31.926  37.395  1.00  0.00    -0.203 F 
ATOM     44  C   UNL A   1      38.558  33.972  38.522  1.00  0.00     0.198 A 
ATOM     45  C   UNL A   1      39.963  35.671  37.574  1.00  0.00     0.198 A 
ATOM     46  F   UNL A   1      41.022  35.305  35.505  1.00  0.00    -0.203 F 
ATOM     47  F   UNL A   1      37.716  33.565  39.483  1.00  0.00    -0.200 F 
ATOM     48  C   UNL A   1      39.121  35.238  38.587  1.00  0.00     0.200 A 
ATOM     49  F   UNL A   1      40.508  36.894  37.634  1.00  0.00    -0.200 F 
ATOM     50  F   UNL A   1      38.841  36.046  39.618  1.00  0.00    -0.200 F 
ENDBRANCH  26  40
BRANCH  27  51
ATOM     51  C   UNL A   1      40.728  27.749  28.254  1.00  0.00     0.064 A 
ATOM     52  C   UNL A   1      40.142  26.478  28.186  1.00  0.00     0.173 A 
ATOM     53  C   UNL A   1      41.482  28.172  27.146  1.00  0.00     0.173 A 
ATOM     54  F   UNL A   1      39.415  26.018  29.215  1.00  0.00    -0.203 F 
ATOM     55  C   UNL A   1      40.332  25.653  27.076  1.00  0.00     0.198 A 
ATOM     56  C   UNL A   1      41.643  27.361  26.025  1.00  0.00     0.198 A 
ATOM     57  F   UNL A   1      42.046  29.389  27.138  1.00  0.00    -0.203 F 
ATOM     58  F   UNL A   1      39.802  24.421  27.062  1.00  0.00    -0.200 F 
ATOM     59  C   UNL A   1      41.080  26.096  25.996  1.00  0.00     0.200 A 
ATOM     60  F   UNL A   1      42.343  27.811  24.975  1.00  0.00    -0.200 F 
ATOM     61  F   UNL A   1      41.262  25.304  24.932  1.00  0.00    -0.200 F 
ENDBRANCH  27  51
BRANCH  39  62
ATOM     62  C   UNL A   1      44.301  28.469  34.199  1.00  0.00     0.064 A 
ATOM     63  C   UNL A   1      45.590  28.926  33.886  1.00  0.00     0.173 A 
ATOM     64  C   UNL A   1      44.179  27.351  35.036  1.00  0.00     0.173 A 
ATOM     65  F   UNL A   1      45.753  29.982  33.074  1.00  0.00    -0.203 F 
ATOM     66  C   UNL A   1      46.715  28.269  34.371  1.00  0.00     0.198 A 
ATOM     67  C   UNL A   1      45.307  26.714  35.543  1.00  0.00     0.198 A 
ATOM     68  F   UNL A   1      42.966  26.882  35.366  1.00  0.00    -0.203 F 
ATOM     69  F   UNL A   1      47.938  28.688  34.016  1.00  0.00    -0.200 F 
ATOM     70  C   UNL A   1      46.573  27.167  35.203  1.00  0.00     0.200 A 
ATOM     71  F   UNL A   1      45.168  25.657  36.355  1.00  0.00    -0.200 F 
ATOM     72  F   UNL A   1      47.659  26.535  35.670  1.00  0.00    -0.200 F 
ENDBRANCH  39  62
ENDBRANCH  13  14
ENDBRANCH   6   8
ENDBRANCH   5   6
ENDBRANCH   4   5
ENDBRANCH   3   4
ENDBRANCH   2   3
ENDBRANCH   1   2
BRANCH   1  73
ATOM     73  C   UNL A   1      33.766  28.308  26.835  1.00  0.00     0.188 C 
BRANCH  73  74
ATOM     74  O   UNL A   1      33.321  27.909  25.539  1.00  0.00    -0.376 OA
BRANCH  74  75
ATOM     75  C   UNL A   1      33.876  28.613  24.424  1.00  0.00     0.202 C 
BRANCH  75  76
ATOM     76  C   UNL A   1      32.969  28.747  23.195  1.00  0.00     0.261 C 
BRANCH  76  77
ATOM     77  O   UNL A   1      31.577  28.836  23.546  1.00  0.00    -0.460 OA
BRANCH  77  78
ATOM     78  C   UNL A   1      30.781  28.004  22.840  1.00  0.00     0.338 C 
ATOM     79  O   UNL A   1      30.094  28.311  21.869  1.00  0.00    -0.246 OA
BRANCH  78  80
ATOM     80  C   UNL A   1      30.794  26.631  23.391  1.00  0.00     0.062 A 
ATOM     81  C   UNL A   1      30.305  26.323  24.666  1.00  0.00     0.016 A 
ATOM     82  C   UNL A   1      31.458  25.651  22.647  1.00  0.00     0.041 A 
ATOM     83  C   UNL A   1      30.496  25.047  25.197  1.00  0.00     0.003 A 
ATOM     84  C   UNL A   1      31.672  24.379  23.183  1.00  0.00     0.039 A 
ATOM     85  C   UNL A   1      31.191  24.087  24.463  1.00  0.00     0.026 A 
BRANCH  84  86
ATOM     86  N   UNL A   1      32.547  23.471  22.551  1.00  0.00    -0.355 N 
ATOM     87  H   UNL A   1      32.894  23.675  21.653  1.00  0.00     0.167 HD
BRANCH  86  88
ATOM     88  C   UNL A   1      32.933  22.262  23.196  1.00  0.00     0.050 A 
ATOM     89  C   UNL A   1      32.094  21.147  23.121  1.00  0.00     0.047 A 
ATOM     90  C   UNL A   1      34.116  22.183  23.959  1.00  0.00     0.027 A 
ATOM     91  C   UNL A   1      32.483  19.983  23.747  1.00  0.00     0.114 A 
ATOM     92  C   UNL A   1      34.413  20.939  24.563  1.00  0.00     0.072 A 
ATOM     93  C   UNL A   1      35.017  23.260  24.112  1.00  0.00     0.051 A 
ATOM     94  N   UNL A   1      33.619  19.862  24.456  1.00  0.00    -0.256 NA
ATOM     95  C   UNL A   1      35.586  20.812  25.293  1.00  0.00     0.032 A 
ATOM     96  C   UNL A   1      36.181  23.093  24.852  1.00  0.00     0.124 A 
ATOM     97  C   UNL A   1      36.474  21.877  25.446  1.00  0.00     0.041 A 
ATOM     98  F   UNL A   1      37.033  24.117  24.986  1.00  0.00    -0.207 F 
ENDBRANCH  86  88
ENDBRANCH  84  86
ENDBRANCH  78  80
ENDBRANCH  77  78
ENDBRANCH  76  77
ENDBRANCH  75  76
ENDBRANCH  74  75
ENDBRANCH  73  74
ENDBRANCH   1  73
TORSDOF 19
ENDMDL
MODEL 2
REMARK VINA RESULT:     -11.3      0.934      2.026
REMARK SMILES O=C(OCCOCCOCCOC(=O)c1cccc(Nc2ccnc3ccc(F)cc23)c1)c1ccc(-c2c3nc(c(-c4c(F)c(F)c(F)c(F)c4F)c4ccc([nH]4)c(-c4c(F)c(F)c(F)c(F)c4F)c4nc(c(-c5c(F)c(F)c(F)c(F)c5F)c5ccc2[nH]5)C=C4)C=C3)cc1
REMARK SMILES IDX 7 1 6 2 5 3 4 4 3 5 2 6 1 7 33 8 34 9 95 10 35 11 94 12
REMARK SMILES IDX 36 13 37 14 38 15 88 16 39 17 93 18 87 19 89 20 40 21 92 22
REMARK SMILES IDX 86 23 85 24 41 26 73 27 53 28 72 29 54 30 57 31 71 32 90 33
REMARK SMILES IDX 55 34 56 35 70 37 91 38 58 39 42 40 43 41 51 42 44 43 45 44
REMARK SMILES IDX 49 45 52 46 46 47 47 48 50 49 48 50 74 51 75 52 83 53 76 54
REMARK SMILES IDX 77 55 81 56 84 57 78 58 79 59 82 60 80 61 59 62 60 63 68 64
REMARK SMILES IDX 61 65 62 66 66 67 69 68 63 69 64 70 67 71 65 72 8 73 9 74
REMARK SMILES IDX 10 75 11 76 12 77 13 78 14 79 15 80 16 81 32 82 17 83 19 84
REMARK SMILES IDX 18 85 20 86 21 88 22 89 31 90 23 91 25 92 30 93 24 94 26 95
REMARK SMILES IDX 28 96 27 97 29 98
REMARK H PARENT 89 25 57 36 20 87
REMARK Flexibility Score: inf
ROOT
ATOM      1  C   UNL A   1      34.315  29.493  26.951  1.00  0.00     0.188 C 
ENDROOT
BRANCH   1   2
ATOM      2  O   UNL A   1      33.802  30.758  27.377  1.00  0.00    -0.376 OA
BRANCH   2   3
ATOM      3  C   UNL A   1      32.650  31.182  26.639  1.00  0.00     0.202 C 
BRANCH   3   4
ATOM      4  C   UNL A   1      31.820  32.289  27.316  1.00  0.00     0.261 C 
BRANCH   4   5
ATOM      5  O   UNL A   1      32.470  33.574  27.284  1.00  0.00    -0.460 OA
BRANCH   5   6
ATOM      6  C   UNL A   1      33.029  34.252  28.321  1.00  0.00     0.338 C 
ATOM      7  O   UNL A   1      32.476  35.266  28.743  1.00  0.00    -0.246 OA
BRANCH   6   8
ATOM      8  C   UNL A   1      34.275  33.799  29.006  1.00  0.00     0.060 A 
ATOM      9  C   UNL A   1      35.540  34.294  28.709  1.00  0.00     0.016 A 
ATOM     10  C   UNL A   1      34.162  32.864  30.049  1.00  0.00     0.016 A 
ATOM     11  C   UNL A   1      36.677  33.765  29.296  1.00  0.00     0.010 A 
ATOM     12  C   UNL A   1      35.301  32.401  30.725  1.00  0.00     0.010 A 
ATOM     13  C   UNL A   1      36.570  32.821  30.316  1.00  0.00    -0.014 A 
BRANCH  13  14
ATOM     14  C   UNL A   1      37.831  32.261  30.853  1.00  0.00     0.031 A 
ATOM     15  C   UNL A   1      38.263  32.637  32.237  1.00  0.00     0.074 A 
ATOM     16  C   UNL A   1      38.452  31.276  30.176  1.00  0.00     0.049 A 
ATOM     17  N   UNL A   1      39.285  32.206  32.928  1.00  0.00    -0.248 NA
ATOM     18  C   UNL A   1      37.419  33.608  32.952  1.00  0.00     0.031 C 
ATOM     19  C   UNL A   1      38.022  30.765  28.874  1.00  0.00     0.029 A 
ATOM     20  N   UNL A   1      39.525  30.489  30.499  1.00  0.00    -0.354 N 
ATOM     21  C   UNL A   1      39.209  32.856  34.151  1.00  0.00     0.074 A 
ATOM     22  C   UNL A   1      38.058  33.728  34.104  1.00  0.00     0.031 C 
ATOM     23  C   UNL A   1      38.787  29.718  28.532  1.00  0.00     0.029 A 
ATOM     24  C   UNL A   1      39.814  29.538  29.549  1.00  0.00     0.049 A 
ATOM     25  H   UNL A   1      40.041  30.594  31.331  1.00  0.00     0.167 HD
ATOM     26  C   UNL A   1      40.028  32.723  35.220  1.00  0.00     0.037 A 
ATOM     27  C   UNL A   1      40.816  28.640  29.495  1.00  0.00     0.037 A 
ATOM     28  C   UNL A   1      41.171  31.853  35.241  1.00  0.00     0.049 A 
ATOM     29  C   UNL A   1      41.772  28.590  30.656  1.00  0.00     0.074 A 
ATOM     30  C   UNL A   1      42.134  31.706  36.222  1.00  0.00     0.029 A 
ATOM     31  N   UNL A   1      41.499  30.970  34.219  1.00  0.00    -0.354 N 
ATOM     32  N   UNL A   1      41.739  29.267  31.779  1.00  0.00    -0.248 NA
ATOM     33  C   UNL A   1      42.904  27.663  30.544  1.00  0.00     0.031 C 
ATOM     34  C   UNL A   1      43.062  30.756  35.779  1.00  0.00     0.029 A 
ATOM     35  C   UNL A   1      42.655  30.280  34.542  1.00  0.00     0.049 A 
ATOM     36  H   UNL A   1      40.986  30.852  33.388  1.00  0.00     0.167 HD
ATOM     37  C   UNL A   1      42.838  28.846  32.511  1.00  0.00     0.074 A 
ATOM     38  C   UNL A   1      43.496  27.826  31.718  1.00  0.00     0.031 C 
ATOM     39  C   UNL A   1      43.276  29.270  33.722  1.00  0.00     0.037 A 
BRANCH  26  40
ATOM     40  C   UNL A   1      39.733  33.581  36.414  1.00  0.00     0.064 A 
ATOM     41  C   UNL A   1      38.900  33.138  37.452  1.00  0.00     0.173 A 
ATOM     42  C   UNL A   1      40.262  34.877  36.502  1.00  0.00     0.173 A 
ATOM     43  F   UNL A   1      38.343  31.918  37.398  1.00  0.00    -0.203 F 
ATOM     44  C   UNL A   1      38.589  33.971  38.524  1.00  0.00     0.198 A 
ATOM     45  C   UNL A   1      39.967  35.698  37.587  1.00  0.00     0.198 A 
ATOM     46  F   UNL A   1      41.055  35.351  35.530  1.00  0.00    -0.203 F 
ATOM     47  F   UNL A   1      37.746  33.548  39.477  1.00  0.00    -0.200 F 
ATOM     48  C   UNL A   1      39.125  35.249  38.593  1.00  0.00     0.200 A 
ATOM     49  F   UNL A   1      40.487  36.932  37.651  1.00  0.00    -0.200 F 
ATOM     50  F   UNL A   1      38.817  36.052  39.620  1.00  0.00    -0.200 F 
ENDBRANCH  26  40
BRANCH  27  51
ATOM     51  C   UNL A   1      40.992  27.774  28.294  1.00  0.00     0.064 A 
ATOM     52  C   UNL A   1      41.783  28.174  27.208  1.00  0.00     0.173 A 
ATOM     53  C   UNL A   1      40.350  26.527  28.200  1.00  0.00     0.173 A 
ATOM     54  F   UNL A   1      42.417  29.356  27.239  1.00  0.00    -0.203 F 
ATOM     55  C   UNL A   1      41.897  27.380  26.065  1.00  0.00     0.198 A 
ATOM     56  C   UNL A   1      40.490  25.721  27.072  1.00  0.00     0.198 A 
ATOM     57  F   UNL A   1      39.600  26.075  29.216  1.00  0.00    -0.203 F 
ATOM     58  F   UNL A   1      42.618  27.813  25.021  1.00  0.00    -0.200 F 
ATOM     59  C   UNL A   1      41.252  26.154  25.999  1.00  0.00     0.200 A 
ATOM     60  F   UNL A   1      39.888  24.526  27.031  1.00  0.00    -0.200 F 
ATOM     61  F   UNL A   1      41.362  25.393  24.903  1.00  0.00    -0.200 F 
ENDBRANCH  27  51
BRANCH  39  62
ATOM     62  C   UNL A   1      44.514  28.613  34.253  1.00  0.00     0.064 A 
ATOM     63  C   UNL A   1      44.447  27.453  35.037  1.00  0.00     0.173 A 
ATOM     64  C   UNL A   1      45.779  29.141  33.957  1.00  0.00     0.173 A 
ATOM     65  F   UNL A   1      43.256  26.925  35.360  1.00  0.00    -0.203 F 
ATOM     66  C   UNL A   1      45.603  26.859  35.531  1.00  0.00     0.198 A 
ATOM     67  C   UNL A   1      46.935  28.527  34.428  1.00  0.00     0.198 A 
ATOM     68  F   UNL A   1      45.893  30.247  33.206  1.00  0.00    -0.203 F 
ATOM     69  F   UNL A   1      45.514  25.782  36.324  1.00  0.00    -0.200 F 
ATOM     70  C   UNL A   1      46.846  27.393  35.221  1.00  0.00     0.200 A 
ATOM     71  F   UNL A   1      48.136  29.036  34.119  1.00  0.00    -0.200 F 
ATOM     72  F   UNL A   1      47.959  26.818  35.697  1.00  0.00    -0.200 F 
ENDBRANCH  39  62
ENDBRANCH  13  14
ENDBRANCH   6   8
ENDBRANCH   5   6
ENDBRANCH   4   5
ENDBRANCH   3   4
ENDBRANCH   2   3
ENDBRANCH   1   2
BRANCH   1  73
ATOM     73  C   UNL A   1      33.234  28.408  26.869  1.00  0.00     0.188 C 
BRANCH  73  74
ATOM     74  O   UNL A   1      33.074  27.796  25.591  1.00  0.00    -0.376 OA
BRANCH  74  75
ATOM     75  C   UNL A   1      33.782  28.391  24.500  1.00  0.00     0.202 C 
BRANCH  75  76
ATOM     76  C   UNL A   1      32.919  28.979  23.377  1.00  0.00     0.261 C 
BRANCH  76  77
ATOM     77  O   UNL A   1      31.520  28.999  23.714  1.00  0.00    -0.460 OA
BRANCH  77  78
ATOM     78  C   UNL A   1      30.752  28.240  22.901  1.00  0.00     0.338 C 
ATOM     79  O   UNL A   1      30.194  28.617  21.874  1.00  0.00    -0.246 OA
BRANCH  78  80
ATOM     80  C   UNL A   1      30.620  26.856  23.406  1.00  0.00     0.062 A 
ATOM     81  C   UNL A   1      29.982  26.548  24.612  1.00  0.00     0.016 A 
ATOM     82  C   UNL A   1      31.294  25.852  22.702  1.00  0.00     0.041 A 
ATOM     83  C   UNL A   1      30.034  25.248  25.118  1.00  0.00     0.003 A 
ATOM     84  C   UNL A   1      31.368  24.555  23.214  1.00  0.00     0.039 A 
ATOM     85  C   UNL A   1      30.738  24.263  24.428  1.00  0.00     0.026 A 
BRANCH  84  86
ATOM     86  N   UNL A   1      32.244  23.607  22.647  1.00  0.00    -0.355 N 
ATOM     87  H   UNL A   1      32.039  23.223  21.763  1.00  0.00     0.167 HD
BRANCH  86  88
ATOM     88  C   UNL A   1      33.420  23.197  23.334  1.00  0.00     0.050 A 
ATOM     89  C   UNL A   1      34.460  24.112  23.522  1.00  0.00     0.047 A 
ATOM     90  C   UNL A   1      33.584  21.869  23.779  1.00  0.00     0.027 A 
ATOM     91  C   UNL A   1      35.591  23.701  24.192  1.00  0.00     0.114 A 
ATOM     92  C   UNL A   1      34.789  21.557  24.452  1.00  0.00     0.072 A 
ATOM     93  C   UNL A   1      32.602  20.867  23.619  1.00  0.00     0.051 A 
ATOM     94  N   UNL A   1      35.768  22.452  24.659  1.00  0.00    -0.256 NA
ATOM     95  C   UNL A   1      34.973  20.270  24.935  1.00  0.00     0.032 A 
ATOM     96  C   UNL A   1      32.823  19.589  24.117  1.00  0.00     0.124 A 
ATOM     97  C   UNL A   1      34.003  19.280  24.773  1.00  0.00     0.041 A 
ATOM     98  F   UNL A   1      31.884  18.647  23.967  1.00  0.00    -0.207 F 
ENDBRANCH  86  88
ENDBRANCH  84  86
ENDBRANCH  78  80
ENDBRANCH  77  78
ENDBRANCH  76  77
ENDBRANCH  75  76
ENDBRANCH  74  75
ENDBRANCH  73  74
ENDBRANCH   1  73
TORSDOF 19
ENDMDL
MODEL 3
REMARK VINA RESULT:     -11.1      4.318      9.802
REMARK SMILES O=C(OCCOCCOCCOC(=O)c1cccc(Nc2ccnc3ccc(F)cc23)c1)c1ccc(-c2c3nc(c(-c4c(F)c(F)c(F)c(F)c4F)c4ccc([nH]4)c(-c4c(F)c(F)c(F)c(F)c4F)c4nc(c(-c5c(F)c(F)c(F)c(F)c5F)c5ccc2[nH]5)C=C4)C=C3)cc1
REMARK SMILES IDX 7 1 6 2 5 3 4 4 3 5 2 6 1 7 33 8 34 9 95 10 35 11 94 12
REMARK SMILES IDX 36 13 37 14 38 15 88 16 39 17 93 18 87 19 89 20 40 21 92 22
REMARK SMILES IDX 86 23 85 24 41 26 73 27 53 28 72 29 54 30 57 31 71 32 90 33
REMARK SMILES IDX 55 34 56 35 70 37 91 38 58 39 42 40 43 41 51 42 44 43 45 44
REMARK SMILES IDX 49 45 52 46 46 47 47 48 50 49 48 50 74 51 75 52 83 53 76 54
REMARK SMILES IDX 77 55 81 56 84 57 78 58 79 59 82 60 80 61 59 62 60 63 68 64
REMARK SMILES IDX 61 65 62 66 66 67 69 68 63 69 64 70 67 71 65 72 8 73 9 74
REMARK SMILES IDX 10 75 11 76 12 77 13 78 14 79 15 80 16 81 32 82 17 83 19 84
REMARK SMILES IDX 18 85 20 86 21 88 22 89 31 90 23 91 25 92 30 93 24 94 26 95
REMARK SMILES IDX 28 96 27 97 29 98
REMARK H PARENT 89 25 57 36 20 87
REMARK Flexibility Score: inf
ROOT
ATOM      1  C   UNL A   1      45.749  20.719  25.009  1.00  0.00     0.188 C 
ENDROOT
BRANCH   1   2
ATOM      2  O   UNL A   1      45.822  21.990  24.357  1.00  0.00    -0.376 OA
BRANCH   2   3
ATOM      3  C   UNL A   1      44.566  22.430  23.826  1.00  0.00     0.202 C 
BRANCH   3   4
ATOM      4  C   UNL A   1      43.932  23.620  24.568  1.00  0.00     0.261 C 
BRANCH   4   5
ATOM      5  O   UNL A   1      44.802  24.767  24.634  1.00  0.00    -0.460 OA
BRANCH   5   6
ATOM      6  C   UNL A   1      45.407  25.294  25.731  1.00  0.00     0.338 C 
ATOM      7  O   UNL A   1      46.616  25.133  25.884  1.00  0.00    -0.246 OA
BRANCH   6   8
ATOM      8  C   UNL A   1      44.675  26.099  26.751  1.00  0.00     0.060 A 
ATOM      9  C   UNL A   1      44.705  27.489  26.802  1.00  0.00     0.016 A 
ATOM     10  C   UNL A   1      43.861  25.424  27.677  1.00  0.00     0.016 A 
ATOM     11  C   UNL A   1      44.097  28.185  27.832  1.00  0.00     0.010 A 
ATOM     12  C   UNL A   1      43.153  26.131  28.660  1.00  0.00     0.010 A 
ATOM     13  C   UNL A   1      43.307  27.517  28.766  1.00  0.00    -0.014 A 
BRANCH  13  14
ATOM     14  C   UNL A   1      42.738  28.322  29.870  1.00  0.00     0.031 A 
ATOM     15  C   UNL A   1      41.383  28.937  29.699  1.00  0.00     0.074 A 
ATOM     16  C   UNL A   1      43.351  28.318  31.069  1.00  0.00     0.049 A 
ATOM     17  N   UNL A   1      40.667  29.611  30.560  1.00  0.00    -0.248 NA
ATOM     18  C   UNL A   1      40.731  28.745  28.393  1.00  0.00     0.031 C 
ATOM     19  C   UNL A   1      44.616  27.639  31.352  1.00  0.00     0.029 A 
ATOM     20  N   UNL A   1      42.980  28.838  32.281  1.00  0.00    -0.354 N 
ATOM     21  C   UNL A   1      39.489  29.927  29.900  1.00  0.00     0.074 A 
ATOM     22  C   UNL A   1      39.590  29.395  28.561  1.00  0.00     0.031 C 
ATOM     23  C   UNL A   1      44.891  27.737  32.661  1.00  0.00     0.029 A 
ATOM     24  C   UNL A   1      43.867  28.557  33.293  1.00  0.00     0.049 A 
ATOM     25  H   UNL A   1      42.158  29.363  32.414  1.00  0.00     0.167 HD
ATOM     26  C   UNL A   1      38.416  30.597  30.381  1.00  0.00     0.037 A 
ATOM     27  C   UNL A   1      43.865  28.945  34.582  1.00  0.00     0.037 A 
ATOM     28  C   UNL A   1      38.342  31.122  31.716  1.00  0.00     0.049 A 
ATOM     29  C   UNL A   1      42.706  29.778  35.059  1.00  0.00     0.074 A 
ATOM     30  C   UNL A   1      37.355  31.903  32.289  1.00  0.00     0.029 A 
ATOM     31  N   UNL A   1      39.304  30.908  32.695  1.00  0.00    -0.354 N 
ATOM     32  N   UNL A   1      41.629  30.141  34.403  1.00  0.00    -0.248 NA
ATOM     33  C   UNL A   1      42.759  30.260  36.444  1.00  0.00     0.031 C 
ATOM     34  C   UNL A   1      37.737  32.188  33.605  1.00  0.00     0.029 A 
ATOM     35  C   UNL A   1      38.940  31.549  33.867  1.00  0.00     0.049 A 
ATOM     36  H   UNL A   1      40.125  30.378  32.573  1.00  0.00     0.167 HD
ATOM     37  C   UNL A   1      40.873  30.888  35.294  1.00  0.00     0.074 A 
ATOM     38  C   UNL A   1      41.600  30.893  36.549  1.00  0.00     0.031 C 
ATOM     39  C   UNL A   1      39.694  31.526  35.095  1.00  0.00     0.037 A 
BRANCH  26  40
ATOM     40  C   UNL A   1      37.280  30.832  29.431  1.00  0.00     0.064 A 
ATOM     41  C   UNL A   1      37.053  32.088  28.849  1.00  0.00     0.173 A 
ATOM     42  C   UNL A   1      36.385  29.795  29.127  1.00  0.00     0.173 A 
ATOM     43  F   UNL A   1      37.862  33.121  29.134  1.00  0.00    -0.203 F 
ATOM     44  C   UNL A   1      35.958  32.303  28.017  1.00  0.00     0.198 A 
ATOM     45  C   UNL A   1      35.305  30.008  28.275  1.00  0.00     0.198 A 
ATOM     46  F   UNL A   1      36.553  28.578  29.667  1.00  0.00    -0.203 F 
ATOM     47  F   UNL A   1      35.728  33.525  27.516  1.00  0.00    -0.200 F 
ATOM     48  C   UNL A   1      35.086  31.263  27.728  1.00  0.00     0.200 A 
ATOM     49  F   UNL A   1      34.465  29.001  27.998  1.00  0.00    -0.200 F 
ATOM     50  F   UNL A   1      34.028  31.474  26.934  1.00  0.00    -0.200 F 
ENDBRANCH  26  40
BRANCH  27  51
ATOM     51  C   UNL A   1      45.007  28.603  35.477  1.00  0.00     0.064 A 
ATOM     52  C   UNL A   1      44.986  27.467  36.298  1.00  0.00     0.173 A 
ATOM     53  C   UNL A   1      46.144  29.427  35.546  1.00  0.00     0.173 A 
ATOM     54  F   UNL A   1      43.926  26.646  36.279  1.00  0.00    -0.203 F 
ATOM     55  C   UNL A   1      46.037  27.187  37.173  1.00  0.00     0.198 A 
ATOM     56  C   UNL A   1      47.207  29.129  36.396  1.00  0.00     0.198 A 
ATOM     57  F   UNL A   1      46.238  30.515  34.767  1.00  0.00    -0.203 F 
ATOM     58  F   UNL A   1      45.965  26.122  37.983  1.00  0.00    -0.200 F 
ATOM     59  C   UNL A   1      47.147  28.017  37.219  1.00  0.00     0.200 A 
ATOM     60  F   UNL A   1      48.288  29.920  36.411  1.00  0.00    -0.200 F 
ATOM     61  F   UNL A   1      48.155  27.748  38.059  1.00  0.00    -0.200 F 
ENDBRANCH  27  51
BRANCH  39  62
ATOM     62  C   UNL A   1      39.124  32.262  36.270  1.00  0.00     0.064 A 
ATOM     63  C   UNL A   1      38.200  31.656  37.133  1.00  0.00     0.173 A 
ATOM     64  C   UNL A   1      39.523  33.578  36.543  1.00  0.00     0.173 A 
ATOM     65  F   UNL A   1      37.778  30.404  36.899  1.00  0.00    -0.203 F 
ATOM     66  C   UNL A   1      37.673  32.353  38.214  1.00  0.00     0.198 A 
ATOM     67  C   UNL A   1      39.015  34.262  37.643  1.00  0.00     0.198 A 
ATOM     68  F   UNL A   1      40.409  34.196  35.747  1.00  0.00    -0.203 F 
ATOM     69  F   UNL A   1      36.750  31.775  38.996  1.00  0.00    -0.200 F 
ATOM     70  C   UNL A   1      38.085  33.653  38.471  1.00  0.00     0.200 A 
ATOM     71  F   UNL A   1      39.422  35.513  37.897  1.00  0.00    -0.200 F 
ATOM     72  F   UNL A   1      37.576  34.323  39.515  1.00  0.00    -0.200 F 
ENDBRANCH  39  62
ENDBRANCH  13  14
ENDBRANCH   6   8
ENDBRANCH   5   6
ENDBRANCH   4   5
ENDBRANCH   3   4
ENDBRANCH   2   3
ENDBRANCH   1   2
BRANCH   1  73
ATOM     73  C   UNL A   1      45.192  19.615  24.101  1.00  0.00     0.188 C 
BRANCH  73  74
ATOM     74  O   UNL A   1      43.812  19.304  24.289  1.00  0.00    -0.376 OA
BRANCH  74  75
ATOM     75  C   UNL A   1      43.405  18.963  25.617  1.00  0.00     0.202 C 
BRANCH  75  76
ATOM     76  C   UNL A   1      41.908  19.097  25.917  1.00  0.00     0.261 C 
BRANCH  76  77
ATOM     77  O   UNL A   1      41.445  20.455  25.808  1.00  0.00    -0.460 OA
BRANCH  77  78
ATOM     78  C   UNL A   1      40.752  20.884  26.886  1.00  0.00     0.338 C 
ATOM     79  O   UNL A   1      40.775  20.382  28.006  1.00  0.00    -0.246 OA
BRANCH  78  80
ATOM     80  C   UNL A   1      39.903  22.051  26.563  1.00  0.00     0.062 A 
ATOM     81  C   UNL A   1      40.112  23.317  27.121  1.00  0.00     0.016 A 
ATOM     82  C   UNL A   1      38.768  21.817  25.780  1.00  0.00     0.041 A 
ATOM     83  C   UNL A   1      39.181  24.336  26.911  1.00  0.00     0.003 A 
ATOM     84  C   UNL A   1      37.822  22.826  25.584  1.00  0.00     0.039 A 
ATOM     85  C   UNL A   1      38.035  24.083  26.159  1.00  0.00     0.026 A 
BRANCH  84  86
ATOM     86  N   UNL A   1      36.567  22.534  25.011  1.00  0.00    -0.355 N 
ATOM     87  H   UNL A   1      36.518  22.232  24.076  1.00  0.00     0.167 HD
BRANCH  86  88
ATOM     88  C   UNL A   1      35.371  22.671  25.768  1.00  0.00     0.050 A 
ATOM     89  C   UNL A   1      35.042  21.697  26.716  1.00  0.00     0.047 A 
ATOM     90  C   UNL A   1      34.476  23.737  25.541  1.00  0.00     0.027 A 
ATOM     91  C   UNL A   1      33.882  21.845  27.443  1.00  0.00     0.114 A 
ATOM     92  C   UNL A   1      33.312  23.787  26.343  1.00  0.00     0.072 A 
ATOM     93  C   UNL A   1      34.707  24.757  24.593  1.00  0.00     0.051 A 
ATOM     94  N   UNL A   1      33.024  22.866  27.276  1.00  0.00    -0.256 NA
ATOM     95  C   UNL A   1      32.426  24.840  26.173  1.00  0.00     0.032 A 
ATOM     96  C   UNL A   1      33.795  25.796  24.451  1.00  0.00     0.124 A 
ATOM     97  C   UNL A   1      32.653  25.846  25.233  1.00  0.00     0.041 A 
ATOM     98  F   UNL A   1      34.025  26.764  23.556  1.00  0.00    -0.207 F 
ENDBRANCH  86  88
ENDBRANCH  84  86
ENDBRANCH  78  80
ENDBRANCH  77  78
ENDBRANCH  76  77
ENDBRANCH  75  76
ENDBRANCH  74  75
ENDBRANCH  73  74
ENDBRANCH   1  73
TORSDOF 19
ENDMDL
