MODEL 1
REMARK VINA RESULT:     -10.5      0.000      0.000
REMARK SMILES O=C(OCCOCCOCCOC(=O)[C@@H](CCCCl)[P@TB4](=O)(c1ccccc1)c1ccccc1)c1ccc(-c2c3nc(c(-c4c(F)c(F)c(F)c(F)c4F)c4ccc([nH]4)c(-c4c(F)c(F)c(F)c(F)c4F)c4nc(c(-c5c(F)c(F)c(F)c(F)c5F)c5ccc2[nH]5)C=C4)C=C3)cc1
REMARK SMILES IDX 8 1 7 2 6 3 5 4 4 5 3 6 2 7 1 8 34 9 35 10 96 11 36 12 95 13
REMARK SMILES IDX 37 14 38 15 39 16 89 17 40 18 94 19 88 20 90 21 41 22 93 23
REMARK SMILES IDX 87 24 86 25 42 27 74 28 54 29 73 30 55 31 58 32 72 33 91 34
REMARK SMILES IDX 56 35 57 36 71 38 92 39 59 40 43 41 44 42 52 43 45 44 46 45
REMARK SMILES IDX 50 46 53 47 47 48 48 49 51 50 49 51 75 52 76 53 84 54 77 55
REMARK SMILES IDX 78 56 82 57 85 58 79 59 80 60 83 61 81 62 60 63 61 64 69 65
REMARK SMILES IDX 62 66 63 67 67 68 70 69 64 70 65 71 68 72 66 73 9 74 10 75
REMARK SMILES IDX 11 76 12 77 13 78 14 79 15 80 16 81 17 82 18 83 19 84 20 85
REMARK SMILES IDX 21 86 22 87 23 88 27 89 24 90 26 91 25 92 28 93 29 94 33 95
REMARK SMILES IDX 30 96 32 97 31 98
REMARK H PARENT 90 26 58 37
REMARK Flexibility Score: inf
ROOT
ATOM      1  C   UNL A   1      33.232  28.662  23.130  1.00  0.00       nan C 
ENDROOT
BRANCH   1   2
ATOM      2  C   UNL A   1      31.721  28.908  23.131  1.00  0.00       nan C 
BRANCH   2   3
ATOM      3  O   UNL A   1      31.093  28.966  24.413  1.00  0.00       nan OA
BRANCH   3   4
ATOM      4  C   UNL A   1      31.352  30.154  25.146  1.00  0.00       nan C 
BRANCH   4   5
ATOM      5  C   UNL A   1      32.295  29.970  26.342  1.00  0.00       nan C 
BRANCH   5   6
ATOM      6  O   UNL A   1      32.423  31.076  27.260  1.00  0.00       inf OA
BRANCH   6   7
ATOM      7  C   UNL A   1      33.479  31.859  27.584  1.00  0.00     0.338 C 
ATOM      8  O   UNL A   1      33.305  33.078  27.611  1.00  0.00    -0.246 OA
BRANCH   7   9
ATOM      9  C   UNL A   1      34.826  31.343  27.992  1.00  0.00     0.060 A 
ATOM     10  C   UNL A   1      35.113  30.027  28.339  1.00  0.00     0.016 A 
ATOM     11  C   UNL A   1      35.880  32.283  28.075  1.00  0.00     0.016 A 
ATOM     12  C   UNL A   1      36.395  29.666  28.765  1.00  0.00     0.010 A 
ATOM     13  C   UNL A   1      37.168  31.927  28.514  1.00  0.00     0.010 A 
ATOM     14  C   UNL A   1      37.433  30.608  28.874  1.00  0.00    -0.014 A 
BRANCH  14  15
ATOM     15  C   UNL A   1      38.682  30.147  29.535  1.00  0.00     0.031 A 
ATOM     16  C   UNL A   1      38.915  30.555  30.936  1.00  0.00     0.074 A 
ATOM     17  C   UNL A   1      39.640  29.398  28.961  1.00  0.00     0.049 A 
ATOM     18  N   UNL A   1      39.867  30.169  31.735  1.00  0.00    -0.248 NA
ATOM     19  C   UNL A   1      38.024  31.593  31.469  1.00  0.00     0.031 C 
ATOM     20  C   UNL A   1      39.781  29.269  27.537  1.00  0.00     0.029 A 
ATOM     21  N   UNL A   1      40.678  28.631  29.470  1.00  0.00    -0.354 N 
ATOM     22  C   UNL A   1      39.735  30.957  32.852  1.00  0.00     0.074 A 
ATOM     23  C   UNL A   1      38.576  31.808  32.651  1.00  0.00     0.031 C 
ATOM     24  C   UNL A   1      40.794  28.427  27.293  1.00  0.00     0.029 A 
ATOM     25  C   UNL A   1      41.273  27.829  28.511  1.00  0.00     0.049 A 
ATOM     26  H   UNL A   1      40.961  28.654  30.413  1.00  0.00     0.167 HD
ATOM     27  C   UNL A   1      40.566  31.004  33.913  1.00  0.00     0.037 A 
ATOM     28  C   UNL A   1      42.069  26.733  28.582  1.00  0.00     0.037 A 
ATOM     29  C   UNL A   1      41.781  30.238  34.029  1.00  0.00     0.049 A 
ATOM     30  C   UNL A   1      42.854  26.640  29.848  1.00  0.00     0.074 A 
ATOM     31  C   UNL A   1      42.716  30.268  35.046  1.00  0.00     0.029 A 
ATOM     32  N   UNL A   1      42.255  29.331  33.083  1.00  0.00    -0.354 N 
ATOM     33  N   UNL A   1      42.712  27.370  30.924  1.00  0.00    -0.248 NA
ATOM     34  C   UNL A   1      44.020  25.749  29.856  1.00  0.00     0.031 C 
ATOM     35  C   UNL A   1      43.764  29.405  34.707  1.00  0.00     0.029 A 
ATOM     36  C   UNL A   1      43.459  28.782  33.508  1.00  0.00     0.049 A 
ATOM     37  H   UNL A   1      41.802  29.111  32.236  1.00  0.00     0.167 HD
ATOM     38  C   UNL A   1      43.825  27.120  31.692  1.00  0.00     0.074 A 
ATOM     39  C   UNL A   1      44.582  26.080  31.012  1.00  0.00     0.031 C 
ATOM     40  C   UNL A   1      44.210  27.759  32.820  1.00  0.00     0.037 A 
BRANCH  27  41
ATOM     41  C   UNL A   1      40.201  32.020  34.944  1.00  0.00     0.064 A 
ATOM     42  C   UNL A   1      40.809  33.285  34.970  1.00  0.00     0.173 A 
ATOM     43  C   UNL A   1      39.349  31.668  35.998  1.00  0.00     0.173 A 
ATOM     44  F   UNL A   1      41.687  33.632  34.016  1.00  0.00    -0.203 F 
ATOM     45  C   UNL A   1      40.605  34.147  36.042  1.00  0.00     0.198 A 
ATOM     46  C   UNL A   1      39.120  32.548  37.050  1.00  0.00     0.198 A 
ATOM     47  F   UNL A   1      38.783  30.452  36.035  1.00  0.00    -0.203 F 
ATOM     48  F   UNL A   1      41.274  35.307  36.100  1.00  0.00    -0.200 F 
ATOM     49  C   UNL A   1      39.758  33.780  37.077  1.00  0.00     0.200 A 
ATOM     50  F   UNL A   1      38.314  32.187  38.057  1.00  0.00    -0.200 F 
ATOM     51  F   UNL A   1      39.581  34.602  38.120  1.00  0.00    -0.200 F 
ENDBRANCH  27  41
BRANCH  28  52
ATOM     52  C   UNL A   1      42.275  25.738  27.463  1.00  0.00     0.064 A 
ATOM     53  C   UNL A   1      43.301  25.915  26.506  1.00  0.00     0.173 A 
ATOM     54  C   UNL A   1      41.484  24.592  27.294  1.00  0.00     0.173 A 
ATOM     55  F   UNL A   1      44.058  27.023  26.531  1.00  0.00    -0.203 F 
ATOM     56  C   UNL A   1      43.534  24.985  25.481  1.00  0.00     0.198 A 
ATOM     57  C   UNL A   1      41.769  23.624  26.326  1.00  0.00     0.198 A 
ATOM     58  F   UNL A   1      40.392  24.410  28.049  1.00  0.00    -0.203 F 
ATOM     59  F   UNL A   1      44.468  25.229  24.550  1.00  0.00    -0.200 F 
ATOM     60  C   UNL A   1      42.788  23.824  25.413  1.00  0.00     0.200 A 
ATOM     61  F   UNL A   1      41.032  22.505  26.272  1.00  0.00    -0.200 F 
ATOM     62  F   UNL A   1      43.016  22.923  24.446  1.00  0.00    -0.200 F 
ENDBRANCH  28  52
BRANCH  40  63
ATOM     63  C   UNL A   1      45.496  27.285  33.411  1.00  0.00     0.064 A 
ATOM     64  C   UNL A   1      45.549  26.235  34.340  1.00  0.00     0.173 A 
ATOM     65  C   UNL A   1      46.685  27.948  33.085  1.00  0.00     0.173 A 
ATOM     66  F   UNL A   1      44.427  25.603  34.715  1.00  0.00    -0.203 F 
ATOM     67  C   UNL A   1      46.751  25.889  34.949  1.00  0.00     0.198 A 
ATOM     68  C   UNL A   1      47.888  27.579  33.672  1.00  0.00     0.198 A 
ATOM     69  F   UNL A   1      46.671  28.970  32.216  1.00  0.00    -0.203 F 
ATOM     70  F   UNL A   1      46.775  24.936  35.891  1.00  0.00    -0.200 F 
ATOM     71  C   UNL A   1      47.919  26.558  34.611  1.00  0.00     0.200 A 
ATOM     72  F   UNL A   1      49.013  28.230  33.348  1.00  0.00    -0.200 F 
ATOM     73  F   UNL A   1      49.074  26.235  35.209  1.00  0.00    -0.200 F 
ENDBRANCH  40  63
ENDBRANCH  14  15
ENDBRANCH   7   9
ENDBRANCH   6   7
ENDBRANCH   5   6
ENDBRANCH   4   5
ENDBRANCH   3   4
ENDBRANCH   2   3
ENDBRANCH   1   2
BRANCH   1  74
ATOM     74  O   UNL A   1      33.644  27.693  22.173  1.00  0.00       nan OA
BRANCH  74  75
ATOM     75  C   UNL A   1      32.661  26.683  21.944  1.00  0.00       nan C 
BRANCH  75  76
ATOM     76  C   UNL A   1      33.178  25.243  22.041  1.00  0.00       nan C 
BRANCH  76  77
ATOM     77  O   UNL A   1      32.218  24.172  21.962  1.00  0.00       nan OA
BRANCH  77  78
ATOM     78  C   UNL A   1      31.675  23.708  23.120  1.00  0.00       nan C 
ATOM     79  O   UNL A   1      30.483  23.714  23.364  1.00  0.00       nan OA
BRANCH  78  80
ATOM     80  C   UNL A   1      32.752  23.329  24.154  1.00  0.00       nan C 
BRANCH  80  81
ATOM     81  C   UNL A   1      32.568  23.929  25.557  1.00  0.00       nan C 
BRANCH  81  82
ATOM     82  C   UNL A   1      31.919  23.040  26.631  1.00  0.00       nan C 
BRANCH  82  83
ATOM     83  C   UNL A   1      32.690  22.495  27.840  1.00  0.00       nan C 
ATOM     84  Cl  UNL A   1      34.465  22.574  27.793  1.00  0.00       nan Cl
ENDBRANCH  82  83
ENDBRANCH  81  82
ENDBRANCH  80  81
BRANCH  80  85
ATOM     85  P   UNL A   1      32.770  21.503  24.254  1.00  0.00       nan P 
ATOM     86  O   UNL A   1      32.241  21.376  22.806  1.00  0.00       nan OA
BRANCH  85  87
ATOM     87  C   UNL A   1      34.735  21.618  24.344  1.00  0.00       nan A 
ATOM     88  C   UNL A   1      35.385  22.749  23.807  1.00  0.00       nan A 
ATOM     89  C   UNL A   1      35.491  20.614  24.971  1.00  0.00       nan A 
ATOM     90  C   UNL A   1      36.775  22.849  23.863  1.00  0.00       nan A 
ATOM     91  C   UNL A   1      36.874  20.765  25.086  1.00  0.00       nan A 
ATOM     92  C   UNL A   1      37.517  21.868  24.520  1.00  0.00       nan A 
ENDBRANCH  85  87
BRANCH  85  93
ATOM     93  C   UNL A   1      32.786  19.675  24.353  1.00  0.00       nan A 
ATOM     94  C   UNL A   1      32.696  18.953  25.564  1.00  0.00       nan A 
ATOM     95  C   UNL A   1      32.855  18.872  23.190  1.00  0.00       nan A 
ATOM     96  C   UNL A   1      32.771  17.553  25.618  1.00  0.00       nan A 
ATOM     97  C   UNL A   1      32.836  17.470  23.229  1.00  0.00       nan A 
ATOM     98  C   UNL A   1      32.824  16.810  24.448  1.00  0.00       nan A 
ENDBRANCH  85  93
ENDBRANCH  80  85
ENDBRANCH  78  80
ENDBRANCH  77  78
ENDBRANCH  76  77
ENDBRANCH  75  76
ENDBRANCH  74  75
ENDBRANCH   1  74
TORSDOF 23
ENDMDL
MODEL 2
REMARK VINA RESULT:     -10.5      3.978      9.404
REMARK SMILES O=C(OCCOCCOCCOC(=O)[C@@H](CCCCl)[P@TB4](=O)(c1ccccc1)c1ccccc1)c1ccc(-c2c3nc(c(-c4c(F)c(F)c(F)c(F)c4F)c4ccc([nH]4)c(-c4c(F)c(F)c(F)c(F)c4F)c4nc(c(-c5c(F)c(F)c(F)c(F)c5F)c5ccc2[nH]5)C=C4)C=C3)cc1
REMARK SMILES IDX 8 1 7 2 6 3 5 4 4 5 3 6 2 7 1 8 34 9 35 10 96 11 36 12 95 13
REMARK SMILES IDX 37 14 38 15 39 16 89 17 40 18 94 19 88 20 90 21 41 22 93 23
REMARK SMILES IDX 87 24 86 25 42 27 74 28 54 29 73 30 55 31 58 32 72 33 91 34
REMARK SMILES IDX 56 35 57 36 71 38 92 39 59 40 43 41 44 42 52 43 45 44 46 45
REMARK SMILES IDX 50 46 53 47 47 48 48 49 51 50 49 51 75 52 76 53 84 54 77 55
REMARK SMILES IDX 78 56 82 57 85 58 79 59 80 60 83 61 81 62 60 63 61 64 69 65
REMARK SMILES IDX 62 66 63 67 67 68 70 69 64 70 65 71 68 72 66 73 9 74 10 75
REMARK SMILES IDX 11 76 12 77 13 78 14 79 15 80 16 81 17 82 18 83 19 84 20 85
REMARK SMILES IDX 21 86 22 87 23 88 27 89 24 90 26 91 25 92 28 93 29 94 33 95
REMARK SMILES IDX 30 96 32 97 31 98
REMARK H PARENT 90 26 58 37
REMARK Flexibility Score: inf
ROOT
ATOM      1  C   UNL A   1      34.729  21.953  26.714  1.00  0.00       nan C 
ENDROOT
BRANCH   1   2
ATOM      2  C   UNL A   1      35.389  23.076  25.911  1.00  0.00       nan C 
BRANCH   2   3
ATOM      3  O   UNL A   1      35.486  22.871  24.501  1.00  0.00       nan OA
BRANCH   3   4
ATOM      4  C   UNL A   1      36.805  22.643  24.025  1.00  0.00       nan C 
BRANCH   4   5
ATOM      5  C   UNL A   1      37.409  21.299  24.448  1.00  0.00       nan C 
BRANCH   5   6
ATOM      6  O   UNL A   1      38.029  21.230  25.750  1.00  0.00       inf OA
BRANCH   6   7
ATOM      7  C   UNL A   1      39.278  21.540  26.169  1.00  0.00     0.338 C 
ATOM      8  O   UNL A   1      40.174  20.721  25.965  1.00  0.00    -0.246 OA
BRANCH   7   9
ATOM      9  C   UNL A   1      39.664  22.846  26.795  1.00  0.00     0.060 A 
ATOM     10  C   UNL A   1      39.110  24.084  26.484  1.00  0.00     0.016 A 
ATOM     11  C   UNL A   1      40.711  22.823  27.746  1.00  0.00     0.016 A 
ATOM     12  C   UNL A   1      39.589  25.251  27.086  1.00  0.00     0.010 A 
ATOM     13  C   UNL A   1      41.205  23.996  28.345  1.00  0.00     0.010 A 
ATOM     14  C   UNL A   1      40.649  25.228  28.009  1.00  0.00    -0.014 A 
BRANCH  14  15
ATOM     15  C   UNL A   1      41.206  26.545  28.416  1.00  0.00     0.031 A 
ATOM     16  C   UNL A   1      42.564  26.895  27.952  1.00  0.00     0.074 A 
ATOM     17  C   UNL A   1      40.584  27.450  29.192  1.00  0.00     0.049 A 
ATOM     18  N   UNL A   1      43.188  28.030  28.085  1.00  0.00    -0.248 NA
ATOM     19  C   UNL A   1      43.348  25.809  27.352  1.00  0.00     0.031 C 
ATOM     20  C   UNL A   1      39.479  27.117  30.048  1.00  0.00     0.029 A 
ATOM     21  N   UNL A   1      40.784  28.805  29.417  1.00  0.00    -0.354 N 
ATOM     22  C   UNL A   1      44.464  27.788  27.640  1.00  0.00     0.074 A 
ATOM     23  C   UNL A   1      44.513  26.412  27.182  1.00  0.00     0.031 C 
ATOM     24  C   UNL A   1      39.063  28.240  30.647  1.00  0.00     0.029 A 
ATOM     25  C   UNL A   1      39.743  29.391  30.117  1.00  0.00     0.049 A 
ATOM     26  H   UNL A   1      41.580  29.296  29.112  1.00  0.00     0.167 HD
ATOM     27  C   UNL A   1      45.513  28.635  27.689  1.00  0.00     0.037 A 
ATOM     28  C   UNL A   1      39.350  30.678  30.289  1.00  0.00     0.037 A 
ATOM     29  C   UNL A   1      45.468  29.953  28.266  1.00  0.00     0.049 A 
ATOM     30  C   UNL A   1      40.455  31.670  30.139  1.00  0.00     0.074 A 
ATOM     31  C   UNL A   1      46.502  30.859  28.411  1.00  0.00     0.029 A 
ATOM     32  N   UNL A   1      44.340  30.547  28.831  1.00  0.00    -0.354 N 
ATOM     33  N   UNL A   1      41.662  31.449  29.689  1.00  0.00    -0.248 NA
ATOM     34  C   UNL A   1      40.240  33.010  30.696  1.00  0.00     0.031 C 
ATOM     35  C   UNL A   1      46.011  31.984  29.084  1.00  0.00     0.029 A 
ATOM     36  C   UNL A   1      44.654  31.816  29.305  1.00  0.00     0.049 A 
ATOM     37  H   UNL A   1      43.450  30.129  28.886  1.00  0.00     0.167 HD
ATOM     38  C   UNL A   1      42.390  32.572  30.009  1.00  0.00     0.074 A 
ATOM     39  C   UNL A   1      41.458  33.526  30.590  1.00  0.00     0.031 C 
ATOM     40  C   UNL A   1      43.725  32.751  29.893  1.00  0.00     0.037 A 
BRANCH  27  41
ATOM     41  C   UNL A   1      46.799  28.059  27.197  1.00  0.00     0.064 A 
ATOM     42  C   UNL A   1      47.160  28.130  25.841  1.00  0.00     0.173 A 
ATOM     43  C   UNL A   1      47.600  27.301  28.060  1.00  0.00     0.173 A 
ATOM     44  F   UNL A   1      46.379  28.787  24.968  1.00  0.00    -0.203 F 
ATOM     45  C   UNL A   1      48.259  27.426  25.362  1.00  0.00     0.198 A 
ATOM     46  C   UNL A   1      48.719  26.628  27.583  1.00  0.00     0.198 A 
ATOM     47  F   UNL A   1      47.267  27.170  29.353  1.00  0.00    -0.203 F 
ATOM     48  F   UNL A   1      48.528  27.422  24.049  1.00  0.00    -0.200 F 
ATOM     49  C   UNL A   1      49.039  26.680  26.234  1.00  0.00     0.200 A 
ATOM     50  F   UNL A   1      49.464  25.896  28.421  1.00  0.00    -0.200 F 
ATOM     51  F   UNL A   1      50.084  25.984  25.767  1.00  0.00    -0.200 F 
ENDBRANCH  27  41
BRANCH  28  52
ATOM     52  C   UNL A   1      37.967  31.112  30.718  1.00  0.00     0.064 A 
ATOM     53  C   UNL A   1      37.674  31.385  32.074  1.00  0.00     0.173 A 
ATOM     54  C   UNL A   1      36.897  31.271  29.826  1.00  0.00     0.173 A 
ATOM     55  F   UNL A   1      38.607  31.181  33.017  1.00  0.00    -0.203 F 
ATOM     56  C   UNL A   1      36.408  31.825  32.490  1.00  0.00     0.198 A 
ATOM     57  C   UNL A   1      35.661  31.789  30.226  1.00  0.00     0.198 A 
ATOM     58  F   UNL A   1      37.024  30.890  28.547  1.00  0.00    -0.203 F 
ATOM     59  F   UNL A   1      36.150  32.000  33.794  1.00  0.00    -0.200 F 
ATOM     60  C   UNL A   1      35.412  32.057  31.559  1.00  0.00     0.200 A 
ATOM     61  F   UNL A   1      34.706  32.005  29.310  1.00  0.00    -0.200 F 
ATOM     62  F   UNL A   1      34.204  32.493  31.947  1.00  0.00    -0.200 F 
ENDBRANCH  28  52
BRANCH  40  63
ATOM     63  C   UNL A   1      44.231  34.075  30.362  1.00  0.00     0.064 A 
ATOM     64  C   UNL A   1      44.299  35.192  29.515  1.00  0.00     0.173 A 
ATOM     65  C   UNL A   1      44.719  34.198  31.668  1.00  0.00     0.173 A 
ATOM     66  F   UNL A   1      43.883  35.104  28.242  1.00  0.00    -0.203 F 
ATOM     67  C   UNL A   1      44.872  36.380  29.956  1.00  0.00     0.198 A 
ATOM     68  C   UNL A   1      45.263  35.396  32.113  1.00  0.00     0.198 A 
ATOM     69  F   UNL A   1      44.690  33.146  32.500  1.00  0.00    -0.203 F 
ATOM     70  F   UNL A   1      45.000  37.415  29.113  1.00  0.00    -0.200 F 
ATOM     71  C   UNL A   1      45.350  36.482  31.255  1.00  0.00     0.200 A 
ATOM     72  F   UNL A   1      45.727  35.489  33.366  1.00  0.00    -0.200 F 
ATOM     73  F   UNL A   1      45.916  37.621  31.673  1.00  0.00    -0.200 F 
ENDBRANCH  40  63
ENDBRANCH  14  15
ENDBRANCH   7   9
ENDBRANCH   6   7
ENDBRANCH   5   6
ENDBRANCH   4   5
ENDBRANCH   3   4
ENDBRANCH   2   3
ENDBRANCH   1   2
BRANCH   1  74
ATOM     74  O   UNL A   1      33.309  22.038  26.738  1.00  0.00       nan OA
BRANCH  74  75
ATOM     75  C   UNL A   1      32.684  21.197  25.768  1.00  0.00       nan C 
BRANCH  75  76
ATOM     76  C   UNL A   1      31.902  21.938  24.677  1.00  0.00       nan C 
BRANCH  76  77
ATOM     77  O   UNL A   1      31.042  23.022  25.077  1.00  0.00       nan OA
BRANCH  77  78
ATOM     78  C   UNL A   1      30.872  24.060  24.215  1.00  0.00       nan C 
ATOM     79  O   UNL A   1      30.464  23.939  23.074  1.00  0.00       nan OA
BRANCH  78  80
ATOM     80  C   UNL A   1      31.413  25.384  24.788  1.00  0.00       nan C 
BRANCH  80  81
ATOM     81  C   UNL A   1      32.924  25.614  24.617  1.00  0.00       nan C 
BRANCH  81  82
ATOM     82  C   UNL A   1      33.394  26.340  23.346  1.00  0.00       nan C 
BRANCH  82  83
ATOM     83  C   UNL A   1      33.643  25.616  22.017  1.00  0.00       nan C 
ATOM     84  Cl  UNL A   1      32.345  25.643  20.804  1.00  0.00       nan Cl
ENDBRANCH  82  83
ENDBRANCH  81  82
ENDBRANCH  80  81
BRANCH  80  85
ATOM     85  P   UNL A   1      30.481  26.732  23.974  1.00  0.00       nan P 
ATOM     86  O   UNL A   1      29.130  26.100  24.382  1.00  0.00       nan OA
BRANCH  85  87
ATOM     87  C   UNL A   1      31.209  27.941  25.351  1.00  0.00       nan A 
ATOM     88  C   UNL A   1      31.667  29.221  24.971  1.00  0.00       nan A 
ATOM     89  C   UNL A   1      31.239  27.564  26.702  1.00  0.00       nan A 
ATOM     90  C   UNL A   1      32.183  30.091  25.931  1.00  0.00       nan A 
ATOM     91  C   UNL A   1      31.688  28.474  27.661  1.00  0.00       nan A 
ATOM     92  C   UNL A   1      32.175  29.726  27.276  1.00  0.00       nan A 
ENDBRANCH  85  87
BRANCH  85  93
ATOM     93  C   UNL A   1      29.548  28.080  23.160  1.00  0.00       nan A 
ATOM     94  C   UNL A   1      28.170  28.315  23.362  1.00  0.00       nan A 
ATOM     95  C   UNL A   1      30.184  29.000  22.294  1.00  0.00       nan A 
ATOM     96  C   UNL A   1      27.466  29.319  22.681  1.00  0.00       nan A 
ATOM     97  C   UNL A   1      29.506  30.064  21.681  1.00  0.00       nan A 
ATOM     98  C   UNL A   1      28.138  30.204  21.851  1.00  0.00       nan A 
ENDBRANCH  85  93
ENDBRANCH  80  85
ENDBRANCH  78  80
ENDBRANCH  77  78
ENDBRANCH  76  77
ENDBRANCH  75  76
ENDBRANCH  74  75
ENDBRANCH   1  74
TORSDOF 23
ENDMDL
MODEL 3
REMARK VINA RESULT:     -10.3      4.736     10.157
REMARK SMILES O=C(OCCOCCOCCOC(=O)[C@@H](CCCCl)[P@TB4](=O)(c1ccccc1)c1ccccc1)c1ccc(-c2c3nc(c(-c4c(F)c(F)c(F)c(F)c4F)c4ccc([nH]4)c(-c4c(F)c(F)c(F)c(F)c4F)c4nc(c(-c5c(F)c(F)c(F)c(F)c5F)c5ccc2[nH]5)C=C4)C=C3)cc1
REMARK SMILES IDX 8 1 7 2 6 3 5 4 4 5 3 6 2 7 1 8 34 9 35 10 96 11 36 12 95 13
REMARK SMILES IDX 37 14 38 15 39 16 89 17 40 18 94 19 88 20 90 21 41 22 93 23
REMARK SMILES IDX 87 24 86 25 42 27 74 28 54 29 73 30 55 31 58 32 72 33 91 34
REMARK SMILES IDX 56 35 57 36 71 38 92 39 59 40 43 41 44 42 52 43 45 44 46 45
REMARK SMILES IDX 50 46 53 47 47 48 48 49 51 50 49 51 75 52 76 53 84 54 77 55
REMARK SMILES IDX 78 56 82 57 85 58 79 59 80 60 83 61 81 62 60 63 61 64 69 65
REMARK SMILES IDX 62 66 63 67 67 68 70 69 64 70 65 71 68 72 66 73 9 74 10 75
REMARK SMILES IDX 11 76 12 77 13 78 14 79 15 80 16 81 17 82 18 83 19 84 20 85
REMARK SMILES IDX 21 86 22 87 23 88 27 89 24 90 26 91 25 92 28 93 29 94 33 95
REMARK SMILES IDX 30 96 32 97 31 98
REMARK H PARENT 90 26 58 37
REMARK Flexibility Score: inf
ROOT
ATOM      1  C   UNL A   1      34.916  21.243  25.357  1.00  0.00       nan C 
ENDROOT
BRANCH   1   2
ATOM      2  C   UNL A   1      36.365  21.730  25.416  1.00  0.00       nan C 
BRANCH   2   3
ATOM      3  O   UNL A   1      37.269  21.138  24.482  1.00  0.00       nan OA
BRANCH   3   4
ATOM      4  C   UNL A   1      37.994  20.024  24.983  1.00  0.00       nan C 
BRANCH   4   5
ATOM      5  C   UNL A   1      39.248  20.392  25.784  1.00  0.00       nan C 
BRANCH   5   6
ATOM      6  O   UNL A   1      40.314  19.420  25.829  1.00  0.00       inf OA
BRANCH   6   7
ATOM      7  C   UNL A   1      41.651  19.557  25.991  1.00  0.00     0.338 C 
ATOM      8  O   UNL A   1      42.360  18.570  25.789  1.00  0.00    -0.246 OA
BRANCH   7   9
ATOM      9  C   UNL A   1      42.339  20.847  26.321  1.00  0.00     0.060 A 
ATOM     10  C   UNL A   1      42.651  21.289  27.602  1.00  0.00     0.016 A 
ATOM     11  C   UNL A   1      42.653  21.706  25.242  1.00  0.00     0.016 A 
ATOM     12  C   UNL A   1      43.239  22.541  27.801  1.00  0.00     0.010 A 
ATOM     13  C   UNL A   1      43.234  22.973  25.437  1.00  0.00     0.010 A 
ATOM     14  C   UNL A   1      43.524  23.406  26.729  1.00  0.00    -0.014 A 
BRANCH  14  15
ATOM     15  C   UNL A   1      43.951  24.785  27.083  1.00  0.00     0.031 A 
ATOM     16  C   UNL A   1      45.299  25.221  26.664  1.00  0.00     0.074 A 
ATOM     17  C   UNL A   1      43.219  25.677  27.773  1.00  0.00     0.049 A 
ATOM     18  N   UNL A   1      45.822  26.410  26.758  1.00  0.00    -0.248 NA
ATOM     19  C   UNL A   1      46.198  24.173  26.167  1.00  0.00     0.031 C 
ATOM     20  C   UNL A   1      42.100  25.300  28.593  1.00  0.00     0.029 A 
ATOM     21  N   UNL A   1      43.296  27.054  27.926  1.00  0.00    -0.354 N 
ATOM     22  C   UNL A   1      47.135  26.251  26.390  1.00  0.00     0.074 A 
ATOM     23  C   UNL A   1      47.318  24.860  26.018  1.00  0.00     0.031 C 
ATOM     24  C   UNL A   1      41.564  26.417  29.104  1.00  0.00     0.029 A 
ATOM     25  C   UNL A   1      42.177  27.590  28.539  1.00  0.00     0.049 A 
ATOM     26  H   UNL A   1      44.066  27.592  27.630  1.00  0.00     0.167 HD
ATOM     27  C   UNL A   1      48.108  27.183  26.438  1.00  0.00     0.037 A 
ATOM     28  C   UNL A   1      41.673  28.846  28.615  1.00  0.00     0.037 A 
ATOM     29  C   UNL A   1      47.926  28.523  26.933  1.00  0.00     0.049 A 
ATOM     30  C   UNL A   1      42.700  29.917  28.459  1.00  0.00     0.074 A 
ATOM     31  C   UNL A   1      48.875  29.519  27.072  1.00  0.00     0.029 A 
ATOM     32  N   UNL A   1      46.727  29.052  27.407  1.00  0.00    -0.354 N 
ATOM     33  N   UNL A   1      43.944  29.773  28.081  1.00  0.00    -0.248 NA
ATOM     34  C   UNL A   1      42.349  31.264  28.924  1.00  0.00     0.031 C 
ATOM     35  C   UNL A   1      48.261  30.635  27.653  1.00  0.00     0.029 A 
ATOM     36  C   UNL A   1      46.912  30.366  27.818  1.00  0.00     0.049 A 
ATOM     37  H   UNL A   1      45.871  28.564  27.444  1.00  0.00     0.167 HD
ATOM     38  C   UNL A   1      44.560  30.969  28.367  1.00  0.00     0.074 A 
ATOM     39  C   UNL A   1      43.526  31.872  28.845  1.00  0.00     0.031 C 
ATOM     40  C   UNL A   1      45.881  31.252  28.304  1.00  0.00     0.037 A 
BRANCH  27  41
ATOM     41  C   UNL A   1      49.460  26.690  26.042  1.00  0.00     0.064 A 
ATOM     42  C   UNL A   1      50.347  26.151  26.989  1.00  0.00     0.173 A 
ATOM     43  C   UNL A   1      49.925  26.900  24.738  1.00  0.00     0.173 A 
ATOM     44  F   UNL A   1      49.961  26.002  28.266  1.00  0.00    -0.203 F 
ATOM     45  C   UNL A   1      51.666  25.876  26.649  1.00  0.00     0.198 A 
ATOM     46  C   UNL A   1      51.236  26.589  24.393  1.00  0.00     0.198 A 
ATOM     47  F   UNL A   1      49.126  27.454  23.815  1.00  0.00    -0.203 F 
ATOM     48  F   UNL A   1      52.524  25.458  27.589  1.00  0.00    -0.200 F 
ATOM     49  C   UNL A   1      52.107  26.090  25.351  1.00  0.00     0.200 A 
ATOM     50  F   UNL A   1      51.666  26.810  23.145  1.00  0.00    -0.200 F 
ATOM     51  F   UNL A   1      53.385  25.847  25.030  1.00  0.00    -0.200 F 
ENDBRANCH  27  41
BRANCH  28  52
ATOM     52  C   UNL A   1      40.238  29.186  28.951  1.00  0.00     0.064 A 
ATOM     53  C   UNL A   1      39.269  29.350  27.936  1.00  0.00     0.173 A 
ATOM     54  C   UNL A   1      39.773  29.361  30.263  1.00  0.00     0.173 A 
ATOM     55  F   UNL A   1      39.631  29.286  26.645  1.00  0.00    -0.203 F 
ATOM     56  C   UNL A   1      37.924  29.629  28.225  1.00  0.00     0.198 A 
ATOM     57  C   UNL A   1      38.420  29.555  30.556  1.00  0.00     0.198 A 
ATOM     58  F   UNL A   1      40.638  29.382  31.286  1.00  0.00    -0.203 F 
ATOM     59  F   UNL A   1      37.053  29.851  27.230  1.00  0.00    -0.200 F 
ATOM     60  C   UNL A   1      37.496  29.699  29.538  1.00  0.00     0.200 A 
ATOM     61  F   UNL A   1      38.023  29.623  31.834  1.00  0.00    -0.200 F 
ATOM     62  F   UNL A   1      36.209  29.949  29.822  1.00  0.00    -0.200 F 
ENDBRANCH  28  52
BRANCH  40  63
ATOM     63  C   UNL A   1      46.253  32.638  28.717  1.00  0.00     0.064 A 
ATOM     64  C   UNL A   1      46.252  33.712  27.814  1.00  0.00     0.173 A 
ATOM     65  C   UNL A   1      46.684  32.869  30.029  1.00  0.00     0.173 A 
ATOM     66  F   UNL A   1      45.890  33.524  26.536  1.00  0.00    -0.203 F 
ATOM     67  C   UNL A   1      46.705  34.968  28.208  1.00  0.00     0.198 A 
ATOM     68  C   UNL A   1      47.106  34.132  30.425  1.00  0.00     0.198 A 
ATOM     69  F   UNL A   1      46.719  31.863  30.914  1.00  0.00    -0.203 F 
ATOM     70  F   UNL A   1      46.771  35.966  27.315  1.00  0.00    -0.200 F 
ATOM     71  C   UNL A   1      47.127  35.176  29.513  1.00  0.00     0.200 A 
ATOM     72  F   UNL A   1      47.518  34.329  31.685  1.00  0.00    -0.200 F 
ATOM     73  F   UNL A   1      47.578  36.381  29.887  1.00  0.00    -0.200 F 
ENDBRANCH  40  63
ENDBRANCH  14  15
ENDBRANCH   7   9
ENDBRANCH   6   7
ENDBRANCH   5   6
ENDBRANCH   4   5
ENDBRANCH   3   4
ENDBRANCH   2   3
ENDBRANCH   1   2
BRANCH   1  74
ATOM     74  O   UNL A   1      33.974  22.295  25.183  1.00  0.00       nan OA
BRANCH  74  75
ATOM     75  C   UNL A   1      32.862  22.200  26.072  1.00  0.00       nan C 
BRANCH  75  76
ATOM     76  C   UNL A   1      31.493  22.100  25.388  1.00  0.00       nan C 
BRANCH  76  77
ATOM     77  O   UNL A   1      30.658  23.273  25.368  1.00  0.00       nan OA
BRANCH  77  78
ATOM     78  C   UNL A   1      30.748  24.109  24.299  1.00  0.00       nan C 
ATOM     79  O   UNL A   1      30.410  23.808  23.169  1.00  0.00       nan OA
BRANCH  78  80
ATOM     80  C   UNL A   1      31.480  25.419  24.647  1.00  0.00       nan C 
BRANCH  80  81
ATOM     81  C   UNL A   1      32.947  25.502  24.195  1.00  0.00       nan C 
BRANCH  81  82
ATOM     82  C   UNL A   1      33.223  25.949  22.750  1.00  0.00       nan C 
BRANCH  82  83
ATOM     83  C   UNL A   1      33.031  25.025  21.541  1.00  0.00       nan C 
ATOM     84  Cl  UNL A   1      33.431  23.306  21.741  1.00  0.00       nan Cl
ENDBRANCH  82  83
ENDBRANCH  81  82
ENDBRANCH  80  81
BRANCH  80  85
ATOM     85  P   UNL A   1      30.517  26.779  23.891  1.00  0.00       nan P 
ATOM     86  O   UNL A   1      29.184  26.154  24.363  1.00  0.00       nan OA
BRANCH  85  87
ATOM     87  C   UNL A   1      31.323  27.974  25.236  1.00  0.00       nan A 
ATOM     88  C   UNL A   1      31.343  27.574  26.589  1.00  0.00       nan A 
ATOM     89  C   UNL A   1      31.911  29.192  24.862  1.00  0.00       nan A 
ATOM     90  C   UNL A   1      31.910  28.406  27.555  1.00  0.00       nan A 
ATOM     91  C   UNL A   1      32.542  29.978  25.829  1.00  0.00       nan A 
ATOM     92  C   UNL A   1      32.526  29.596  27.173  1.00  0.00       nan A 
ENDBRANCH  85  87
BRANCH  85  93
ATOM     93  C   UNL A   1      29.554  28.139  23.134  1.00  0.00       nan A 
ATOM     94  C   UNL A   1      30.109  29.111  22.273  1.00  0.00       nan A 
ATOM     95  C   UNL A   1      28.161  28.267  23.350  1.00  0.00       nan A 
ATOM     96  C   UNL A   1      29.361  30.178  21.753  1.00  0.00       nan A 
ATOM     97  C   UNL A   1      27.388  29.277  22.759  1.00  0.00       nan A 
ATOM     98  C   UNL A   1      27.996  30.252  21.984  1.00  0.00       nan A 
ENDBRANCH  85  93
ENDBRANCH  80  85
ENDBRANCH  78  80
ENDBRANCH  77  78
ENDBRANCH  76  77
ENDBRANCH  75  76
ENDBRANCH  74  75
ENDBRANCH   1  74
TORSDOF 23
ENDMDL
