MODEL 1
REMARK VINA RESULT:     -11.1      0.000      0.000
REMARK SMILES O=C(CC1(NC(=O)c2ccncc2Cl)CCCCC1)OCCOCCOCCOC(=O)c1ccc(-c2c3nc(c(-c4c(F)c(F)c(F)c(F)c4F)c4ccc([nH]4)c(-c4c(F)c(F)c(F)c(F)c4F)c4nc(c(-c5c(F)c(F)c(F)c(F)c5F)c5ccc2[nH]5)C=C4)C=C3)cc1
REMARK SMILES IDX 24 1 23 2 22 3 21 4 20 5 2 6 1 7 3 8 4 9 15 10 19 11 16 12
REMARK SMILES IDX 18 13 17 14 5 15 6 16 7 18 8 19 9 20 13 21 10 22 12 23 14 24
REMARK SMILES IDX 11 25 25 26 26 27 27 28 28 29 29 30 30 31 31 32 32 33 33 34
REMARK SMILES IDX 94 35 34 36 93 37 35 38 36 39 37 40 87 41 38 42 92 43 86 44
REMARK SMILES IDX 88 45 39 46 91 47 85 48 84 49 40 51 72 52 52 53 71 54 53 55
REMARK SMILES IDX 56 56 70 57 89 58 54 59 55 60 69 62 90 63 57 64 41 65 42 66
REMARK SMILES IDX 50 67 43 68 44 69 48 70 51 71 45 72 46 73 49 74 47 75 73 76
REMARK SMILES IDX 74 77 82 78 75 79 76 80 80 81 83 82 77 83 78 84 81 85 79 86
REMARK SMILES IDX 58 87 59 88 67 89 60 90 61 91 65 92 68 93 62 94 63 95 66 96
REMARK SMILES IDX 64 97
REMARK H PARENT 5 17 88 50 56 61
REMARK Flexibility Score: inf
ROOT
ATOM      1  C   UNL A   1      32.869  28.052  26.971  1.00  0.00     0.188 C 
ENDROOT
BRANCH   1   2
ATOM      2  O   UNL A   1      32.336  27.359  25.836  1.00  0.00    -0.376 OA
BRANCH   2   3
ATOM      3  C   UNL A   1      31.579  26.204  26.191  1.00  0.00     0.202 C 
BRANCH   3   4
ATOM      4  C   UNL A   1      31.393  25.269  25.003  1.00  0.00     0.261 C 
BRANCH   4   5
ATOM      5  O   UNL A   1      31.186  23.900  25.410  1.00  0.00    -0.463 OA
BRANCH   5   6
ATOM      6  C   UNL A   1      31.814  23.311  26.457  1.00  0.00     0.308 C 
ATOM      7  O   UNL A   1      31.243  23.198  27.539  1.00  0.00    -0.252 OA
BRANCH   6   8
ATOM      8  C   UNL A   1      33.230  22.811  26.278  1.00  0.00     0.151 C 
BRANCH   8   9
ATOM      9  C   UNL A   1      33.471  21.729  25.187  1.00  0.00     0.051 C 
ATOM     10  C   UNL A   1      34.327  20.581  25.780  1.00  0.00     0.029 C 
ATOM     11  C   UNL A   1      32.135  21.071  24.726  1.00  0.00     0.029 C 
ATOM     12  C   UNL A   1      34.597  19.472  24.763  1.00  0.00     0.002 C 
ATOM     13  C   UNL A   1      32.313  19.896  23.760  1.00  0.00     0.002 C 
ATOM     14  C   UNL A   1      33.290  18.851  24.284  1.00  0.00     0.000 C 
BRANCH   9  15
ATOM     15  N   UNL A   1      34.160  22.289  23.971  1.00  0.00    -0.346 N 
ATOM     16  C   UNL A   1      35.449  22.642  23.655  1.00  0.00     0.253 C 
ATOM     17  H   UNL A   1      33.535  22.439  23.224  1.00  0.00     0.164 HD
ATOM     18  O   UNL A   1      35.738  22.944  22.501  1.00  0.00    -0.269 OA
BRANCH  16  19
ATOM     19  C   UNL A   1      36.452  22.837  24.696  1.00  0.00     0.061 A 
ATOM     20  C   UNL A   1      37.366  21.795  24.848  1.00  0.00     0.035 A 
ATOM     21  C   UNL A   1      36.524  23.963  25.504  1.00  0.00     0.072 A 
ATOM     22  C   UNL A   1      38.434  22.007  25.686  1.00  0.00     0.112 A 
ATOM     23  C   UNL A   1      37.650  24.087  26.297  1.00  0.00     0.132 A 
ATOM     24  Cl  UNL A   1      35.279  25.140  25.621  1.00  0.00    -0.082 Cl
ATOM     25  N   UNL A   1      38.619  23.147  26.376  1.00  0.00    -0.263 NA
ENDBRANCH  16  19
ENDBRANCH   9  15
ENDBRANCH   8   9
ENDBRANCH   6   8
ENDBRANCH   5   6
ENDBRANCH   4   5
ENDBRANCH   3   4
ENDBRANCH   2   3
ENDBRANCH   1   2
BRANCH   1  26
ATOM     26  C   UNL A   1      32.071  29.330  27.209  1.00  0.00     0.188 C 
BRANCH  26  27
ATOM     27  O   UNL A   1      32.198  30.263  26.134  1.00  0.00    -0.376 OA
BRANCH  27  28
ATOM     28  C   UNL A   1      31.225  31.312  26.121  1.00  0.00     0.202 C 
BRANCH  28  29
ATOM     29  C   UNL A   1      31.743  32.647  26.684  1.00  0.00     0.261 C 
BRANCH  29  30
ATOM     30  O   UNL A   1      32.628  32.456  27.812  1.00  0.00    -0.460 OA
BRANCH  30  31
ATOM     31  C   UNL A   1      33.594  33.390  27.987  1.00  0.00     0.338 C 
ATOM     32  O   UNL A   1      33.425  34.595  28.099  1.00  0.00    -0.246 OA
BRANCH  31  33
ATOM     33  C   UNL A   1      34.918  32.755  28.207  1.00  0.00     0.060 A 
ATOM     34  C   UNL A   1      34.945  31.373  28.433  1.00  0.00     0.016 A 
ATOM     35  C   UNL A   1      36.108  33.487  28.258  1.00  0.00     0.016 A 
ATOM     36  C   UNL A   1      36.141  30.730  28.764  1.00  0.00     0.010 A 
ATOM     37  C   UNL A   1      37.314  32.838  28.578  1.00  0.00     0.010 A 
ATOM     38  C   UNL A   1      37.331  31.464  28.882  1.00  0.00    -0.014 A 
BRANCH  38  39
ATOM     39  C   UNL A   1      38.504  30.831  29.551  1.00  0.00     0.031 A 
ATOM     40  C   UNL A   1      38.789  31.199  30.986  1.00  0.00     0.074 A 
ATOM     41  C   UNL A   1      39.263  29.889  28.959  1.00  0.00     0.049 A 
ATOM     42  N   UNL A   1      39.667  30.697  31.820  1.00  0.00    -0.248 NA
ATOM     43  C   UNL A   1      37.965  32.275  31.561  1.00  0.00     0.031 C 
ATOM     44  C   UNL A   1      39.113  29.410  27.588  1.00  0.00     0.029 A 
ATOM     45  N   UNL A   1      40.322  29.162  29.453  1.00  0.00    -0.354 N 
ATOM     46  C   UNL A   1      39.473  31.370  33.019  1.00  0.00     0.074 A 
ATOM     47  C   UNL A   1      38.451  32.366  32.787  1.00  0.00     0.031 C 
ATOM     48  C   UNL A   1      40.053  28.478  27.345  1.00  0.00     0.029 A 
ATOM     49  C   UNL A   1      40.869  28.287  28.547  1.00  0.00     0.049 A 
ATOM     50  H   UNL A   1      40.656  29.258  30.374  1.00  0.00     0.167 HD
ATOM     51  C   UNL A   1      40.059  31.159  34.222  1.00  0.00     0.037 A 
ATOM     52  C   UNL A   1      41.901  27.427  28.673  1.00  0.00     0.037 A 
ATOM     53  C   UNL A   1      41.092  30.195  34.478  1.00  0.00     0.049 A 
ATOM     54  C   UNL A   1      42.599  27.266  30.004  1.00  0.00     0.074 A 
ATOM     55  C   UNL A   1      41.744  29.922  35.668  1.00  0.00     0.029 A 
ATOM     56  N   UNL A   1      41.636  29.351  33.522  1.00  0.00    -0.354 N 
ATOM     57  N   UNL A   1      42.355  27.856  31.149  1.00  0.00    -0.248 NA
ATOM     58  C   UNL A   1      43.705  26.296  30.061  1.00  0.00     0.031 C 
ATOM     59  C   UNL A   1      42.713  28.944  35.424  1.00  0.00     0.029 A 
ATOM     60  C   UNL A   1      42.631  28.573  34.092  1.00  0.00     0.049 A 
ATOM     61  H   UNL A   1      41.358  29.311  32.579  1.00  0.00     0.167 HD
ATOM     62  C   UNL A   1      43.245  27.302  32.064  1.00  0.00     0.074 A 
ATOM     63  C   UNL A   1      44.026  26.320  31.347  1.00  0.00     0.031 C 
ATOM     64  C   UNL A   1      43.399  27.585  33.381  1.00  0.00     0.037 A 
BRANCH  51  65
ATOM     65  C   UNL A   1      39.576  31.999  35.366  1.00  0.00     0.064 A 
ATOM     66  C   UNL A   1      38.617  31.513  36.268  1.00  0.00     0.173 A 
ATOM     67  C   UNL A   1      40.081  33.290  35.572  1.00  0.00     0.173 A 
ATOM     68  F   UNL A   1      38.091  30.290  36.100  1.00  0.00    -0.203 F 
ATOM     69  C   UNL A   1      38.163  32.301  37.321  1.00  0.00     0.198 A 
ATOM     70  C   UNL A   1      39.645  34.064  36.643  1.00  0.00     0.198 A 
ATOM     71  F   UNL A   1      41.000  33.798  34.737  1.00  0.00    -0.203 F 
ATOM     72  F   UNL A   1      37.212  31.834  38.143  1.00  0.00    -0.200 F 
ATOM     73  C   UNL A   1      38.682  33.573  37.512  1.00  0.00     0.200 A 
ATOM     74  F   UNL A   1      40.153  35.290  36.831  1.00  0.00    -0.200 F 
ATOM     75  F   UNL A   1      38.246  34.329  38.528  1.00  0.00    -0.200 F 
ENDBRANCH  51  65
BRANCH  52  76
ATOM     76  C   UNL A   1      42.354  26.621  27.506  1.00  0.00     0.064 A 
ATOM     77  C   UNL A   1      41.823  25.347  27.251  1.00  0.00     0.173 A 
ATOM     78  C   UNL A   1      43.384  27.077  26.672  1.00  0.00     0.173 A 
ATOM     79  F   UNL A   1      40.859  24.852  28.042  1.00  0.00    -0.203 F 
ATOM     80  C   UNL A   1      42.330  24.548  26.227  1.00  0.00     0.198 A 
ATOM     81  C   UNL A   1      43.872  26.288  25.632  1.00  0.00     0.198 A 
ATOM     82  F   UNL A   1      43.931  28.284  26.881  1.00  0.00    -0.203 F 
ATOM     83  F   UNL A   1      41.852  23.310  26.048  1.00  0.00    -0.200 F 
ATOM     84  C   UNL A   1      43.352  25.021  25.418  1.00  0.00     0.200 A 
ATOM     85  F   UNL A   1      44.857  26.749  24.850  1.00  0.00    -0.200 F 
ATOM     86  F   UNL A   1      43.849  24.247  24.443  1.00  0.00    -0.200 F 
ENDBRANCH  52  76
BRANCH  64  87
ATOM     87  C   UNL A   1      44.423  26.798  34.151  1.00  0.00     0.064 A 
ATOM     88  C   UNL A   1      45.745  27.248  34.297  1.00  0.00     0.173 A 
ATOM     89  C   UNL A   1      44.070  25.595  34.783  1.00  0.00     0.173 A 
ATOM     90  F   UNL A   1      46.139  28.386  33.706  1.00  0.00    -0.203 F 
ATOM     91  C   UNL A   1      46.679  26.508  35.018  1.00  0.00     0.198 A 
ATOM     92  C   UNL A   1      44.999  24.874  35.528  1.00  0.00     0.198 A 
ATOM     93  F   UNL A   1      42.818  25.123  34.685  1.00  0.00    -0.203 F 
ATOM     94  F   UNL A   1      47.948  26.932  35.099  1.00  0.00    -0.200 F 
ATOM     95  C   UNL A   1      46.304  25.325  35.638  1.00  0.00     0.200 A 
ATOM     96  F   UNL A   1      44.630  23.738  36.138  1.00  0.00    -0.200 F 
ATOM     97  F   UNL A   1      47.205  24.616  36.333  1.00  0.00    -0.200 F 
ENDBRANCH  64  87
ENDBRANCH  38  39
ENDBRANCH  31  33
ENDBRANCH  30  31
ENDBRANCH  29  30
ENDBRANCH  28  29
ENDBRANCH  27  28
ENDBRANCH  26  27
ENDBRANCH   1  26
TORSDOF 20
ENDMDL
MODEL 2
REMARK VINA RESULT:     -10.8      2.679      4.848
REMARK SMILES O=C(CC1(NC(=O)c2ccncc2Cl)CCCCC1)OCCOCCOCCOC(=O)c1ccc(-c2c3nc(c(-c4c(F)c(F)c(F)c(F)c4F)c4ccc([nH]4)c(-c4c(F)c(F)c(F)c(F)c4F)c4nc(c(-c5c(F)c(F)c(F)c(F)c5F)c5ccc2[nH]5)C=C4)C=C3)cc1
REMARK SMILES IDX 24 1 23 2 22 3 21 4 20 5 2 6 1 7 3 8 4 9 15 10 19 11 16 12
REMARK SMILES IDX 18 13 17 14 5 15 6 16 7 18 8 19 9 20 13 21 10 22 12 23 14 24
REMARK SMILES IDX 11 25 25 26 26 27 27 28 28 29 29 30 30 31 31 32 32 33 33 34
REMARK SMILES IDX 94 35 34 36 93 37 35 38 36 39 37 40 87 41 38 42 92 43 86 44
REMARK SMILES IDX 88 45 39 46 91 47 85 48 84 49 40 51 72 52 52 53 71 54 53 55
REMARK SMILES IDX 56 56 70 57 89 58 54 59 55 60 69 62 90 63 57 64 41 65 42 66
REMARK SMILES IDX 50 67 43 68 44 69 48 70 51 71 45 72 46 73 49 74 47 75 73 76
REMARK SMILES IDX 74 77 82 78 75 79 76 80 80 81 83 82 77 83 78 84 81 85 79 86
REMARK SMILES IDX 58 87 59 88 67 89 60 90 61 91 65 92 68 93 62 94 63 95 66 96
REMARK SMILES IDX 64 97
REMARK H PARENT 5 17 88 50 56 61
REMARK Flexibility Score: inf
ROOT
ATOM      1  C   UNL A   1      36.386  33.141  28.412  1.00  0.00     0.188 C 
ENDROOT
BRANCH   1   2
ATOM      2  O   UNL A   1      35.898  32.131  27.521  1.00  0.00    -0.376 OA
BRANCH   2   3
ATOM      3  C   UNL A   1      36.343  30.821  27.864  1.00  0.00     0.202 C 
BRANCH   3   4
ATOM      4  C   UNL A   1      35.175  29.853  28.012  1.00  0.00     0.261 C 
BRANCH   4   5
ATOM      5  O   UNL A   1      34.563  29.536  26.745  1.00  0.00    -0.463 OA
BRANCH   5   6
ATOM      6  C   UNL A   1      33.647  28.554  26.564  1.00  0.00     0.308 C 
ATOM      7  O   UNL A   1      32.910  28.215  27.488  1.00  0.00    -0.252 OA
BRANCH   6   8
ATOM      8  C   UNL A   1      33.555  27.872  25.218  1.00  0.00     0.151 C 
BRANCH   8   9
ATOM      9  C   UNL A   1      32.157  27.825  24.537  1.00  0.00     0.051 C 
ATOM     10  C   UNL A   1      31.623  29.268  24.355  1.00  0.00     0.029 C 
ATOM     11  C   UNL A   1      32.238  27.215  23.103  1.00  0.00     0.029 C 
ATOM     12  C   UNL A   1      30.252  29.300  23.679  1.00  0.00     0.002 C 
ATOM     13  C   UNL A   1      30.922  27.273  22.321  1.00  0.00     0.002 C 
ATOM     14  C   UNL A   1      30.320  28.672  22.292  1.00  0.00     0.000 C 
BRANCH   9  15
ATOM     15  N   UNL A   1      31.163  27.020  25.331  1.00  0.00    -0.346 N 
ATOM     16  C   UNL A   1      31.131  25.752  25.858  1.00  0.00     0.253 C 
ATOM     17  H   UNL A   1      30.337  27.524  25.516  1.00  0.00     0.164 HD
ATOM     18  O   UNL A   1      30.214  25.418  26.602  1.00  0.00    -0.269 OA
BRANCH  16  19
ATOM     19  C   UNL A   1      32.073  24.730  25.413  1.00  0.00     0.061 A 
ATOM     20  C   UNL A   1      33.301  24.721  26.073  1.00  0.00     0.035 A 
ATOM     21  C   UNL A   1      31.806  23.813  24.405  1.00  0.00     0.072 A 
ATOM     22  C   UNL A   1      34.148  23.670  25.819  1.00  0.00     0.112 A 
ATOM     23  C   UNL A   1      32.716  22.784  24.245  1.00  0.00     0.132 A 
ATOM     24  Cl  UNL A   1      30.476  23.936  23.325  1.00  0.00    -0.082 Cl
ATOM     25  N   UNL A   1      33.861  22.679  24.956  1.00  0.00    -0.263 NA
ENDBRANCH  16  19
ENDBRANCH   9  15
ENDBRANCH   8   9
ENDBRANCH   6   8
ENDBRANCH   5   6
ENDBRANCH   4   5
ENDBRANCH   3   4
ENDBRANCH   2   3
ENDBRANCH   1   2
BRANCH   1  26
ATOM     26  C   UNL A   1      35.298  34.186  28.643  1.00  0.00     0.188 C 
BRANCH  26  27
ATOM     27  O   UNL A   1      34.035  33.790  28.107  1.00  0.00    -0.376 OA
BRANCH  27  28
ATOM     28  C   UNL A   1      32.918  34.572  28.540  1.00  0.00     0.202 C 
BRANCH  28  29
ATOM     29  C   UNL A   1      33.214  35.449  29.770  1.00  0.00     0.261 C 
BRANCH  29  30
ATOM     30  O   UNL A   1      32.453  35.038  30.929  1.00  0.00    -0.460 OA
BRANCH  30  31
ATOM     31  C   UNL A   1      32.786  35.620  32.107  1.00  0.00     0.338 C 
ATOM     32  O   UNL A   1      32.138  36.466  32.706  1.00  0.00    -0.246 OA
BRANCH  31  33
ATOM     33  C   UNL A   1      33.982  34.974  32.703  1.00  0.00     0.060 A 
ATOM     34  C   UNL A   1      35.201  35.657  32.613  1.00  0.00     0.016 A 
ATOM     35  C   UNL A   1      33.944  33.703  33.283  1.00  0.00     0.016 A 
ATOM     36  C   UNL A   1      36.387  35.057  33.046  1.00  0.00     0.010 A 
ATOM     37  C   UNL A   1      35.135  33.103  33.731  1.00  0.00     0.010 A 
ATOM     38  C   UNL A   1      36.372  33.756  33.570  1.00  0.00    -0.014 A 
BRANCH  38  39
ATOM     39  C   UNL A   1      37.661  33.020  33.710  1.00  0.00     0.031 A 
ATOM     40  C   UNL A   1      38.503  33.285  34.934  1.00  0.00     0.074 A 
ATOM     41  C   UNL A   1      38.061  32.074  32.838  1.00  0.00     0.049 A 
ATOM     42  N   UNL A   1      39.595  32.686  35.344  1.00  0.00    -0.248 NA
ATOM     43  C   UNL A   1      38.047  34.369  35.819  1.00  0.00     0.031 C 
ATOM     44  C   UNL A   1      37.359  31.687  31.618  1.00  0.00     0.029 A 
ATOM     45  N   UNL A   1      39.171  31.260  32.859  1.00  0.00    -0.354 N 
ATOM     46  C   UNL A   1      39.928  33.295  36.546  1.00  0.00     0.074 A 
ATOM     47  C   UNL A   1      38.973  34.359  36.763  1.00  0.00     0.031 C 
ATOM     48  C   UNL A   1      38.061  30.720  30.998  1.00  0.00     0.029 A 
ATOM     49  C   UNL A   1      39.260  30.412  31.782  1.00  0.00     0.049 A 
ATOM     50  H   UNL A   1      39.841  31.283  33.580  1.00  0.00     0.167 HD
ATOM     51  C   UNL A   1      40.914  32.981  37.420  1.00  0.00     0.037 A 
ATOM     52  C   UNL A   1      40.194  29.490  31.469  1.00  0.00     0.037 A 
ATOM     53  C   UNL A   1      41.891  31.946  37.222  1.00  0.00     0.049 A 
ATOM     54  C   UNL A   1      41.337  29.211  32.419  1.00  0.00     0.074 A 
ATOM     55  C   UNL A   1      42.928  31.567  38.056  1.00  0.00     0.029 A 
ATOM     56  N   UNL A   1      41.961  31.132  36.103  1.00  0.00    -0.354 N 
ATOM     57  N   UNL A   1      41.597  29.744  33.587  1.00  0.00    -0.248 NA
ATOM     58  C   UNL A   1      42.303  28.178  32.010  1.00  0.00     0.031 C 
ATOM     59  C   UNL A   1      43.653  30.552  37.422  1.00  0.00     0.029 A 
ATOM     60  C   UNL A   1      43.037  30.267  36.215  1.00  0.00     0.049 A 
ATOM     61  H   UNL A   1      41.339  31.165  35.340  1.00  0.00     0.167 HD
ATOM     62  C   UNL A   1      42.727  29.087  34.066  1.00  0.00     0.074 A 
ATOM     63  C   UNL A   1      43.096  28.107  33.070  1.00  0.00     0.031 C 
ATOM     64  C   UNL A   1      43.396  29.282  35.229  1.00  0.00     0.037 A 
BRANCH  51  65
ATOM     65  C   UNL A   1      40.973  33.776  38.688  1.00  0.00     0.064 A 
ATOM     66  C   UNL A   1      40.182  33.434  39.797  1.00  0.00     0.173 A 
ATOM     67  C   UNL A   1      41.831  34.877  38.806  1.00  0.00     0.173 A 
ATOM     68  F   UNL A   1      39.331  32.398  39.725  1.00  0.00    -0.203 F 
ATOM     69  C   UNL A   1      40.231  34.182  40.969  1.00  0.00     0.198 A 
ATOM     70  C   UNL A   1      41.898  35.607  39.990  1.00  0.00     0.198 A 
ATOM     71  F   UNL A   1      42.607  35.243  37.775  1.00  0.00    -0.203 F 
ATOM     72  F   UNL A   1      39.432  33.866  41.997  1.00  0.00    -0.200 F 
ATOM     73  C   UNL A   1      41.093  35.264  41.066  1.00  0.00     0.200 A 
ATOM     74  F   UNL A   1      42.737  36.648  40.087  1.00  0.00    -0.200 F 
ATOM     75  F   UNL A   1      41.142  35.982  42.196  1.00  0.00    -0.200 F 
ENDBRANCH  51  65
BRANCH  52  76
ATOM     76  C   UNL A   1      40.101  28.731  30.192  1.00  0.00     0.064 A 
ATOM     77  C   UNL A   1      39.463  27.483  30.131  1.00  0.00     0.173 A 
ATOM     78  C   UNL A   1      40.721  29.204  29.026  1.00  0.00     0.173 A 
ATOM     79  F   UNL A   1      38.884  26.972  31.228  1.00  0.00    -0.203 F 
ATOM     80  C   UNL A   1      39.477  26.723  28.962  1.00  0.00     0.198 A 
ATOM     81  C   UNL A   1      40.713  28.455  27.851  1.00  0.00     0.198 A 
ATOM     82  F   UNL A   1      41.353  30.387  29.036  1.00  0.00    -0.203 F 
ATOM     83  F   UNL A   1      38.919  25.506  28.950  1.00  0.00    -0.200 F 
ATOM     84  C   UNL A   1      40.101  27.211  27.823  1.00  0.00     0.200 A 
ATOM     85  F   UNL A   1      41.312  28.931  26.752  1.00  0.00    -0.200 F 
ATOM     86  F   UNL A   1      40.127  26.474  26.704  1.00  0.00    -0.200 F 
ENDBRANCH  52  76
BRANCH  64  87
ATOM     87  C   UNL A   1      44.575  28.394  35.515  1.00  0.00     0.064 A 
ATOM     88  C   UNL A   1      45.879  28.750  35.132  1.00  0.00     0.173 A 
ATOM     89  C   UNL A   1      44.407  27.188  36.213  1.00  0.00     0.173 A 
ATOM     90  F   UNL A   1      46.096  29.887  34.454  1.00  0.00    -0.203 F 
ATOM     91  C   UNL A   1      46.960  27.917  35.409  1.00  0.00     0.198 A 
ATOM     92  C   UNL A   1      45.495  26.373  36.514  1.00  0.00     0.198 A 
ATOM     93  F   UNL A   1      43.186  26.803  36.611  1.00  0.00    -0.203 F 
ATOM     94  F   UNL A   1      48.187  28.255  34.987  1.00  0.00    -0.200 F 
ATOM     95  C   UNL A   1      46.769  26.733  36.105  1.00  0.00     0.200 A 
ATOM     96  F   UNL A   1      45.310  25.235  37.200  1.00  0.00    -0.200 F 
ATOM     97  F   UNL A   1      47.812  25.935  36.372  1.00  0.00    -0.200 F 
ENDBRANCH  64  87
ENDBRANCH  38  39
ENDBRANCH  31  33
ENDBRANCH  30  31
ENDBRANCH  29  30
ENDBRANCH  28  29
ENDBRANCH  27  28
ENDBRANCH  26  27
ENDBRANCH   1  26
TORSDOF 20
ENDMDL
MODEL 3
REMARK VINA RESULT:     -10.7      1.252      2.058
REMARK SMILES O=C(CC1(NC(=O)c2ccncc2Cl)CCCCC1)OCCOCCOCCOC(=O)c1ccc(-c2c3nc(c(-c4c(F)c(F)c(F)c(F)c4F)c4ccc([nH]4)c(-c4c(F)c(F)c(F)c(F)c4F)c4nc(c(-c5c(F)c(F)c(F)c(F)c5F)c5ccc2[nH]5)C=C4)C=C3)cc1
REMARK SMILES IDX 24 1 23 2 22 3 21 4 20 5 2 6 1 7 3 8 4 9 15 10 19 11 16 12
REMARK SMILES IDX 18 13 17 14 5 15 6 16 7 18 8 19 9 20 13 21 10 22 12 23 14 24
REMARK SMILES IDX 11 25 25 26 26 27 27 28 28 29 29 30 30 31 31 32 32 33 33 34
REMARK SMILES IDX 94 35 34 36 93 37 35 38 36 39 37 40 87 41 38 42 92 43 86 44
REMARK SMILES IDX 88 45 39 46 91 47 85 48 84 49 40 51 72 52 52 53 71 54 53 55
REMARK SMILES IDX 56 56 70 57 89 58 54 59 55 60 69 62 90 63 57 64 41 65 42 66
REMARK SMILES IDX 50 67 43 68 44 69 48 70 51 71 45 72 46 73 49 74 47 75 73 76
REMARK SMILES IDX 74 77 82 78 75 79 76 80 80 81 83 82 77 83 78 84 81 85 79 86
REMARK SMILES IDX 58 87 59 88 67 89 60 90 61 91 65 92 68 93 62 94 63 95 66 96
REMARK SMILES IDX 64 97
REMARK H PARENT 5 17 88 50 56 61
REMARK Flexibility Score: inf
ROOT
ATOM      1  C   UNL A   1      32.168  27.375  26.706  1.00  0.00     0.188 C 
ENDROOT
BRANCH   1   2
ATOM      2  O   UNL A   1      31.098  27.304  25.757  1.00  0.00    -0.376 OA
BRANCH   2   3
ATOM      3  C   UNL A   1      30.267  26.159  25.934  1.00  0.00     0.202 C 
BRANCH   3   4
ATOM      4  C   UNL A   1      30.743  24.985  25.085  1.00  0.00     0.261 C 
BRANCH   4   5
ATOM      5  O   UNL A   1      30.717  23.739  25.811  1.00  0.00    -0.463 OA
BRANCH   5   6
ATOM      6  C   UNL A   1      31.754  23.256  26.538  1.00  0.00     0.308 C 
ATOM      7  O   UNL A   1      31.585  22.908  27.705  1.00  0.00    -0.252 OA
BRANCH   6   8
ATOM      8  C   UNL A   1      33.121  23.167  25.900  1.00  0.00     0.151 C 
BRANCH   8   9
ATOM      9  C   UNL A   1      33.382  21.974  24.936  1.00  0.00     0.051 C 
ATOM     10  C   UNL A   1      33.607  20.683  25.764  1.00  0.00     0.029 C 
ATOM     11  C   UNL A   1      32.146  21.689  24.028  1.00  0.00     0.029 C 
ATOM     12  C   UNL A   1      33.860  19.462  24.878  1.00  0.00     0.002 C 
ATOM     13  C   UNL A   1      32.281  20.436  23.157  1.00  0.00     0.002 C 
ATOM     14  C   UNL A   1      32.668  19.203  23.964  1.00  0.00     0.000 C 
BRANCH   9  15
ATOM     15  N   UNL A   1      34.572  22.210  24.045  1.00  0.00    -0.346 N 
ATOM     16  C   UNL A   1      35.038  23.264  23.297  1.00  0.00     0.253 C 
ATOM     17  H   UNL A   1      35.156  21.419  23.984  1.00  0.00     0.164 HD
ATOM     18  O   UNL A   1      36.146  23.204  22.774  1.00  0.00    -0.269 OA
BRANCH  16  19
ATOM     19  C   UNL A   1      34.171  24.388  22.962  1.00  0.00     0.061 A 
ATOM     20  C   UNL A   1      34.247  25.480  23.826  1.00  0.00     0.035 A 
ATOM     21  C   UNL A   1      33.313  24.410  21.871  1.00  0.00     0.072 A 
ATOM     22  C   UNL A   1      33.590  26.628  23.455  1.00  0.00     0.112 A 
ATOM     23  C   UNL A   1      32.716  25.622  21.575  1.00  0.00     0.132 A 
ATOM     24  Cl  UNL A   1      32.906  23.023  20.944  1.00  0.00    -0.082 Cl
ATOM     25  N   UNL A   1      32.867  26.735  22.326  1.00  0.00    -0.263 NA
ENDBRANCH  16  19
ENDBRANCH   9  15
ENDBRANCH   8   9
ENDBRANCH   6   8
ENDBRANCH   5   6
ENDBRANCH   4   5
ENDBRANCH   3   4
ENDBRANCH   2   3
ENDBRANCH   1   2
BRANCH   1  26
ATOM     26  C   UNL A   1      32.924  28.687  26.527  1.00  0.00     0.188 C 
BRANCH  26  27
ATOM     27  O   UNL A   1      32.274  29.573  25.615  1.00  0.00    -0.376 OA
BRANCH  27  28
ATOM     28  C   UNL A   1      31.411  30.542  26.218  1.00  0.00     0.202 C 
BRANCH  28  29
ATOM     29  C   UNL A   1      32.096  31.890  26.506  1.00  0.00     0.261 C 
BRANCH  29  30
ATOM     30  O   UNL A   1      32.944  31.831  27.677  1.00  0.00    -0.460 OA
BRANCH  30  31
ATOM     31  C   UNL A   1      33.844  32.833  27.822  1.00  0.00     0.338 C 
ATOM     32  O   UNL A   1      33.594  34.027  27.889  1.00  0.00    -0.246 OA
BRANCH  31  33
ATOM     33  C   UNL A   1      35.206  32.297  28.071  1.00  0.00     0.060 A 
ATOM     34  C   UNL A   1      35.381  30.910  27.988  1.00  0.00     0.016 A 
ATOM     35  C   UNL A   1      36.282  33.109  28.440  1.00  0.00     0.016 A 
ATOM     36  C   UNL A   1      36.606  30.327  28.325  1.00  0.00     0.010 A 
ATOM     37  C   UNL A   1      37.518  32.524  28.767  1.00  0.00     0.010 A 
ATOM     38  C   UNL A   1      37.675  31.125  28.759  1.00  0.00    -0.014 A 
BRANCH  38  39
ATOM     39  C   UNL A   1      38.839  30.471  29.423  1.00  0.00     0.031 A 
ATOM     40  C   UNL A   1      39.131  30.824  30.860  1.00  0.00     0.074 A 
ATOM     41  C   UNL A   1      39.584  29.522  28.823  1.00  0.00     0.049 A 
ATOM     42  N   UNL A   1      40.003  30.304  31.689  1.00  0.00    -0.248 NA
ATOM     43  C   UNL A   1      38.324  31.908  31.443  1.00  0.00     0.031 C 
ATOM     44  C   UNL A   1      39.425  29.053  27.449  1.00  0.00     0.029 A 
ATOM     45  N   UNL A   1      40.632  28.775  29.311  1.00  0.00    -0.354 N 
ATOM     46  C   UNL A   1      39.820  30.971  32.893  1.00  0.00     0.074 A 
ATOM     47  C   UNL A   1      38.812  31.984  32.670  1.00  0.00     0.031 C 
ATOM     48  C   UNL A   1      40.351  28.110  27.198  1.00  0.00     0.029 A 
ATOM     49  C   UNL A   1      41.165  27.899  28.398  1.00  0.00     0.049 A 
ATOM     50  H   UNL A   1      40.969  28.860  30.232  1.00  0.00     0.167 HD
ATOM     51  C   UNL A   1      40.404  30.744  34.094  1.00  0.00     0.037 A 
ATOM     52  C   UNL A   1      42.185  27.023  28.517  1.00  0.00     0.037 A 
ATOM     53  C   UNL A   1      41.424  29.762  34.342  1.00  0.00     0.049 A 
ATOM     54  C   UNL A   1      42.882  26.843  29.846  1.00  0.00     0.074 A 
ATOM     55  C   UNL A   1      42.072  29.471  35.529  1.00  0.00     0.029 A 
ATOM     56  N   UNL A   1      41.954  28.917  33.380  1.00  0.00    -0.354 N 
ATOM     57  N   UNL A   1      42.648  27.428  30.995  1.00  0.00    -0.248 NA
ATOM     58  C   UNL A   1      43.973  25.855  29.896  1.00  0.00     0.031 C 
ATOM     59  C   UNL A   1      43.027  28.481  35.277  1.00  0.00     0.029 A 
ATOM     60  C   UNL A   1      42.938  28.120  33.943  1.00  0.00     0.049 A 
ATOM     61  H   UNL A   1      41.674  28.888  32.437  1.00  0.00     0.167 HD
ATOM     62  C   UNL A   1      43.531  26.855  31.906  1.00  0.00     0.074 A 
ATOM     63  C   UNL A   1      44.297  25.866  31.181  1.00  0.00     0.031 C 
ATOM     64  C   UNL A   1      43.690  27.126  33.225  1.00  0.00     0.037 A 
BRANCH  51  65
ATOM     65  C   UNL A   1      39.935  31.582  35.244  1.00  0.00     0.064 A 
ATOM     66  C   UNL A   1      40.609  32.759  35.606  1.00  0.00     0.173 A 
ATOM     67  C   UNL A   1      38.799  31.220  35.980  1.00  0.00     0.173 A 
ATOM     68  F   UNL A   1      41.713  33.137  34.941  1.00  0.00    -0.203 F 
ATOM     69  C   UNL A   1      40.177  33.528  36.682  1.00  0.00     0.198 A 
ATOM     70  C   UNL A   1      38.353  32.007  37.038  1.00  0.00     0.198 A 
ATOM     71  F   UNL A   1      38.120  30.105  35.671  1.00  0.00    -0.203 F 
ATOM     72  F   UNL A   1      40.864  34.622  37.040  1.00  0.00    -0.200 F 
ATOM     73  C   UNL A   1      39.046  33.156  37.393  1.00  0.00     0.200 A 
ATOM     74  F   UNL A   1      37.256  31.651  37.720  1.00  0.00    -0.200 F 
ATOM     75  F   UNL A   1      38.629  33.899  38.427  1.00  0.00    -0.200 F 
ENDBRANCH  51  65
BRANCH  52  76
ATOM     76  C   UNL A   1      42.625  26.218  27.345  1.00  0.00     0.064 A 
ATOM     77  C   UNL A   1      42.072  24.956  27.079  1.00  0.00     0.173 A 
ATOM     78  C   UNL A   1      43.664  26.663  26.515  1.00  0.00     0.173 A 
ATOM     79  F   UNL A   1      41.099  24.472  27.865  1.00  0.00    -0.203 F 
ATOM     80  C   UNL A   1      42.565  24.156  26.048  1.00  0.00     0.198 A 
ATOM     81  C   UNL A   1      44.139  25.874  25.469  1.00  0.00     0.198 A 
ATOM     82  F   UNL A   1      44.232  27.858  26.733  1.00  0.00    -0.203 F 
ATOM     83  F   UNL A   1      42.065  22.928  25.859  1.00  0.00    -0.200 F 
ATOM     84  C   UNL A   1      43.597  24.617  25.244  1.00  0.00     0.200 A 
ATOM     85  F   UNL A   1      45.132  26.323  24.692  1.00  0.00    -0.200 F 
ATOM     86  F   UNL A   1      44.081  23.843  24.263  1.00  0.00    -0.200 F 
ENDBRANCH  52  76
BRANCH  64  87
ATOM     87  C   UNL A   1      44.703  26.319  33.988  1.00  0.00     0.064 A 
ATOM     88  C   UNL A   1      46.048  26.715  34.079  1.00  0.00     0.173 A 
ATOM     89  C   UNL A   1      44.319  25.153  34.669  1.00  0.00     0.173 A 
ATOM     90  F   UNL A   1      46.472  27.815  33.439  1.00  0.00    -0.203 F 
ATOM     91  C   UNL A   1      46.971  25.957  34.794  1.00  0.00     0.198 A 
ATOM     92  C   UNL A   1      45.239  24.415  35.408  1.00  0.00     0.198 A 
ATOM     93  F   UNL A   1      43.046  24.734  34.625  1.00  0.00    -0.203 F 
ATOM     94  F   UNL A   1      48.259  26.327  34.823  1.00  0.00    -0.200 F 
ATOM     95  C   UNL A   1      46.566  24.811  35.463  1.00  0.00     0.200 A 
ATOM     96  F   UNL A   1      44.842  23.316  36.066  1.00  0.00    -0.200 F 
ATOM     97  F   UNL A   1      47.457  24.085  36.154  1.00  0.00    -0.200 F 
ENDBRANCH  64  87
ENDBRANCH  38  39
ENDBRANCH  31  33
ENDBRANCH  30  31
ENDBRANCH  29  30
ENDBRANCH  28  29
ENDBRANCH  27  28
ENDBRANCH  26  27
ENDBRANCH   1  26
TORSDOF 20
ENDMDL
