MODEL 1
REMARK VINA RESULT:     -10.8      0.000      0.000
REMARK SMILES O=Cc1c(OCc2ccc(C(=O)OCCOCCOCCOC(=O)c3ccc(-c4c5nc(c(-c6c(F)c(F)c(F)c(F)c6F)c6ccc([nH]6)c(-c6c(F)c(F)c(F)c(F)c6F)c6nc(c(-c7c(F)c(F)c(F)c(F)c7F)c7ccc4[nH]7)C=C6)C=C5)cc3)cc2)ccc2ccccc12
REMARK SMILES IDX 17 1 16 2 15 3 14 4 13 5 11 6 12 7 10 8 7 9 8 10 89 11 9 12
REMARK SMILES IDX 88 13 6 14 5 15 4 16 3 17 97 18 90 19 92 20 96 21 91 22
REMARK SMILES IDX 93 23 95 24 94 25 2 26 1 27 18 28 19 29 20 30 21 31 22 32
REMARK SMILES IDX 23 33 24 34 25 35 26 36 87 37 27 38 86 39 28 40 29 41 30 42
REMARK SMILES IDX 80 43 31 44 85 45 79 46 81 47 32 48 84 49 78 50 77 51 33 53
REMARK SMILES IDX 65 54 45 55 64 56 46 57 49 58 63 59 82 60 47 61 48 62 62 64
REMARK SMILES IDX 83 65 50 66 34 67 35 68 43 69 36 70 37 71 41 72 44 73 38 74
REMARK SMILES IDX 39 75 42 76 40 77 66 78 67 79 75 80 68 81 69 82 73 83 76 84
REMARK SMILES IDX 70 85 71 86 74 87 72 88 51 89 52 90 60 91 53 92 54 93 58 94
REMARK SMILES IDX 61 95 55 96 56 97 59 98 57 99
REMARK H PARENT 81 52 49 63
REMARK Flexibility Score: inf
ROOT
ATOM      1  C   UNL A   1      32.880  35.804  29.082  1.00  0.00     0.188 C 
ENDROOT
BRANCH   1   2
ATOM      2  O   UNL A   1      32.712  34.484  28.619  1.00  0.00    -0.376 OA
BRANCH   2   3
ATOM      3  C   UNL A   1      33.798  33.746  28.087  1.00  0.00     0.202 C 
BRANCH   3   4
ATOM      4  C   UNL A   1      34.093  32.262  28.372  1.00  0.00     0.261 C 
BRANCH   4   5
ATOM      5  O   UNL A   1      34.437  31.430  27.264  1.00  0.00    -0.460 OA
BRANCH   5   6
ATOM      6  C   UNL A   1      34.598  30.114  27.557  1.00  0.00     0.338 C 
ATOM      7  O   UNL A   1      35.357  29.633  28.380  1.00  0.00    -0.246 OA
BRANCH   6   8
ATOM      8  C   UNL A   1      33.557  29.328  26.860  1.00  0.00     0.060 A 
ATOM      9  C   UNL A   1      31.624  27.836  25.463  1.00  0.00    -0.011 A 
ATOM     10  C   UNL A   1      32.715  28.407  24.787  1.00  0.00     0.008 A 
ATOM     11  C   UNL A   1      31.527  28.028  26.852  1.00  0.00     0.008 A 
ATOM     12  C   UNL A   1      33.665  29.163  25.476  1.00  0.00     0.016 A 
ATOM     13  C   UNL A   1      32.499  28.746  27.555  1.00  0.00     0.016 A 
BRANCH   9  14
ATOM     14  C   UNL A   1      30.608  27.046  24.647  1.00  0.00     0.265 C 
BRANCH  14  15
ATOM     15  O   UNL A   1      30.558  25.636  24.874  1.00  0.00    -0.488 OA
BRANCH  15  16
ATOM     16  C   UNL A   1      31.585  24.836  24.452  1.00  0.00     0.130 A 
ATOM     17  C   UNL A   1      32.291  24.133  25.448  1.00  0.00     0.064 A 
ATOM     18  C   UNL A   1      33.525  23.483  25.165  1.00  0.00    -0.004 A 
ATOM     19  C   UNL A   1      32.040  24.787  23.136  1.00  0.00     0.048 A 
ATOM     20  C   UNL A   1      34.002  23.526  23.833  1.00  0.00    -0.017 A 
ATOM     21  C   UNL A   1      34.319  22.803  26.122  1.00  0.00     0.009 A 
ATOM     22  C   UNL A   1      33.241  24.148  22.834  1.00  0.00     0.012 A 
ATOM     23  C   UNL A   1      35.242  22.953  23.508  1.00  0.00     0.009 A 
ATOM     24  C   UNL A   1      35.551  22.238  25.783  1.00  0.00     0.001 A 
ATOM     25  C   UNL A   1      36.016  22.322  24.479  1.00  0.00     0.001 A 
BRANCH  17  26
ATOM     26  C   UNL A   1      31.777  24.148  26.839  1.00  0.00     0.264 C 
ATOM     27  O   UNL A   1      31.004  23.305  27.278  1.00  0.00    -0.298 OA
ENDBRANCH  17  26
ENDBRANCH  15  16
ENDBRANCH  14  15
ENDBRANCH   9  14
ENDBRANCH   6   8
ENDBRANCH   5   6
ENDBRANCH   4   5
ENDBRANCH   3   4
ENDBRANCH   2   3
ENDBRANCH   1   2
BRANCH   1  28
ATOM     28  C   UNL A   1      32.615  36.137  30.562  1.00  0.00     0.188 C 
BRANCH  28  29
ATOM     29  O   UNL A   1      32.653  35.106  31.522  1.00  0.00    -0.376 OA
BRANCH  29  30
ATOM     30  C   UNL A   1      33.849  34.805  32.220  1.00  0.00     0.202 C 
BRANCH  30  31
ATOM     31  C   UNL A   1      35.157  34.291  31.585  1.00  0.00     0.261 C 
BRANCH  31  32
ATOM     32  O   UNL A   1      36.236  33.947  32.456  1.00  0.00    -0.460 OA
BRANCH  32  33
ATOM     33  C   UNL A   1      36.439  32.618  32.631  1.00  0.00     0.338 C 
ATOM     34  O   UNL A   1      35.662  31.800  33.085  1.00  0.00    -0.246 OA
BRANCH  33  35
ATOM     35  C   UNL A   1      37.727  32.248  32.015  1.00  0.00     0.060 A 
ATOM     36  C   UNL A   1      37.971  32.636  30.691  1.00  0.00     0.016 A 
ATOM     37  C   UNL A   1      38.662  31.489  32.718  1.00  0.00     0.016 A 
ATOM     38  C   UNL A   1      39.151  32.251  30.058  1.00  0.00     0.010 A 
ATOM     39  C   UNL A   1      39.834  31.084  32.074  1.00  0.00     0.010 A 
ATOM     40  C   UNL A   1      40.072  31.440  30.734  1.00  0.00    -0.014 A 
BRANCH  40  41
ATOM     41  C   UNL A   1      41.201  30.829  29.990  1.00  0.00     0.031 A 
ATOM     42  C   UNL A   1      42.409  31.673  29.694  1.00  0.00     0.074 A 
ATOM     43  C   UNL A   1      41.161  29.545  29.595  1.00  0.00     0.049 A 
ATOM     44  N   UNL A   1      43.485  31.376  29.011  1.00  0.00    -0.248 NA
ATOM     45  C   UNL A   1      42.398  33.038  30.240  1.00  0.00     0.031 C 
ATOM     46  C   UNL A   1      40.068  28.613  29.859  1.00  0.00     0.029 A 
ATOM     47  N   UNL A   1      42.068  28.809  28.874  1.00  0.00    -0.354 N 
ATOM     48  C   UNL A   1      44.273  32.520  29.036  1.00  0.00     0.074 A 
ATOM     49  C   UNL A   1      43.538  33.525  29.775  1.00  0.00     0.031 C 
ATOM     50  C   UNL A   1      40.361  27.429  29.295  1.00  0.00     0.029 A 
ATOM     51  C   UNL A   1      41.643  27.532  28.599  1.00  0.00     0.049 A 
ATOM     52  H   UNL A   1      42.939  29.162  28.582  1.00  0.00     0.167 HD
ATOM     53  C   UNL A   1      45.500  32.713  28.496  1.00  0.00     0.037 A 
ATOM     54  C   UNL A   1      42.215  26.570  27.848  1.00  0.00     0.037 A 
ATOM     55  C   UNL A   1      46.224  31.714  27.756  1.00  0.00     0.049 A 
ATOM     56  C   UNL A   1      43.544  26.837  27.185  1.00  0.00     0.074 A 
ATOM     57  C   UNL A   1      47.484  31.805  27.189  1.00  0.00     0.029 A 
ATOM     58  N   UNL A   1      45.747  30.444  27.467  1.00  0.00    -0.354 N 
ATOM     59  N   UNL A   1      44.298  27.908  27.237  1.00  0.00    -0.248 NA
ATOM     60  C   UNL A   1      44.101  25.756  26.359  1.00  0.00     0.031 C 
ATOM     61  C   UNL A   1      47.740  30.614  26.501  1.00  0.00     0.029 A 
ATOM     62  C   UNL A   1      46.673  29.753  26.700  1.00  0.00     0.049 A 
ATOM     63  H   UNL A   1      44.879  30.086  27.763  1.00  0.00     0.167 HD
ATOM     64  C   UNL A   1      45.429  27.619  26.484  1.00  0.00     0.074 A 
ATOM     65  C   UNL A   1      45.267  26.267  25.994  1.00  0.00     0.031 C 
ATOM     66  C   UNL A   1      46.505  28.403  26.223  1.00  0.00     0.037 A 
BRANCH  53  67
ATOM     67  C   UNL A   1      46.118  34.073  28.654  1.00  0.00     0.064 A 
ATOM     68  C   UNL A   1      45.875  35.110  27.741  1.00  0.00     0.173 A 
ATOM     69  C   UNL A   1      46.951  34.349  29.751  1.00  0.00     0.173 A 
ATOM     70  F   UNL A   1      45.098  34.896  26.668  1.00  0.00    -0.203 F 
ATOM     71  C   UNL A   1      46.469  36.360  27.899  1.00  0.00     0.198 A 
ATOM     72  C   UNL A   1      47.515  35.609  29.925  1.00  0.00     0.198 A 
ATOM     73  F   UNL A   1      47.214  33.396  30.657  1.00  0.00    -0.203 F 
ATOM     74  F   UNL A   1      46.269  37.316  26.982  1.00  0.00    -0.200 F 
ATOM     75  C   UNL A   1      47.283  36.610  28.994  1.00  0.00     0.200 A 
ATOM     76  F   UNL A   1      48.289  35.853  30.990  1.00  0.00    -0.200 F 
ATOM     77  F   UNL A   1      47.850  37.815  29.147  1.00  0.00    -0.200 F 
ENDBRANCH  53  67
BRANCH  54  78
ATOM     78  C   UNL A   1      41.530  25.262  27.669  1.00  0.00     0.064 A 
ATOM     79  C   UNL A   1      41.976  24.115  28.339  1.00  0.00     0.173 A 
ATOM     80  C   UNL A   1      40.430  25.127  26.808  1.00  0.00     0.173 A 
ATOM     81  F   UNL A   1      43.041  24.186  29.150  1.00  0.00    -0.203 F 
ATOM     82  C   UNL A   1      41.361  22.880  28.143  1.00  0.00     0.198 A 
ATOM     83  C   UNL A   1      39.795  23.898  26.636  1.00  0.00     0.198 A 
ATOM     84  F   UNL A   1      39.966  26.192  26.138  1.00  0.00    -0.203 F 
ATOM     85  F   UNL A   1      41.840  21.790  28.756  1.00  0.00    -0.200 F 
ATOM     86  C   UNL A   1      40.267  22.774  27.297  1.00  0.00     0.200 A 
ATOM     87  F   UNL A   1      38.732  23.803  25.827  1.00  0.00    -0.200 F 
ATOM     88  F   UNL A   1      39.674  21.587  27.111  1.00  0.00    -0.200 F 
ENDBRANCH  54  78
BRANCH  66  89
ATOM     89  C   UNL A   1      47.620  27.806  25.408  1.00  0.00     0.064 A 
ATOM     90  C   UNL A   1      47.613  27.836  24.005  1.00  0.00     0.173 A 
ATOM     91  C   UNL A   1      48.734  27.235  26.044  1.00  0.00     0.173 A 
ATOM     92  F   UNL A   1      46.568  28.359  23.346  1.00  0.00    -0.203 F 
ATOM     93  C   UNL A   1      48.664  27.291  23.272  1.00  0.00     0.198 A 
ATOM     94  C   UNL A   1      49.799  26.723  25.308  1.00  0.00     0.198 A 
ATOM     95  F   UNL A   1      48.799  27.187  27.383  1.00  0.00    -0.203 F 
ATOM     96  F   UNL A   1      48.610  27.284  21.932  1.00  0.00    -0.200 F 
ATOM     97  C   UNL A   1      49.760  26.743  23.922  1.00  0.00     0.200 A 
ATOM     98  F   UNL A   1      50.864  26.212  25.940  1.00  0.00    -0.200 F 
ATOM     99  F   UNL A   1      50.774  26.229  23.214  1.00  0.00    -0.200 F 
ENDBRANCH  66  89
ENDBRANCH  40  41
ENDBRANCH  33  35
ENDBRANCH  32  33
ENDBRANCH  31  32
ENDBRANCH  30  31
ENDBRANCH  29  30
ENDBRANCH  28  29
ENDBRANCH   1  28
TORSDOF 21
ENDMDL
MODEL 2
REMARK VINA RESULT:     -10.4      5.582     11.135
REMARK SMILES O=Cc1c(OCc2ccc(C(=O)OCCOCCOCCOC(=O)c3ccc(-c4c5nc(c(-c6c(F)c(F)c(F)c(F)c6F)c6ccc([nH]6)c(-c6c(F)c(F)c(F)c(F)c6F)c6nc(c(-c7c(F)c(F)c(F)c(F)c7F)c7ccc4[nH]7)C=C6)C=C5)cc3)cc2)ccc2ccccc12
REMARK SMILES IDX 17 1 16 2 15 3 14 4 13 5 11 6 12 7 10 8 7 9 8 10 89 11 9 12
REMARK SMILES IDX 88 13 6 14 5 15 4 16 3 17 97 18 90 19 92 20 96 21 91 22
REMARK SMILES IDX 93 23 95 24 94 25 2 26 1 27 18 28 19 29 20 30 21 31 22 32
REMARK SMILES IDX 23 33 24 34 25 35 26 36 87 37 27 38 86 39 28 40 29 41 30 42
REMARK SMILES IDX 80 43 31 44 85 45 79 46 81 47 32 48 84 49 78 50 77 51 33 53
REMARK SMILES IDX 65 54 45 55 64 56 46 57 49 58 63 59 82 60 47 61 48 62 62 64
REMARK SMILES IDX 83 65 50 66 34 67 35 68 43 69 36 70 37 71 41 72 44 73 38 74
REMARK SMILES IDX 39 75 42 76 40 77 66 78 67 79 75 80 68 81 69 82 73 83 76 84
REMARK SMILES IDX 70 85 71 86 74 87 72 88 51 89 52 90 60 91 53 92 54 93 58 94
REMARK SMILES IDX 61 95 55 96 56 97 59 98 57 99
REMARK H PARENT 81 52 49 63
REMARK Flexibility Score: inf
ROOT
ATOM      1  C   UNL A   1      42.204  19.584  27.269  1.00  0.00     0.188 C 
ENDROOT
BRANCH   1   2
ATOM      2  O   UNL A   1      40.996  20.261  27.535  1.00  0.00    -0.376 OA
BRANCH   2   3
ATOM      3  C   UNL A   1      40.045  20.499  26.513  1.00  0.00     0.202 C 
BRANCH   3   4
ATOM      4  C   UNL A   1      39.518  21.882  26.089  1.00  0.00     0.261 C 
BRANCH   4   5
ATOM      5  O   UNL A   1      38.107  22.097  26.139  1.00  0.00    -0.460 OA
BRANCH   5   6
ATOM      6  C   UNL A   1      37.411  21.624  25.073  1.00  0.00     0.338 C 
ATOM      7  O   UNL A   1      37.445  20.494  24.618  1.00  0.00    -0.246 OA
BRANCH   6   8
ATOM      8  C   UNL A   1      36.426  22.640  24.644  1.00  0.00     0.060 A 
ATOM      9  C   UNL A   1      34.525  24.519  23.766  1.00  0.00    -0.011 A 
ATOM     10  C   UNL A   1      34.768  23.348  23.030  1.00  0.00     0.008 A 
ATOM     11  C   UNL A   1      35.253  24.723  24.951  1.00  0.00     0.008 A 
ATOM     12  C   UNL A   1      35.724  22.423  23.455  1.00  0.00     0.016 A 
ATOM     13  C   UNL A   1      36.179  23.780  25.405  1.00  0.00     0.016 A 
BRANCH   9  14
ATOM     14  C   UNL A   1      33.487  25.500  23.232  1.00  0.00     0.265 C 
BRANCH  14  15
ATOM     15  O   UNL A   1      32.614  26.096  24.192  1.00  0.00    -0.488 OA
BRANCH  15  16
ATOM     16  C   UNL A   1      31.397  26.586  23.803  1.00  0.00     0.130 A 
ATOM     17  C   UNL A   1      31.294  27.983  23.655  1.00  0.00     0.064 A 
ATOM     18  C   UNL A   1      30.032  28.623  23.511  1.00  0.00    -0.004 A 
ATOM     19  C   UNL A   1      30.251  25.805  23.679  1.00  0.00     0.048 A 
ATOM     20  C   UNL A   1      28.877  27.805  23.475  1.00  0.00    -0.017 A 
ATOM     21  C   UNL A   1      29.842  30.025  23.411  1.00  0.00     0.009 A 
ATOM     22  C   UNL A   1      29.004  26.410  23.528  1.00  0.00     0.012 A 
ATOM     23  C   UNL A   1      27.602  28.385  23.394  1.00  0.00     0.009 A 
ATOM     24  C   UNL A   1      28.566  30.587  23.331  1.00  0.00     0.001 A 
ATOM     25  C   UNL A   1      27.447  29.768  23.332  1.00  0.00     0.001 A 
BRANCH  17  26
ATOM     26  C   UNL A   1      32.524  28.806  23.740  1.00  0.00     0.264 C 
ATOM     27  O   UNL A   1      33.318  28.924  22.815  1.00  0.00    -0.298 OA
ENDBRANCH  17  26
ENDBRANCH  15  16
ENDBRANCH  14  15
ENDBRANCH   9  14
ENDBRANCH   6   8
ENDBRANCH   5   6
ENDBRANCH   4   5
ENDBRANCH   3   4
ENDBRANCH   2   3
ENDBRANCH   1   2
BRANCH   1  28
ATOM     28  C   UNL A   1      42.533  19.141  25.831  1.00  0.00     0.188 C 
BRANCH  28  29
ATOM     29  O   UNL A   1      43.876  19.099  25.409  1.00  0.00    -0.376 OA
BRANCH  29  30
ATOM     30  C   UNL A   1      44.442  20.166  24.669  1.00  0.00     0.202 C 
BRANCH  30  31
ATOM     31  C   UNL A   1      44.920  21.511  25.251  1.00  0.00     0.261 C 
BRANCH  31  32
ATOM     32  O   UNL A   1      44.021  22.236  26.094  1.00  0.00    -0.460 OA
BRANCH  32  33
ATOM     33  C   UNL A   1      43.667  23.464  25.644  1.00  0.00     0.338 C 
ATOM     34  O   UNL A   1      43.420  23.795  24.500  1.00  0.00    -0.246 OA
BRANCH  33  35
ATOM     35  C   UNL A   1      43.445  24.349  26.802  1.00  0.00     0.060 A 
ATOM     36  C   UNL A   1      42.537  23.944  27.789  1.00  0.00     0.016 A 
ATOM     37  C   UNL A   1      44.089  25.583  26.891  1.00  0.00     0.016 A 
ATOM     38  C   UNL A   1      42.257  24.784  28.866  1.00  0.00     0.010 A 
ATOM     39  C   UNL A   1      43.791  26.433  27.959  1.00  0.00     0.010 A 
ATOM     40  C   UNL A   1      42.854  26.049  28.937  1.00  0.00    -0.014 A 
BRANCH  40  41
ATOM     41  C   UNL A   1      42.378  27.035  29.938  1.00  0.00     0.031 A 
ATOM     42  C   UNL A   1      43.089  27.119  31.260  1.00  0.00     0.074 A 
ATOM     43  C   UNL A   1      41.341  27.848  29.677  1.00  0.00     0.049 A 
ATOM     44  N   UNL A   1      42.818  27.857  32.306  1.00  0.00    -0.248 NA
ATOM     45  C   UNL A   1      44.265  26.251  31.422  1.00  0.00     0.031 C 
ATOM     46  C   UNL A   1      40.597  27.892  28.420  1.00  0.00     0.029 A 
ATOM     47  N   UNL A   1      40.727  28.787  30.467  1.00  0.00    -0.354 N 
ATOM     48  C   UNL A   1      43.780  27.533  33.254  1.00  0.00     0.074 A 
ATOM     49  C   UNL A   1      44.623  26.511  32.670  1.00  0.00     0.031 C 
ATOM     50  C   UNL A   1      39.616  28.804  28.528  1.00  0.00     0.029 A 
ATOM     51  C   UNL A   1      39.639  29.379  29.873  1.00  0.00     0.049 A 
ATOM     52  H   UNL A   1      41.037  29.016  31.373  1.00  0.00     0.167 HD
ATOM     53  C   UNL A   1      43.948  28.045  34.496  1.00  0.00     0.037 A 
ATOM     54  C   UNL A   1      38.751  30.261  30.371  1.00  0.00     0.037 A 
ATOM     55  C   UNL A   1      43.103  29.055  35.077  1.00  0.00     0.049 A 
ATOM     56  C   UNL A   1      38.909  30.755  31.788  1.00  0.00     0.074 A 
ATOM     57  C   UNL A   1      43.205  29.655  36.320  1.00  0.00     0.029 A 
ATOM     58  N   UNL A   1      41.990  29.604  34.459  1.00  0.00    -0.354 N 
ATOM     59  N   UNL A   1      39.838  30.469  32.669  1.00  0.00    -0.248 NA
ATOM     60  C   UNL A   1      37.893  31.696  32.279  1.00  0.00     0.031 C 
ATOM     61  C   UNL A   1      42.116  30.518  36.479  1.00  0.00     0.029 A 
ATOM     62  C   UNL A   1      41.376  30.512  35.308  1.00  0.00     0.049 A 
ATOM     63  H   UNL A   1      41.681  29.383  33.550  1.00  0.00     0.167 HD
ATOM     64  C   UNL A   1      39.539  31.218  33.800  1.00  0.00     0.074 A 
ATOM     65  C   UNL A   1      38.348  31.980  33.490  1.00  0.00     0.031 C 
ATOM     66  C   UNL A   1      40.193  31.272  34.987  1.00  0.00     0.037 A 
BRANCH  53  67
ATOM     67  C   UNL A   1      45.069  27.487  35.328  1.00  0.00     0.064 A 
ATOM     68  C   UNL A   1      46.348  28.065  35.333  1.00  0.00     0.173 A 
ATOM     69  C   UNL A   1      44.853  26.369  36.149  1.00  0.00     0.173 A 
ATOM     70  F   UNL A   1      46.612  29.127  34.556  1.00  0.00    -0.203 F 
ATOM     71  C   UNL A   1      47.376  27.525  36.101  1.00  0.00     0.198 A 
ATOM     72  C   UNL A   1      45.874  25.852  36.941  1.00  0.00     0.198 A 
ATOM     73  F   UNL A   1      43.649  25.780  36.186  1.00  0.00    -0.203 F 
ATOM     74  F   UNL A   1      48.604  28.058  36.044  1.00  0.00    -0.200 F 
ATOM     75  C   UNL A   1      47.137  26.423  36.909  1.00  0.00     0.200 A 
ATOM     76  F   UNL A   1      45.637  24.798  37.733  1.00  0.00    -0.200 F 
ATOM     77  F   UNL A   1      48.127  25.907  37.651  1.00  0.00    -0.200 F 
ENDBRANCH  53  67
BRANCH  54  78
ATOM     78  C   UNL A   1      37.620  30.733  29.528  1.00  0.00     0.064 A 
ATOM     79  C   UNL A   1      37.581  32.046  29.040  1.00  0.00     0.173 A 
ATOM     80  C   UNL A   1      36.544  29.888  29.213  1.00  0.00     0.173 A 
ATOM     81  F   UNL A   1      38.570  32.900  29.338  1.00  0.00    -0.203 F 
ATOM     82  C   UNL A   1      36.503  32.502  28.283  1.00  0.00     0.198 A 
ATOM     83  C   UNL A   1      35.482  30.335  28.429  1.00  0.00     0.198 A 
ATOM     84  F   UNL A   1      36.530  28.624  29.660  1.00  0.00    -0.203 F 
ATOM     85  F   UNL A   1      36.467  33.776  27.872  1.00  0.00    -0.200 F 
ATOM     86  C   UNL A   1      35.458  31.644  27.972  1.00  0.00     0.200 A 
ATOM     87  F   UNL A   1      34.480  29.501  28.123  1.00  0.00    -0.200 F 
ATOM     88  F   UNL A   1      34.423  32.082  27.243  1.00  0.00    -0.200 F 
ENDBRANCH  54  78
BRANCH  66  89
ATOM     89  C   UNL A   1      39.668  32.220  36.030  1.00  0.00     0.064 A 
ATOM     90  C   UNL A   1      40.198  33.508  36.198  1.00  0.00     0.173 A 
ATOM     91  C   UNL A   1      38.586  31.847  36.844  1.00  0.00     0.173 A 
ATOM     92  F   UNL A   1      41.239  33.912  35.454  1.00  0.00    -0.203 F 
ATOM     93  C   UNL A   1      39.684  34.375  37.159  1.00  0.00     0.198 A 
ATOM     94  C   UNL A   1      38.053  32.729  37.780  1.00  0.00     0.198 A 
ATOM     95  F   UNL A   1      38.034  30.631  36.721  1.00  0.00    -0.203 F 
ATOM     96  F   UNL A   1      40.242  35.581  37.337  1.00  0.00    -0.200 F 
ATOM     97  C   UNL A   1      38.607  33.989  37.944  1.00  0.00     0.200 A 
ATOM     98  F   UNL A   1      37.001  32.359  38.523  1.00  0.00    -0.200 F 
ATOM     99  F   UNL A   1      38.110  34.828  38.861  1.00  0.00    -0.200 F 
ENDBRANCH  66  89
ENDBRANCH  40  41
ENDBRANCH  33  35
ENDBRANCH  32  33
ENDBRANCH  31  32
ENDBRANCH  30  31
ENDBRANCH  29  30
ENDBRANCH  28  29
ENDBRANCH   1  28
TORSDOF 21
ENDMDL
MODEL 3
REMARK VINA RESULT:     -10.4      3.723      9.438
REMARK SMILES O=Cc1c(OCc2ccc(C(=O)OCCOCCOCCOC(=O)c3ccc(-c4c5nc(c(-c6c(F)c(F)c(F)c(F)c6F)c6ccc([nH]6)c(-c6c(F)c(F)c(F)c(F)c6F)c6nc(c(-c7c(F)c(F)c(F)c(F)c7F)c7ccc4[nH]7)C=C6)C=C5)cc3)cc2)ccc2ccccc12
REMARK SMILES IDX 17 1 16 2 15 3 14 4 13 5 11 6 12 7 10 8 7 9 8 10 89 11 9 12
REMARK SMILES IDX 88 13 6 14 5 15 4 16 3 17 97 18 90 19 92 20 96 21 91 22
REMARK SMILES IDX 93 23 95 24 94 25 2 26 1 27 18 28 19 29 20 30 21 31 22 32
REMARK SMILES IDX 23 33 24 34 25 35 26 36 87 37 27 38 86 39 28 40 29 41 30 42
REMARK SMILES IDX 80 43 31 44 85 45 79 46 81 47 32 48 84 49 78 50 77 51 33 53
REMARK SMILES IDX 65 54 45 55 64 56 46 57 49 58 63 59 82 60 47 61 48 62 62 64
REMARK SMILES IDX 83 65 50 66 34 67 35 68 43 69 36 70 37 71 41 72 44 73 38 74
REMARK SMILES IDX 39 75 42 76 40 77 66 78 67 79 75 80 68 81 69 82 73 83 76 84
REMARK SMILES IDX 70 85 71 86 74 87 72 88 51 89 52 90 60 91 53 92 54 93 58 94
REMARK SMILES IDX 61 95 55 96 56 97 59 98 57 99
REMARK H PARENT 81 52 49 63
REMARK Flexibility Score: inf
ROOT
ATOM      1  C   UNL A   1      38.290  22.365  25.983  1.00  0.00     0.188 C 
ENDROOT
BRANCH   1   2
ATOM      2  O   UNL A   1      37.879  21.614  24.863  1.00  0.00    -0.376 OA
BRANCH   2   3
ATOM      3  C   UNL A   1      37.002  20.510  24.999  1.00  0.00     0.202 C 
BRANCH   3   4
ATOM      4  C   UNL A   1      35.541  20.586  25.478  1.00  0.00     0.261 C 
BRANCH   4   5
ATOM      5  O   UNL A   1      34.534  20.047  24.621  1.00  0.00    -0.460 OA
BRANCH   5   6
ATOM      6  C   UNL A   1      33.262  20.149  25.086  1.00  0.00     0.338 C 
ATOM      7  O   UNL A   1      32.539  19.239  25.451  1.00  0.00    -0.246 OA
BRANCH   6   8
ATOM      8  C   UNL A   1      32.928  21.576  25.282  1.00  0.00     0.060 A 
ATOM      9  C   UNL A   1      32.308  24.283  25.740  1.00  0.00    -0.011 A 
ATOM     10  C   UNL A   1      32.533  23.407  26.815  1.00  0.00     0.008 A 
ATOM     11  C   UNL A   1      32.404  23.771  24.434  1.00  0.00     0.008 A 
ATOM     12  C   UNL A   1      32.823  22.059  26.589  1.00  0.00     0.016 A 
ATOM     13  C   UNL A   1      32.738  22.434  24.201  1.00  0.00     0.016 A 
BRANCH   9  14
ATOM     14  C   UNL A   1      31.969  25.734  26.056  1.00  0.00     0.265 C 
BRANCH  14  15
ATOM     15  O   UNL A   1      32.099  26.672  24.986  1.00  0.00    -0.488 OA
BRANCH  15  16
ATOM     16  C   UNL A   1      30.994  27.072  24.285  1.00  0.00     0.130 A 
ATOM     17  C   UNL A   1      31.133  28.224  23.486  1.00  0.00     0.064 A 
ATOM     18  C   UNL A   1      30.003  28.879  22.925  1.00  0.00    -0.004 A 
ATOM     19  C   UNL A   1      29.736  26.491  24.424  1.00  0.00     0.048 A 
ATOM     20  C   UNL A   1      28.727  28.310  23.158  1.00  0.00    -0.017 A 
ATOM     21  C   UNL A   1      30.056  30.069  22.156  1.00  0.00     0.009 A 
ATOM     22  C   UNL A   1      28.614  27.111  23.875  1.00  0.00     0.012 A 
ATOM     23  C   UNL A   1      27.572  28.945  22.678  1.00  0.00     0.009 A 
ATOM     24  C   UNL A   1      28.897  30.690  21.685  1.00  0.00     0.001 A 
ATOM     25  C   UNL A   1      27.655  30.133  21.955  1.00  0.00     0.001 A 
BRANCH  17  26
ATOM     26  C   UNL A   1      32.483  28.811  23.302  1.00  0.00     0.264 C 
ATOM     27  O   UNL A   1      33.226  28.508  22.377  1.00  0.00    -0.298 OA
ENDBRANCH  17  26
ENDBRANCH  15  16
ENDBRANCH  14  15
ENDBRANCH   9  14
ENDBRANCH   6   8
ENDBRANCH   5   6
ENDBRANCH   4   5
ENDBRANCH   3   4
ENDBRANCH   2   3
ENDBRANCH   1   2
BRANCH   1  28
ATOM     28  C   UNL A   1      39.778  22.395  26.382  1.00  0.00     0.188 C 
BRANCH  28  29
ATOM     29  O   UNL A   1      40.323  21.316  27.104  1.00  0.00    -0.376 OA
BRANCH  29  30
ATOM     30  C   UNL A   1      40.566  20.068  26.478  1.00  0.00     0.202 C 
BRANCH  30  31
ATOM     31  C   UNL A   1      41.945  19.398  26.309  1.00  0.00     0.261 C 
BRANCH  31  32
ATOM     32  O   UNL A   1      42.512  19.350  24.998  1.00  0.00    -0.460 OA
BRANCH  32  33
ATOM     33  C   UNL A   1      43.864  19.422  24.948  1.00  0.00     0.338 C 
ATOM     34  O   UNL A   1      44.645  18.547  24.620  1.00  0.00    -0.246 OA
BRANCH  33  35
ATOM     35  C   UNL A   1      44.277  20.816  25.193  1.00  0.00     0.060 A 
ATOM     36  C   UNL A   1      44.738  21.162  26.469  1.00  0.00     0.016 A 
ATOM     37  C   UNL A   1      44.167  21.779  24.190  1.00  0.00     0.016 A 
ATOM     38  C   UNL A   1      45.078  22.484  26.753  1.00  0.00     0.010 A 
ATOM     39  C   UNL A   1      44.487  23.108  24.482  1.00  0.00     0.010 A 
ATOM     40  C   UNL A   1      44.918  23.471  25.772  1.00  0.00    -0.014 A 
BRANCH  40  41
ATOM     41  C   UNL A   1      45.042  24.903  26.139  1.00  0.00     0.031 A 
ATOM     42  C   UNL A   1      46.382  25.568  25.998  1.00  0.00     0.074 A 
ATOM     43  C   UNL A   1      43.983  25.605  26.577  1.00  0.00     0.049 A 
ATOM     44  N   UNL A   1      46.745  26.787  26.312  1.00  0.00    -0.248 NA
ATOM     45  C   UNL A   1      47.461  24.746  25.430  1.00  0.00     0.031 C 
ATOM     46  C   UNL A   1      42.624  25.086  26.715  1.00  0.00     0.029 A 
ATOM     47  N   UNL A   1      43.893  26.907  26.999  1.00  0.00    -0.354 N 
ATOM     48  C   UNL A   1      48.093  26.871  25.990  1.00  0.00     0.074 A 
ATOM     49  C   UNL A   1      48.491  25.574  25.486  1.00  0.00     0.031 C 
ATOM     50  C   UNL A   1      41.836  26.059  27.203  1.00  0.00     0.029 A 
ATOM     51  C   UNL A   1      42.642  27.255  27.447  1.00  0.00     0.049 A 
ATOM     52  H   UNL A   1      44.653  27.534  26.983  1.00  0.00     0.167 HD
ATOM     53  C   UNL A   1      48.923  27.936  26.101  1.00  0.00     0.037 A 
ATOM     54  C   UNL A   1      42.209  28.398  28.013  1.00  0.00     0.037 A 
ATOM     55  C   UNL A   1      48.525  29.222  26.609  1.00  0.00     0.049 A 
ATOM     56  C   UNL A   1      43.173  29.543  28.205  1.00  0.00     0.074 A 
ATOM     57  C   UNL A   1      49.286  30.372  26.740  1.00  0.00     0.029 A 
ATOM     58  N   UNL A   1      47.259  29.526  27.088  1.00  0.00    -0.354 N 
ATOM     59  N   UNL A   1      44.438  29.629  27.871  1.00  0.00    -0.248 NA
ATOM     60  C   UNL A   1      42.644  30.753  28.852  1.00  0.00     0.031 C 
ATOM     61  C   UNL A   1      48.498  31.350  27.357  1.00  0.00     0.029 A 
ATOM     62  C   UNL A   1      47.226  30.834  27.545  1.00  0.00     0.049 A 
ATOM     63  H   UNL A   1      46.496  28.904  27.100  1.00  0.00     0.167 HD
ATOM     64  C   UNL A   1      44.845  30.906  28.234  1.00  0.00     0.074 A 
ATOM     65  C   UNL A   1      43.689  31.565  28.804  1.00  0.00     0.031 C 
ATOM     66  C   UNL A   1      46.066  31.484  28.104  1.00  0.00     0.037 A 
BRANCH  53  67
ATOM     67  C   UNL A   1      50.357  27.740  25.698  1.00  0.00     0.064 A 
ATOM     68  C   UNL A   1      51.364  27.486  26.641  1.00  0.00     0.173 A 
ATOM     69  C   UNL A   1      50.724  27.785  24.344  1.00  0.00     0.173 A 
ATOM     70  F   UNL A   1      51.070  27.446  27.950  1.00  0.00    -0.203 F 
ATOM     71  C   UNL A   1      52.690  27.320  26.247  1.00  0.00     0.198 A 
ATOM     72  C   UNL A   1      52.044  27.584  23.951  1.00  0.00     0.198 A 
ATOM     73  F   UNL A   1      49.801  28.020  23.400  1.00  0.00    -0.203 F 
ATOM     74  F   UNL A   1      53.644  27.138  27.171  1.00  0.00    -0.200 F 
ATOM     75  C   UNL A   1      53.028  27.363  24.903  1.00  0.00     0.200 A 
ATOM     76  F   UNL A   1      52.366  27.611  22.651  1.00  0.00    -0.200 F 
ATOM     77  F   UNL A   1      54.303  27.198  24.526  1.00  0.00    -0.200 F 
ENDBRANCH  53  67
BRANCH  54  78
ATOM     78  C   UNL A   1      40.794  28.519  28.455  1.00  0.00     0.064 A 
ATOM     79  C   UNL A   1      39.802  28.987  27.583  1.00  0.00     0.173 A 
ATOM     80  C   UNL A   1      40.408  28.191  29.764  1.00  0.00     0.173 A 
ATOM     81  F   UNL A   1      40.125  29.341  26.331  1.00  0.00    -0.203 F 
ATOM     82  C   UNL A   1      38.483  29.139  28.006  1.00  0.00     0.198 A 
ATOM     83  C   UNL A   1      39.083  28.313  30.177  1.00  0.00     0.198 A 
ATOM     84  F   UNL A   1      41.319  27.743  30.641  1.00  0.00    -0.203 F 
ATOM     85  F   UNL A   1      37.565  29.637  27.166  1.00  0.00    -0.200 F 
ATOM     86  C   UNL A   1      38.123  28.795  29.300  1.00  0.00     0.200 A 
ATOM     87  F   UNL A   1      38.738  27.969  31.425  1.00  0.00    -0.200 F 
ATOM     88  F   UNL A   1      36.854  28.939  29.706  1.00  0.00    -0.200 F 
ENDBRANCH  54  78
BRANCH  66  89
ATOM     89  C   UNL A   1      46.210  32.915  28.543  1.00  0.00     0.064 A 
ATOM     90  C   UNL A   1      46.587  33.257  29.851  1.00  0.00     0.173 A 
ATOM     91  C   UNL A   1      46.011  33.959  27.626  1.00  0.00     0.173 A 
ATOM     92  F   UNL A   1      46.778  32.300  30.770  1.00  0.00    -0.203 F 
ATOM     93  C   UNL A   1      46.730  34.590  30.230  1.00  0.00     0.198 A 
ATOM     94  C   UNL A   1      46.190  35.288  27.999  1.00  0.00     0.198 A 
ATOM     95  F   UNL A   1      45.659  33.691  26.360  1.00  0.00    -0.203 F 
ATOM     96  F   UNL A   1      47.038  34.894  31.499  1.00  0.00    -0.200 F 
ATOM     97  C   UNL A   1      46.540  35.604  29.303  1.00  0.00     0.200 A 
ATOM     98  F   UNL A   1      46.023  36.265  27.096  1.00  0.00    -0.200 F 
ATOM     99  F   UNL A   1      46.687  36.884  29.668  1.00  0.00    -0.200 F 
ENDBRANCH  66  89
ENDBRANCH  40  41
ENDBRANCH  33  35
ENDBRANCH  32  33
ENDBRANCH  31  32
ENDBRANCH  30  31
ENDBRANCH  29  30
ENDBRANCH  28  29
ENDBRANCH   1  28
TORSDOF 21
ENDMDL
