MODEL 1
REMARK VINA RESULT:      -9.4      0.000      0.000
REMARK SMILES C[NH+]1CCN(C(=O)c2ccc3c(c2)N(CC(=O)OCCOCCOCCOC(=O)c2ccc(-c4c5nc(c(-c6c(F)c(F)c(F)c(F)c6F)c6ccc([nH]6)c(-c6c(F)c(F)c(F)c(F)c6F)c6nc(c(-c7c(F)c(F)c(F)c(F)c7F)c7ccc4[nH]7)C=C6)C=C5)cc2)C(=O)CO3)CC1
REMARK SMILES IDX 22 1 21 2 20 3 19 4 18 5 16 6 17 7 15 8 14 9 8 10 9 11 13 12
REMARK SMILES IDX 10 13 12 14 11 15 96 16 93 17 95 18 94 19 6 20 1 21 2 22
REMARK SMILES IDX 3 23 98 24 4 26 97 27 5 28 7 29 23 30 24 31 25 32 26 33
REMARK SMILES IDX 27 34 28 35 29 36 30 37 31 38 92 39 32 40 91 41 33 42 34 43
REMARK SMILES IDX 35 44 85 45 36 46 90 47 84 48 86 49 37 50 89 51 83 52 82 53
REMARK SMILES IDX 38 55 70 56 50 57 69 58 51 59 54 60 68 61 87 62 52 63 53 64
REMARK SMILES IDX 67 66 88 67 55 68 39 69 40 70 48 71 41 72 42 73 46 74 49 75
REMARK SMILES IDX 43 76 44 77 47 78 45 79 71 80 72 81 80 82 73 83 74 84 78 85
REMARK SMILES IDX 81 86 75 87 76 88 79 89 77 90 56 91 57 92 65 93 58 94 59 95
REMARK SMILES IDX 63 96 66 97 60 98 61 99 64 100 62 101
REMARK H PARENT 2 25 86 54 54 65
REMARK Flexibility Score: inf
ROOT
ATOM      1  C   UNL A   1      33.575  35.600  31.989  1.00  0.00     0.188 C 
ENDROOT
BRANCH   1   2
ATOM      2  O   UNL A   1      33.539  34.311  32.549  1.00  0.00    -0.376 OA
BRANCH   2   3
ATOM      3  C   UNL A   1      34.435  33.346  31.995  1.00  0.00     0.202 C 
BRANCH   3   4
ATOM      4  C   UNL A   1      35.719  32.998  32.796  1.00  0.00     0.261 C 
BRANCH   4   5
ATOM      5  O   UNL A   1      36.044  31.566  32.964  1.00  0.00    -0.462 OA
BRANCH   5   6
ATOM      6  C   UNL A   1      37.370  31.276  33.166  1.00  0.00     0.326 C 
ATOM      7  O   UNL A   1      37.812  30.127  33.058  1.00  0.00    -0.250 OA
BRANCH   6   8
ATOM      8  C   UNL A   1      38.384  32.462  33.466  1.00  0.00     0.248 C 
BRANCH   8   9
ATOM      9  N   UNL A   1      39.253  32.726  34.624  1.00  0.00    -0.295 N 
ATOM     10  C   UNL A   1      41.557  29.667  35.437  1.00  0.00     0.042 A 
ATOM     11  C   UNL A   1      42.261  30.259  36.485  1.00  0.00     0.018 A 
ATOM     12  C   UNL A   1      40.333  30.399  35.133  1.00  0.00     0.044 A 
ATOM     13  C   UNL A   1      41.885  31.527  37.004  1.00  0.00     0.049 A 
ATOM     14  C   UNL A   1      40.086  31.787  35.405  1.00  0.00     0.087 A 
ATOM     15  C   UNL A   1      40.862  32.306  36.432  1.00  0.00     0.143 A 
ATOM     16  O   UNL A   1      40.738  33.578  36.923  1.00  0.00    -0.482 OA
ATOM     17  C   UNL A   1      39.111  34.039  35.081  1.00  0.00     0.265 C 
ATOM     18  C   UNL A   1      39.566  34.256  36.508  1.00  0.00     0.330 C 
ATOM     19  O   UNL A   1      38.540  34.922  34.439  1.00  0.00    -0.270 OA
BRANCH  10  20
ATOM     20  C   UNL A   1      42.060  28.211  34.955  1.00  0.00     0.254 C 
ATOM     21  C   UNL A   1      44.865  24.536  38.103  1.00  0.00     0.332 C 
ATOM     22  N   UNL A   1      43.675  24.741  37.249  1.00  0.00    -0.334 N 
ATOM     23  C   UNL A   1      44.054  25.089  35.863  1.00  0.00     0.283 C 
ATOM     24  C   UNL A   1      42.800  25.762  37.847  1.00  0.00     0.283 C 
ATOM     25  H   UNL A   1      43.157  23.864  37.199  1.00  0.00     0.347 HD
ATOM     26  C   UNL A   1      42.945  25.789  34.955  1.00  0.00     0.181 C 
ATOM     27  C   UNL A   1      41.654  26.272  36.902  1.00  0.00     0.181 C 
ATOM     28  N   UNL A   1      42.166  26.882  35.637  1.00  0.00    -0.327 N 
ATOM     29  O   UNL A   1      42.426  28.248  33.767  1.00  0.00    -0.269 OA
ENDBRANCH  10  20
ENDBRANCH   8   9
ENDBRANCH   6   8
ENDBRANCH   5   6
ENDBRANCH   4   5
ENDBRANCH   3   4
ENDBRANCH   2   3
ENDBRANCH   1   2
BRANCH   1  30
ATOM     30  C   UNL A   1      32.952  35.752  30.630  1.00  0.00     0.188 C 
BRANCH  30  31
ATOM     31  O   UNL A   1      33.663  35.677  29.425  1.00  0.00    -0.376 OA
BRANCH  31  32
ATOM     32  C   UNL A   1      33.018  34.710  28.596  1.00  0.00     0.202 C 
BRANCH  32  33
ATOM     33  C   UNL A   1      33.834  33.515  27.987  1.00  0.00     0.261 C 
BRANCH  33  34
ATOM     34  O   UNL A   1      34.028  32.084  28.565  1.00  0.00    -0.460 OA
BRANCH  34  35
ATOM     35  C   UNL A   1      34.428  30.865  28.057  1.00  0.00     0.338 C 
ATOM     36  O   UNL A   1      33.693  30.064  27.490  1.00  0.00    -0.246 OA
BRANCH  35  37
ATOM     37  C   UNL A   1      35.829  30.353  28.360  1.00  0.00     0.060 A 
ATOM     38  C   UNL A   1      36.810  30.386  27.362  1.00  0.00     0.016 A 
ATOM     39  C   UNL A   1      36.181  29.697  29.520  1.00  0.00     0.016 A 
ATOM     40  C   UNL A   1      38.045  29.734  27.529  1.00  0.00     0.010 A 
ATOM     41  C   UNL A   1      37.423  29.102  29.751  1.00  0.00     0.010 A 
ATOM     42  C   UNL A   1      38.387  29.145  28.761  1.00  0.00    -0.014 A 
BRANCH  42  43
ATOM     43  C   UNL A   1      39.802  28.914  29.148  1.00  0.00     0.031 A 
ATOM     44  C   UNL A   1      40.636  29.924  29.888  1.00  0.00     0.074 A 
ATOM     45  C   UNL A   1      40.373  27.827  28.588  1.00  0.00     0.049 A 
ATOM     46  N   UNL A   1      41.903  29.858  30.217  1.00  0.00    -0.248 NA
ATOM     47  C   UNL A   1      40.000  31.202  30.239  1.00  0.00     0.031 C 
ATOM     48  C   UNL A   1      39.695  26.930  27.642  1.00  0.00     0.029 A 
ATOM     49  N   UNL A   1      41.622  27.288  28.703  1.00  0.00    -0.354 N 
ATOM     50  C   UNL A   1      42.226  31.093  30.773  1.00  0.00     0.074 A 
ATOM     51  C   UNL A   1      41.029  31.902  30.705  1.00  0.00     0.031 C 
ATOM     52  C   UNL A   1      40.495  25.904  27.346  1.00  0.00     0.029 A 
ATOM     53  C   UNL A   1      41.761  26.099  28.027  1.00  0.00     0.049 A 
ATOM     54  H   UNL A   1      42.349  27.708  29.216  1.00  0.00     0.167 HD
ATOM     55  C   UNL A   1      43.415  31.489  31.294  1.00  0.00     0.037 A 
ATOM     56  C   UNL A   1      42.794  25.242  27.980  1.00  0.00     0.037 A 
ATOM     57  C   UNL A   1      44.566  30.618  31.373  1.00  0.00     0.049 A 
ATOM     58  C   UNL A   1      44.013  25.603  28.763  1.00  0.00     0.074 A 
ATOM     59  C   UNL A   1      45.783  30.833  31.994  1.00  0.00     0.029 A 
ATOM     60  N   UNL A   1      44.630  29.349  30.806  1.00  0.00    -0.354 N 
ATOM     61  N   UNL A   1      44.268  26.717  29.406  1.00  0.00    -0.248 NA
ATOM     62  C   UNL A   1      45.073  24.598  28.835  1.00  0.00     0.031 C 
ATOM     63  C   UNL A   1      46.589  29.707  31.783  1.00  0.00     0.029 A 
ATOM     64  C   UNL A   1      45.860  28.769  31.067  1.00  0.00     0.049 A 
ATOM     65  H   UNL A   1      43.903  28.924  30.294  1.00  0.00     0.167 HD
ATOM     66  C   UNL A   1      45.523  26.556  29.958  1.00  0.00     0.074 A 
ATOM     67  C   UNL A   1      45.957  25.214  29.608  1.00  0.00     0.031 C 
ATOM     68  C   UNL A   1      46.259  27.439  30.676  1.00  0.00     0.037 A 
BRANCH  55  69
ATOM     69  C   UNL A   1      43.541  32.889  31.846  1.00  0.00     0.064 A 
ATOM     70  C   UNL A   1      43.747  33.999  31.010  1.00  0.00     0.173 A 
ATOM     71  C   UNL A   1      43.370  33.142  33.219  1.00  0.00     0.173 A 
ATOM     72  F   UNL A   1      43.911  33.830  29.690  1.00  0.00    -0.203 F 
ATOM     73  C   UNL A   1      43.805  35.295  31.526  1.00  0.00     0.198 A 
ATOM     74  C   UNL A   1      43.394  34.443  33.727  1.00  0.00     0.198 A 
ATOM     75  F   UNL A   1      43.155  32.130  34.072  1.00  0.00    -0.203 F 
ATOM     76  F   UNL A   1      44.042  36.330  30.707  1.00  0.00    -0.200 F 
ATOM     77  C   UNL A   1      43.618  35.517  32.881  1.00  0.00     0.200 A 
ATOM     78  F   UNL A   1      43.192  34.656  35.035  1.00  0.00    -0.200 F 
ATOM     79  F   UNL A   1      43.653  36.764  33.370  1.00  0.00    -0.200 F 
ENDBRANCH  55  69
BRANCH  56  80
ATOM     80  C   UNL A   1      42.624  23.951  27.270  1.00  0.00     0.064 A 
ATOM     81  C   UNL A   1      43.055  23.811  25.943  1.00  0.00     0.173 A 
ATOM     82  C   UNL A   1      42.180  22.797  27.936  1.00  0.00     0.173 A 
ATOM     83  F   UNL A   1      43.498  24.882  25.269  1.00  0.00    -0.203 F 
ATOM     84  C   UNL A   1      43.049  22.570  25.310  1.00  0.00     0.198 A 
ATOM     85  C   UNL A   1      42.203  21.552  27.311  1.00  0.00     0.198 A 
ATOM     86  F   UNL A   1      41.797  22.870  29.220  1.00  0.00    -0.203 F 
ATOM     87  F   UNL A   1      43.464  22.467  24.041  1.00  0.00    -0.200 F 
ATOM     88  C   UNL A   1      42.636  21.440  25.999  1.00  0.00     0.200 A 
ATOM     89  F   UNL A   1      41.841  20.456  27.992  1.00  0.00    -0.200 F 
ATOM     90  F   UNL A   1      42.669  20.240  25.402  1.00  0.00    -0.200 F 
ENDBRANCH  56  80
BRANCH  68  91
ATOM     91  C   UNL A   1      47.608  26.960  31.107  1.00  0.00     0.064 A 
ATOM     92  C   UNL A   1      47.757  26.115  32.215  1.00  0.00     0.173 A 
ATOM     93  C   UNL A   1      48.759  27.362  30.414  1.00  0.00     0.173 A 
ATOM     94  F   UNL A   1      46.682  25.725  32.916  1.00  0.00    -0.203 F 
ATOM     95  C   UNL A   1      49.019  25.718  32.641  1.00  0.00     0.198 A 
ATOM     96  C   UNL A   1      50.017  26.940  30.827  1.00  0.00     0.198 A 
ATOM     97  F   UNL A   1      48.660  28.169  29.348  1.00  0.00    -0.203 F 
ATOM     98  F   UNL A   1      49.145  24.963  33.741  1.00  0.00    -0.200 F 
ATOM     99  C   UNL A   1      50.147  26.128  31.945  1.00  0.00     0.200 A 
ATOM    100  F   UNL A   1      51.106  27.330  30.152  1.00  0.00    -0.200 F 
ATOM    101  F   UNL A   1      51.364  25.753  32.363  1.00  0.00    -0.200 F 
ENDBRANCH  68  91
ENDBRANCH  42  43
ENDBRANCH  35  37
ENDBRANCH  34  35
ENDBRANCH  33  34
ENDBRANCH  32  33
ENDBRANCH  31  32
ENDBRANCH  30  31
ENDBRANCH   1  30
TORSDOF 19
ENDMDL
MODEL 2
REMARK VINA RESULT:      -9.3      4.460      8.304
REMARK SMILES C[NH+]1CCN(C(=O)c2ccc3c(c2)N(CC(=O)OCCOCCOCCOC(=O)c2ccc(-c4c5nc(c(-c6c(F)c(F)c(F)c(F)c6F)c6ccc([nH]6)c(-c6c(F)c(F)c(F)c(F)c6F)c6nc(c(-c7c(F)c(F)c(F)c(F)c7F)c7ccc4[nH]7)C=C6)C=C5)cc2)C(=O)CO3)CC1
REMARK SMILES IDX 22 1 21 2 20 3 19 4 18 5 16 6 17 7 15 8 14 9 8 10 9 11 13 12
REMARK SMILES IDX 10 13 12 14 11 15 96 16 93 17 95 18 94 19 6 20 1 21 2 22
REMARK SMILES IDX 3 23 98 24 4 26 97 27 5 28 7 29 23 30 24 31 25 32 26 33
REMARK SMILES IDX 27 34 28 35 29 36 30 37 31 38 92 39 32 40 91 41 33 42 34 43
REMARK SMILES IDX 35 44 85 45 36 46 90 47 84 48 86 49 37 50 89 51 83 52 82 53
REMARK SMILES IDX 38 55 70 56 50 57 69 58 51 59 54 60 68 61 87 62 52 63 53 64
REMARK SMILES IDX 67 66 88 67 55 68 39 69 40 70 48 71 41 72 42 73 46 74 49 75
REMARK SMILES IDX 43 76 44 77 47 78 45 79 71 80 72 81 80 82 73 83 74 84 78 85
REMARK SMILES IDX 81 86 75 87 76 88 79 89 77 90 56 91 57 92 65 93 58 94 59 95
REMARK SMILES IDX 63 96 66 97 60 98 61 99 64 100 62 101
REMARK H PARENT 2 25 86 54 54 65
REMARK Flexibility Score: inf
ROOT
ATOM      1  C   UNL A   1      34.769  33.728  28.667  1.00  0.00     0.188 C 
ENDROOT
BRANCH   1   2
ATOM      2  O   UNL A   1      34.062  32.527  28.485  1.00  0.00    -0.376 OA
BRANCH   2   3
ATOM      3  C   UNL A   1      34.658  31.556  27.623  1.00  0.00     0.202 C 
BRANCH   3   4
ATOM      4  C   UNL A   1      35.289  30.294  28.272  1.00  0.00     0.261 C 
BRANCH   4   5
ATOM      5  O   UNL A   1      35.152  29.017  27.541  1.00  0.00    -0.462 OA
BRANCH   5   6
ATOM      6  C   UNL A   1      33.875  28.672  27.178  1.00  0.00     0.326 C 
ATOM      7  O   UNL A   1      32.969  28.550  28.009  1.00  0.00    -0.250 OA
BRANCH   6   8
ATOM      8  C   UNL A   1      33.528  28.504  25.636  1.00  0.00     0.248 C 
BRANCH   8   9
ATOM      9  N   UNL A   1      32.261  28.195  24.955  1.00  0.00    -0.295 N 
ATOM     10  C   UNL A   1      31.788  24.343  24.443  1.00  0.00     0.042 A 
ATOM     11  C   UNL A   1      30.521  24.403  23.866  1.00  0.00     0.018 A 
ATOM     12  C   UNL A   1      32.450  25.642  24.419  1.00  0.00     0.044 A 
ATOM     13  C   UNL A   1      29.928  25.645  23.512  1.00  0.00     0.049 A 
ATOM     14  C   UNL A   1      31.802  26.922  24.360  1.00  0.00     0.087 A 
ATOM     15  C   UNL A   1      30.526  26.883  23.814  1.00  0.00     0.143 A 
ATOM     16  O   UNL A   1      29.755  27.989  23.577  1.00  0.00    -0.482 OA
ATOM     17  C   UNL A   1      31.496  29.347  24.750  1.00  0.00     0.265 C 
ATOM     18  C   UNL A   1      30.452  29.219  23.664  1.00  0.00     0.330 C 
ATOM     19  O   UNL A   1      31.732  30.423  25.303  1.00  0.00    -0.270 OA
BRANCH  10  20
ATOM     20  C   UNL A   1      32.367  22.873  24.773  1.00  0.00     0.254 C 
ATOM     21  C   UNL A   1      37.781  21.480  24.959  1.00  0.00     0.332 C 
ATOM     22  N   UNL A   1      36.502  21.473  25.701  1.00  0.00    -0.334 N 
ATOM     23  C   UNL A   1      35.473  20.671  25.003  1.00  0.00     0.283 C 
ATOM     24  C   UNL A   1      36.050  22.854  25.933  1.00  0.00     0.283 C 
ATOM     25  H   UNL A   1      36.654  21.029  26.605  1.00  0.00     0.347 HD
ATOM     26  C   UNL A   1      33.949  20.935  25.395  1.00  0.00     0.181 C 
ATOM     27  C   UNL A   1      34.575  22.978  26.456  1.00  0.00     0.181 C 
ATOM     28  N   UNL A   1      33.570  22.386  25.521  1.00  0.00    -0.327 N 
ATOM     29  O   UNL A   1      31.632  21.996  24.287  1.00  0.00    -0.269 OA
ENDBRANCH  10  20
ENDBRANCH   8   9
ENDBRANCH   6   8
ENDBRANCH   5   6
ENDBRANCH   4   5
ENDBRANCH   3   4
ENDBRANCH   2   3
ENDBRANCH   1   2
BRANCH   1  30
ATOM     30  C   UNL A   1      34.902  34.213  30.083  1.00  0.00     0.188 C 
BRANCH  30  31
ATOM     31  O   UNL A   1      33.994  33.914  31.108  1.00  0.00    -0.376 OA
BRANCH  31  32
ATOM     32  C   UNL A   1      34.421  32.703  31.732  1.00  0.00     0.202 C 
BRANCH  32  33
ATOM     33  C   UNL A   1      35.486  32.738  32.884  1.00  0.00     0.261 C 
BRANCH  33  34
ATOM     34  O   UNL A   1      36.348  33.940  33.367  1.00  0.00    -0.460 OA
BRANCH  34  35
ATOM     35  C   UNL A   1      37.691  34.156  33.599  1.00  0.00     0.338 C 
ATOM     36  O   UNL A   1      38.145  35.002  34.362  1.00  0.00    -0.246 OA
BRANCH  35  37
ATOM     37  C   UNL A   1      38.722  33.445  32.735  1.00  0.00     0.060 A 
ATOM     38  C   UNL A   1      38.711  33.630  31.348  1.00  0.00     0.016 A 
ATOM     39  C   UNL A   1      39.593  32.483  33.201  1.00  0.00     0.016 A 
ATOM     40  C   UNL A   1      39.500  32.834  30.498  1.00  0.00     0.010 A 
ATOM     41  C   UNL A   1      40.446  31.726  32.395  1.00  0.00     0.010 A 
ATOM     42  C   UNL A   1      40.431  31.920  31.027  1.00  0.00    -0.014 A 
BRANCH  42  43
ATOM     43  C   UNL A   1      41.601  31.456  30.239  1.00  0.00     0.031 A 
ATOM     44  C   UNL A   1      42.757  32.344  29.866  1.00  0.00     0.074 A 
ATOM     45  C   UNL A   1      41.456  30.240  29.672  1.00  0.00     0.049 A 
ATOM     46  N   UNL A   1      43.799  32.064  29.122  1.00  0.00    -0.248 NA
ATOM     47  C   UNL A   1      42.710  33.744  30.315  1.00  0.00     0.031 C 
ATOM     48  C   UNL A   1      40.244  29.416  29.776  1.00  0.00     0.029 A 
ATOM     49  N   UNL A   1      42.293  29.484  28.902  1.00  0.00    -0.354 N 
ATOM     50  C   UNL A   1      44.507  33.255  28.979  1.00  0.00     0.074 A 
ATOM     51  C   UNL A   1      43.755  34.270  29.685  1.00  0.00     0.031 C 
ATOM     52  C   UNL A   1      40.451  28.237  29.187  1.00  0.00     0.029 A 
ATOM     53  C   UNL A   1      41.783  28.241  28.611  1.00  0.00     0.049 A 
ATOM     54  H   UNL A   1      43.171  29.798  28.586  1.00  0.00     0.167 HD
ATOM     55  C   UNL A   1      45.677  33.457  28.322  1.00  0.00     0.037 A 
ATOM     56  C   UNL A   1      42.340  27.202  27.967  1.00  0.00     0.037 A 
ATOM     57  C   UNL A   1      46.404  32.393  27.669  1.00  0.00     0.049 A 
ATOM     58  C   UNL A   1      43.730  27.385  27.456  1.00  0.00     0.074 A 
ATOM     59  C   UNL A   1      47.660  32.420  27.089  1.00  0.00     0.029 A 
ATOM     60  N   UNL A   1      45.928  31.094  27.519  1.00  0.00    -0.354 N 
ATOM     61  N   UNL A   1      44.456  28.478  27.443  1.00  0.00    -0.248 NA
ATOM     62  C   UNL A   1      44.389  26.206  26.895  1.00  0.00     0.031 C 
ATOM     63  C   UNL A   1      47.931  31.149  26.568  1.00  0.00     0.029 A 
ATOM     64  C   UNL A   1      46.864  30.314  26.862  1.00  0.00     0.049 A 
ATOM     65  H   UNL A   1      45.050  30.777  27.836  1.00  0.00     0.167 HD
ATOM     66  C   UNL A   1      45.660  28.125  26.865  1.00  0.00     0.074 A 
ATOM     67  C   UNL A   1      45.578  26.702  26.582  1.00  0.00     0.031 C 
ATOM     68  C   UNL A   1      46.729  28.906  26.578  1.00  0.00     0.037 A 
BRANCH  55  69
ATOM     69  C   UNL A   1      46.268  34.848  28.293  1.00  0.00     0.064 A 
ATOM     70  C   UNL A   1      47.151  35.297  29.288  1.00  0.00     0.173 A 
ATOM     71  C   UNL A   1      46.018  35.717  27.217  1.00  0.00     0.173 A 
ATOM     72  F   UNL A   1      47.438  34.516  30.340  1.00  0.00    -0.203 F 
ATOM     73  C   UNL A   1      47.735  36.563  29.223  1.00  0.00     0.198 A 
ATOM     74  C   UNL A   1      46.630  36.969  27.136  1.00  0.00     0.198 A 
ATOM     75  F   UNL A   1      45.195  35.346  26.224  1.00  0.00    -0.203 F 
ATOM     76  F   UNL A   1      48.544  36.978  30.209  1.00  0.00    -0.200 F 
ATOM     77  C   UNL A   1      47.483  37.394  28.143  1.00  0.00     0.200 A 
ATOM     78  F   UNL A   1      46.401  37.761  26.079  1.00  0.00    -0.200 F 
ATOM     79  F   UNL A   1      48.062  38.601  28.071  1.00  0.00    -0.200 F 
ENDBRANCH  55  69
BRANCH  56  80
ATOM     80  C   UNL A   1      41.604  25.915  27.910  1.00  0.00     0.064 A 
ATOM     81  C   UNL A   1      40.561  25.738  26.990  1.00  0.00     0.173 A 
ATOM     82  C   UNL A   1      42.020  24.796  28.647  1.00  0.00     0.173 A 
ATOM     83  F   UNL A   1      40.135  26.775  26.254  1.00  0.00    -0.203 F 
ATOM     84  C   UNL A   1      39.962  24.492  26.811  1.00  0.00     0.198 A 
ATOM     85  C   UNL A   1      41.441  23.545  28.445  1.00  0.00     0.198 A 
ATOM     86  F   UNL A   1      43.043  24.904  29.509  1.00  0.00    -0.203 F 
ATOM     87  F   UNL A   1      38.965  24.353  25.928  1.00  0.00    -0.200 F 
ATOM     88  C   UNL A   1      40.412  23.395  27.529  1.00  0.00     0.200 A 
ATOM     89  F   UNL A   1      41.906  22.478  29.111  1.00  0.00    -0.200 F 
ATOM     90  F   UNL A   1      39.863  22.189  27.326  1.00  0.00    -0.200 F 
ENDBRANCH  56  80
BRANCH  68  91
ATOM     91  C   UNL A   1      47.878  28.215  25.916  1.00  0.00     0.064 A 
ATOM     92  C   UNL A   1      49.017  27.843  26.644  1.00  0.00     0.173 A 
ATOM     93  C   UNL A   1      47.844  27.936  24.543  1.00  0.00     0.173 A 
ATOM     94  F   UNL A   1      49.097  28.110  27.957  1.00  0.00    -0.203 F 
ATOM     95  C   UNL A   1      50.102  27.249  26.010  1.00  0.00     0.198 A 
ATOM     96  C   UNL A   1      48.921  27.317  23.919  1.00  0.00     0.198 A 
ATOM     97  F   UNL A   1      46.772  28.275  23.810  1.00  0.00    -0.203 F 
ATOM     98  F   UNL A   1      51.208  26.959  26.711  1.00  0.00    -0.200 F 
ATOM     99  C   UNL A   1      50.051  26.984  24.650  1.00  0.00     0.200 A 
ATOM    100  F   UNL A   1      48.869  27.055  22.606  1.00  0.00    -0.200 F 
ATOM    101  F   UNL A   1      51.102  26.421  24.039  1.00  0.00    -0.200 F 
ENDBRANCH  68  91
ENDBRANCH  42  43
ENDBRANCH  35  37
ENDBRANCH  34  35
ENDBRANCH  33  34
ENDBRANCH  32  33
ENDBRANCH  31  32
ENDBRANCH  30  31
ENDBRANCH   1  30
TORSDOF 19
ENDMDL
MODEL 3
REMARK VINA RESULT:      -8.7      2.315      3.702
REMARK SMILES C[NH+]1CCN(C(=O)c2ccc3c(c2)N(CC(=O)OCCOCCOCCOC(=O)c2ccc(-c4c5nc(c(-c6c(F)c(F)c(F)c(F)c6F)c6ccc([nH]6)c(-c6c(F)c(F)c(F)c(F)c6F)c6nc(c(-c7c(F)c(F)c(F)c(F)c7F)c7ccc4[nH]7)C=C6)C=C5)cc2)C(=O)CO3)CC1
REMARK SMILES IDX 22 1 21 2 20 3 19 4 18 5 16 6 17 7 15 8 14 9 8 10 9 11 13 12
REMARK SMILES IDX 10 13 12 14 11 15 96 16 93 17 95 18 94 19 6 20 1 21 2 22
REMARK SMILES IDX 3 23 98 24 4 26 97 27 5 28 7 29 23 30 24 31 25 32 26 33
REMARK SMILES IDX 27 34 28 35 29 36 30 37 31 38 92 39 32 40 91 41 33 42 34 43
REMARK SMILES IDX 35 44 85 45 36 46 90 47 84 48 86 49 37 50 89 51 83 52 82 53
REMARK SMILES IDX 38 55 70 56 50 57 69 58 51 59 54 60 68 61 87 62 52 63 53 64
REMARK SMILES IDX 67 66 88 67 55 68 39 69 40 70 48 71 41 72 42 73 46 74 49 75
REMARK SMILES IDX 43 76 44 77 47 78 45 79 71 80 72 81 80 82 73 83 74 84 78 85
REMARK SMILES IDX 81 86 75 87 76 88 79 89 77 90 56 91 57 92 65 93 58 94 59 95
REMARK SMILES IDX 63 96 66 97 60 98 61 99 64 100 62 101
REMARK H PARENT 2 25 86 54 54 65
REMARK Flexibility Score: inf
ROOT
ATOM      1  C   UNL A   1      33.597  35.268  32.090  1.00  0.00     0.188 C 
ENDROOT
BRANCH   1   2
ATOM      2  O   UNL A   1      33.672  33.961  32.600  1.00  0.00    -0.376 OA
BRANCH   2   3
ATOM      3  C   UNL A   1      34.861  33.224  32.309  1.00  0.00     0.202 C 
BRANCH   3   4
ATOM      4  C   UNL A   1      35.791  32.843  33.492  1.00  0.00     0.261 C 
BRANCH   4   5
ATOM      5  O   UNL A   1      36.680  31.677  33.305  1.00  0.00    -0.462 OA
BRANCH   5   6
ATOM      6  C   UNL A   1      38.026  31.944  33.331  1.00  0.00     0.326 C 
ATOM      7  O   UNL A   1      38.872  31.047  33.263  1.00  0.00    -0.250 OA
BRANCH   6   8
ATOM      8  C   UNL A   1      38.513  33.456  33.366  1.00  0.00     0.248 C 
BRANCH   8   9
ATOM      9  N   UNL A   1      39.374  34.176  34.318  1.00  0.00    -0.295 N 
ATOM     10  C   UNL A   1      38.154  33.720  38.010  1.00  0.00     0.042 A 
ATOM     11  C   UNL A   1      39.184  34.435  38.618  1.00  0.00     0.018 A 
ATOM     12  C   UNL A   1      38.075  34.004  36.582  1.00  0.00     0.044 A 
ATOM     13  C   UNL A   1      40.130  35.167  37.851  1.00  0.00     0.049 A 
ATOM     14  C   UNL A   1      39.149  34.468  35.750  1.00  0.00     0.087 A 
ATOM     15  C   UNL A   1      40.154  35.129  36.444  1.00  0.00     0.143 A 
ATOM     16  O   UNL A   1      41.230  35.734  35.851  1.00  0.00    -0.482 OA
ATOM     17  C   UNL A   1      40.470  34.761  33.677  1.00  0.00     0.265 C 
ATOM     18  C   UNL A   1      41.116  35.890  34.448  1.00  0.00     0.330 C 
ATOM     19  O   UNL A   1      40.806  34.484  32.524  1.00  0.00    -0.270 OA
BRANCH  10  20
ATOM     20  C   UNL A   1      37.125  32.954  38.989  1.00  0.00     0.254 C 
ATOM     21  C   UNL A   1      38.265  31.214  44.182  1.00  0.00     0.332 C 
ATOM     22  N   UNL A   1      37.345  32.017  43.347  1.00  0.00    -0.334 N 
ATOM     23  C   UNL A   1      36.661  31.183  42.335  1.00  0.00     0.283 C 
ATOM     24  C   UNL A   1      38.077  33.134  42.727  1.00  0.00     0.283 C 
ATOM     25  H   UNL A   1      36.618  32.404  43.947  1.00  0.00     0.347 HD
ATOM     26  C   UNL A   1      36.018  31.932  41.082  1.00  0.00     0.181 C 
ATOM     27  C   UNL A   1      37.284  33.887  41.601  1.00  0.00     0.181 C 
ATOM     28  N   UNL A   1      36.887  32.997  40.467  1.00  0.00    -0.327 N 
ATOM     29  O   UNL A   1      36.401  32.180  38.340  1.00  0.00    -0.269 OA
ENDBRANCH  10  20
ENDBRANCH   8   9
ENDBRANCH   6   8
ENDBRANCH   5   6
ENDBRANCH   4   5
ENDBRANCH   3   4
ENDBRANCH   2   3
ENDBRANCH   1   2
BRANCH   1  30
ATOM     30  C   UNL A   1      33.086  35.405  30.684  1.00  0.00     0.188 C 
BRANCH  30  31
ATOM     31  O   UNL A   1      33.897  35.350  29.542  1.00  0.00    -0.376 OA
BRANCH  31  32
ATOM     32  C   UNL A   1      33.277  34.466  28.608  1.00  0.00     0.202 C 
BRANCH  32  33
ATOM     33  C   UNL A   1      34.089  33.277  27.981  1.00  0.00     0.261 C 
BRANCH  33  34
ATOM     34  O   UNL A   1      34.496  31.930  28.645  1.00  0.00    -0.460 OA
BRANCH  34  35
ATOM     35  C   UNL A   1      34.848  30.676  28.188  1.00  0.00     0.338 C 
ATOM     36  O   UNL A   1      34.070  29.859  27.709  1.00  0.00    -0.246 OA
BRANCH  35  37
ATOM     37  C   UNL A   1      36.254  30.155  28.445  1.00  0.00     0.060 A 
ATOM     38  C   UNL A   1      37.213  30.217  27.428  1.00  0.00     0.016 A 
ATOM     39  C   UNL A   1      36.631  29.464  29.577  1.00  0.00     0.016 A 
ATOM     40  C   UNL A   1      38.451  29.560  27.548  1.00  0.00     0.010 A 
ATOM     41  C   UNL A   1      37.877  28.863  29.763  1.00  0.00     0.010 A 
ATOM     42  C   UNL A   1      38.819  28.934  28.754  1.00  0.00    -0.014 A 
BRANCH  42  43
ATOM     43  C   UNL A   1      40.241  28.691  29.104  1.00  0.00     0.031 A 
ATOM     44  C   UNL A   1      41.102  29.691  29.827  1.00  0.00     0.074 A 
ATOM     45  C   UNL A   1      40.790  27.603  28.524  1.00  0.00     0.049 A 
ATOM     46  N   UNL A   1      42.376  29.614  30.123  1.00  0.00    -0.248 NA
ATOM     47  C   UNL A   1      40.484  30.972  30.201  1.00  0.00     0.031 C 
ATOM     48  C   UNL A   1      40.081  26.715  27.591  1.00  0.00     0.029 A 
ATOM     49  N   UNL A   1      42.037  27.055  28.604  1.00  0.00    -0.354 N 
ATOM     50  C   UNL A   1      42.723  30.844  30.677  1.00  0.00     0.074 A 
ATOM     51  C   UNL A   1      41.531  31.663  30.643  1.00  0.00     0.031 C 
ATOM     52  C   UNL A   1      40.866  25.685  27.269  1.00  0.00     0.029 A 
ATOM     53  C   UNL A   1      42.151  25.868  27.919  1.00  0.00     0.049 A 
ATOM     54  H   UNL A   1      42.781  27.467  29.100  1.00  0.00     0.167 HD
ATOM     55  C   UNL A   1      43.928  31.229  31.168  1.00  0.00     0.037 A 
ATOM     56  C   UNL A   1      43.176  25.004  27.841  1.00  0.00     0.037 A 
ATOM     57  C   UNL A   1      45.074  30.349  31.213  1.00  0.00     0.049 A 
ATOM     58  C   UNL A   1      44.417  25.352  28.593  1.00  0.00     0.074 A 
ATOM     59  C   UNL A   1      46.309  30.552  31.804  1.00  0.00     0.029 A 
ATOM     60  N   UNL A   1      45.114  29.083  30.639  1.00  0.00    -0.354 N 
ATOM     61  N   UNL A   1      44.697  26.461  29.235  1.00  0.00    -0.248 NA
ATOM     62  C   UNL A   1      45.471  24.338  28.633  1.00  0.00     0.031 C 
ATOM     63  C   UNL A   1      47.100  29.422  31.566  1.00  0.00     0.029 A 
ATOM     64  C   UNL A   1      46.346  28.493  30.865  1.00  0.00     0.049 A 
ATOM     65  H   UNL A   1      44.371  28.666  30.143  1.00  0.00     0.167 HD
ATOM     66  C   UNL A   1      45.965  26.288  29.754  1.00  0.00     0.074 A 
ATOM     67  C   UNL A   1      46.379  24.945  29.386  1.00  0.00     0.031 C 
ATOM     68  C   UNL A   1      46.725  27.162  30.457  1.00  0.00     0.037 A 
BRANCH  55  69
ATOM     69  C   UNL A   1      44.078  32.626  31.724  1.00  0.00     0.064 A 
ATOM     70  C   UNL A   1      43.983  32.889  33.100  1.00  0.00     0.173 A 
ATOM     71  C   UNL A   1      44.404  33.706  30.885  1.00  0.00     0.173 A 
ATOM     72  F   UNL A   1      43.681  31.903  33.957  1.00  0.00    -0.203 F 
ATOM     73  C   UNL A   1      44.179  34.174  33.609  1.00  0.00     0.198 A 
ATOM     74  C   UNL A   1      44.634  34.983  31.400  1.00  0.00     0.198 A 
ATOM     75  F   UNL A   1      44.525  33.522  29.562  1.00  0.00    -0.203 F 
ATOM     76  F   UNL A   1      44.043  34.401  34.923  1.00  0.00    -0.200 F 
ATOM     77  C   UNL A   1      44.514  35.217  32.761  1.00  0.00     0.200 A 
ATOM     78  F   UNL A   1      44.978  35.985  30.579  1.00  0.00    -0.200 F 
ATOM     79  F   UNL A   1      44.723  36.446  33.253  1.00  0.00    -0.200 F 
ENDBRANCH  55  69
BRANCH  56  80
ATOM     80  C   UNL A   1      42.977  23.717  27.129  1.00  0.00     0.064 A 
ATOM     81  C   UNL A   1      43.541  23.517  25.861  1.00  0.00     0.173 A 
ATOM     82  C   UNL A   1      42.367  22.617  27.752  1.00  0.00     0.173 A 
ATOM     83  F   UNL A   1      44.145  24.534  25.230  1.00  0.00    -0.203 F 
ATOM     84  C   UNL A   1      43.501  22.268  25.244  1.00  0.00     0.198 A 
ATOM     85  C   UNL A   1      42.355  21.363  27.146  1.00  0.00     0.198 A 
ATOM     86  F   UNL A   1      41.851  22.746  28.984  1.00  0.00    -0.203 F 
ATOM     87  F   UNL A   1      44.045  22.107  24.030  1.00  0.00    -0.200 F 
ATOM     88  C   UNL A   1      42.920  21.190  25.893  1.00  0.00     0.200 A 
ATOM     89  F   UNL A   1      41.828  20.314  27.794  1.00  0.00    -0.200 F 
ATOM     90  F   UNL A   1      42.919  19.980  25.316  1.00  0.00    -0.200 F 
ENDBRANCH  56  80
BRANCH  68  91
ATOM     91  C   UNL A   1      48.081  26.671  30.851  1.00  0.00     0.064 A 
ATOM     92  C   UNL A   1      49.201  26.908  30.040  1.00  0.00     0.173 A 
ATOM     93  C   UNL A   1      48.258  25.948  32.038  1.00  0.00     0.173 A 
ATOM     94  F   UNL A   1      49.069  27.579  28.886  1.00  0.00    -0.203 F 
ATOM     95  C   UNL A   1      50.448  26.402  30.388  1.00  0.00     0.198 A 
ATOM     96  C   UNL A   1      49.513  25.467  32.394  1.00  0.00     0.198 A 
ATOM     97  F   UNL A   1      47.213  25.701  32.842  1.00  0.00    -0.203 F 
ATOM     98  F   UNL A   1      51.493  26.583  29.568  1.00  0.00    -0.200 F 
ATOM     99  C   UNL A   1      50.603  25.686  31.565  1.00  0.00     0.200 A 
ATOM    100  F   UNL A   1      49.664  24.781  33.535  1.00  0.00    -0.200 F 
ATOM    101  F   UNL A   1      51.804  25.190  31.893  1.00  0.00    -0.200 F 
ENDBRANCH  68  91
ENDBRANCH  42  43
ENDBRANCH  35  37
ENDBRANCH  34  35
ENDBRANCH  33  34
ENDBRANCH  32  33
ENDBRANCH  31  32
ENDBRANCH  30  31
ENDBRANCH   1  30
TORSDOF 19
ENDMDL
