MODEL 1
REMARK VINA RESULT:     -11.7      0.000      0.000
REMARK SMILES O=C(OCCOCCOCCOC(=O)c1cn(-c2cc(F)cc(F)c2F)c(=O)[nH]c1=O)c1ccc(-c2c3nc(c(-c4c(F)c(F)c(F)c(F)c4F)c4ccc([nH]4)c(-c4c(F)c(F)c(F)c(F)c4F)c4nc(c(-c5c(F)c(F)c(F)c(F)c5F)c5ccc2[nH]5)C=C4)C=C3)cc1
REMARK SMILES IDX 7 1 6 2 5 3 4 4 3 5 2 6 1 7 32 8 33 9 94 10 34 11 93 12
REMARK SMILES IDX 35 13 36 14 37 15 87 16 38 17 92 18 86 19 88 20 39 21 91 22
REMARK SMILES IDX 85 23 84 24 40 26 72 27 52 28 71 29 53 30 56 31 70 32 89 33
REMARK SMILES IDX 54 34 55 35 69 37 90 38 57 39 41 40 42 41 50 42 43 43 44 44
REMARK SMILES IDX 48 45 51 46 45 47 46 48 49 49 47 50 73 51 74 52 82 53 75 54
REMARK SMILES IDX 76 55 80 56 83 57 77 58 78 59 81 60 79 61 58 62 59 63 67 64
REMARK SMILES IDX 60 65 61 66 65 67 68 68 62 69 63 70 66 71 64 72 8 73 9 74
REMARK SMILES IDX 10 75 11 76 12 77 13 78 14 79 15 80 16 81 30 82 17 83 29 84
REMARK SMILES IDX 31 85 27 86 28 88 18 89 19 90 25 91 20 92 23 93 26 94 21 95
REMARK SMILES IDX 22 96 24 97
REMARK H PARENT 88 25 56 36 29 87
REMARK Flexibility Score: inf
ROOT
ATOM      1  C   UNL A   1      34.433  22.187  26.789  1.00  0.00     0.188 C 
ENDROOT
BRANCH   1   2
ATOM      2  O   UNL A   1      35.237  21.225  26.109  1.00  0.00    -0.376 OA
BRANCH   2   3
ATOM      3  C   UNL A   1      35.756  21.536  24.822  1.00  0.00     0.202 C 
BRANCH   3   4
ATOM      4  C   UNL A   1      37.261  21.794  24.677  1.00  0.00     0.261 C 
BRANCH   4   5
ATOM      5  O   UNL A   1      37.802  22.898  25.418  1.00  0.00    -0.460 OA
BRANCH   5   6
ATOM      6  C   UNL A   1      38.953  22.922  26.142  1.00  0.00     0.338 C 
ATOM      7  O   UNL A   1      39.451  21.859  26.506  1.00  0.00    -0.246 OA
BRANCH   6   8
ATOM      8  C   UNL A   1      39.472  24.191  26.757  1.00  0.00     0.060 A 
ATOM      9  C   UNL A   1      39.053  24.474  28.072  1.00  0.00     0.016 A 
ATOM     10  C   UNL A   1      40.256  25.142  26.103  1.00  0.00     0.016 A 
ATOM     11  C   UNL A   1      39.356  25.698  28.677  1.00  0.00     0.010 A 
ATOM     12  C   UNL A   1      40.533  26.373  26.684  1.00  0.00     0.010 A 
ATOM     13  C   UNL A   1      40.086  26.662  27.970  1.00  0.00    -0.014 A 
BRANCH  13  14
ATOM     14  C   UNL A   1      40.592  27.886  28.614  1.00  0.00     0.031 A 
ATOM     15  C   UNL A   1      41.957  27.969  29.208  1.00  0.00     0.074 A 
ATOM     16  C   UNL A   1      39.701  28.870  28.822  1.00  0.00     0.049 A 
ATOM     17  N   UNL A   1      42.578  29.012  29.693  1.00  0.00    -0.248 NA
ATOM     18  C   UNL A   1      42.721  26.716  29.325  1.00  0.00     0.031 C 
ATOM     19  C   UNL A   1      38.274  28.768  28.514  1.00  0.00     0.029 A 
ATOM     20  N   UNL A   1      39.839  30.105  29.389  1.00  0.00    -0.354 N 
ATOM     21  C   UNL A   1      43.858  28.565  29.984  1.00  0.00     0.074 A 
ATOM     22  C   UNL A   1      43.829  27.133  29.928  1.00  0.00     0.031 C 
ATOM     23  C   UNL A   1      37.661  29.889  28.911  1.00  0.00     0.029 A 
ATOM     24  C   UNL A   1      38.657  30.792  29.475  1.00  0.00     0.049 A 
ATOM     25  H   UNL A   1      40.700  30.464  29.702  1.00  0.00     0.167 HD
ATOM     26  C   UNL A   1      44.965  29.342  30.032  1.00  0.00     0.037 A 
ATOM     27  C   UNL A   1      38.410  32.026  29.948  1.00  0.00     0.037 A 
ATOM     28  C   UNL A   1      44.837  30.758  30.459  1.00  0.00     0.049 A 
ATOM     29  C   UNL A   1      39.575  32.864  30.371  1.00  0.00     0.074 A 
ATOM     30  C   UNL A   1      45.786  31.639  30.957  1.00  0.00     0.029 A 
ATOM     31  N   UNL A   1      43.635  31.484  30.472  1.00  0.00    -0.354 N 
ATOM     32  N   UNL A   1      40.846  32.542  30.387  1.00  0.00    -0.248 NA
ATOM     33  C   UNL A   1      39.291  34.235  30.805  1.00  0.00     0.031 C 
ATOM     34  C   UNL A   1      45.201  32.891  31.166  1.00  0.00     0.029 A 
ATOM     35  C   UNL A   1      43.849  32.793  30.896  1.00  0.00     0.049 A 
ATOM     36  H   UNL A   1      42.759  31.116  30.215  1.00  0.00     0.167 HD
ATOM     37  C   UNL A   1      41.519  33.669  30.819  1.00  0.00     0.074 A 
ATOM     38  C   UNL A   1      40.516  34.699  31.022  1.00  0.00     0.031 C 
ATOM     39  C   UNL A   1      42.845  33.823  31.052  1.00  0.00     0.037 A 
BRANCH  26  40
ATOM     40  C   UNL A   1      46.484  28.715  29.647  1.00  0.00     0.064 A 
ATOM     41  C   UNL A   1      47.826  27.347  30.352  1.00  0.00     0.173 A 
ATOM     42  C   UNL A   1      46.443  28.908  27.841  1.00  0.00     0.173 A 
ATOM     43  F   UNL A   1      48.088  26.870  31.604  1.00  0.00    -0.203 F 
ATOM     44  C   UNL A   1      48.811  26.411  29.178  1.00  0.00     0.198 A 
ATOM     45  C   UNL A   1      47.454  27.890  26.831  1.00  0.00     0.198 A 
ATOM     46  F   UNL A   1      45.630  29.810  27.271  1.00  0.00    -0.203 F 
ATOM     47  F   UNL A   1      49.669  25.484  29.622  1.00  0.00    -0.200 F 
ATOM     48  C   UNL A   1      48.583  26.692  27.475  1.00  0.00     0.200 A 
ATOM     49  F   UNL A   1      47.410  28.067  25.502  1.00  0.00    -0.200 F 
ATOM     50  F   UNL A   1      49.332  25.992  26.610  1.00  0.00    -0.200 F 
ENDBRANCH  26  40
BRANCH  27  51
ATOM     51  C   UNL A   1      37.015  32.520  29.932  1.00  0.00     0.064 A 
ATOM     52  C   UNL A   1      36.194  32.385  31.057  1.00  0.00     0.173 A 
ATOM     53  C   UNL A   1      36.526  33.261  28.844  1.00  0.00     0.173 A 
ATOM     54  F   UNL A   1      36.623  31.689  32.119  1.00  0.00    -0.203 F 
ATOM     55  C   UNL A   1      34.934  32.978  31.098  1.00  0.00     0.198 A 
ATOM     56  C   UNL A   1      35.280  33.880  28.900  1.00  0.00     0.198 A 
ATOM     57  F   UNL A   1      37.290  33.441  27.756  1.00  0.00    -0.203 F 
ATOM     58  F   UNL A   1      34.165  32.832  32.185  1.00  0.00    -0.200 F 
ATOM     59  C   UNL A   1      34.486  33.737  30.027  1.00  0.00     0.200 A 
ATOM     60  F   UNL A   1      34.867  34.641  27.878  1.00  0.00    -0.200 F 
ATOM     61  F   UNL A   1      33.291  34.341  30.085  1.00  0.00    -0.200 F 
ENDBRANCH  27  51
BRANCH  39  62
ATOM     62  C   UNL A   1      43.291  35.158  31.583  1.00  0.00     0.064 A 
ATOM     63  C   UNL A   1      43.739  36.163  30.711  1.00  0.00     0.173 A 
ATOM     64  C   UNL A   1      43.194  35.471  32.947  1.00  0.00     0.173 A 
ATOM     65  F   UNL A   1      43.871  35.909  29.401  1.00  0.00    -0.203 F 
ATOM     66  C   UNL A   1      44.074  37.430  31.184  1.00  0.00     0.198 A 
ATOM     67  C   UNL A   1      43.505  36.749  33.414  1.00  0.00     0.198 A 
ATOM     68  F   UNL A   1      42.773  34.549  33.825  1.00  0.00    -0.203 F 
ATOM     69  F   UNL A   1      44.522  38.362  30.333  1.00  0.00    -0.200 F 
ATOM     70  C   UNL A   1      43.944  37.725  32.532  1.00  0.00     0.200 A 
ATOM     71  F   UNL A   1      43.368  37.039  34.715  1.00  0.00    -0.200 F 
ATOM     72  F   UNL A   1      44.241  38.953  32.981  1.00  0.00    -0.200 F 
ENDBRANCH  39  62
ENDBRANCH  13  14
ENDBRANCH   6   8
ENDBRANCH   5   6
ENDBRANCH   4   5
ENDBRANCH   3   4
ENDBRANCH   2   3
ENDBRANCH   1   2
BRANCH   1  73
ATOM     73  C   UNL A   1      33.022  21.808  27.232  1.00  0.00     0.188 C 
BRANCH  73  74
ATOM     74  O   UNL A   1      32.319  22.896  27.795  1.00  0.00    -0.376 OA
BRANCH  74  75
ATOM     75  C   UNL A   1      31.450  23.585  26.905  1.00  0.00     0.202 C 
BRANCH  75  76
ATOM     76  C   UNL A   1      30.742  22.800  25.776  1.00  0.00     0.261 C 
BRANCH  76  77
ATOM     77  O   UNL A   1      30.814  23.300  24.418  1.00  0.00    -0.459 OA
BRANCH  77  78
ATOM     78  C   UNL A   1      31.970  23.218  23.717  1.00  0.00     0.345 C 
ATOM     79  O   UNL A   1      32.576  22.193  23.460  1.00  0.00    -0.246 OA
BRANCH  78  80
ATOM     80  C   UNL A   1      32.381  24.578  23.281  1.00  0.00     0.141 A 
ATOM     81  C   UNL A   1      32.089  25.635  24.047  1.00  0.00     0.118 A 
ATOM     82  C   UNL A   1      33.089  24.839  22.020  1.00  0.00     0.268 A 
ATOM     83  N   UNL A   1      32.500  26.952  23.793  1.00  0.00    -0.265 N 
ATOM     84  N   UNL A   1      33.387  26.151  21.770  1.00  0.00    -0.273 N 
ATOM     85  O   UNL A   1      33.325  23.959  21.200  1.00  0.00    -0.268 OA
ATOM     86  C   UNL A   1      33.159  27.239  22.587  1.00  0.00     0.333 A 
ATOM     87  H   UNL A   1      33.818  26.342  20.905  1.00  0.00     0.175 HD
ATOM     88  O   UNL A   1      33.569  28.333  22.212  1.00  0.00    -0.247 OA
BRANCH  83  89
ATOM     89  C   UNL A   1      32.371  27.980  24.833  1.00  0.00     0.092 A 
ATOM     90  C   UNL A   1      31.257  29.376  24.669  1.00  0.00     0.069 A 
ATOM     91  C   UNL A   1      33.586  27.907  26.097  1.00  0.00     0.183 A 
ATOM     92  C   UNL A   1      31.331  30.819  25.707  1.00  0.00     0.128 A 
ATOM     93  C   UNL A   1      33.769  29.249  27.222  1.00  0.00     0.163 A 
ATOM     94  F   UNL A   1      34.540  26.967  26.133  1.00  0.00    -0.201 F 
ATOM     95  F   UNL A   1      30.513  31.857  25.511  1.00  0.00    -0.207 F 
ATOM     96  C   UNL A   1      32.548  30.855  27.047  1.00  0.00     0.081 A 
ATOM     97  F   UNL A   1      34.812  29.024  28.063  1.00  0.00    -0.204 F 
ENDBRANCH  83  89
ENDBRANCH  78  80
ENDBRANCH  77  78
ENDBRANCH  76  77
ENDBRANCH  75  76
ENDBRANCH  74  75
ENDBRANCH  73  74
ENDBRANCH   1  73
TORSDOF 18
ENDMDL
MODEL 2
REMARK VINA RESULT:     -11.4      1.642      2.426
REMARK SMILES O=C(OCCOCCOCCOC(=O)c1cn(-c2cc(F)cc(F)c2F)c(=O)[nH]c1=O)c1ccc(-c2c3nc(c(-c4c(F)c(F)c(F)c(F)c4F)c4ccc([nH]4)c(-c4c(F)c(F)c(F)c(F)c4F)c4nc(c(-c5c(F)c(F)c(F)c(F)c5F)c5ccc2[nH]5)C=C4)C=C3)cc1
REMARK SMILES IDX 7 1 6 2 5 3 4 4 3 5 2 6 1 7 32 8 33 9 94 10 34 11 93 12
REMARK SMILES IDX 35 13 36 14 37 15 87 16 38 17 92 18 86 19 88 20 39 21 91 22
REMARK SMILES IDX 85 23 84 24 40 26 72 27 52 28 71 29 53 30 56 31 70 32 89 33
REMARK SMILES IDX 54 34 55 35 69 37 90 38 57 39 41 40 42 41 50 42 43 43 44 44
REMARK SMILES IDX 48 45 51 46 45 47 46 48 49 49 47 50 73 51 74 52 82 53 75 54
REMARK SMILES IDX 76 55 80 56 83 57 77 58 78 59 81 60 79 61 58 62 59 63 67 64
REMARK SMILES IDX 60 65 61 66 65 67 68 68 62 69 63 70 66 71 64 72 8 73 9 74
REMARK SMILES IDX 10 75 11 76 12 77 13 78 14 79 15 80 16 81 30 82 17 83 29 84
REMARK SMILES IDX 31 85 27 86 28 88 18 89 19 90 25 91 20 92 23 93 26 94 21 95
REMARK SMILES IDX 22 96 24 97
REMARK H PARENT 88 25 56 36 29 87
REMARK Flexibility Score: inf
ROOT
ATOM      1  C   UNL A   1      33.946  19.672  24.643  1.00  0.00     0.188 C 
ENDROOT
BRANCH   1   2
ATOM      2  O   UNL A   1      35.251  20.125  24.996  1.00  0.00    -0.376 OA
BRANCH   2   3
ATOM      3  C   UNL A   1      35.621  21.469  24.718  1.00  0.00     0.202 C 
BRANCH   3   4
ATOM      4  C   UNL A   1      37.112  21.832  24.681  1.00  0.00     0.261 C 
BRANCH   4   5
ATOM      5  O   UNL A   1      37.580  22.743  25.685  1.00  0.00    -0.460 OA
BRANCH   5   6
ATOM      6  C   UNL A   1      38.834  22.828  26.205  1.00  0.00     0.338 C 
ATOM      7  O   UNL A   1      39.454  21.793  26.436  1.00  0.00    -0.246 OA
BRANCH   6   8
ATOM      8  C   UNL A   1      39.368  24.112  26.774  1.00  0.00     0.060 A 
ATOM      9  C   UNL A   1      38.976  24.432  28.089  1.00  0.00     0.016 A 
ATOM     10  C   UNL A   1      40.141  25.042  26.079  1.00  0.00     0.016 A 
ATOM     11  C   UNL A   1      39.294  25.672  28.654  1.00  0.00     0.010 A 
ATOM     12  C   UNL A   1      40.433  26.288  26.620  1.00  0.00     0.010 A 
ATOM     13  C   UNL A   1      40.012  26.614  27.906  1.00  0.00    -0.014 A 
BRANCH  13  14
ATOM     14  C   UNL A   1      40.534  27.854  28.505  1.00  0.00     0.031 A 
ATOM     15  C   UNL A   1      41.922  27.959  29.038  1.00  0.00     0.074 A 
ATOM     16  C   UNL A   1      39.644  28.834  28.734  1.00  0.00     0.049 A 
ATOM     17  N   UNL A   1      42.554  29.016  29.477  1.00  0.00    -0.248 NA
ATOM     18  C   UNL A   1      42.702  26.715  29.145  1.00  0.00     0.031 C 
ATOM     19  C   UNL A   1      38.205  28.713  28.489  1.00  0.00     0.029 A 
ATOM     20  N   UNL A   1      39.794  30.080  29.272  1.00  0.00    -0.354 N 
ATOM     21  C   UNL A   1      43.849  28.586  29.721  1.00  0.00     0.074 A 
ATOM     22  C   UNL A   1      43.831  27.152  29.692  1.00  0.00     0.031 C 
ATOM     23  C   UNL A   1      37.600  29.837  28.892  1.00  0.00     0.029 A 
ATOM     24  C   UNL A   1      38.610  30.758  29.397  1.00  0.00     0.049 A 
ATOM     25  H   UNL A   1      40.664  30.452  29.541  1.00  0.00     0.167 HD
ATOM     26  C   UNL A   1      44.950  29.373  29.707  1.00  0.00     0.037 A 
ATOM     27  C   UNL A   1      38.372  31.998  29.858  1.00  0.00     0.037 A 
ATOM     28  C   UNL A   1      44.827  30.795  30.114  1.00  0.00     0.049 A 
ATOM     29  C   UNL A   1      39.546  32.854  30.215  1.00  0.00     0.074 A 
ATOM     30  C   UNL A   1      45.788  31.693  30.555  1.00  0.00     0.029 A 
ATOM     31  N   UNL A   1      43.620  31.510  30.166  1.00  0.00    -0.354 N 
ATOM     32  N   UNL A   1      40.820  32.543  30.182  1.00  0.00    -0.248 NA
ATOM     33  C   UNL A   1      39.268  34.230  30.637  1.00  0.00     0.031 C 
ATOM     34  C   UNL A   1      45.200  32.944  30.767  1.00  0.00     0.029 A 
ATOM     35  C   UNL A   1      43.840  32.829  30.556  1.00  0.00     0.049 A 
ATOM     36  H   UNL A   1      42.737  31.131  29.954  1.00  0.00     0.167 HD
ATOM     37  C   UNL A   1      41.500  33.684  30.565  1.00  0.00     0.074 A 
ATOM     38  C   UNL A   1      40.497  34.709  30.792  1.00  0.00     0.031 C 
ATOM     39  C   UNL A   1      42.834  33.853  30.737  1.00  0.00     0.037 A 
BRANCH  26  40
ATOM     40  C   UNL A   1      46.457  28.752  29.269  1.00  0.00     0.064 A 
ATOM     41  C   UNL A   1      47.859  27.438  29.961  1.00  0.00     0.173 A 
ATOM     42  C   UNL A   1      46.315  28.861  27.461  1.00  0.00     0.173 A 
ATOM     43  F   UNL A   1      48.196  27.024  31.217  1.00  0.00    -0.203 F 
ATOM     44  C   UNL A   1      48.796  26.464  28.778  1.00  0.00     0.198 A 
ATOM     45  C   UNL A   1      47.287  27.812  26.444  1.00  0.00     0.198 A 
ATOM     46  F   UNL A   1      45.456  29.722  26.896  1.00  0.00    -0.203 F 
ATOM     47  F   UNL A   1      49.693  25.573  29.217  1.00  0.00    -0.200 F 
ATOM     48  C   UNL A   1      48.471  26.663  27.080  1.00  0.00     0.200 A 
ATOM     49  F   UNL A   1      47.169  27.927  25.113  1.00  0.00    -0.200 F 
ATOM     50  F   UNL A   1      49.184  25.935  26.207  1.00  0.00    -0.200 F 
ENDBRANCH  26  40
BRANCH  27  51
ATOM     51  C   UNL A   1      36.973  32.479  29.893  1.00  0.00     0.064 A 
ATOM     52  C   UNL A   1      36.197  32.344  31.049  1.00  0.00     0.173 A 
ATOM     53  C   UNL A   1      36.435  33.210  28.820  1.00  0.00     0.173 A 
ATOM     54  F   UNL A   1      36.673  31.659  32.099  1.00  0.00    -0.203 F 
ATOM     55  C   UNL A   1      34.935  32.927  31.136  1.00  0.00     0.198 A 
ATOM     56  C   UNL A   1      35.188  33.818  28.921  1.00  0.00     0.198 A 
ATOM     57  F   UNL A   1      37.155  33.390  27.703  1.00  0.00    -0.203 F 
ATOM     58  F   UNL A   1      34.210  32.781  32.253  1.00  0.00    -0.200 F 
ATOM     59  C   UNL A   1      34.439  33.675  30.078  1.00  0.00     0.200 A 
ATOM     60  F   UNL A   1      34.728  34.570  27.911  1.00  0.00    -0.200 F 
ATOM     61  F   UNL A   1      33.242  34.269  30.180  1.00  0.00    -0.200 F 
ENDBRANCH  27  51
BRANCH  39  62
ATOM     62  C   UNL A   1      43.290  35.202  31.225  1.00  0.00     0.064 A 
ATOM     63  C   UNL A   1      43.369  35.478  32.600  1.00  0.00     0.173 A 
ATOM     64  C   UNL A   1      43.729  36.191  30.333  1.00  0.00     0.173 A 
ATOM     65  F   UNL A   1      42.942  34.574  33.493  1.00  0.00    -0.203 F 
ATOM     66  C   UNL A   1      43.869  36.692  33.062  1.00  0.00     0.198 A 
ATOM     67  C   UNL A   1      44.254  37.396  30.800  1.00  0.00     0.198 A 
ATOM     68  F   UNL A   1      43.675  35.981  29.010  1.00  0.00    -0.203 F 
ATOM     69  F   UNL A   1      43.910  36.939  34.378  1.00  0.00    -0.200 F 
ATOM     70  C   UNL A   1      44.323  37.644  32.163  1.00  0.00     0.200 A 
ATOM     71  F   UNL A   1      44.704  38.313  29.932  1.00  0.00    -0.200 F 
ATOM     72  F   UNL A   1      44.830  38.802  32.611  1.00  0.00    -0.200 F 
ENDBRANCH  39  62
ENDBRANCH  13  14
ENDBRANCH   6   8
ENDBRANCH   5   6
ENDBRANCH   4   5
ENDBRANCH   3   4
ENDBRANCH   2   3
ENDBRANCH   1   2
BRANCH   1  73
ATOM     73  C   UNL A   1      32.874  20.691  24.265  1.00  0.00     0.188 C 
BRANCH  73  74
ATOM     74  O   UNL A   1      32.171  21.181  25.388  1.00  0.00    -0.376 OA
BRANCH  74  75
ATOM     75  C   UNL A   1      31.939  22.584  25.396  1.00  0.00     0.202 C 
BRANCH  75  76
ATOM     76  C   UNL A   1      32.573  23.452  26.507  1.00  0.00     0.261 C 
BRANCH  76  77
ATOM     77  O   UNL A   1      32.428  24.892  26.446  1.00  0.00    -0.459 OA
BRANCH  77  78
ATOM     78  C   UNL A   1      33.291  25.638  25.717  1.00  0.00     0.345 C 
ATOM     79  O   UNL A   1      34.341  26.108  26.118  1.00  0.00    -0.246 OA
BRANCH  78  80
ATOM     80  C   UNL A   1      32.773  25.779  24.331  1.00  0.00     0.141 A 
ATOM     81  C   UNL A   1      31.646  26.465  24.112  1.00  0.00     0.118 A 
ATOM     82  C   UNL A   1      33.431  25.180  23.161  1.00  0.00     0.268 A 
ATOM     83  N   UNL A   1      31.107  26.747  22.849  1.00  0.00    -0.265 N 
ATOM     84  N   UNL A   1      32.817  25.404  21.959  1.00  0.00    -0.273 N 
ATOM     85  O   UNL A   1      34.415  24.455  23.256  1.00  0.00    -0.268 OA
ATOM     86  C   UNL A   1      31.698  26.172  21.713  1.00  0.00     0.333 A 
ATOM     87  H   UNL A   1      33.222  24.965  21.176  1.00  0.00     0.175 HD
ATOM     88  O   UNL A   1      31.343  26.309  20.546  1.00  0.00    -0.247 OA
BRANCH  83  89
ATOM     89  C   UNL A   1      30.034  27.739  22.707  1.00  0.00     0.092 A 
ATOM     90  C   UNL A   1      30.351  29.430  22.198  1.00  0.00     0.069 A 
ATOM     91  C   UNL A   1      28.479  27.240  23.350  1.00  0.00     0.183 A 
ATOM     92  C   UNL A   1      29.164  30.745  22.365  1.00  0.00     0.128 A 
ATOM     93  C   UNL A   1      27.190  28.423  23.554  1.00  0.00     0.163 A 
ATOM     94  F   UNL A   1      28.273  26.036  23.899  1.00  0.00    -0.201 F 
ATOM     95  F   UNL A   1      29.467  31.999  22.020  1.00  0.00    -0.207 F 
ATOM     96  C   UNL A   1      27.523  30.347  23.018  1.00  0.00     0.081 A 
ATOM     97  F   UNL A   1      26.106  27.847  24.137  1.00  0.00    -0.204 F 
ENDBRANCH  83  89
ENDBRANCH  78  80
ENDBRANCH  77  78
ENDBRANCH  76  77
ENDBRANCH  75  76
ENDBRANCH  74  75
ENDBRANCH  73  74
ENDBRANCH   1  73
TORSDOF 18
ENDMDL
MODEL 3
REMARK VINA RESULT:     -11.4      3.680      8.296
REMARK SMILES O=C(OCCOCCOCCOC(=O)c1cn(-c2cc(F)cc(F)c2F)c(=O)[nH]c1=O)c1ccc(-c2c3nc(c(-c4c(F)c(F)c(F)c(F)c4F)c4ccc([nH]4)c(-c4c(F)c(F)c(F)c(F)c4F)c4nc(c(-c5c(F)c(F)c(F)c(F)c5F)c5ccc2[nH]5)C=C4)C=C3)cc1
REMARK SMILES IDX 7 1 6 2 5 3 4 4 3 5 2 6 1 7 32 8 33 9 94 10 34 11 93 12
REMARK SMILES IDX 35 13 36 14 37 15 87 16 38 17 92 18 86 19 88 20 39 21 91 22
REMARK SMILES IDX 85 23 84 24 40 26 72 27 52 28 71 29 53 30 56 31 70 32 89 33
REMARK SMILES IDX 54 34 55 35 69 37 90 38 57 39 41 40 42 41 50 42 43 43 44 44
REMARK SMILES IDX 48 45 51 46 45 47 46 48 49 49 47 50 73 51 74 52 82 53 75 54
REMARK SMILES IDX 76 55 80 56 83 57 77 58 78 59 81 60 79 61 58 62 59 63 67 64
REMARK SMILES IDX 60 65 61 66 65 67 68 68 62 69 63 70 66 71 64 72 8 73 9 74
REMARK SMILES IDX 10 75 11 76 12 77 13 78 14 79 15 80 16 81 30 82 17 83 29 84
REMARK SMILES IDX 31 85 27 86 28 88 18 89 19 90 25 91 20 92 23 93 26 94 21 95
REMARK SMILES IDX 22 96 24 97
REMARK H PARENT 88 25 56 36 29 87
REMARK Flexibility Score: inf
ROOT
ATOM      1  C   UNL A   1      39.274  20.596  25.802  1.00  0.00     0.188 C 
ENDROOT
BRANCH   1   2
ATOM      2  O   UNL A   1      40.341  21.071  26.621  1.00  0.00    -0.376 OA
BRANCH   2   3
ATOM      3  C   UNL A   1      41.616  20.450  26.533  1.00  0.00     0.202 C 
BRANCH   3   4
ATOM      4  C   UNL A   1      42.756  21.199  25.830  1.00  0.00     0.261 C 
BRANCH   4   5
ATOM      5  O   UNL A   1      42.396  22.372  25.087  1.00  0.00    -0.460 OA
BRANCH   5   6
ATOM      6  C   UNL A   1      42.945  23.613  25.183  1.00  0.00     0.338 C 
ATOM      7  O   UNL A   1      43.974  23.859  24.557  1.00  0.00    -0.246 OA
BRANCH   6   8
ATOM      8  C   UNL A   1      42.514  24.586  26.242  1.00  0.00     0.060 A 
ATOM      9  C   UNL A   1      43.299  25.747  26.394  1.00  0.00     0.016 A 
ATOM     10  C   UNL A   1      41.459  24.391  27.135  1.00  0.00     0.016 A 
ATOM     11  C   UNL A   1      43.071  26.638  27.447  1.00  0.00     0.010 A 
ATOM     12  C   UNL A   1      41.248  25.254  28.204  1.00  0.00     0.010 A 
ATOM     13  C   UNL A   1      42.049  26.379  28.370  1.00  0.00    -0.014 A 
BRANCH  13  14
ATOM     14  C   UNL A   1      41.644  27.368  29.384  1.00  0.00     0.031 A 
ATOM     15  C   UNL A   1      40.719  28.496  29.073  1.00  0.00     0.074 A 
ATOM     16  C   UNL A   1      42.296  27.329  30.558  1.00  0.00     0.049 A 
ATOM     17  N   UNL A   1      40.181  29.363  29.890  1.00  0.00    -0.248 NA
ATOM     18  C   UNL A   1      40.383  28.724  27.658  1.00  0.00     0.031 C 
ATOM     19  C   UNL A   1      43.409  26.425  30.852  1.00  0.00     0.029 A 
ATOM     20  N   UNL A   1      42.171  28.092  31.683  1.00  0.00    -0.354 N 
ATOM     21  C   UNL A   1      39.306  30.099  29.106  1.00  0.00     0.074 A 
ATOM     22  C   UNL A   1      39.614  29.804  27.737  1.00  0.00     0.031 C 
ATOM     23  C   UNL A   1      43.878  26.697  32.076  1.00  0.00     0.029 A 
ATOM     24  C   UNL A   1      43.082  27.773  32.654  1.00  0.00     0.049 A 
ATOM     25  H   UNL A   1      41.493  28.799  31.786  1.00  0.00     0.167 HD
ATOM     26  C   UNL A   1      38.205  30.744  29.557  1.00  0.00     0.037 A 
ATOM     27  C   UNL A   1      43.247  28.287  33.886  1.00  0.00     0.037 A 
ATOM     28  C   UNL A   1      38.207  31.298  30.935  1.00  0.00     0.049 A 
ATOM     29  C   UNL A   1      42.254  29.299  34.363  1.00  0.00     0.074 A 
ATOM     30  C   UNL A   1      37.425  32.292  31.508  1.00  0.00     0.029 A 
ATOM     31  N   UNL A   1      39.093  30.911  31.952  1.00  0.00    -0.354 N 
ATOM     32  N   UNL A   1      41.234  29.808  33.715  1.00  0.00    -0.248 NA
ATOM     33  C   UNL A   1      42.403  29.786  35.738  1.00  0.00     0.031 C 
ATOM     34  C   UNL A   1      37.757  32.429  32.858  1.00  0.00     0.029 A 
ATOM     35  C   UNL A   1      38.821  31.592  33.135  1.00  0.00     0.049 A 
ATOM     36  H   UNL A   1      39.811  30.246  31.843  1.00  0.00     0.167 HD
ATOM     37  C   UNL A   1      40.608  30.664  34.602  1.00  0.00     0.074 A 
ATOM     38  C   UNL A   1      41.345  30.580  35.850  1.00  0.00     0.031 C 
ATOM     39  C   UNL A   1      39.537  31.466  34.386  1.00  0.00     0.037 A 
BRANCH  26  40
ATOM     40  C   UNL A   1      36.853  30.953  28.569  1.00  0.00     0.064 A 
ATOM     41  C   UNL A   1      35.093  30.019  28.124  1.00  0.00     0.173 A 
ATOM     42  C   UNL A   1      36.816  32.768  28.485  1.00  0.00     0.173 A 
ATOM     43  F   UNL A   1      34.707  28.710  28.158  1.00  0.00    -0.203 F 
ATOM     44  C   UNL A   1      33.650  31.019  27.744  1.00  0.00     0.198 A 
ATOM     45  C   UNL A   1      35.311  33.594  28.126  1.00  0.00     0.198 A 
ATOM     46  F   UNL A   1      37.927  33.482  28.716  1.00  0.00    -0.203 F 
ATOM     47  F   UNL A   1      32.480  30.423  27.485  1.00  0.00    -0.200 F 
ATOM     48  C   UNL A   1      33.796  32.753  27.777  1.00  0.00     0.200 A 
ATOM     49  F   UNL A   1      35.320  34.934  28.058  1.00  0.00    -0.200 F 
ATOM     50  F   UNL A   1      32.713  33.488  27.482  1.00  0.00    -0.200 F 
ENDBRANCH  26  40
BRANCH  27  51
ATOM     51  C   UNL A   1      44.337  27.753  34.732  1.00  0.00     0.064 A 
ATOM     52  C   UNL A   1      45.617  28.314  34.689  1.00  0.00     0.173 A 
ATOM     53  C   UNL A   1      44.081  26.767  35.699  1.00  0.00     0.173 A 
ATOM     54  F   UNL A   1      45.904  29.261  33.784  1.00  0.00    -0.203 F 
ATOM     55  C   UNL A   1      46.603  27.915  35.588  1.00  0.00     0.198 A 
ATOM     56  C   UNL A   1      45.058  26.393  36.617  1.00  0.00     0.198 A 
ATOM     57  F   UNL A   1      42.859  26.223  35.796  1.00  0.00    -0.203 F 
ATOM     58  F   UNL A   1      47.824  28.465  35.526  1.00  0.00    -0.200 F 
ATOM     59  C   UNL A   1      46.318  26.966  36.560  1.00  0.00     0.200 A 
ATOM     60  F   UNL A   1      44.766  25.504  37.576  1.00  0.00    -0.200 F 
ATOM     61  F   UNL A   1      47.256  26.614  37.449  1.00  0.00    -0.200 F 
ENDBRANCH  27  51
BRANCH  39  62
ATOM     62  C   UNL A   1      39.107  32.347  35.528  1.00  0.00     0.064 A 
ATOM     63  C   UNL A   1      38.308  31.838  36.565  1.00  0.00     0.173 A 
ATOM     64  C   UNL A   1      39.558  33.671  35.640  1.00  0.00     0.173 A 
ATOM     65  F   UNL A   1      37.834  30.586  36.496  1.00  0.00    -0.203 F 
ATOM     66  C   UNL A   1      37.976  32.621  37.668  1.00  0.00     0.198 A 
ATOM     67  C   UNL A   1      39.246  34.443  36.759  1.00  0.00     0.198 A 
ATOM     68  F   UNL A   1      40.324  34.208  34.679  1.00  0.00    -0.203 F 
ATOM     69  F   UNL A   1      37.191  32.118  38.630  1.00  0.00    -0.200 F 
ATOM     70  C   UNL A   1      38.456  33.917  37.770  1.00  0.00     0.200 A 
ATOM     71  F   UNL A   1      39.718  35.693  36.864  1.00  0.00    -0.200 F 
ATOM     72  F   UNL A   1      38.157  34.660  38.846  1.00  0.00    -0.200 F 
ENDBRANCH  39  62
ENDBRANCH  13  14
ENDBRANCH   6   8
ENDBRANCH   5   6
ENDBRANCH   4   5
ENDBRANCH   3   4
ENDBRANCH   2   3
ENDBRANCH   1   2
BRANCH   1  73
ATOM     73  C   UNL A   1      38.163  21.557  25.383  1.00  0.00     0.188 C 
BRANCH  73  74
ATOM     74  O   UNL A   1      36.887  21.134  25.816  1.00  0.00    -0.376 OA
BRANCH  74  75
ATOM     75  C   UNL A   1      35.939  20.907  24.781  1.00  0.00     0.202 C 
BRANCH  75  76
ATOM     76  C   UNL A   1      34.496  21.439  24.944  1.00  0.00     0.261 C 
BRANCH  76  77
ATOM     77  O   UNL A   1      33.887  22.168  23.851  1.00  0.00    -0.459 OA
BRANCH  77  78
ATOM     78  C   UNL A   1      34.507  23.245  23.314  1.00  0.00     0.345 C 
ATOM     79  O   UNL A   1      35.295  23.222  22.385  1.00  0.00    -0.246 OA
BRANCH  78  80
ATOM     80  C   UNL A   1      34.060  24.476  24.016  1.00  0.00     0.141 A 
ATOM     81  C   UNL A   1      33.095  25.230  23.478  1.00  0.00     0.118 A 
ATOM     82  C   UNL A   1      34.640  24.934  25.286  1.00  0.00     0.268 A 
ATOM     83  N   UNL A   1      32.523  26.359  24.083  1.00  0.00    -0.265 N 
ATOM     84  N   UNL A   1      34.113  26.092  25.792  1.00  0.00    -0.273 N 
ATOM     85  O   UNL A   1      35.589  24.372  25.820  1.00  0.00    -0.268 OA
ATOM     86  C   UNL A   1      33.068  26.836  25.286  1.00  0.00     0.333 A 
ATOM     87  H   UNL A   1      34.529  26.433  26.617  1.00  0.00     0.175 HD
ATOM     88  O   UNL A   1      32.694  27.810  25.931  1.00  0.00    -0.247 OA
BRANCH  83  89
ATOM     89  C   UNL A   1      31.289  26.942  23.544  1.00  0.00     0.092 A 
ATOM     90  C   UNL A   1      31.282  28.454  22.580  1.00  0.00     0.069 A 
ATOM     91  C   UNL A   1      29.807  26.225  24.155  1.00  0.00     0.183 A 
ATOM     92  C   UNL A   1      29.809  29.387  22.225  1.00  0.00     0.128 A 
ATOM     93  C   UNL A   1      28.261  27.017  23.865  1.00  0.00     0.163 A 
ATOM     94  F   UNL A   1      29.798  25.203  25.020  1.00  0.00    -0.201 F 
ATOM     95  F   UNL A   1      29.864  30.537  21.547  1.00  0.00    -0.207 F 
ATOM     96  C   UNL A   1      28.220  28.743  22.806  1.00  0.00     0.081 A 
ATOM     97  F   UNL A   1      27.259  26.342  24.487  1.00  0.00    -0.204 F 
ENDBRANCH  83  89
ENDBRANCH  78  80
ENDBRANCH  77  78
ENDBRANCH  76  77
ENDBRANCH  75  76
ENDBRANCH  74  75
ENDBRANCH  73  74
ENDBRANCH   1  73
TORSDOF 18
ENDMDL
