MODEL 1
REMARK VINA RESULT:     -12.1      0.000      0.000
REMARK SMILES CC[C@@H](C(=O)Nc1ccc(OC(C)=O)cc1C(=O)OCCOCCOCCOC(=O)c1ccc(-c2c3nc(c(-c4c(F)c(F)c(F)c(F)c4F)c4ccc([nH]4)c(-c4c(F)c(F)c(F)c(F)c4F)c4nc(c(-c5c(F)c(F)c(F)c(F)c5F)c5ccc2[nH]5)C=C4)C=C3)cc1)c1ccccc1
REMARK SMILES IDX 23 1 22 2 21 3 20 4 19 5 17 6 18 7 16 8 7 9 8 10 9 11 15 12
REMARK SMILES IDX 10 13 6 14 4 15 5 16 3 18 2 19 1 20 94 21 95 22 99 23 96 24
REMARK SMILES IDX 98 25 97 26 11 27 12 28 13 29 14 30 24 31 25 32 26 33 27 34
REMARK SMILES IDX 28 35 29 36 30 37 31 38 32 39 93 40 33 41 92 42 34 43 35 44
REMARK SMILES IDX 36 45 86 46 37 47 91 48 85 49 87 50 38 51 90 52 84 53 83 54
REMARK SMILES IDX 39 56 71 57 51 58 70 59 52 60 55 61 69 62 88 63 53 64 54 65
REMARK SMILES IDX 68 67 89 68 56 69 40 70 41 71 49 72 42 73 43 74 47 75 50 76
REMARK SMILES IDX 44 77 45 78 48 79 46 80 72 81 73 82 81 83 74 84 75 85 79 86
REMARK SMILES IDX 82 87 76 88 77 89 80 90 78 91 57 92 58 93 66 94 59 95 60 96
REMARK SMILES IDX 64 97 67 98 61 99 62 100 65 101 63 102
REMARK H PARENT 6 17 87 55 55 66
REMARK Flexibility Score: inf
ROOT
ATOM      1  C   UNL A   1      40.659  21.148  27.131  1.00  0.00     0.188 C 
ENDROOT
BRANCH   1   2
ATOM      2  O   UNL A   1      39.463  21.801  26.759  1.00  0.00    -0.376 OA
BRANCH   2   3
ATOM      3  C   UNL A   1      38.811  21.309  25.610  1.00  0.00     0.202 C 
BRANCH   3   4
ATOM      4  C   UNL A   1      37.445  21.895  25.253  1.00  0.00     0.261 C 
BRANCH   4   5
ATOM      5  O   UNL A   1      36.273  21.070  25.347  1.00  0.00    -0.460 OA
BRANCH   5   6
ATOM      6  C   UNL A   1      35.108  21.644  25.683  1.00  0.00     0.340 C 
ATOM      7  O   UNL A   1      34.943  22.568  26.471  1.00  0.00    -0.246 OA
BRANCH   6   8
ATOM      8  C   UNL A   1      33.994  21.095  24.893  1.00  0.00     0.087 A 
ATOM      9  C   UNL A   1      33.260  21.813  23.937  1.00  0.00     0.056 A 
ATOM     10  C   UNL A   1      32.264  21.142  23.204  1.00  0.00     0.031 A 
ATOM     11  C   UNL A   1      32.150  19.752  23.274  1.00  0.00     0.049 A 
ATOM     12  C   UNL A   1      33.796  19.713  25.038  1.00  0.00     0.065 A 
ATOM     13  C   UNL A   1      32.972  19.045  24.146  1.00  0.00     0.131 A 
BRANCH   9  14
ATOM     14  N   UNL A   1      33.445  23.160  23.585  1.00  0.00    -0.325 N 
ATOM     15  C   UNL A   1      32.560  24.198  23.622  1.00  0.00     0.231 C 
ATOM     16  O   UNL A   1      32.359  24.741  22.528  1.00  0.00    -0.274 OA
ATOM     17  H   UNL A   1      34.346  23.391  23.263  1.00  0.00     0.169 HD
BRANCH  15  18
ATOM     18  C   UNL A   1      32.153  24.881  24.994  1.00  0.00     0.108 C 
BRANCH  18  19
ATOM     19  C   UNL A   1      30.787  24.661  25.687  1.00  0.00     0.015 C 
ATOM     20  C   UNL A   1      30.572  23.545  26.693  1.00  0.00     0.005 C 
ENDBRANCH  18  19
BRANCH  18  21
ATOM     21  C   UNL A   1      32.418  26.415  24.875  1.00  0.00    -0.036 A 
ATOM     22  C   UNL A   1      33.707  26.978  24.774  1.00  0.00     0.004 A 
ATOM     23  C   UNL A   1      31.333  27.302  24.967  1.00  0.00     0.004 A 
ATOM     24  C   UNL A   1      33.906  28.359  24.831  1.00  0.00     0.000 A 
ATOM     25  C   UNL A   1      31.532  28.683  25.035  1.00  0.00     0.000 A 
ATOM     26  C   UNL A   1      32.818  29.211  24.976  1.00  0.00     0.000 A 
ENDBRANCH  18  21
ENDBRANCH  15  18
ENDBRANCH   9  14
BRANCH  13  27
ATOM     27  O   UNL A   1      32.942  17.637  24.064  1.00  0.00    -0.427 OA
BRANCH  27  28
ATOM     28  C   UNL A   1      34.040  16.838  23.722  1.00  0.00     0.308 C 
ATOM     29  C   UNL A   1      34.825  16.222  24.847  1.00  0.00     0.139 C 
ATOM     30  O   UNL A   1      34.287  16.575  22.547  1.00  0.00    -0.252 OA
ENDBRANCH  27  28
ENDBRANCH  13  27
ENDBRANCH   6   8
ENDBRANCH   5   6
ENDBRANCH   4   5
ENDBRANCH   3   4
ENDBRANCH   2   3
ENDBRANCH   1   2
BRANCH   1  31
ATOM     31  C   UNL A   1      40.987  19.912  26.261  1.00  0.00     0.188 C 
BRANCH  31  32
ATOM     32  O   UNL A   1      42.195  19.868  25.522  1.00  0.00    -0.376 OA
BRANCH  32  33
ATOM     33  C   UNL A   1      43.313  20.585  26.019  1.00  0.00     0.202 C 
BRANCH  33  34
ATOM     34  C   UNL A   1      43.939  21.692  25.145  1.00  0.00     0.261 C 
BRANCH  34  35
ATOM     35  O   UNL A   1      43.111  22.845  24.870  1.00  0.00    -0.460 OA
BRANCH  35  36
ATOM     36  C   UNL A   1      43.710  24.063  24.960  1.00  0.00     0.338 C 
ATOM     37  O   UNL A   1      44.719  24.423  24.382  1.00  0.00    -0.246 OA
BRANCH  36  38
ATOM     38  C   UNL A   1      42.839  25.027  25.695  1.00  0.00     0.060 A 
ATOM     39  C   UNL A   1      43.161  26.397  25.636  1.00  0.00     0.016 A 
ATOM     40  C   UNL A   1      41.761  24.607  26.474  1.00  0.00     0.016 A 
ATOM     41  C   UNL A   1      42.451  27.336  26.388  1.00  0.00     0.010 A 
ATOM     42  C   UNL A   1      41.080  25.543  27.270  1.00  0.00     0.010 A 
ATOM     43  C   UNL A   1      41.459  26.901  27.272  1.00  0.00    -0.014 A 
BRANCH  43  44
ATOM     44  C   UNL A   1      41.090  27.774  28.419  1.00  0.00     0.031 A 
ATOM     45  C   UNL A   1      41.941  27.672  29.662  1.00  0.00     0.074 A 
ATOM     46  C   UNL A   1      40.076  28.657  28.378  1.00  0.00     0.049 A 
ATOM     47  N   UNL A   1      41.794  28.242  30.831  1.00  0.00    -0.248 NA
ATOM     48  C   UNL A   1      43.121  26.796  29.566  1.00  0.00     0.031 C 
ATOM     49  C   UNL A   1      39.221  28.916  27.224  1.00  0.00     0.029 A 
ATOM     50  N   UNL A   1      39.595  29.500  29.351  1.00  0.00    -0.354 N 
ATOM     51  C   UNL A   1      42.847  27.775  31.610  1.00  0.00     0.074 A 
ATOM     52  C   UNL A   1      43.612  26.862  30.792  1.00  0.00     0.031 C 
ATOM     53  C   UNL A   1      38.307  29.845  27.560  1.00  0.00     0.029 A 
ATOM     54  C   UNL A   1      38.488  30.216  28.965  1.00  0.00     0.049 A 
ATOM     55  H   UNL A   1      40.006  29.584  30.242  1.00  0.00     0.167 HD
ATOM     56  C   UNL A   1      43.153  28.078  32.893  1.00  0.00     0.037 A 
ATOM     57  C   UNL A   1      37.695  31.044  29.677  1.00  0.00     0.037 A 
ATOM     58  C   UNL A   1      42.394  28.983  33.713  1.00  0.00     0.049 A 
ATOM     59  C   UNL A   1      38.007  31.306  31.133  1.00  0.00     0.074 A 
ATOM     60  C   UNL A   1      42.614  29.350  35.028  1.00  0.00     0.029 A 
ATOM     61  N   UNL A   1      41.260  29.662  33.291  1.00  0.00    -0.354 N 
ATOM     62  N   UNL A   1      38.995  30.852  31.868  1.00  0.00    -0.248 NA
ATOM     63  C   UNL A   1      37.089  32.198  31.858  1.00  0.00     0.031 C 
ATOM     64  C   UNL A   1      41.582  30.207  35.421  1.00  0.00     0.029 A 
ATOM     65  C   UNL A   1      40.758  30.431  34.329  1.00  0.00     0.049 A 
ATOM     66  H   UNL A   1      40.870  29.607  32.389  1.00  0.00     0.167 HD
ATOM     67  C   UNL A   1      38.841  31.434  33.122  1.00  0.00     0.074 A 
ATOM     68  C   UNL A   1      37.669  32.280  33.048  1.00  0.00     0.031 C 
ATOM     69  C   UNL A   1      39.602  31.285  34.235  1.00  0.00     0.037 A 
BRANCH  56  70
ATOM     70  C   UNL A   1      44.336  27.382  33.503  1.00  0.00     0.064 A 
ATOM     71  C   UNL A   1      44.210  26.159  34.181  1.00  0.00     0.173 A 
ATOM     72  C   UNL A   1      45.617  27.944  33.397  1.00  0.00     0.173 A 
ATOM     73  F   UNL A   1      43.005  25.589  34.329  1.00  0.00    -0.203 F 
ATOM     74  C   UNL A   1      45.318  25.543  34.756  1.00  0.00     0.198 A 
ATOM     75  C   UNL A   1      46.728  27.307  33.944  1.00  0.00     0.198 A 
ATOM     76  F   UNL A   1      45.794  29.111  32.761  1.00  0.00    -0.203 F 
ATOM     77  F   UNL A   1      45.166  24.406  35.450  1.00  0.00    -0.200 F 
ATOM     78  C   UNL A   1      46.576  26.112  34.631  1.00  0.00     0.200 A 
ATOM     79  F   UNL A   1      47.944  27.854  33.810  1.00  0.00    -0.200 F 
ATOM     80  F   UNL A   1      47.643  25.515  35.180  1.00  0.00    -0.200 F 
ENDBRANCH  56  70
BRANCH  57  81
ATOM     81  C   UNL A   1      36.506  31.678  29.042  1.00  0.00     0.064 A 
ATOM     82  C   UNL A   1      36.460  33.059  28.800  1.00  0.00     0.173 A 
ATOM     83  C   UNL A   1      35.370  30.924  28.708  1.00  0.00     0.173 A 
ATOM     84  F   UNL A   1      37.503  33.833  29.135  1.00  0.00    -0.203 F 
ATOM     85  C   UNL A   1      35.320  33.664  28.270  1.00  0.00     0.198 A 
ATOM     86  C   UNL A   1      34.244  31.524  28.148  1.00  0.00     0.198 A 
ATOM     87  F   UNL A   1      35.355  29.602  28.927  1.00  0.00    -0.203 F 
ATOM     88  F   UNL A   1      35.282  34.992  28.108  1.00  0.00    -0.200 F 
ATOM     89  C   UNL A   1      34.215  32.894  27.939  1.00  0.00     0.200 A 
ATOM     90  F   UNL A   1      33.183  30.774  27.820  1.00  0.00    -0.200 F 
ATOM     91  F   UNL A   1      33.119  33.473  27.430  1.00  0.00    -0.200 F 
ENDBRANCH  57  81
BRANCH  69  92
ATOM     92  C   UNL A   1      39.241  32.104  35.445  1.00  0.00     0.064 A 
ATOM     93  C   UNL A   1      39.647  33.439  35.592  1.00  0.00     0.173 A 
ATOM     94  C   UNL A   1      38.441  31.549  36.457  1.00  0.00     0.173 A 
ATOM     95  F   UNL A   1      40.419  34.016  34.659  1.00  0.00    -0.203 F 
ATOM     96  C   UNL A   1      39.296  34.173  36.722  1.00  0.00     0.198 A 
ATOM     97  C   UNL A   1      38.063  32.297  37.567  1.00  0.00     0.198 A 
ATOM     98  F   UNL A   1      38.013  30.281  36.362  1.00  0.00    -0.203 F 
ATOM     99  F   UNL A   1      39.745  35.428  36.868  1.00  0.00    -0.200 F 
ATOM    100  C   UNL A   1      38.500  33.606  37.705  1.00  0.00     0.200 A 
ATOM    101  F   UNL A   1      37.276  31.753  38.505  1.00  0.00    -0.200 F 
ATOM    102  F   UNL A   1      38.160  34.317  38.789  1.00  0.00    -0.200 F 
ENDBRANCH  69  92
ENDBRANCH  43  44
ENDBRANCH  36  38
ENDBRANCH  35  36
ENDBRANCH  34  35
ENDBRANCH  33  34
ENDBRANCH  32  33
ENDBRANCH  31  32
ENDBRANCH   1  31
TORSDOF 23
ENDMDL
MODEL 2
REMARK VINA RESULT:     -11.9      0.954      2.194
REMARK SMILES CC[C@@H](C(=O)Nc1ccc(OC(C)=O)cc1C(=O)OCCOCCOCCOC(=O)c1ccc(-c2c3nc(c(-c4c(F)c(F)c(F)c(F)c4F)c4ccc([nH]4)c(-c4c(F)c(F)c(F)c(F)c4F)c4nc(c(-c5c(F)c(F)c(F)c(F)c5F)c5ccc2[nH]5)C=C4)C=C3)cc1)c1ccccc1
REMARK SMILES IDX 23 1 22 2 21 3 20 4 19 5 17 6 18 7 16 8 7 9 8 10 9 11 15 12
REMARK SMILES IDX 10 13 6 14 4 15 5 16 3 18 2 19 1 20 94 21 95 22 99 23 96 24
REMARK SMILES IDX 98 25 97 26 11 27 12 28 13 29 14 30 24 31 25 32 26 33 27 34
REMARK SMILES IDX 28 35 29 36 30 37 31 38 32 39 93 40 33 41 92 42 34 43 35 44
REMARK SMILES IDX 36 45 86 46 37 47 91 48 85 49 87 50 38 51 90 52 84 53 83 54
REMARK SMILES IDX 39 56 71 57 51 58 70 59 52 60 55 61 69 62 88 63 53 64 54 65
REMARK SMILES IDX 68 67 89 68 56 69 40 70 41 71 49 72 42 73 43 74 47 75 50 76
REMARK SMILES IDX 44 77 45 78 48 79 46 80 72 81 73 82 81 83 74 84 75 85 79 86
REMARK SMILES IDX 82 87 76 88 77 89 80 90 78 91 57 92 58 93 66 94 59 95 60 96
REMARK SMILES IDX 64 97 67 98 61 99 62 100 65 101 63 102
REMARK H PARENT 6 17 87 55 55 66
REMARK Flexibility Score: inf
ROOT
ATOM      1  C   UNL A   1      40.188  21.422  26.751  1.00  0.00     0.188 C 
ENDROOT
BRANCH   1   2
ATOM      2  O   UNL A   1      38.934  21.780  26.210  1.00  0.00    -0.376 OA
BRANCH   2   3
ATOM      3  C   UNL A   1      38.468  23.076  26.513  1.00  0.00     0.202 C 
BRANCH   3   4
ATOM      4  C   UNL A   1      37.666  23.819  25.443  1.00  0.00     0.261 C 
BRANCH   4   5
ATOM      5  O   UNL A   1      36.511  23.195  24.863  1.00  0.00    -0.460 OA
BRANCH   5   6
ATOM      6  C   UNL A   1      35.302  23.718  25.118  1.00  0.00     0.340 C 
ATOM      7  O   UNL A   1      35.062  24.823  25.591  1.00  0.00    -0.246 OA
BRANCH   6   8
ATOM      8  C   UNL A   1      34.225  22.827  24.655  1.00  0.00     0.087 A 
ATOM      9  C   UNL A   1      33.214  23.196  23.754  1.00  0.00     0.056 A 
ATOM     10  C   UNL A   1      32.286  22.221  23.343  1.00  0.00     0.031 A 
ATOM     11  C   UNL A   1      32.489  20.875  23.655  1.00  0.00     0.049 A 
ATOM     12  C   UNL A   1      34.356  21.489  25.054  1.00  0.00     0.065 A 
ATOM     13  C   UNL A   1      33.570  20.517  24.455  1.00  0.00     0.131 A 
BRANCH   9  14
ATOM     14  N   UNL A   1      33.045  24.458  23.163  1.00  0.00    -0.325 N 
ATOM     15  C   UNL A   1      31.898  25.154  22.910  1.00  0.00     0.231 C 
ATOM     16  O   UNL A   1      31.715  25.425  21.717  1.00  0.00    -0.274 OA
ATOM     17  H   UNL A   1      33.876  24.908  22.888  1.00  0.00     0.169 HD
BRANCH  15  18
ATOM     18  C   UNL A   1      31.106  25.881  24.075  1.00  0.00     0.108 C 
BRANCH  18  19
ATOM     19  C   UNL A   1      29.729  26.561  23.879  1.00  0.00     0.015 C 
ATOM     20  C   UNL A   1      29.606  27.979  23.352  1.00  0.00     0.005 C 
ENDBRANCH  18  19
BRANCH  18  21
ATOM     21  C   UNL A   1      32.073  26.890  24.770  1.00  0.00    -0.036 A 
ATOM     22  C   UNL A   1      32.929  27.761  24.064  1.00  0.00     0.004 A 
ATOM     23  C   UNL A   1      32.177  26.879  26.171  1.00  0.00     0.004 A 
ATOM     24  C   UNL A   1      33.889  28.532  24.724  1.00  0.00     0.000 A 
ATOM     25  C   UNL A   1      33.144  27.642  26.829  1.00  0.00     0.000 A 
ATOM     26  C   UNL A   1      34.006  28.461  26.107  1.00  0.00     0.000 A 
ENDBRANCH  18  21
ENDBRANCH  15  18
ENDBRANCH   9  14
BRANCH  13  27
ATOM     27  O   UNL A   1      33.834  19.140  24.606  1.00  0.00    -0.427 OA
BRANCH  27  28
ATOM     28  C   UNL A   1      32.917  18.121  24.319  1.00  0.00     0.308 C 
ATOM     29  C   UNL A   1      33.117  17.349  23.044  1.00  0.00     0.139 C 
ATOM     30  O   UNL A   1      32.047  17.809  25.128  1.00  0.00    -0.252 OA
ENDBRANCH  27  28
ENDBRANCH  13  27
ENDBRANCH   6   8
ENDBRANCH   5   6
ENDBRANCH   4   5
ENDBRANCH   3   4
ENDBRANCH   2   3
ENDBRANCH   1   2
BRANCH   1  31
ATOM     31  C   UNL A   1      40.796  20.150  26.117  1.00  0.00     0.188 C 
BRANCH  31  32
ATOM     32  O   UNL A   1      42.151  20.146  25.700  1.00  0.00    -0.376 OA
BRANCH  32  33
ATOM     33  C   UNL A   1      43.015  21.146  26.214  1.00  0.00     0.202 C 
BRANCH  33  34
ATOM     34  C   UNL A   1      43.741  22.084  25.227  1.00  0.00     0.261 C 
BRANCH  34  35
ATOM     35  O   UNL A   1      43.035  23.283  24.834  1.00  0.00    -0.460 OA
BRANCH  35  36
ATOM     36  C   UNL A   1      43.669  24.466  25.057  1.00  0.00     0.338 C 
ATOM     37  O   UNL A   1      44.728  24.827  24.575  1.00  0.00    -0.246 OA
BRANCH  36  38
ATOM     38  C   UNL A   1      42.785  25.408  25.804  1.00  0.00     0.060 A 
ATOM     39  C   UNL A   1      43.137  26.771  25.836  1.00  0.00     0.016 A 
ATOM     40  C   UNL A   1      41.663  24.970  26.508  1.00  0.00     0.016 A 
ATOM     41  C   UNL A   1      42.412  27.683  26.607  1.00  0.00     0.010 A 
ATOM     42  C   UNL A   1      40.965  25.877  27.324  1.00  0.00     0.010 A 
ATOM     43  C   UNL A   1      41.371  27.223  27.419  1.00  0.00    -0.014 A 
BRANCH  43  44
ATOM     44  C   UNL A   1      40.967  28.041  28.595  1.00  0.00     0.031 A 
ATOM     45  C   UNL A   1      41.789  27.887  29.853  1.00  0.00     0.074 A 
ATOM     46  C   UNL A   1      39.948  28.917  28.569  1.00  0.00     0.049 A 
ATOM     47  N   UNL A   1      41.608  28.402  31.043  1.00  0.00    -0.248 NA
ATOM     48  C   UNL A   1      42.977  27.024  29.747  1.00  0.00     0.031 C 
ATOM     49  C   UNL A   1      39.119  29.223  27.408  1.00  0.00     0.029 A 
ATOM     50  N   UNL A   1      39.436  29.711  29.568  1.00  0.00    -0.354 N 
ATOM     51  C   UNL A   1      42.645  27.907  31.826  1.00  0.00     0.074 A 
ATOM     52  C   UNL A   1      43.437  27.037  30.986  1.00  0.00     0.031 C 
ATOM     53  C   UNL A   1      38.190  30.129  27.763  1.00  0.00     0.029 A 
ATOM     54  C   UNL A   1      38.333  30.436  29.187  1.00  0.00     0.049 A 
ATOM     55  H   UNL A   1      39.824  29.757  30.472  1.00  0.00     0.167 HD
ATOM     56  C   UNL A   1      42.917  28.152  33.129  1.00  0.00     0.037 A 
ATOM     57  C   UNL A   1      37.516  31.226  29.916  1.00  0.00     0.037 A 
ATOM     58  C   UNL A   1      42.130  29.014  33.970  1.00  0.00     0.049 A 
ATOM     59  C   UNL A   1      37.790  31.422  31.391  1.00  0.00     0.074 A 
ATOM     60  C   UNL A   1      42.316  29.321  35.305  1.00  0.00     0.029 A 
ATOM     61  N   UNL A   1      41.002  29.704  33.551  1.00  0.00    -0.354 N 
ATOM     62  N   UNL A   1      38.763  30.942  32.129  1.00  0.00    -0.248 NA
ATOM     63  C   UNL A   1      36.847  32.273  32.133  1.00  0.00     0.031 C 
ATOM     64  C   UNL A   1      41.267  30.152  35.712  1.00  0.00     0.029 A 
ATOM     65  C   UNL A   1      40.469  30.420  34.611  1.00  0.00     0.049 A 
ATOM     66  H   UNL A   1      40.635  29.687  32.639  1.00  0.00     0.167 HD
ATOM     67  C   UNL A   1      38.573  31.465  33.403  1.00  0.00     0.074 A 
ATOM     68  C   UNL A   1      37.397  32.304  33.339  1.00  0.00     0.031 C 
ATOM     69  C   UNL A   1      39.308  31.270  34.527  1.00  0.00     0.037 A 
BRANCH  56  70
ATOM     70  C   UNL A   1      44.090  27.437  33.735  1.00  0.00     0.064 A 
ATOM     71  C   UNL A   1      45.388  27.970  33.693  1.00  0.00     0.173 A 
ATOM     72  C   UNL A   1      43.909  26.203  34.377  1.00  0.00     0.173 A 
ATOM     73  F   UNL A   1      45.620  29.136  33.074  1.00  0.00    -0.203 F 
ATOM     74  C   UNL A   1      46.464  27.278  34.244  1.00  0.00     0.198 A 
ATOM     75  C   UNL A   1      44.981  25.531  34.957  1.00  0.00     0.198 A 
ATOM     76  F   UNL A   1      42.690  25.647  34.444  1.00  0.00    -0.203 F 
ATOM     77  F   UNL A   1      47.704  27.777  34.141  1.00  0.00    -0.200 F 
ATOM     78  C   UNL A   1      46.259  26.064  34.882  1.00  0.00     0.200 A 
ATOM     79  F   UNL A   1      44.778  24.364  35.584  1.00  0.00    -0.200 F 
ATOM     80  F   UNL A   1      47.294  25.402  35.417  1.00  0.00    -0.200 F 
ENDBRANCH  56  70
BRANCH  57  81
ATOM     81  C   UNL A   1      36.338  31.880  29.281  1.00  0.00     0.064 A 
ATOM     82  C   UNL A   1      35.224  31.131  28.871  1.00  0.00     0.173 A 
ATOM     83  C   UNL A   1      36.320  33.260  29.028  1.00  0.00     0.173 A 
ATOM     84  F   UNL A   1      35.205  29.803  29.055  1.00  0.00    -0.203 F 
ATOM     85  C   UNL A   1      34.151  31.733  28.214  1.00  0.00     0.198 A 
ATOM     86  C   UNL A   1      35.233  33.865  28.401  1.00  0.00     0.198 A 
ATOM     87  F   UNL A   1      37.362  34.022  29.389  1.00  0.00    -0.203 F 
ATOM     88  F   UNL A   1      33.129  30.984  27.778  1.00  0.00    -0.200 F 
ATOM     89  C   UNL A   1      34.154  33.100  27.985  1.00  0.00     0.200 A 
ATOM     90  F   UNL A   1      35.236  35.188  28.191  1.00  0.00    -0.200 F 
ATOM     91  F   UNL A   1      33.123  33.679  27.353  1.00  0.00    -0.200 F 
ENDBRANCH  57  81
BRANCH  69  92
ATOM     92  C   UNL A   1      38.911  32.029  35.763  1.00  0.00     0.064 A 
ATOM     93  C   UNL A   1      38.186  31.433  36.806  1.00  0.00     0.173 A 
ATOM     94  C   UNL A   1      39.299  33.370  35.921  1.00  0.00     0.173 A 
ATOM     95  F   UNL A   1      37.782  30.157  36.704  1.00  0.00    -0.203 F 
ATOM     96  C   UNL A   1      37.833  32.160  37.940  1.00  0.00     0.198 A 
ATOM     97  C   UNL A   1      38.975  34.082  37.071  1.00  0.00     0.198 A 
ATOM     98  F   UNL A   1      40.005  33.987  34.962  1.00  0.00    -0.203 F 
ATOM     99  F   UNL A   1      37.089  31.586  38.896  1.00  0.00    -0.200 F 
ATOM    100  C   UNL A   1      38.232  33.481  38.076  1.00  0.00     0.200 A 
ATOM    101  F   UNL A   1      39.381  35.352  37.209  1.00  0.00    -0.200 F 
ATOM    102  F   UNL A   1      37.896  34.176  39.171  1.00  0.00    -0.200 F 
ENDBRANCH  69  92
ENDBRANCH  43  44
ENDBRANCH  36  38
ENDBRANCH  35  36
ENDBRANCH  34  35
ENDBRANCH  33  34
ENDBRANCH  32  33
ENDBRANCH  31  32
ENDBRANCH   1  31
TORSDOF 23
ENDMDL
MODEL 3
REMARK VINA RESULT:     -11.5      2.981      7.670
REMARK SMILES CC[C@@H](C(=O)Nc1ccc(OC(C)=O)cc1C(=O)OCCOCCOCCOC(=O)c1ccc(-c2c3nc(c(-c4c(F)c(F)c(F)c(F)c4F)c4ccc([nH]4)c(-c4c(F)c(F)c(F)c(F)c4F)c4nc(c(-c5c(F)c(F)c(F)c(F)c5F)c5ccc2[nH]5)C=C4)C=C3)cc1)c1ccccc1
REMARK SMILES IDX 23 1 22 2 21 3 20 4 19 5 17 6 18 7 16 8 7 9 8 10 9 11 15 12
REMARK SMILES IDX 10 13 6 14 4 15 5 16 3 18 2 19 1 20 94 21 95 22 99 23 96 24
REMARK SMILES IDX 98 25 97 26 11 27 12 28 13 29 14 30 24 31 25 32 26 33 27 34
REMARK SMILES IDX 28 35 29 36 30 37 31 38 32 39 93 40 33 41 92 42 34 43 35 44
REMARK SMILES IDX 36 45 86 46 37 47 91 48 85 49 87 50 38 51 90 52 84 53 83 54
REMARK SMILES IDX 39 56 71 57 51 58 70 59 52 60 55 61 69 62 88 63 53 64 54 65
REMARK SMILES IDX 68 67 89 68 56 69 40 70 41 71 49 72 42 73 43 74 47 75 50 76
REMARK SMILES IDX 44 77 45 78 48 79 46 80 72 81 73 82 81 83 74 84 75 85 79 86
REMARK SMILES IDX 82 87 76 88 77 89 80 90 78 91 57 92 58 93 66 94 59 95 60 96
REMARK SMILES IDX 64 97 67 98 61 99 62 100 65 101 63 102
REMARK H PARENT 6 17 87 55 55 66
REMARK Flexibility Score: inf
ROOT
ATOM      1  C   UNL A   1      33.588  27.206  22.934  1.00  0.00     0.188 C 
ENDROOT
BRANCH   1   2
ATOM      2  O   UNL A   1      33.678  26.676  21.629  1.00  0.00    -0.376 OA
BRANCH   2   3
ATOM      3  C   UNL A   1      32.735  25.683  21.289  1.00  0.00     0.202 C 
BRANCH   3   4
ATOM      4  C   UNL A   1      32.153  24.829  22.416  1.00  0.00     0.261 C 
BRANCH   4   5
ATOM      5  O   UNL A   1      32.708  23.532  22.682  1.00  0.00    -0.460 OA
BRANCH   5   6
ATOM      6  C   UNL A   1      31.895  22.565  23.133  1.00  0.00     0.340 C 
ATOM      7  O   UNL A   1      30.679  22.503  22.997  1.00  0.00    -0.246 OA
BRANCH   6   8
ATOM      8  C   UNL A   1      32.659  21.471  23.755  1.00  0.00     0.087 A 
ATOM      9  C   UNL A   1      33.403  21.587  24.939  1.00  0.00     0.056 A 
ATOM     10  C   UNL A   1      34.029  20.440  25.460  1.00  0.00     0.031 A 
ATOM     11  C   UNL A   1      33.746  19.178  24.933  1.00  0.00     0.049 A 
ATOM     12  C   UNL A   1      32.469  20.212  23.166  1.00  0.00     0.065 A 
ATOM     13  C   UNL A   1      32.907  19.075  23.827  1.00  0.00     0.131 A 
BRANCH   9  14
ATOM     14  N   UNL A   1      33.562  22.748  25.713  1.00  0.00    -0.325 N 
ATOM     15  C   UNL A   1      34.676  23.237  26.331  1.00  0.00     0.231 C 
ATOM     16  O   UNL A   1      34.570  23.363  27.557  1.00  0.00    -0.274 OA
ATOM     17  H   UNL A   1      32.748  23.291  25.829  1.00  0.00     0.169 HD
BRANCH  15  18
ATOM     18  C   UNL A   1      35.830  23.942  25.503  1.00  0.00     0.108 C 
BRANCH  18  19
ATOM     19  C   UNL A   1      35.814  24.082  23.961  1.00  0.00     0.015 C 
ATOM     20  C   UNL A   1      36.253  22.948  23.052  1.00  0.00     0.005 C 
ENDBRANCH  18  19
BRANCH  18  21
ATOM     21  C   UNL A   1      37.195  23.325  25.940  1.00  0.00    -0.036 A 
ATOM     22  C   UNL A   1      38.239  24.074  26.521  1.00  0.00     0.004 A 
ATOM     23  C   UNL A   1      37.450  21.972  25.662  1.00  0.00     0.004 A 
ATOM     24  C   UNL A   1      39.498  23.514  26.749  1.00  0.00     0.000 A 
ATOM     25  C   UNL A   1      38.712  21.415  25.880  1.00  0.00     0.000 A 
ATOM     26  C   UNL A   1      39.739  22.187  26.414  1.00  0.00     0.000 A 
ENDBRANCH  18  21
ENDBRANCH  15  18
ENDBRANCH   9  14
BRANCH  13  27
ATOM     27  O   UNL A   1      32.515  17.780  23.432  1.00  0.00    -0.427 OA
BRANCH  27  28
ATOM     28  C   UNL A   1      33.292  16.628  23.606  1.00  0.00     0.308 C 
ATOM     29  C   UNL A   1      33.007  15.777  24.813  1.00  0.00     0.139 C 
ATOM     30  O   UNL A   1      34.105  16.279  22.753  1.00  0.00    -0.252 OA
ENDBRANCH  27  28
ENDBRANCH  13  27
ENDBRANCH   6   8
ENDBRANCH   5   6
ENDBRANCH   4   5
ENDBRANCH   3   4
ENDBRANCH   2   3
ENDBRANCH   1   2
BRANCH   1  31
ATOM     31  C   UNL A   1      32.752  28.503  23.020  1.00  0.00     0.188 C 
BRANCH  31  32
ATOM     32  O   UNL A   1      32.817  29.311  24.183  1.00  0.00    -0.376 OA
BRANCH  32  33
ATOM     33  C   UNL A   1      31.602  29.664  24.825  1.00  0.00     0.202 C 
BRANCH  33  34
ATOM     34  C   UNL A   1      31.658  30.495  26.124  1.00  0.00     0.261 C 
BRANCH  34  35
ATOM     35  O   UNL A   1      32.831  30.324  26.951  1.00  0.00    -0.460 OA
BRANCH  35  36
ATOM     36  C   UNL A   1      33.450  31.459  27.377  1.00  0.00     0.338 C 
ATOM     37  O   UNL A   1      32.923  32.531  27.611  1.00  0.00    -0.246 OA
BRANCH  36  38
ATOM     38  C   UNL A   1      34.864  31.179  27.761  1.00  0.00     0.060 A 
ATOM     39  C   UNL A   1      35.256  29.838  27.936  1.00  0.00     0.016 A 
ATOM     40  C   UNL A   1      35.783  32.201  28.001  1.00  0.00     0.016 A 
ATOM     41  C   UNL A   1      36.533  29.515  28.400  1.00  0.00     0.010 A 
ATOM     42  C   UNL A   1      37.050  31.880  28.517  1.00  0.00     0.010 A 
ATOM     43  C   UNL A   1      37.409  30.541  28.770  1.00  0.00    -0.014 A 
BRANCH  43  44
ATOM     44  C   UNL A   1      38.506  30.233  29.728  1.00  0.00     0.031 A 
ATOM     45  C   UNL A   1      39.608  29.322  29.240  1.00  0.00     0.074 A 
ATOM     46  C   UNL A   1      38.572  30.753  30.966  1.00  0.00     0.049 A 
ATOM     47  N   UNL A   1      40.628  28.817  29.885  1.00  0.00    -0.248 NA
ATOM     48  C   UNL A   1      39.537  28.923  27.824  1.00  0.00     0.031 C 
ATOM     49  C   UNL A   1      37.624  31.701  31.541  1.00  0.00     0.029 A 
ATOM     50  N   UNL A   1      39.491  30.543  31.967  1.00  0.00    -0.354 N 
ATOM     51  C   UNL A   1      41.303  28.028  28.960  1.00  0.00     0.074 A 
ATOM     52  C   UNL A   1      40.568  28.103  27.718  1.00  0.00     0.031 C 
ATOM     53  C   UNL A   1      38.000  31.980  32.803  1.00  0.00     0.029 A 
ATOM     54  C   UNL A   1      39.192  31.200  33.137  1.00  0.00     0.049 A 
ATOM     55  H   UNL A   1      40.287  29.975  31.857  1.00  0.00     0.167 HD
ATOM     56  C   UNL A   1      42.435  27.304  29.126  1.00  0.00     0.037 A 
ATOM     57  C   UNL A   1      39.795  31.145  34.343  1.00  0.00     0.037 A 
ATOM     58  C   UNL A   1      43.168  27.224  30.361  1.00  0.00     0.049 A 
ATOM     59  C   UNL A   1      41.011  30.266  34.530  1.00  0.00     0.074 A 
ATOM     60  C   UNL A   1      44.320  26.511  30.635  1.00  0.00     0.029 A 
ATOM     61  N   UNL A   1      42.813  27.880  31.530  1.00  0.00    -0.354 N 
ATOM     62  N   UNL A   1      41.637  29.512  33.657  1.00  0.00    -0.248 NA
ATOM     63  C   UNL A   1      41.605  30.232  35.876  1.00  0.00     0.031 C 
ATOM     64  C   UNL A   1      44.632  26.689  31.987  1.00  0.00     0.029 A 
ATOM     65  C   UNL A   1      43.715  27.571  32.536  1.00  0.00     0.049 A 
ATOM     66  H   UNL A   1      42.037  28.477  31.631  1.00  0.00     0.167 HD
ATOM     67  C   UNL A   1      42.715  28.952  34.334  1.00  0.00     0.074 A 
ATOM     68  C   UNL A   1      42.664  29.457  35.689  1.00  0.00     0.031 C 
ATOM     69  C   UNL A   1      43.664  28.098  33.876  1.00  0.00     0.037 A 
BRANCH  56  70
ATOM     70  C   UNL A   1      42.918  26.502  27.953  1.00  0.00     0.064 A 
ATOM     71  C   UNL A   1      42.617  25.138  27.811  1.00  0.00     0.173 A 
ATOM     72  C   UNL A   1      43.687  27.111  26.950  1.00  0.00     0.173 A 
ATOM     73  F   UNL A   1      41.904  24.502  28.751  1.00  0.00    -0.203 F 
ATOM     74  C   UNL A   1      43.095  24.410  26.725  1.00  0.00     0.198 A 
ATOM     75  C   UNL A   1      44.133  26.387  25.848  1.00  0.00     0.198 A 
ATOM     76  F   UNL A   1      44.005  28.411  27.037  1.00  0.00    -0.203 F 
ATOM     77  F   UNL A   1      42.846  23.095  26.639  1.00  0.00    -0.200 F 
ATOM     78  C   UNL A   1      43.846  25.035  25.741  1.00  0.00     0.200 A 
ATOM     79  F   UNL A   1      44.848  26.998  24.892  1.00  0.00    -0.200 F 
ATOM     80  F   UNL A   1      44.299  24.335  24.692  1.00  0.00    -0.200 F 
ENDBRANCH  56  70
BRANCH  57  81
ATOM     81  C   UNL A   1      39.253  31.925  35.491  1.00  0.00     0.064 A 
ATOM     82  C   UNL A   1      39.646  33.252  35.719  1.00  0.00     0.173 A 
ATOM     83  C   UNL A   1      38.368  31.344  36.413  1.00  0.00     0.173 A 
ATOM     84  F   UNL A   1      40.519  33.844  34.891  1.00  0.00    -0.203 F 
ATOM     85  C   UNL A   1      39.193  33.959  36.833  1.00  0.00     0.198 A 
ATOM     86  C   UNL A   1      37.890  32.062  37.507  1.00  0.00     0.198 A 
ATOM     87  F   UNL A   1      37.967  30.075  36.250  1.00  0.00    -0.203 F 
ATOM     88  F   UNL A   1      39.633  35.204  37.059  1.00  0.00    -0.200 F 
ATOM     89  C   UNL A   1      38.310  33.366  37.722  1.00  0.00     0.200 A 
ATOM     90  F   UNL A   1      37.029  31.487  38.358  1.00  0.00    -0.200 F 
ATOM     91  F   UNL A   1      37.875  34.044  38.793  1.00  0.00    -0.200 F 
ENDBRANCH  57  81
BRANCH  69  92
ATOM     92  C   UNL A   1      44.769  27.708  34.819  1.00  0.00     0.064 A 
ATOM     93  C   UNL A   1      45.964  28.437  34.913  1.00  0.00     0.173 A 
ATOM     94  C   UNL A   1      44.609  26.604  35.672  1.00  0.00     0.173 A 
ATOM     95  F   UNL A   1      46.174  29.496  34.115  1.00  0.00    -0.203 F 
ATOM     96  C   UNL A   1      46.969  28.054  35.797  1.00  0.00     0.198 A 
ATOM     97  C   UNL A   1      45.601  26.246  36.580  1.00  0.00     0.198 A 
ATOM     98  F   UNL A   1      43.481  25.878  35.635  1.00  0.00    -0.203 F 
ATOM     99  F   UNL A   1      48.126  28.730  35.827  1.00  0.00    -0.200 F 
ATOM    100  C   UNL A   1      46.786  26.963  36.634  1.00  0.00     0.200 A 
ATOM    101  F   UNL A   1      45.412  25.204  37.402  1.00  0.00    -0.200 F 
ATOM    102  F   UNL A   1      47.753  26.600  37.488  1.00  0.00    -0.200 F 
ENDBRANCH  69  92
ENDBRANCH  43  44
ENDBRANCH  36  38
ENDBRANCH  35  36
ENDBRANCH  34  35
ENDBRANCH  33  34
ENDBRANCH  32  33
ENDBRANCH  31  32
ENDBRANCH   1  31
TORSDOF 23
ENDMDL
