MODEL 1
REMARK VINA RESULT:     -10.9      0.000      0.000
REMARK SMILES CC[N@H+](C)CCn1c(SCC(=O)OCCOCCOCCOC(=O)c2ccc(-c3c4nc(c(-c5c(F)c(F)c(F)c(F)c5F)c5ccc([nH]5)c(-c5c(F)c(F)c(F)c(F)c5F)c5nc(c(-c6c(F)c(F)c(F)c(F)c6F)c6ccc3[nH]6)C=C5)C=C4)cc2)nc2cnccc21
REMARK SMILES IDX 15 1 14 2 13 3 11 4 12 5 10 6 9 7 8 8 7 9 94 10 88 11 89 12
REMARK SMILES IDX 93 13 90 14 92 15 91 16 6 17 5 18 3 19 4 20 2 22 1 23 16 24
REMARK SMILES IDX 17 25 18 26 19 27 20 28 21 29 22 30 23 31 24 32 25 33 26 34
REMARK SMILES IDX 87 35 27 36 86 37 28 38 29 39 30 40 80 41 31 42 85 43 79 44
REMARK SMILES IDX 81 45 32 46 84 47 78 48 77 49 33 51 65 52 45 53 64 54 46 55
REMARK SMILES IDX 49 56 63 57 82 58 47 59 48 60 62 62 83 63 50 64 34 65 35 66
REMARK SMILES IDX 43 67 36 68 37 69 41 70 44 71 38 72 39 73 42 74 40 75 66 76
REMARK SMILES IDX 67 77 75 78 68 79 69 80 73 81 76 82 70 83 71 84 74 85 72 86
REMARK SMILES IDX 51 87 52 88 60 89 53 90 54 91 58 92 61 93 55 94 56 95 59 96
REMARK SMILES IDX 57 97
REMARK H PARENT 3 21 81 50 49 61
REMARK Flexibility Score: inf
ROOT
ATOM      1  C   UNL A   1      34.115  24.038  26.030  1.00  0.00     0.202 C 
ENDROOT
BRANCH   1   2
ATOM      2  C   UNL A   1      32.758  23.749  25.368  1.00  0.00     0.261 C 
BRANCH   2   3
ATOM      3  O   UNL A   1      32.866  23.535  23.934  1.00  0.00    -0.463 OA
BRANCH   3   4
ATOM      4  C   UNL A   1      32.986  24.636  23.142  1.00  0.00     0.316 C 
ATOM      5  O   UNL A   1      33.866  24.777  22.299  1.00  0.00    -0.251 OA
BRANCH   4   6
ATOM      6  C   UNL A   1      31.956  25.735  23.407  1.00  0.00     0.200 C 
BRANCH   6   7
ATOM      7  S   UNL A   1      32.214  27.288  22.500  1.00  0.00    -0.076 SA
BRANCH   7   8
ATOM      8  C   UNL A   1      30.853  28.357  22.776  1.00  0.00     0.169 A 
ATOM      9  N   UNL A   1      30.727  29.259  23.827  1.00  0.00    -0.313 N 
ATOM     10  C   UNL A   1      29.776  30.182  23.451  1.00  0.00     0.072 A 
ATOM     11  N   UNL A   1      29.914  28.540  21.877  1.00  0.00    -0.221 NA
ATOM     12  C   UNL A   1      29.242  29.673  22.264  1.00  0.00     0.108 A 
ATOM     13  C   UNL A   1      29.288  31.387  23.951  1.00  0.00     0.049 A 
ATOM     14  C   UNL A   1      28.184  30.347  21.635  1.00  0.00     0.141 A 
ATOM     15  C   UNL A   1      28.270  32.016  23.244  1.00  0.00     0.113 A 
ATOM     16  N   UNL A   1      27.705  31.517  22.131  1.00  0.00    -0.262 NA
BRANCH   9  17
ATOM     17  C   UNL A   1      31.404  28.991  25.065  1.00  0.00     0.186 C 
BRANCH  17  18
ATOM     18  C   UNL A   1      32.860  29.246  25.510  1.00  0.00     0.284 C 
BRANCH  18  19
ATOM     19  N   UNL A   1      33.347  29.258  26.997  1.00  0.00    -0.336 N 
ATOM     20  C   UNL A   1      32.099  28.370  27.610  1.00  0.00     0.332 C 
ATOM     21  H   UNL A   1      34.081  29.856  27.378  1.00  0.00     0.347 HD
BRANCH  19  22
ATOM     22  C   UNL A   1      35.073  29.981  27.943  1.00  0.00     0.258 C 
ATOM     23  C   UNL A   1      36.794  29.722  27.731  1.00  0.00     0.071 C 
ENDBRANCH  19  22
ENDBRANCH  18  19
ENDBRANCH  17  18
ENDBRANCH   9  17
ENDBRANCH   7   8
ENDBRANCH   6   7
ENDBRANCH   4   6
ENDBRANCH   3   4
ENDBRANCH   2   3
ENDBRANCH   1   2
BRANCH   1  24
ATOM     24  O   UNL A   1      34.510  23.115  27.044  1.00  0.00    -0.376 OA
BRANCH  24  25
ATOM     25  C   UNL A   1      34.794  21.790  26.614  1.00  0.00     0.188 C 
BRANCH  25  26
ATOM     26  C   UNL A   1      35.751  21.676  25.424  1.00  0.00     0.188 C 
BRANCH  26  27
ATOM     27  O   UNL A   1      36.071  20.322  25.123  1.00  0.00    -0.376 OA
BRANCH  27  28
ATOM     28  C   UNL A   1      37.492  20.115  25.053  1.00  0.00     0.202 C 
BRANCH  28  29
ATOM     29  C   UNL A   1      38.272  21.427  25.290  1.00  0.00     0.261 C 
BRANCH  29  30
ATOM     30  O   UNL A   1      38.939  21.450  26.573  1.00  0.00    -0.460 OA
BRANCH  30  31
ATOM     31  C   UNL A   1      40.266  21.755  26.645  1.00  0.00     0.338 C 
ATOM     32  O   UNL A   1      41.204  21.028  26.383  1.00  0.00    -0.246 OA
BRANCH  31  33
ATOM     33  C   UNL A   1      40.384  23.206  26.969  1.00  0.00     0.060 A 
ATOM     34  C   UNL A   1      41.890  23.692  27.851  1.00  0.00     0.016 A 
ATOM     35  C   UNL A   1      39.068  24.438  26.631  1.00  0.00     0.016 A 
ATOM     36  C   UNL A   1      42.040  25.352  28.543  1.00  0.00     0.010 A 
ATOM     37  C   UNL A   1      39.295  26.172  27.174  1.00  0.00     0.010 A 
ATOM     38  C   UNL A   1      40.759  26.579  28.249  1.00  0.00    -0.014 A 
BRANCH  38  39
ATOM     39  C   UNL A   1      40.903  27.810  29.040  1.00  0.00     0.031 A 
ATOM     40  C   UNL A   1      42.032  28.597  28.569  1.00  0.00     0.074 A 
ATOM     41  C   UNL A   1      40.164  28.205  30.115  1.00  0.00     0.049 A 
ATOM     42  N   UNL A   1      43.185  28.624  29.148  1.00  0.00    -0.248 NA
ATOM     43  C   UNL A   1      41.969  29.273  27.269  1.00  0.00     0.031 C 
ATOM     44  C   UNL A   1      38.992  27.541  30.687  1.00  0.00     0.029 A 
ATOM     45  N   UNL A   1      40.231  29.344  30.900  1.00  0.00    -0.354 N 
ATOM     46  C   UNL A   1      43.881  29.578  28.447  1.00  0.00     0.074 A 
ATOM     47  C   UNL A   1      43.217  29.735  27.172  1.00  0.00     0.031 C 
ATOM     48  C   UNL A   1      38.290  28.390  31.470  1.00  0.00     0.029 A 
ATOM     49  C   UNL A   1      39.071  29.599  31.650  1.00  0.00     0.049 A 
ATOM     50  H   UNL A   1      41.025  29.926  30.929  1.00  0.00     0.167 HD
ATOM     51  C   UNL A   1      44.618  30.485  29.132  1.00  0.00     0.037 A 
ATOM     52  C   UNL A   1      38.772  30.655  32.454  1.00  0.00     0.037 A 
ATOM     53  C   UNL A   1      44.875  30.100  30.492  1.00  0.00     0.049 A 
ATOM     54  C   UNL A   1      40.051  31.175  32.966  1.00  0.00     0.074 A 
ATOM     55  C   UNL A   1      45.643  29.138  31.114  1.00  0.00     0.029 A 
ATOM     56  N   UNL A   1      43.937  30.508  31.402  1.00  0.00    -0.354 N 
ATOM     57  N   UNL A   1      40.744  30.561  33.881  1.00  0.00    -0.248 NA
ATOM     58  C   UNL A   1      40.720  32.288  32.301  1.00  0.00     0.031 C 
ATOM     59  C   UNL A   1      45.108  28.953  32.420  1.00  0.00     0.029 A 
ATOM     60  C   UNL A   1      44.032  29.817  32.587  1.00  0.00     0.049 A 
ATOM     61  H   UNL A   1      43.272  31.215  31.230  1.00  0.00     0.167 HD
ATOM     62  C   UNL A   1      42.039  30.875  33.552  1.00  0.00     0.074 A 
ATOM     63  C   UNL A   1      41.961  32.086  32.752  1.00  0.00     0.031 C 
ATOM     64  C   UNL A   1      42.989  29.903  33.580  1.00  0.00     0.037 A 
BRANCH  51  65
ATOM     65  C   UNL A   1      44.639  31.901  28.670  1.00  0.00     0.064 A 
ATOM     66  C   UNL A   1      43.534  32.732  28.850  1.00  0.00     0.173 A 
ATOM     67  C   UNL A   1      45.714  32.419  27.914  1.00  0.00     0.173 A 
ATOM     68  F   UNL A   1      42.435  32.270  29.462  1.00  0.00    -0.203 F 
ATOM     69  C   UNL A   1      43.544  34.044  28.374  1.00  0.00     0.198 A 
ATOM     70  C   UNL A   1      45.754  33.744  27.505  1.00  0.00     0.198 A 
ATOM     71  F   UNL A   1      46.723  31.629  27.513  1.00  0.00    -0.203 F 
ATOM     72  F   UNL A   1      42.456  34.810  28.520  1.00  0.00    -0.200 F 
ATOM     73  C   UNL A   1      44.664  34.558  27.734  1.00  0.00     0.200 A 
ATOM     74  F   UNL A   1      46.836  34.210  26.866  1.00  0.00    -0.200 F 
ATOM     75  F   UNL A   1      44.680  35.826  27.305  1.00  0.00    -0.200 F 
ENDBRANCH  51  65
BRANCH  52  76
ATOM     76  C   UNL A   1      37.494  31.265  32.920  1.00  0.00     0.064 A 
ATOM     77  C   UNL A   1      37.430  31.963  34.146  1.00  0.00     0.173 A 
ATOM     78  C   UNL A   1      36.410  31.460  32.047  1.00  0.00     0.173 A 
ATOM     79  F   UNL A   1      38.412  31.848  35.052  1.00  0.00    -0.203 F 
ATOM     80  C   UNL A   1      36.402  32.863  34.439  1.00  0.00     0.198 A 
ATOM     81  C   UNL A   1      35.374  32.354  32.347  1.00  0.00     0.198 A 
ATOM     82  F   UNL A   1      36.380  30.857  30.850  1.00  0.00    -0.203 F 
ATOM     83  F   UNL A   1      36.439  33.573  35.576  1.00  0.00    -0.200 F 
ATOM     84  C   UNL A   1      35.385  33.076  33.528  1.00  0.00     0.200 A 
ATOM     85  F   UNL A   1      34.398  32.565  31.453  1.00  0.00    -0.200 F 
ATOM     86  F   UNL A   1      34.444  34.000  33.769  1.00  0.00    -0.200 F 
ENDBRANCH  52  76
BRANCH  64  87
ATOM     87  C   UNL A   1      42.828  28.810  34.594  1.00  0.00     0.064 A 
ATOM     88  C   UNL A   1      42.003  27.680  34.445  1.00  0.00     0.173 A 
ATOM     89  C   UNL A   1      43.585  28.902  35.771  1.00  0.00     0.173 A 
ATOM     90  F   UNL A   1      41.289  27.487  33.327  1.00  0.00    -0.203 F 
ATOM     91  C   UNL A   1      41.926  26.709  35.444  1.00  0.00     0.198 A 
ATOM     92  C   UNL A   1      43.536  27.912  36.747  1.00  0.00     0.198 A 
ATOM     93  F   UNL A   1      44.399  29.952  35.964  1.00  0.00    -0.203 F 
ATOM     94  F   UNL A   1      41.114  25.651  35.293  1.00  0.00    -0.200 F 
ATOM     95  C   UNL A   1      42.699  26.820  36.588  1.00  0.00     0.200 A 
ATOM     96  F   UNL A   1      44.311  28.012  37.836  1.00  0.00    -0.200 F 
ATOM     97  F   UNL A   1      42.653  25.867  37.530  1.00  0.00    -0.200 F 
ENDBRANCH  64  87
ENDBRANCH  38  39
ENDBRANCH  31  33
ENDBRANCH  30  31
ENDBRANCH  29  30
ENDBRANCH  28  29
ENDBRANCH  27  28
ENDBRANCH  26  27
ENDBRANCH  25  26
ENDBRANCH  24  25
ENDBRANCH   1  24
TORSDOF 23
ENDMDL
MODEL 2
REMARK VINA RESULT:     -10.1      1.253      2.297
REMARK SMILES CC[N@H+](C)CCn1c(SCC(=O)OCCOCCOCCOC(=O)c2ccc(-c3c4nc(c(-c5c(F)c(F)c(F)c(F)c5F)c5ccc([nH]5)c(-c5c(F)c(F)c(F)c(F)c5F)c5nc(c(-c6c(F)c(F)c(F)c(F)c6F)c6ccc3[nH]6)C=C5)C=C4)cc2)nc2cnccc21
REMARK SMILES IDX 15 1 14 2 13 3 11 4 12 5 10 6 9 7 8 8 7 9 94 10 88 11 89 12
REMARK SMILES IDX 93 13 90 14 92 15 91 16 6 17 5 18 3 19 4 20 2 22 1 23 16 24
REMARK SMILES IDX 17 25 18 26 19 27 20 28 21 29 22 30 23 31 24 32 25 33 26 34
REMARK SMILES IDX 87 35 27 36 86 37 28 38 29 39 30 40 80 41 31 42 85 43 79 44
REMARK SMILES IDX 81 45 32 46 84 47 78 48 77 49 33 51 65 52 45 53 64 54 46 55
REMARK SMILES IDX 49 56 63 57 82 58 47 59 48 60 62 62 83 63 50 64 34 65 35 66
REMARK SMILES IDX 43 67 36 68 37 69 41 70 44 71 38 72 39 73 42 74 40 75 66 76
REMARK SMILES IDX 67 77 75 78 68 79 69 80 73 81 76 82 70 83 71 84 74 85 72 86
REMARK SMILES IDX 51 87 52 88 60 89 53 90 54 91 58 92 61 93 55 94 56 95 59 96
REMARK SMILES IDX 57 97
REMARK H PARENT 3 21 81 50 49 61
REMARK Flexibility Score: inf
ROOT
ATOM      1  C   UNL A   1      34.319  23.947  25.709  1.00  0.00     0.202 C 
ENDROOT
BRANCH   1   2
ATOM      2  C   UNL A   1      32.820  23.834  25.385  1.00  0.00     0.261 C 
BRANCH   2   3
ATOM      3  O   UNL A   1      32.556  23.801  23.956  1.00  0.00    -0.463 OA
BRANCH   3   4
ATOM      4  C   UNL A   1      33.033  24.831  23.204  1.00  0.00     0.316 C 
ATOM      5  O   UNL A   1      33.651  24.680  22.155  1.00  0.00    -0.251 OA
BRANCH   4   6
ATOM      6  C   UNL A   1      32.784  26.223  23.787  1.00  0.00     0.200 C 
BRANCH   6   7
ATOM      7  S   UNL A   1      32.558  27.553  22.571  1.00  0.00    -0.076 SA
BRANCH   7   8
ATOM      8  C   UNL A   1      31.051  28.388  22.894  1.00  0.00     0.169 A 
ATOM      9  N   UNL A   1      30.843  29.336  23.891  1.00  0.00    -0.313 N 
ATOM     10  C   UNL A   1      29.716  30.046  23.540  1.00  0.00     0.072 A 
ATOM     11  N   UNL A   1      30.031  28.333  22.070  1.00  0.00    -0.221 NA
ATOM     12  C   UNL A   1      29.196  29.358  22.439  1.00  0.00     0.108 A 
ATOM     13  C   UNL A   1      29.058  31.183  24.000  1.00  0.00     0.049 A 
ATOM     14  C   UNL A   1      27.990  29.787  21.862  1.00  0.00     0.141 A 
ATOM     15  C   UNL A   1      27.895  31.568  23.346  1.00  0.00     0.113 A 
ATOM     16  N   UNL A   1      27.347  30.891  22.320  1.00  0.00    -0.262 NA
BRANCH   9  17
ATOM     17  C   UNL A   1      31.647  29.289  25.080  1.00  0.00     0.186 C 
BRANCH  17  18
ATOM     18  C   UNL A   1      32.951  30.021  25.461  1.00  0.00     0.284 C 
BRANCH  18  19
ATOM     19  N   UNL A   1      33.183  30.783  26.808  1.00  0.00    -0.336 N 
ATOM     20  C   UNL A   1      31.741  31.584  26.821  1.00  0.00     0.332 C 
ATOM     21  H   UNL A   1      34.073  30.864  27.300  1.00  0.00     0.347 HD
BRANCH  19  22
ATOM     22  C   UNL A   1      34.703  30.730  28.252  1.00  0.00     0.258 C 
ATOM     23  C   UNL A   1      36.232  29.885  28.400  1.00  0.00     0.071 C 
ENDBRANCH  19  22
ENDBRANCH  18  19
ENDBRANCH  17  18
ENDBRANCH   9  17
ENDBRANCH   7   8
ENDBRANCH   6   7
ENDBRANCH   4   6
ENDBRANCH   3   4
ENDBRANCH   2   3
ENDBRANCH   1   2
BRANCH   1  24
ATOM     24  O   UNL A   1      34.807  23.017  26.676  1.00  0.00    -0.376 OA
BRANCH  24  25
ATOM     25  C   UNL A   1      35.191  21.740  26.186  1.00  0.00     0.188 C 
BRANCH  25  26
ATOM     26  C   UNL A   1      36.257  21.751  25.087  1.00  0.00     0.188 C 
BRANCH  26  27
ATOM     27  O   UNL A   1      36.586  20.437  24.648  1.00  0.00    -0.376 OA
BRANCH  27  28
ATOM     28  C   UNL A   1      37.890  20.037  25.103  1.00  0.00     0.202 C 
BRANCH  28  29
ATOM     29  C   UNL A   1      38.806  21.256  25.354  1.00  0.00     0.261 C 
BRANCH  29  30
ATOM     30  O   UNL A   1      38.958  21.555  26.760  1.00  0.00    -0.460 OA
BRANCH  30  31
ATOM     31  C   UNL A   1      40.204  21.666  27.303  1.00  0.00     0.338 C 
ATOM     32  O   UNL A   1      40.963  20.763  27.595  1.00  0.00    -0.246 OA
BRANCH  31  33
ATOM     33  C   UNL A   1      40.554  23.115  27.349  1.00  0.00     0.060 A 
ATOM     34  C   UNL A   1      41.897  23.561  28.479  1.00  0.00     0.016 A 
ATOM     35  C   UNL A   1      39.638  24.416  26.438  1.00  0.00     0.016 A 
ATOM     36  C   UNL A   1      42.242  25.295  28.840  1.00  0.00     0.010 A 
ATOM     37  C   UNL A   1      40.104  26.173  26.663  1.00  0.00     0.010 A 
ATOM     38  C   UNL A   1      41.348  26.597  27.980  1.00  0.00    -0.014 A 
BRANCH  38  39
ATOM     39  C   UNL A   1      41.574  27.946  28.519  1.00  0.00     0.031 A 
ATOM     40  C   UNL A   1      42.794  28.522  27.974  1.00  0.00     0.074 A 
ATOM     41  C   UNL A   1      40.827  28.614  29.443  1.00  0.00     0.049 A 
ATOM     42  N   UNL A   1      43.916  28.568  28.610  1.00  0.00    -0.248 NA
ATOM     43  C   UNL A   1      42.857  28.921  26.565  1.00  0.00     0.031 C 
ATOM     44  C   UNL A   1      39.572  28.183  30.059  1.00  0.00     0.029 A 
ATOM     45  N   UNL A   1      40.967  29.879  29.988  1.00  0.00    -0.354 N 
ATOM     46  C   UNL A   1      44.732  29.296  27.779  1.00  0.00     0.074 A 
ATOM     47  C   UNL A   1      44.146  29.246  26.458  1.00  0.00     0.031 C 
ATOM     48  C   UNL A   1      38.920  29.230  30.610  1.00  0.00     0.029 A 
ATOM     49  C   UNL A   1      39.805  30.379  30.596  1.00  0.00     0.049 A 
ATOM     50  H   UNL A   1      41.812  30.385  29.953  1.00  0.00     0.167 HD
ATOM     51  C   UNL A   1      45.521  30.258  28.317  1.00  0.00     0.037 A 
ATOM     52  C   UNL A   1      39.572  31.599  31.153  1.00  0.00     0.037 A 
ATOM     53  C   UNL A   1      45.677  30.137  29.740  1.00  0.00     0.049 A 
ATOM     54  C   UNL A   1      40.870  32.102  31.633  1.00  0.00     0.074 A 
ATOM     55  C   UNL A   1      46.319  29.261  30.588  1.00  0.00     0.029 A 
ATOM     56  N   UNL A   1      44.741  30.801  30.488  1.00  0.00    -0.354 N 
ATOM     57  N   UNL A   1      41.458  31.630  32.695  1.00  0.00    -0.248 NA
ATOM     58  C   UNL A   1      41.674  32.994  30.805  1.00  0.00     0.031 C 
ATOM     59  C   UNL A   1      45.709  29.393  31.868  1.00  0.00     0.029 A 
ATOM     60  C   UNL A   1      44.715  30.360  31.790  1.00  0.00     0.049 A 
ATOM     61  H   UNL A   1      44.157  31.512  30.136  1.00  0.00     0.167 HD
ATOM     62  C   UNL A   1      42.790  31.759  32.395  1.00  0.00     0.074 A 
ATOM     63  C   UNL A   1      42.867  32.784  31.366  1.00  0.00     0.031 C 
ATOM     64  C   UNL A   1      43.640  30.736  32.677  1.00  0.00     0.037 A 
BRANCH  51  65
ATOM     65  C   UNL A   1      45.700  31.542  27.584  1.00  0.00     0.064 A 
ATOM     66  C   UNL A   1      46.948  31.920  27.090  1.00  0.00     0.173 A 
ATOM     67  C   UNL A   1      44.656  32.487  27.477  1.00  0.00     0.173 A 
ATOM     68  F   UNL A   1      48.010  31.118  27.255  1.00  0.00    -0.203 F 
ATOM     69  C   UNL A   1      47.118  33.145  26.445  1.00  0.00     0.198 A 
ATOM     70  C   UNL A   1      44.807  33.672  26.771  1.00  0.00     0.198 A 
ATOM     71  F   UNL A   1      43.484  32.299  28.105  1.00  0.00    -0.203 F 
ATOM     72  F   UNL A   1      48.335  33.506  26.017  1.00  0.00    -0.200 F 
ATOM     73  C   UNL A   1      46.043  34.002  26.256  1.00  0.00     0.200 A 
ATOM     74  F   UNL A   1      43.759  34.496  26.625  1.00  0.00    -0.200 F 
ATOM     75  F   UNL A   1      46.205  35.164  25.610  1.00  0.00    -0.200 F 
ENDBRANCH  51  65
BRANCH  52  76
ATOM     76  C   UNL A   1      38.338  32.397  31.405  1.00  0.00     0.064 A 
ATOM     77  C   UNL A   1      37.655  33.027  30.340  1.00  0.00     0.173 A 
ATOM     78  C   UNL A   1      37.628  32.295  32.613  1.00  0.00     0.173 A 
ATOM     79  F   UNL A   1      38.241  33.177  29.144  1.00  0.00    -0.203 F 
ATOM     80  C   UNL A   1      36.324  33.441  30.449  1.00  0.00     0.198 A 
ATOM     81  C   UNL A   1      36.298  32.721  32.724  1.00  0.00     0.198 A 
ATOM     82  F   UNL A   1      38.179  31.699  33.680  1.00  0.00    -0.203 F 
ATOM     83  F   UNL A   1      35.692  33.946  29.380  1.00  0.00    -0.200 F 
ATOM     84  C   UNL A   1      35.638  33.266  31.635  1.00  0.00     0.200 A 
ATOM     85  F   UNL A   1      35.634  32.536  33.874  1.00  0.00    -0.200 F 
ATOM     86  F   UNL A   1      34.339  33.585  31.718  1.00  0.00    -0.200 F 
ENDBRANCH  52  76
BRANCH  64  87
ATOM     87  C   UNL A   1      43.328  29.890  33.875  1.00  0.00     0.064 A 
ATOM     88  C   UNL A   1      43.750  30.158  35.190  1.00  0.00     0.173 A 
ATOM     89  C   UNL A   1      42.522  28.760  33.677  1.00  0.00     0.173 A 
ATOM     90  F   UNL A   1      44.477  31.248  35.475  1.00  0.00    -0.203 F 
ATOM     91  C   UNL A   1      43.401  29.313  36.244  1.00  0.00     0.198 A 
ATOM     92  C   UNL A   1      42.142  27.942  34.736  1.00  0.00     0.198 A 
ATOM     93  F   UNL A   1      42.079  28.460  32.445  1.00  0.00    -0.203 F 
ATOM     94  F   UNL A   1      43.834  29.573  37.487  1.00  0.00    -0.200 F 
ATOM     95  C   UNL A   1      42.589  28.213  36.018  1.00  0.00     0.200 A 
ATOM     96  F   UNL A   1      41.331  26.898  34.514  1.00  0.00    -0.200 F 
ATOM     97  F   UNL A   1      42.222  27.424  37.038  1.00  0.00    -0.200 F 
ENDBRANCH  64  87
ENDBRANCH  38  39
ENDBRANCH  31  33
ENDBRANCH  30  31
ENDBRANCH  29  30
ENDBRANCH  28  29
ENDBRANCH  27  28
ENDBRANCH  26  27
ENDBRANCH  25  26
ENDBRANCH  24  25
ENDBRANCH   1  24
TORSDOF 23
ENDMDL
MODEL 3
REMARK VINA RESULT:      -9.7      2.306      7.083
REMARK SMILES CC[N@H+](C)CCn1c(SCC(=O)OCCOCCOCCOC(=O)c2ccc(-c3c4nc(c(-c5c(F)c(F)c(F)c(F)c5F)c5ccc([nH]5)c(-c5c(F)c(F)c(F)c(F)c5F)c5nc(c(-c6c(F)c(F)c(F)c(F)c6F)c6ccc3[nH]6)C=C5)C=C4)cc2)nc2cnccc21
REMARK SMILES IDX 15 1 14 2 13 3 11 4 12 5 10 6 9 7 8 8 7 9 94 10 88 11 89 12
REMARK SMILES IDX 93 13 90 14 92 15 91 16 6 17 5 18 3 19 4 20 2 22 1 23 16 24
REMARK SMILES IDX 17 25 18 26 19 27 20 28 21 29 22 30 23 31 24 32 25 33 26 34
REMARK SMILES IDX 87 35 27 36 86 37 28 38 29 39 30 40 80 41 31 42 85 43 79 44
REMARK SMILES IDX 81 45 32 46 84 47 78 48 77 49 33 51 65 52 45 53 64 54 46 55
REMARK SMILES IDX 49 56 63 57 82 58 47 59 48 60 62 62 83 63 50 64 34 65 35 66
REMARK SMILES IDX 43 67 36 68 37 69 41 70 44 71 38 72 39 73 42 74 40 75 66 76
REMARK SMILES IDX 67 77 75 78 68 79 69 80 73 81 76 82 70 83 71 84 74 85 72 86
REMARK SMILES IDX 51 87 52 88 60 89 53 90 54 91 58 92 61 93 55 94 56 95 59 96
REMARK SMILES IDX 57 97
REMARK H PARENT 3 21 81 50 49 61
REMARK Flexibility Score: inf
ROOT
ATOM      1  C   UNL A   1      37.318  20.783  24.633  1.00  0.00     0.202 C 
ENDROOT
BRANCH   1   2
ATOM      2  C   UNL A   1      35.960  21.117  25.271  1.00  0.00     0.261 C 
BRANCH   2   3
ATOM      3  O   UNL A   1      35.339  22.294  24.687  1.00  0.00    -0.463 OA
BRANCH   3   4
ATOM      4  C   UNL A   1      35.477  23.473  25.354  1.00  0.00     0.316 C 
ATOM      5  O   UNL A   1      36.061  23.586  26.427  1.00  0.00    -0.251 OA
BRANCH   4   6
ATOM      6  C   UNL A   1      34.802  24.672  24.687  1.00  0.00     0.200 C 
BRANCH   6   7
ATOM      7  S   UNL A   1      33.586  25.556  25.708  1.00  0.00    -0.076 SA
BRANCH   7   8
ATOM      8  C   UNL A   1      32.306  26.177  24.684  1.00  0.00     0.169 A 
ATOM      9  N   UNL A   1      31.035  25.627  24.547  1.00  0.00    -0.313 N 
ATOM     10  C   UNL A   1      30.226  26.616  24.031  1.00  0.00     0.072 A 
ATOM     11  N   UNL A   1      32.381  27.353  24.107  1.00  0.00    -0.221 NA
ATOM     12  C   UNL A   1      31.103  27.655  23.707  1.00  0.00     0.108 A 
ATOM     13  C   UNL A   1      28.864  26.780  23.792  1.00  0.00     0.049 A 
ATOM     14  C   UNL A   1      30.606  28.813  23.088  1.00  0.00     0.141 A 
ATOM     15  C   UNL A   1      28.446  27.975  23.218  1.00  0.00     0.113 A 
ATOM     16  N   UNL A   1      29.278  28.965  22.848  1.00  0.00    -0.262 NA
BRANCH   9  17
ATOM     17  C   UNL A   1      30.852  24.221  24.770  1.00  0.00     0.186 C 
BRANCH  17  18
ATOM     18  C   UNL A   1      31.353  22.989  23.988  1.00  0.00     0.284 C 
BRANCH  18  19
ATOM     19  N   UNL A   1      32.177  23.052  22.658  1.00  0.00    -0.336 N 
ATOM     20  C   UNL A   1      32.125  21.435  22.329  1.00  0.00     0.332 C 
ATOM     21  H   UNL A   1      32.720  23.851  22.332  1.00  0.00     0.347 HD
BRANCH  19  22
ATOM     22  C   UNL A   1      32.964  24.629  21.522  1.00  0.00     0.258 C 
ATOM     23  C   UNL A   1      32.513  25.407  20.017  1.00  0.00     0.071 C 
ENDBRANCH  19  22
ENDBRANCH  18  19
ENDBRANCH  17  18
ENDBRANCH   9  17
ENDBRANCH   7   8
ENDBRANCH   6   7
ENDBRANCH   4   6
ENDBRANCH   3   4
ENDBRANCH   2   3
ENDBRANCH   1   2
BRANCH   1  24
ATOM     24  O   UNL A   1      38.414  20.687  25.543  1.00  0.00    -0.376 OA
BRANCH  24  25
ATOM     25  C   UNL A   1      39.239  19.538  25.417  1.00  0.00     0.188 C 
BRANCH  25  26
ATOM     26  C   UNL A   1      40.529  19.559  26.241  1.00  0.00     0.188 C 
BRANCH  26  27
ATOM     27  O   UNL A   1      41.522  18.692  25.704  1.00  0.00    -0.376 OA
BRANCH  27  28
ATOM     28  C   UNL A   1      42.826  19.298  25.729  1.00  0.00     0.202 C 
BRANCH  28  29
ATOM     29  C   UNL A   1      42.749  20.804  26.068  1.00  0.00     0.261 C 
BRANCH  29  30
ATOM     30  O   UNL A   1      43.976  21.504  25.759  1.00  0.00    -0.460 OA
BRANCH  30  31
ATOM     31  C   UNL A   1      43.928  22.735  25.173  1.00  0.00     0.338 C 
ATOM     32  O   UNL A   1      43.679  22.987  24.011  1.00  0.00    -0.246 OA
BRANCH  31  33
ATOM     33  C   UNL A   1      44.096  23.757  26.246  1.00  0.00     0.060 A 
ATOM     34  C   UNL A   1      42.580  24.244  27.108  1.00  0.00     0.016 A 
ATOM     35  C   UNL A   1      45.687  24.588  26.625  1.00  0.00     0.016 A 
ATOM     36  C   UNL A   1      42.588  25.657  28.231  1.00  0.00     0.010 A 
ATOM     37  C   UNL A   1      45.736  25.903  27.898  1.00  0.00     0.010 A 
ATOM     38  C   UNL A   1      44.126  26.508  28.609  1.00  0.00    -0.014 A 
BRANCH  38  39
ATOM     39  C   UNL A   1      43.958  27.760  29.362  1.00  0.00     0.031 A 
ATOM     40  C   UNL A   1      44.066  27.520  30.793  1.00  0.00     0.074 A 
ATOM     41  C   UNL A   1      43.682  29.001  28.871  1.00  0.00     0.049 A 
ATOM     42  N   UNL A   1      43.052  27.432  31.587  1.00  0.00    -0.248 NA
ATOM     43  C   UNL A   1      45.359  27.171  31.387  1.00  0.00     0.031 C 
ATOM     44  C   UNL A   1      43.571  29.404  27.469  1.00  0.00     0.029 A 
ATOM     45  N   UNL A   1      43.520  30.219  29.508  1.00  0.00    -0.354 N 
ATOM     46  C   UNL A   1      43.622  27.334  32.833  1.00  0.00     0.074 A 
ATOM     47  C   UNL A   1      44.990  26.904  32.642  1.00  0.00     0.031 C 
ATOM     48  C   UNL A   1      43.682  30.744  27.340  1.00  0.00     0.029 A 
ATOM     49  C   UNL A   1      43.645  31.335  28.664  1.00  0.00     0.049 A 
ATOM     50  H   UNL A   1      43.334  30.297  30.472  1.00  0.00     0.167 HD
ATOM     51  C   UNL A   1      43.101  28.063  33.849  1.00  0.00     0.037 A 
ATOM     52  C   UNL A   1      43.621  32.661  28.969  1.00  0.00     0.037 A 
ATOM     53  C   UNL A   1      41.782  28.561  33.575  1.00  0.00     0.049 A 
ATOM     54  C   UNL A   1      42.798  32.804  30.181  1.00  0.00     0.074 A 
ATOM     55  C   UNL A   1      40.527  28.006  33.447  1.00  0.00     0.029 A 
ATOM     56  N   UNL A   1      41.736  29.789  32.969  1.00  0.00    -0.354 N 
ATOM     57  N   UNL A   1      41.500  32.693  30.167  1.00  0.00    -0.248 NA
ATOM     58  C   UNL A   1      43.418  32.845  31.501  1.00  0.00     0.031 C 
ATOM     59  C   UNL A   1      39.733  28.927  32.707  1.00  0.00     0.029 A 
ATOM     60  C   UNL A   1      40.506  30.041  32.408  1.00  0.00     0.049 A 
ATOM     61  H   UNL A   1      42.495  30.417  32.938  1.00  0.00     0.167 HD
ATOM     62  C   UNL A   1      41.222  32.163  31.401  1.00  0.00     0.074 A 
ATOM     63  C   UNL A   1      42.365  32.489  32.239  1.00  0.00     0.031 C 
ATOM     64  C   UNL A   1      40.319  31.152  31.505  1.00  0.00     0.037 A 
BRANCH  51  65
ATOM     65  C   UNL A   1      44.022  28.695  34.834  1.00  0.00     0.064 A 
ATOM     66  C   UNL A   1      44.844  29.760  34.468  1.00  0.00     0.173 A 
ATOM     67  C   UNL A   1      44.200  28.164  36.131  1.00  0.00     0.173 A 
ATOM     68  F   UNL A   1      44.807  30.243  33.218  1.00  0.00    -0.203 F 
ATOM     69  C   UNL A   1      45.738  30.319  35.384  1.00  0.00     0.198 A 
ATOM     70  C   UNL A   1      45.034  28.765  37.063  1.00  0.00     0.198 A 
ATOM     71  F   UNL A   1      43.608  27.017  36.497  1.00  0.00    -0.203 F 
ATOM     72  F   UNL A   1      46.549  31.311  34.997  1.00  0.00    -0.200 F 
ATOM     73  C   UNL A   1      45.806  29.844  36.686  1.00  0.00     0.200 A 
ATOM     74  F   UNL A   1      45.103  28.272  38.308  1.00  0.00    -0.200 F 
ATOM     75  F   UNL A   1      46.644  30.403  37.570  1.00  0.00    -0.200 F 
ENDBRANCH  51  65
BRANCH  52  76
ATOM     76  C   UNL A   1      44.168  33.880  28.306  1.00  0.00     0.064 A 
ATOM     77  C   UNL A   1      43.333  34.984  28.022  1.00  0.00     0.173 A 
ATOM     78  C   UNL A   1      45.550  34.121  28.232  1.00  0.00     0.173 A 
ATOM     79  F   UNL A   1      41.999  34.863  28.063  1.00  0.00    -0.203 F 
ATOM     80  C   UNL A   1      43.845  36.261  27.774  1.00  0.00     0.198 A 
ATOM     81  C   UNL A   1      46.061  35.400  27.972  1.00  0.00     0.198 A 
ATOM     82  F   UNL A   1      46.428  33.145  28.500  1.00  0.00    -0.203 F 
ATOM     83  F   UNL A   1      43.008  37.295  27.606  1.00  0.00    -0.200 F 
ATOM     84  C   UNL A   1      45.210  36.473  27.772  1.00  0.00     0.200 A 
ATOM     85  F   UNL A   1      47.387  35.601  27.985  1.00  0.00    -0.200 F 
ATOM     86  F   UNL A   1      45.701  37.710  27.619  1.00  0.00    -0.200 F 
ENDBRANCH  52  76
BRANCH  64  87
ATOM     87  C   UNL A   1      39.184  31.137  30.525  1.00  0.00     0.064 A 
ATOM     88  C   UNL A   1      38.003  31.891  30.640  1.00  0.00     0.173 A 
ATOM     89  C   UNL A   1      39.325  30.332  29.385  1.00  0.00     0.173 A 
ATOM     90  F   UNL A   1      37.813  32.728  31.670  1.00  0.00    -0.203 F 
ATOM     91  C   UNL A   1      37.003  31.816  29.669  1.00  0.00     0.198 A 
ATOM     92  C   UNL A   1      38.344  30.290  28.399  1.00  0.00     0.198 A 
ATOM     93  F   UNL A   1      40.436  29.598  29.215  1.00  0.00    -0.203 F 
ATOM     94  F   UNL A   1      35.873  32.525  29.809  1.00  0.00    -0.200 F 
ATOM     95  C   UNL A   1      37.180  31.024  28.545  1.00  0.00     0.200 A 
ATOM     96  F   UNL A   1      38.536  29.546  27.301  1.00  0.00    -0.200 F 
ATOM     97  F   UNL A   1      36.236  30.982  27.594  1.00  0.00    -0.200 F 
ENDBRANCH  64  87
ENDBRANCH  38  39
ENDBRANCH  31  33
ENDBRANCH  30  31
ENDBRANCH  29  30
ENDBRANCH  28  29
ENDBRANCH  27  28
ENDBRANCH  26  27
ENDBRANCH  25  26
ENDBRANCH  24  25
ENDBRANCH   1  24
TORSDOF 23
ENDMDL
