MODEL 1
REMARK VINA RESULT:      -8.3      0.000      0.000
REMARK SMILES COC(=O)[C@@H]1CCN(S(=O)(=O)N2CCC(C(=O)OCCOCCOCCOC(=O)c3ccc(-c4c5nc(c(-c6c(F)c(F)c(F)c(F)c6F)c6ccc([nH]6)c(-c6c(F)c(F)c(F)c(F)c6F)c6nc(c(-c7c(F)c(F)c(F)c(F)c7F)c7ccc4[nH]7)C=C6)C=C5)cc3)CC2)C1
REMARK SMILES IDX 22 1 21 2 20 3 19 4 18 5 16 6 17 7 15 8 12 9 13 10 94 11
REMARK SMILES IDX 14 12 93 13 9 14 10 15 11 16 8 17 5 18 6 19 95 20 7 21 3 22
REMARK SMILES IDX 4 23 2 24 1 25 23 26 24 27 25 28 26 29 27 30 28 31 29 32
REMARK SMILES IDX 30 33 31 34 92 35 32 36 91 37 33 38 34 39 35 40 85 41 36 42
REMARK SMILES IDX 90 43 84 44 86 45 37 46 89 47 83 48 82 49 38 51 70 52 50 53
REMARK SMILES IDX 69 54 51 55 54 56 68 57 87 58 52 59 53 60 67 62 88 63 55 64
REMARK SMILES IDX 39 65 40 66 48 67 41 68 42 69 46 70 49 71 43 72 44 73 47 74
REMARK SMILES IDX 45 75 71 76 72 77 80 78 73 79 74 80 78 81 81 82 75 83 76 84
REMARK SMILES IDX 79 85 77 86 56 87 57 88 65 89 58 90 59 91 63 92 66 93 60 94
REMARK SMILES IDX 61 95 64 96 62 97
REMARK H PARENT 86 50 54 61
REMARK Flexibility Score: inf
ROOT
ATOM      1  C   UNL A   1      43.465  23.481  28.503  1.00  0.00     0.188 C 
ENDROOT
BRANCH   1   2
ATOM      2  O   UNL A   1      42.961  24.812  28.519  1.00  0.00    -0.376 OA
BRANCH   2   3
ATOM      3  C   UNL A   1      41.574  24.996  28.237  1.00  0.00     0.202 C 
BRANCH   3   4
ATOM      4  C   UNL A   1      40.911  26.274  28.775  1.00  0.00     0.261 C 
BRANCH   4   5
ATOM      5  O   UNL A   1      39.849  26.802  27.953  1.00  0.00    -0.463 OA
BRANCH   5   6
ATOM      6  C   UNL A   1      39.773  28.150  27.942  1.00  0.00     0.309 C 
ATOM      7  O   UNL A   1      39.706  28.840  26.925  1.00  0.00    -0.252 OA
BRANCH   6   8
ATOM      8  C   UNL A   1      39.754  28.807  29.299  1.00  0.00     0.102 C 
ATOM      9  N   UNL A   1      38.786  30.199  31.625  1.00  0.00    -0.189 NA
ATOM     10  C   UNL A   1      40.071  30.641  31.034  1.00  0.00     0.104 C 
ATOM     11  C   UNL A   1      38.411  28.815  31.319  1.00  0.00     0.104 C 
ATOM     12  C   UNL A   1      40.156  30.267  29.527  1.00  0.00     0.032 C 
ATOM     13  C   UNL A   1      38.348  28.590  29.837  1.00  0.00     0.032 C 
BRANCH   9  14
ATOM     14  S   UNL A   1      38.313  30.807  33.124  1.00  0.00     0.281 S 
ATOM     15  O   UNL A   1      39.195  31.899  33.454  1.00  0.00    -0.195 OA
ATOM     16  O   UNL A   1      38.156  29.692  34.037  1.00  0.00    -0.195 OA
BRANCH  14  17
ATOM     17  N   UNL A   1      36.755  31.472  32.877  1.00  0.00    -0.188 NA
ATOM     18  C   UNL A   1      36.431  33.907  32.705  1.00  0.00     0.116 C 
ATOM     19  C   UNL A   1      36.859  33.307  31.377  1.00  0.00     0.033 C 
ATOM     20  C   UNL A   1      36.530  32.739  33.705  1.00  0.00     0.118 C 
ATOM     21  C   UNL A   1      36.344  31.895  31.519  1.00  0.00     0.104 C 
BRANCH  18  22
ATOM     22  C   UNL A   1      35.030  34.498  32.651  1.00  0.00     0.310 C 
ATOM     23  O   UNL A   1      34.080  33.947  32.113  1.00  0.00    -0.252 OA
BRANCH  22  24
ATOM     24  O   UNL A   1      34.969  35.696  33.297  1.00  0.00    -0.469 OA
ATOM     25  C   UNL A   1      34.028  36.645  32.801  1.00  0.00     0.282 C 
ENDBRANCH  22  24
ENDBRANCH  18  22
ENDBRANCH  14  17
ENDBRANCH   9  14
ENDBRANCH   6   8
ENDBRANCH   5   6
ENDBRANCH   4   5
ENDBRANCH   3   4
ENDBRANCH   2   3
ENDBRANCH   1   2
BRANCH   1  26
ATOM     26  C   UNL A   1      42.601  22.443  27.795  1.00  0.00     0.188 C 
BRANCH  26  27
ATOM     27  O   UNL A   1      43.201  21.783  26.697  1.00  0.00    -0.376 OA
BRANCH  27  28
ATOM     28  C   UNL A   1      42.821  22.192  25.382  1.00  0.00     0.202 C 
BRANCH  28  29
ATOM     29  C   UNL A   1      43.682  23.228  24.614  1.00  0.00     0.261 C 
BRANCH  29  30
ATOM     30  O   UNL A   1      43.631  24.607  25.048  1.00  0.00    -0.460 OA
BRANCH  30  31
ATOM     31  C   UNL A   1      44.802  25.265  25.206  1.00  0.00     0.338 C 
ATOM     32  O   UNL A   1      45.846  25.013  24.631  1.00  0.00    -0.246 OA
BRANCH  31  33
ATOM     33  C   UNL A   1      44.562  26.527  25.974  1.00  0.00     0.060 A 
ATOM     34  C   UNL A   1      45.636  27.053  26.711  1.00  0.00     0.016 A 
ATOM     35  C   UNL A   1      43.349  27.225  25.946  1.00  0.00     0.016 A 
ATOM     36  C   UNL A   1      45.483  28.215  27.475  1.00  0.00     0.010 A 
ATOM     37  C   UNL A   1      43.189  28.382  26.729  1.00  0.00     0.010 A 
ATOM     38  C   UNL A   1      44.238  28.853  27.542  1.00  0.00    -0.014 A 
BRANCH  38  39
ATOM     39  C   UNL A   1      43.966  29.810  28.654  1.00  0.00     0.031 A 
ATOM     40  C   UNL A   1      43.729  29.236  30.030  1.00  0.00     0.074 A 
ATOM     41  C   UNL A   1      43.985  31.147  28.494  1.00  0.00     0.049 A 
ATOM     42  N   UNL A   1      43.441  29.840  31.155  1.00  0.00    -0.248 NA
ATOM     43  C   UNL A   1      43.832  27.772  30.146  1.00  0.00     0.031 C 
ATOM     44  C   UNL A   1      44.260  31.852  27.245  1.00  0.00     0.029 A 
ATOM     45  N   UNL A   1      43.762  32.156  29.405  1.00  0.00    -0.354 N 
ATOM     46  C   UNL A   1      43.321  28.832  32.105  1.00  0.00     0.074 A 
ATOM     47  C   UNL A   1      43.527  27.577  31.418  1.00  0.00     0.031 C 
ATOM     48  C   UNL A   1      44.180  33.179  27.465  1.00  0.00     0.029 A 
ATOM     49  C   UNL A   1      43.816  33.417  28.863  1.00  0.00     0.049 A 
ATOM     50  H   UNL A   1      43.580  31.989  30.358  1.00  0.00     0.167 HD
ATOM     51  C   UNL A   1      43.078  28.936  33.434  1.00  0.00     0.037 A 
ATOM     52  C   UNL A   1      43.579  34.622  29.424  1.00  0.00     0.037 A 
ATOM     53  C   UNL A   1      42.871  30.179  34.127  1.00  0.00     0.049 A 
ATOM     54  C   UNL A   1      43.214  34.707  30.889  1.00  0.00     0.074 A 
ATOM     55  C   UNL A   1      42.612  30.384  35.472  1.00  0.00     0.029 A 
ATOM     56  N   UNL A   1      42.894  31.430  33.531  1.00  0.00    -0.354 N 
ATOM     57  N   UNL A   1      43.113  33.751  31.780  1.00  0.00    -0.248 NA
ATOM     58  C   UNL A   1      42.937  36.050  31.427  1.00  0.00     0.031 C 
ATOM     59  C   UNL A   1      42.420  31.753  35.677  1.00  0.00     0.029 A 
ATOM     60  C   UNL A   1      42.633  32.409  34.476  1.00  0.00     0.049 A 
ATOM     61  H   UNL A   1      43.069  31.598  32.577  1.00  0.00     0.167 HD
ATOM     62  C   UNL A   1      42.810  34.377  32.985  1.00  0.00     0.074 A 
ATOM     63  C   UNL A   1      42.752  35.796  32.715  1.00  0.00     0.031 C 
ATOM     64  C   UNL A   1      42.603  33.824  34.207  1.00  0.00     0.037 A 
BRANCH  51  65
ATOM     65  C   UNL A   1      42.995  27.661  34.224  1.00  0.00     0.064 A 
ATOM     66  C   UNL A   1      41.771  27.017  34.463  1.00  0.00     0.173 A 
ATOM     67  C   UNL A   1      44.160  27.061  34.726  1.00  0.00     0.173 A 
ATOM     68  F   UNL A   1      40.625  27.557  34.021  1.00  0.00    -0.203 F 
ATOM     69  C   UNL A   1      41.714  25.836  35.201  1.00  0.00     0.198 A 
ATOM     70  C   UNL A   1      44.103  25.861  35.430  1.00  0.00     0.198 A 
ATOM     71  F   UNL A   1      45.356  27.632  34.523  1.00  0.00    -0.203 F 
ATOM     72  F   UNL A   1      40.529  25.270  35.464  1.00  0.00    -0.200 F 
ATOM     73  C   UNL A   1      42.881  25.255  35.675  1.00  0.00     0.200 A 
ATOM     74  F   UNL A   1      45.232  25.294  35.875  1.00  0.00    -0.200 F 
ATOM     75  F   UNL A   1      42.825  24.114  36.375  1.00  0.00    -0.200 F 
ENDBRANCH  51  65
BRANCH  52  76
ATOM     76  C   UNL A   1      43.663  35.866  28.608  1.00  0.00     0.064 A 
ATOM     77  C   UNL A   1      42.528  36.401  27.979  1.00  0.00     0.173 A 
ATOM     78  C   UNL A   1      44.889  36.512  28.386  1.00  0.00     0.173 A 
ATOM     79  F   UNL A   1      41.336  35.804  28.129  1.00  0.00    -0.203 F 
ATOM     80  C   UNL A   1      42.622  37.512  27.141  1.00  0.00     0.198 A 
ATOM     81  C   UNL A   1      44.975  37.643  27.577  1.00  0.00     0.198 A 
ATOM     82  F   UNL A   1      46.009  36.039  28.953  1.00  0.00    -0.203 F 
ATOM     83  F   UNL A   1      41.532  37.960  26.502  1.00  0.00    -0.200 F 
ATOM     84  C   UNL A   1      43.843  38.136  26.945  1.00  0.00     0.200 A 
ATOM     85  F   UNL A   1      46.157  38.248  27.398  1.00  0.00    -0.200 F 
ATOM     86  F   UNL A   1      43.933  39.201  26.138  1.00  0.00    -0.200 F 
ENDBRANCH  52  76
BRANCH  64  87
ATOM     87  C   UNL A   1      42.371  34.754  35.368  1.00  0.00     0.064 A 
ATOM     88  C   UNL A   1      41.087  35.165  35.753  1.00  0.00     0.173 A 
ATOM     89  C   UNL A   1      43.460  35.211  36.131  1.00  0.00     0.173 A 
ATOM     90  F   UNL A   1      40.013  34.766  35.057  1.00  0.00    -0.203 F 
ATOM     91  C   UNL A   1      40.903  36.027  36.833  1.00  0.00     0.198 A 
ATOM     92  C   UNL A   1      43.268  36.041  37.232  1.00  0.00     0.198 A 
ATOM     93  F   UNL A   1      44.710  34.841  35.817  1.00  0.00    -0.203 F 
ATOM     94  F   UNL A   1      39.671  36.453  37.144  1.00  0.00    -0.200 F 
ATOM     95  C   UNL A   1      41.993  36.458  37.576  1.00  0.00     0.200 A 
ATOM     96  F   UNL A   1      44.322  36.440  37.959  1.00  0.00    -0.200 F 
ATOM     97  F   UNL A   1      41.812  37.283  38.617  1.00  0.00    -0.200 F 
ENDBRANCH  64  87
ENDBRANCH  38  39
ENDBRANCH  31  33
ENDBRANCH  30  31
ENDBRANCH  29  30
ENDBRANCH  28  29
ENDBRANCH  27  28
ENDBRANCH  26  27
ENDBRANCH   1  26
TORSDOF 21
ENDMDL
MODEL 2
REMARK VINA RESULT:      -8.1      3.652     11.746
REMARK SMILES COC(=O)[C@@H]1CCN(S(=O)(=O)N2CCC(C(=O)OCCOCCOCCOC(=O)c3ccc(-c4c5nc(c(-c6c(F)c(F)c(F)c(F)c6F)c6ccc([nH]6)c(-c6c(F)c(F)c(F)c(F)c6F)c6nc(c(-c7c(F)c(F)c(F)c(F)c7F)c7ccc4[nH]7)C=C6)C=C5)cc3)CC2)C1
REMARK SMILES IDX 22 1 21 2 20 3 19 4 18 5 16 6 17 7 15 8 12 9 13 10 94 11
REMARK SMILES IDX 14 12 93 13 9 14 10 15 11 16 8 17 5 18 6 19 95 20 7 21 3 22
REMARK SMILES IDX 4 23 2 24 1 25 23 26 24 27 25 28 26 29 27 30 28 31 29 32
REMARK SMILES IDX 30 33 31 34 92 35 32 36 91 37 33 38 34 39 35 40 85 41 36 42
REMARK SMILES IDX 90 43 84 44 86 45 37 46 89 47 83 48 82 49 38 51 70 52 50 53
REMARK SMILES IDX 69 54 51 55 54 56 68 57 87 58 52 59 53 60 67 62 88 63 55 64
REMARK SMILES IDX 39 65 40 66 48 67 41 68 42 69 46 70 49 71 43 72 44 73 47 74
REMARK SMILES IDX 45 75 71 76 72 77 80 78 73 79 74 80 78 81 81 82 75 83 76 84
REMARK SMILES IDX 79 85 77 86 56 87 57 88 65 89 58 90 59 91 63 92 66 93 60 94
REMARK SMILES IDX 61 95 64 96 62 97
REMARK H PARENT 86 50 54 61
REMARK Flexibility Score: inf
ROOT
ATOM      1  C   UNL A   1      34.446  33.198  28.087  1.00  0.00     0.188 C 
ENDROOT
BRANCH   1   2
ATOM      2  O   UNL A   1      34.115  31.837  28.341  1.00  0.00    -0.376 OA
BRANCH   2   3
ATOM      3  C   UNL A   1      34.957  30.836  27.768  1.00  0.00     0.202 C 
BRANCH   3   4
ATOM      4  C   UNL A   1      36.469  30.969  28.006  1.00  0.00     0.261 C 
BRANCH   4   5
ATOM      5  O   UNL A   1      37.108  29.795  28.550  1.00  0.00    -0.463 OA
BRANCH   5   6
ATOM      6  C   UNL A   1      38.330  30.021  29.078  1.00  0.00     0.309 C 
ATOM      7  O   UNL A   1      38.681  31.074  29.609  1.00  0.00    -0.252 OA
BRANCH   6   8
ATOM      8  C   UNL A   1      39.290  28.862  28.999  1.00  0.00     0.102 C 
ATOM      9  N   UNL A   1      41.357  27.113  28.019  1.00  0.00    -0.189 NA
ATOM     10  C   UNL A   1      40.098  26.499  28.505  1.00  0.00     0.104 C 
ATOM     11  C   UNL A   1      41.640  28.447  28.558  1.00  0.00     0.104 C 
ATOM     12  C   UNL A   1      38.912  27.500  28.410  1.00  0.00     0.032 C 
ATOM     13  C   UNL A   1      40.514  29.394  28.267  1.00  0.00     0.032 C 
BRANCH   9  14
ATOM     14  S   UNL A   1      42.681  26.127  27.682  1.00  0.00     0.281 S 
ATOM     15  O   UNL A   1      42.178  24.877  27.166  1.00  0.00    -0.195 OA
ATOM     16  O   UNL A   1      43.563  26.142  28.832  1.00  0.00    -0.195 OA
BRANCH  14  17
ATOM     17  N   UNL A   1      43.515  26.902  26.404  1.00  0.00    -0.188 NA
ATOM     18  C   UNL A   1      45.966  26.747  26.214  1.00  0.00     0.116 C 
ATOM     19  C   UNL A   1      45.282  25.534  25.609  1.00  0.00     0.033 C 
ATOM     20  C   UNL A   1      44.823  27.543  26.873  1.00  0.00     0.118 C 
ATOM     21  C   UNL A   1      43.944  26.117  25.224  1.00  0.00     0.104 C 
BRANCH  18  22
ATOM     22  C   UNL A   1      46.713  27.571  25.177  1.00  0.00     0.310 C 
ATOM     23  O   UNL A   1      46.163  28.245  24.317  1.00  0.00    -0.252 OA
BRANCH  22  24
ATOM     24  O   UNL A   1      48.062  27.481  25.346  1.00  0.00    -0.469 OA
ATOM     25  C   UNL A   1      48.801  26.863  24.294  1.00  0.00     0.282 C 
ENDBRANCH  22  24
ENDBRANCH  18  22
ENDBRANCH  14  17
ENDBRANCH   9  14
ENDBRANCH   6   8
ENDBRANCH   5   6
ENDBRANCH   4   5
ENDBRANCH   3   4
ENDBRANCH   2   3
ENDBRANCH   1   2
BRANCH   1  26
ATOM     26  C   UNL A   1      34.825  34.038  29.303  1.00  0.00     0.188 C 
BRANCH  26  27
ATOM     27  O   UNL A   1      33.979  33.912  30.429  1.00  0.00    -0.376 OA
BRANCH  27  28
ATOM     28  C   UNL A   1      34.578  33.573  31.681  1.00  0.00     0.202 C 
BRANCH  28  29
ATOM     29  C   UNL A   1      35.861  32.704  31.717  1.00  0.00     0.261 C 
BRANCH  29  30
ATOM     30  O   UNL A   1      36.009  31.758  32.801  1.00  0.00    -0.460 OA
BRANCH  30  31
ATOM     31  C   UNL A   1      36.887  32.054  33.787  1.00  0.00     0.338 C 
ATOM     32  O   UNL A   1      36.640  32.694  34.794  1.00  0.00    -0.246 OA
BRANCH  31  33
ATOM     33  C   UNL A   1      38.131  31.244  33.603  1.00  0.00     0.060 A 
ATOM     34  C   UNL A   1      39.313  31.725  34.190  1.00  0.00     0.016 A 
ATOM     35  C   UNL A   1      38.156  30.017  32.929  1.00  0.00     0.016 A 
ATOM     36  C   UNL A   1      40.522  31.037  34.042  1.00  0.00     0.010 A 
ATOM     37  C   UNL A   1      39.375  29.336  32.763  1.00  0.00     0.010 A 
ATOM     38  C   UNL A   1      40.576  29.869  33.270  1.00  0.00    -0.014 A 
BRANCH  38  39
ATOM     39  C   UNL A   1      41.895  29.384  32.770  1.00  0.00     0.031 A 
ATOM     40  C   UNL A   1      42.551  30.164  31.656  1.00  0.00     0.074 A 
ATOM     41  C   UNL A   1      42.543  28.332  33.305  1.00  0.00     0.049 A 
ATOM     42  N   UNL A   1      43.674  29.941  31.021  1.00  0.00    -0.248 NA
ATOM     43  C   UNL A   1      41.833  31.365  31.198  1.00  0.00     0.031 C 
ATOM     44  C   UNL A   1      42.069  27.519  34.422  1.00  0.00     0.029 A 
ATOM     45  N   UNL A   1      43.752  27.765  32.968  1.00  0.00    -0.354 N 
ATOM     46  C   UNL A   1      43.790  30.964  30.088  1.00  0.00     0.074 A 
ATOM     47  C   UNL A   1      42.606  31.785  30.210  1.00  0.00     0.031 C 
ATOM     48  C   UNL A   1      42.973  26.552  34.672  1.00  0.00     0.029 A 
ATOM     49  C   UNL A   1      44.073  26.656  33.712  1.00  0.00     0.049 A 
ATOM     50  H   UNL A   1      44.332  28.122  32.258  1.00  0.00     0.167 HD
ATOM     51  C   UNL A   1      44.796  31.214  29.215  1.00  0.00     0.037 A 
ATOM     52  C   UNL A   1      45.122  25.812  33.617  1.00  0.00     0.037 A 
ATOM     53  C   UNL A   1      45.977  30.404  29.084  1.00  0.00     0.049 A 
ATOM     54  C   UNL A   1      46.186  26.055  32.570  1.00  0.00     0.074 A 
ATOM     55  C   UNL A   1      47.048  30.573  28.223  1.00  0.00     0.029 A 
ATOM     56  N   UNL A   1      46.242  29.266  29.830  1.00  0.00    -0.354 N 
ATOM     57  N   UNL A   1      46.293  27.030  31.699  1.00  0.00    -0.248 NA
ATOM     58  C   UNL A   1      47.285  25.077  32.500  1.00  0.00     0.031 C 
ATOM     59  C   UNL A   1      47.932  29.507  28.407  1.00  0.00     0.029 A 
ATOM     60  C   UNL A   1      47.450  28.712  29.434  1.00  0.00     0.049 A 
ATOM     61  H   UNL A   1      45.658  28.905  30.535  1.00  0.00     0.167 HD
ATOM     62  C   UNL A   1      47.485  26.809  31.016  1.00  0.00     0.074 A 
ATOM     63  C   UNL A   1      48.072  25.613  31.578  1.00  0.00     0.031 C 
ATOM     64  C   UNL A   1      48.044  27.536  30.016  1.00  0.00     0.037 A 
BRANCH  51  65
ATOM     65  C   UNL A   1      44.648  32.403  28.309  1.00  0.00     0.064 A 
ATOM     66  C   UNL A   1      45.024  33.693  28.714  1.00  0.00     0.173 A 
ATOM     67  C   UNL A   1      44.147  32.245  27.008  1.00  0.00     0.173 A 
ATOM     68  F   UNL A   1      45.492  33.902  29.954  1.00  0.00    -0.203 F 
ATOM     69  C   UNL A   1      44.877  34.784  27.861  1.00  0.00     0.198 A 
ATOM     70  C   UNL A   1      44.036  33.333  26.145  1.00  0.00     0.198 A 
ATOM     71  F   UNL A   1      43.775  31.034  26.568  1.00  0.00    -0.203 F 
ATOM     72  F   UNL A   1      45.191  36.014  28.289  1.00  0.00    -0.200 F 
ATOM     73  C   UNL A   1      44.393  34.601  26.574  1.00  0.00     0.200 A 
ATOM     74  F   UNL A   1      43.582  33.151  24.897  1.00  0.00    -0.200 F 
ATOM     75  F   UNL A   1      44.261  35.651  25.751  1.00  0.00    -0.200 F 
ENDBRANCH  51  65
BRANCH  52  76
ATOM     76  C   UNL A   1      45.233  24.637  34.527  1.00  0.00     0.064 A 
ATOM     77  C   UNL A   1      45.904  24.730  35.755  1.00  0.00     0.173 A 
ATOM     78  C   UNL A   1      44.726  23.381  34.160  1.00  0.00     0.173 A 
ATOM     79  F   UNL A   1      46.438  25.898  36.139  1.00  0.00    -0.203 F 
ATOM     80  C   UNL A   1      46.088  23.610  36.565  1.00  0.00     0.198 A 
ATOM     81  C   UNL A   1      44.878  22.270  34.988  1.00  0.00     0.198 A 
ATOM     82  F   UNL A   1      44.083  23.231  32.993  1.00  0.00    -0.203 F 
ATOM     83  F   UNL A   1      46.790  23.715  37.702  1.00  0.00    -0.200 F 
ATOM     84  C   UNL A   1      45.570  22.382  36.184  1.00  0.00     0.200 A 
ATOM     85  F   UNL A   1      44.368  21.087  34.619  1.00  0.00    -0.200 F 
ATOM     86  F   UNL A   1      45.749  21.305  36.961  1.00  0.00    -0.200 F 
ENDBRANCH  52  76
BRANCH  64  87
ATOM     87  C   UNL A   1      49.397  27.111  29.511  1.00  0.00     0.064 A 
ATOM     88  C   UNL A   1      50.589  27.588  30.075  1.00  0.00     0.173 A 
ATOM     89  C   UNL A   1      49.496  26.178  28.465  1.00  0.00     0.173 A 
ATOM     90  F   UNL A   1      50.554  28.486  31.070  1.00  0.00    -0.203 F 
ATOM     91  C   UNL A   1      51.828  27.178  29.586  1.00  0.00     0.198 A 
ATOM     92  C   UNL A   1      50.735  25.741  28.006  1.00  0.00     0.198 A 
ATOM     93  F   UNL A   1      48.389  25.678  27.897  1.00  0.00    -0.203 F 
ATOM     94  F   UNL A   1      52.953  27.694  30.100  1.00  0.00    -0.200 F 
ATOM     95  C   UNL A   1      51.900  26.249  28.557  1.00  0.00     0.200 A 
ATOM     96  F   UNL A   1      50.801  24.829  27.025  1.00  0.00    -0.200 F 
ATOM     97  F   UNL A   1      53.093  25.851  28.093  1.00  0.00    -0.200 F 
ENDBRANCH  64  87
ENDBRANCH  38  39
ENDBRANCH  31  33
ENDBRANCH  30  31
ENDBRANCH  29  30
ENDBRANCH  28  29
ENDBRANCH  27  28
ENDBRANCH  26  27
ENDBRANCH   1  26
TORSDOF 21
ENDMDL
MODEL 3
REMARK VINA RESULT:      -8.0      0.979      2.180
REMARK SMILES COC(=O)[C@@H]1CCN(S(=O)(=O)N2CCC(C(=O)OCCOCCOCCOC(=O)c3ccc(-c4c5nc(c(-c6c(F)c(F)c(F)c(F)c6F)c6ccc([nH]6)c(-c6c(F)c(F)c(F)c(F)c6F)c6nc(c(-c7c(F)c(F)c(F)c(F)c7F)c7ccc4[nH]7)C=C6)C=C5)cc3)CC2)C1
REMARK SMILES IDX 22 1 21 2 20 3 19 4 18 5 16 6 17 7 15 8 12 9 13 10 94 11
REMARK SMILES IDX 14 12 93 13 9 14 10 15 11 16 8 17 5 18 6 19 95 20 7 21 3 22
REMARK SMILES IDX 4 23 2 24 1 25 23 26 24 27 25 28 26 29 27 30 28 31 29 32
REMARK SMILES IDX 30 33 31 34 92 35 32 36 91 37 33 38 34 39 35 40 85 41 36 42
REMARK SMILES IDX 90 43 84 44 86 45 37 46 89 47 83 48 82 49 38 51 70 52 50 53
REMARK SMILES IDX 69 54 51 55 54 56 68 57 87 58 52 59 53 60 67 62 88 63 55 64
REMARK SMILES IDX 39 65 40 66 48 67 41 68 42 69 46 70 49 71 43 72 44 73 47 74
REMARK SMILES IDX 45 75 71 76 72 77 80 78 73 79 74 80 78 81 81 82 75 83 76 84
REMARK SMILES IDX 79 85 77 86 56 87 57 88 65 89 58 90 59 91 63 92 66 93 60 94
REMARK SMILES IDX 61 95 64 96 62 97
REMARK H PARENT 86 50 54 61
REMARK Flexibility Score: inf
ROOT
ATOM      1  C   UNL A   1      43.732  22.444  26.920  1.00  0.00     0.188 C 
ENDROOT
BRANCH   1   2
ATOM      2  O   UNL A   1      43.323  23.804  26.831  1.00  0.00    -0.376 OA
BRANCH   2   3
ATOM      3  C   UNL A   1      42.000  24.124  27.264  1.00  0.00     0.202 C 
BRANCH   3   4
ATOM      4  C   UNL A   1      41.850  25.276  28.271  1.00  0.00     0.261 C 
BRANCH   4   5
ATOM      5  O   UNL A   1      40.522  25.831  28.369  1.00  0.00    -0.463 OA
BRANCH   5   6
ATOM      6  C   UNL A   1      40.456  27.159  28.135  1.00  0.00     0.309 C 
ATOM      7  O   UNL A   1      40.457  27.675  27.018  1.00  0.00    -0.252 OA
BRANCH   6   8
ATOM      8  C   UNL A   1      40.360  28.027  29.364  1.00  0.00     0.102 C 
ATOM      9  N   UNL A   1      39.227  29.612  31.483  1.00  0.00    -0.189 NA
ATOM     10  C   UNL A   1      40.395  30.160  30.753  1.00  0.00     0.104 C 
ATOM     11  C   UNL A   1      39.096  28.153  31.430  1.00  0.00     0.104 C 
ATOM     12  C   UNL A   1      40.501  29.551  29.326  1.00  0.00     0.032 C 
ATOM     13  C   UNL A   1      39.031  27.669  30.012  1.00  0.00     0.032 C 
BRANCH   9  14
ATOM     14  S   UNL A   1      38.696  30.380  32.887  1.00  0.00     0.281 S 
ATOM     15  O   UNL A   1      39.369  31.652  32.974  1.00  0.00    -0.195 OA
ATOM     16  O   UNL A   1      38.778  29.432  33.980  1.00  0.00    -0.195 OA
BRANCH  14  17
ATOM     17  N   UNL A   1      37.035  30.703  32.631  1.00  0.00    -0.188 NA
ATOM     18  C   UNL A   1      36.302  32.795  31.557  1.00  0.00     0.116 C 
ATOM     19  C   UNL A   1      36.701  31.751  30.529  1.00  0.00     0.033 C 
ATOM     20  C   UNL A   1      36.680  32.164  32.912  1.00  0.00     0.118 C 
ATOM     21  C   UNL A   1      36.439  30.476  31.295  1.00  0.00     0.104 C 
BRANCH  18  22
ATOM     22  C   UNL A   1      34.824  33.148  31.483  1.00  0.00     0.310 C 
ATOM     23  O   UNL A   1      33.989  32.753  32.285  1.00  0.00    -0.252 OA
BRANCH  22  24
ATOM     24  O   UNL A   1      34.561  33.975  30.433  1.00  0.00    -0.469 OA
ATOM     25  C   UNL A   1      33.641  35.038  30.668  1.00  0.00     0.282 C 
ENDBRANCH  22  24
ENDBRANCH  18  22
ENDBRANCH  14  17
ENDBRANCH   9  14
ENDBRANCH   6   8
ENDBRANCH   5   6
ENDBRANCH   4   5
ENDBRANCH   3   4
ENDBRANCH   2   3
ENDBRANCH   1   2
BRANCH   1  26
ATOM     26  C   UNL A   1      43.312  21.537  25.768  1.00  0.00     0.188 C 
BRANCH  26  27
ATOM     27  O   UNL A   1      44.316  21.238  24.817  1.00  0.00    -0.376 OA
BRANCH  27  28
ATOM     28  C   UNL A   1      44.684  22.260  23.890  1.00  0.00     0.202 C 
BRANCH  28  29
ATOM     29  C   UNL A   1      45.794  23.278  24.258  1.00  0.00     0.261 C 
BRANCH  29  30
ATOM     30  O   UNL A   1      45.388  24.604  24.672  1.00  0.00    -0.460 OA
BRANCH  30  31
ATOM     31  C   UNL A   1      46.346  25.550  24.799  1.00  0.00     0.338 C 
ATOM     32  O   UNL A   1      47.410  25.573  24.204  1.00  0.00    -0.246 OA
BRANCH  31  33
ATOM     33  C   UNL A   1      45.797  26.714  25.561  1.00  0.00     0.060 A 
ATOM     34  C   UNL A   1      46.708  27.677  26.024  1.00  0.00     0.016 A 
ATOM     35  C   UNL A   1      44.429  26.911  25.781  1.00  0.00     0.016 A 
ATOM     36  C   UNL A   1      46.274  28.781  26.766  1.00  0.00     0.010 A 
ATOM     37  C   UNL A   1      43.994  28.010  26.544  1.00  0.00     0.010 A 
ATOM     38  C   UNL A   1      44.919  28.922  27.088  1.00  0.00    -0.014 A 
BRANCH  38  39
ATOM     39  C   UNL A   1      44.523  29.832  28.202  1.00  0.00     0.031 A 
ATOM     40  C   UNL A   1      44.277  29.215  29.558  1.00  0.00     0.074 A 
ATOM     41  C   UNL A   1      44.438  31.169  28.064  1.00  0.00     0.049 A 
ATOM     42  N   UNL A   1      43.894  29.772  30.679  1.00  0.00    -0.248 NA
ATOM     43  C   UNL A   1      44.495  27.762  29.655  1.00  0.00     0.031 C 
ATOM     44  C   UNL A   1      44.706  31.917  26.838  1.00  0.00     0.029 A 
ATOM     45  N   UNL A   1      44.096  32.139  28.980  1.00  0.00    -0.354 N 
ATOM     46  C   UNL A   1      43.819  28.740  31.607  1.00  0.00     0.074 A 
ATOM     47  C   UNL A   1      44.155  27.518  30.910  1.00  0.00     0.031 C 
ATOM     48  C   UNL A   1      44.508  33.228  27.075  1.00  0.00     0.029 A 
ATOM     49  C   UNL A   1      44.068  33.410  28.459  1.00  0.00     0.049 A 
ATOM     50  H   UNL A   1      43.889  31.939  29.921  1.00  0.00     0.167 HD
ATOM     51  C   UNL A   1      43.513  28.798  32.925  1.00  0.00     0.037 A 
ATOM     52  C   UNL A   1      43.709  34.581  29.028  1.00  0.00     0.037 A 
ATOM     53  C   UNL A   1      43.176  30.007  33.629  1.00  0.00     0.049 A 
ATOM     54  C   UNL A   1      43.278  34.608  30.478  1.00  0.00     0.074 A 
ATOM     55  C   UNL A   1      42.845  30.165  34.964  1.00  0.00     0.029 A 
ATOM     56  N   UNL A   1      43.120  31.267  33.052  1.00  0.00    -0.354 N 
ATOM     57  N   UNL A   1      43.219  33.630  31.349  1.00  0.00    -0.248 NA
ATOM     58  C   UNL A   1      42.869  35.913  31.024  1.00  0.00     0.031 C 
ATOM     59  C   UNL A   1      42.533  31.509  35.182  1.00  0.00     0.029 A 
ATOM     60  C   UNL A   1      42.740  32.203  34.001  1.00  0.00     0.049 A 
ATOM     61  H   UNL A   1      43.320  31.466  32.110  1.00  0.00     0.167 HD
ATOM     62  C   UNL A   1      42.816  34.207  32.550  1.00  0.00     0.074 A 
ATOM     63  C   UNL A   1      42.652  35.621  32.299  1.00  0.00     0.031 C 
ATOM     64  C   UNL A   1      42.605  33.616  33.753  1.00  0.00     0.037 A 
BRANCH  51  65
ATOM     65  C   UNL A   1      43.502  27.506  33.692  1.00  0.00     0.064 A 
ATOM     66  C   UNL A   1      44.689  26.865  34.079  1.00  0.00     0.173 A 
ATOM     67  C   UNL A   1      42.286  26.915  34.068  1.00  0.00     0.173 A 
ATOM     68  F   UNL A   1      45.878  27.379  33.730  1.00  0.00    -0.203 F 
ATOM     69  C   UNL A   1      44.659  25.666  34.787  1.00  0.00     0.198 A 
ATOM     70  C   UNL A   1      42.260  25.736  34.808  1.00  0.00     0.198 A 
ATOM     71  F   UNL A   1      41.122  27.486  33.727  1.00  0.00    -0.203 F 
ATOM     72  F   UNL A   1      45.804  25.044  35.097  1.00  0.00    -0.200 F 
ATOM     73  C   UNL A   1      43.445  25.108  35.159  1.00  0.00     0.200 A 
ATOM     74  F   UNL A   1      41.087  25.206  35.179  1.00  0.00    -0.200 F 
ATOM     75  F   UNL A   1      43.418  23.960  35.849  1.00  0.00    -0.200 F 
ENDBRANCH  51  65
BRANCH  52  76
ATOM     76  C   UNL A   1      43.724  35.843  28.236  1.00  0.00     0.064 A 
ATOM     77  C   UNL A   1      44.910  36.569  28.047  1.00  0.00     0.173 A 
ATOM     78  C   UNL A   1      42.543  36.383  27.704  1.00  0.00     0.173 A 
ATOM     79  F   UNL A   1      46.062  36.115  28.563  1.00  0.00    -0.203 F 
ATOM     80  C   UNL A   1      44.909  37.795  27.384  1.00  0.00     0.198 A 
ATOM     81  C   UNL A   1      42.550  37.592  27.010  1.00  0.00     0.198 A 
ATOM     82  F   UNL A   1      41.379  35.738  27.862  1.00  0.00    -0.203 F 
ATOM     83  F   UNL A   1      46.046  38.497  27.276  1.00  0.00    -0.200 F 
ATOM     84  C   UNL A   1      43.730  38.304  26.861  1.00  0.00     0.200 A 
ATOM     85  F   UNL A   1      41.409  38.075  26.499  1.00  0.00    -0.200 F 
ATOM     86  F   UNL A   1      43.729  39.483  26.227  1.00  0.00    -0.200 F 
ENDBRANCH  52  76
BRANCH  64  87
ATOM     87  C   UNL A   1      42.250  34.501  34.917  1.00  0.00     0.064 A 
ATOM     88  C   UNL A   1      43.222  35.029  35.780  1.00  0.00     0.173 A 
ATOM     89  C   UNL A   1      40.910  34.857  35.147  1.00  0.00     0.173 A 
ATOM     90  F   UNL A   1      44.515  34.717  35.612  1.00  0.00    -0.203 F 
ATOM     91  C   UNL A   1      42.863  35.846  36.851  1.00  0.00     0.198 A 
ATOM     92  C   UNL A   1      40.560  35.704  36.195  1.00  0.00     0.198 A 
ATOM     93  F   UNL A   1      39.939  34.392  34.346  1.00  0.00    -0.203 F 
ATOM     94  F   UNL A   1      43.803  36.288  37.697  1.00  0.00    -0.200 F 
ATOM     95  C   UNL A   1      41.533  36.189  37.052  1.00  0.00     0.200 A 
ATOM     96  F   UNL A   1      39.277  36.049  36.375  1.00  0.00    -0.200 F 
ATOM     97  F   UNL A   1      41.192  36.980  38.079  1.00  0.00    -0.200 F 
ENDBRANCH  64  87
ENDBRANCH  38  39
ENDBRANCH  31  33
ENDBRANCH  30  31
ENDBRANCH  29  30
ENDBRANCH  28  29
ENDBRANCH  27  28
ENDBRANCH  26  27
ENDBRANCH   1  26
TORSDOF 21
ENDMDL
