MODEL 1
REMARK VINA RESULT:     -11.7      0.000      0.000
REMARK SMILES O=C(OCCOCCOCCOC(=O)c1ccc2c(c1)CCN2C(=O)c1ccn[nH]1)c1ccc(-c2c3nc(c(-c4c(F)c(F)c(F)c(F)c4F)c4ccc([nH]4)c(-c4c(F)c(F)c(F)c(F)c4F)c4nc(c(-c5c(F)c(F)c(F)c(F)c5F)c5ccc2[nH]5)C=C4)C=C3)cc1
REMARK SMILES IDX 7 1 6 2 5 3 4 4 3 5 2 6 1 7 31 8 32 9 93 10 33 11 92 12
REMARK SMILES IDX 34 13 35 14 36 15 86 16 37 17 91 18 85 19 87 20 38 21 90 22
REMARK SMILES IDX 84 23 83 24 39 26 71 27 51 28 70 29 52 30 55 31 69 32 88 33
REMARK SMILES IDX 53 34 54 35 68 37 89 38 56 39 40 40 41 41 49 42 42 43 43 44
REMARK SMILES IDX 47 45 50 46 44 47 45 48 48 49 46 50 72 51 73 52 81 53 74 54
REMARK SMILES IDX 75 55 79 56 82 57 76 58 77 59 80 60 78 61 57 62 58 63 66 64
REMARK SMILES IDX 59 65 60 66 64 67 67 68 61 69 62 70 65 71 63 72 8 73 9 74
REMARK SMILES IDX 10 75 11 76 12 77 13 78 14 79 15 80 16 81 20 82 17 83 19 84
REMARK SMILES IDX 18 85 21 86 23 87 22 88 24 89 25 90 26 91 27 92 30 93 28 94
REMARK SMILES IDX 29 95
REMARK H PARENT 87 25 55 36 30 96
REMARK Flexibility Score: inf
ROOT
ATOM      1  C   UNL A   1      43.781  20.099  25.720  1.00  0.00     0.188 C 
ENDROOT
BRANCH   1   2
ATOM      2  O   UNL A   1      44.289  20.236  24.386  1.00  0.00    -0.376 OA
BRANCH   2   3
ATOM      3  C   UNL A   1      45.248  21.291  24.255  1.00  0.00     0.202 C 
BRANCH   3   4
ATOM      4  C   UNL A   1      44.721  22.542  23.539  1.00  0.00     0.261 C 
BRANCH   4   5
ATOM      5  O   UNL A   1      44.019  23.430  24.427  1.00  0.00    -0.460 OA
BRANCH   5   6
ATOM      6  C   UNL A   1      44.448  24.599  24.967  1.00  0.00     0.338 C 
ATOM      7  O   UNL A   1      45.566  25.009  24.660  1.00  0.00    -0.246 OA
BRANCH   6   8
ATOM      8  C   UNL A   1      43.627  25.452  25.884  1.00  0.00     0.060 A 
ATOM      9  C   UNL A   1      43.752  26.833  26.032  1.00  0.00     0.016 A 
ATOM     10  C   UNL A   1      42.628  24.804  26.634  1.00  0.00     0.016 A 
ATOM     11  C   UNL A   1      43.035  27.523  27.002  1.00  0.00     0.010 A 
ATOM     12  C   UNL A   1      41.856  25.501  27.570  1.00  0.00     0.010 A 
ATOM     13  C   UNL A   1      42.109  26.856  27.802  1.00  0.00    -0.014 A 
BRANCH  13  14
ATOM     14  C   UNL A   1      41.582  27.569  28.985  1.00  0.00     0.031 A 
ATOM     15  C   UNL A   1      42.402  27.551  30.246  1.00  0.00     0.074 A 
ATOM     16  C   UNL A   1      40.494  28.351  28.873  1.00  0.00     0.049 A 
ATOM     17  N   UNL A   1      42.187  28.149  31.389  1.00  0.00    -0.248 NA
ATOM     18  C   UNL A   1      43.645  26.761  30.210  1.00  0.00     0.031 C 
ATOM     19  C   UNL A   1      39.686  28.513  27.662  1.00  0.00     0.029 A 
ATOM     20  N   UNL A   1      39.909  29.197  29.776  1.00  0.00    -0.354 N 
ATOM     21  C   UNL A   1      43.246  27.783  32.211  1.00  0.00     0.074 A 
ATOM     22  C   UNL A   1      44.102  26.908  31.443  1.00  0.00     0.031 C 
ATOM     23  C   UNL A   1      38.736  29.438  27.886  1.00  0.00     0.029 A 
ATOM     24  C   UNL A   1      38.848  29.900  29.263  1.00  0.00     0.049 A 
ATOM     25  H   UNL A   1      40.221  29.292  30.705  1.00  0.00     0.167 HD
ATOM     26  C   UNL A   1      43.479  28.144  33.494  1.00  0.00     0.037 A 
ATOM     27  C   UNL A   1      38.059  30.813  29.856  1.00  0.00     0.037 A 
ATOM     28  C   UNL A   1      42.626  29.030  34.237  1.00  0.00     0.049 A 
ATOM     29  C   UNL A   1      38.312  31.156  31.296  1.00  0.00     0.074 A 
ATOM     30  C   UNL A   1      42.730  29.435  35.554  1.00  0.00     0.029 A 
ATOM     31  N   UNL A   1      41.503  29.654  33.711  1.00  0.00    -0.354 N 
ATOM     32  N   UNL A   1      39.266  30.740  32.093  1.00  0.00    -0.248 NA
ATOM     33  C   UNL A   1      37.362  32.086  31.921  1.00  0.00     0.031 C 
ATOM     34  C   UNL A   1      41.645  30.273  35.837  1.00  0.00     0.029 A 
ATOM     35  C   UNL A   1      40.894  30.428  34.682  1.00  0.00     0.049 A 
ATOM     36  H   UNL A   1      41.186  29.558  32.784  1.00  0.00     0.167 HD
ATOM     37  C   UNL A   1      39.031  31.351  33.315  1.00  0.00     0.074 A 
ATOM     38  C   UNL A   1      37.859  32.187  33.146  1.00  0.00     0.031 C 
ATOM     39  C   UNL A   1      39.716  31.231  34.479  1.00  0.00     0.037 A 
BRANCH  26  40
ATOM     40  C   UNL A   1      44.661  27.522  34.177  1.00  0.00     0.064 A 
ATOM     41  C   UNL A   1      44.576  26.288  34.840  1.00  0.00     0.173 A 
ATOM     42  C   UNL A   1      45.893  28.193  34.197  1.00  0.00     0.173 A 
ATOM     43  F   UNL A   1      43.414  25.620  34.878  1.00  0.00    -0.203 F 
ATOM     44  C   UNL A   1      45.673  25.767  35.525  1.00  0.00     0.198 A 
ATOM     45  C   UNL A   1      46.993  27.656  34.859  1.00  0.00     0.198 A 
ATOM     46  F   UNL A   1      46.026  29.379  33.583  1.00  0.00    -0.203 F 
ATOM     47  F   UNL A   1      45.551  24.618  36.205  1.00  0.00    -0.200 F 
ATOM     48  C   UNL A   1      46.880  26.449  35.531  1.00  0.00     0.200 A 
ATOM     49  F   UNL A   1      48.159  28.316  34.860  1.00  0.00    -0.200 F 
ATOM     50  F   UNL A   1      47.931  25.951  36.199  1.00  0.00    -0.200 F 
ENDBRANCH  26  40
BRANCH  27  51
ATOM     51  C   UNL A   1      36.927  31.438  29.132  1.00  0.00     0.064 A 
ATOM     52  C   UNL A   1      36.914  32.810  28.850  1.00  0.00     0.173 A 
ATOM     53  C   UNL A   1      35.784  30.691  28.815  1.00  0.00     0.173 A 
ATOM     54  F   UNL A   1      37.971  33.568  29.174  1.00  0.00    -0.203 F 
ATOM     55  C   UNL A   1      35.789  33.417  28.296  1.00  0.00     0.198 A 
ATOM     56  C   UNL A   1      34.651  31.305  28.285  1.00  0.00     0.198 A 
ATOM     57  F   UNL A   1      35.756  29.372  29.056  1.00  0.00    -0.203 F 
ATOM     58  F   UNL A   1      35.784  34.741  28.080  1.00  0.00    -0.200 F 
ATOM     59  C   UNL A   1      34.655  32.666  28.020  1.00  0.00     0.200 A 
ATOM     60  F   UNL A   1      33.544  30.580  28.072  1.00  0.00    -0.200 F 
ATOM     61  F   UNL A   1      33.558  33.261  27.532  1.00  0.00    -0.200 F 
ENDBRANCH  27  51
BRANCH  39  62
ATOM     62  C   UNL A   1      39.210  32.028  35.640  1.00  0.00     0.064 A 
ATOM     63  C   UNL A   1      38.341  31.467  36.588  1.00  0.00     0.173 A 
ATOM     64  C   UNL A   1      39.613  33.359  35.815  1.00  0.00     0.173 A 
ATOM     65  F   UNL A   1      37.914  30.203  36.448  1.00  0.00    -0.203 F 
ATOM     66  C   UNL A   1      37.873  32.223  37.658  1.00  0.00     0.198 A 
ATOM     67  C   UNL A   1      39.165  34.103  36.901  1.00  0.00     0.198 A 
ATOM     68  F   UNL A   1      40.445  33.934  34.934  1.00  0.00    -0.203 F 
ATOM     69  F   UNL A   1      37.004  31.685  38.525  1.00  0.00    -0.200 F 
ATOM     70  C   UNL A   1      38.290  33.537  37.817  1.00  0.00     0.200 A 
ATOM     71  F   UNL A   1      39.574  35.369  37.057  1.00  0.00    -0.200 F 
ATOM     72  F   UNL A   1      37.838  34.263  38.848  1.00  0.00    -0.200 F 
ENDBRANCH  39  62
ENDBRANCH  13  14
ENDBRANCH   6   8
ENDBRANCH   5   6
ENDBRANCH   4   5
ENDBRANCH   3   4
ENDBRANCH   2   3
ENDBRANCH   1   2
BRANCH   1  73
ATOM     73  C   UNL A   1      42.352  19.558  25.738  1.00  0.00     0.188 C 
BRANCH  73  74
ATOM     74  O   UNL A   1      41.312  20.529  25.824  1.00  0.00    -0.376 OA
BRANCH  74  75
ATOM     75  C   UNL A   1      40.875  20.918  27.122  1.00  0.00     0.202 C 
BRANCH  75  76
ATOM     76  C   UNL A   1      40.036  22.198  27.231  1.00  0.00     0.261 C 
BRANCH  76  77
ATOM     77  O   UNL A   1      39.102  22.404  26.159  1.00  0.00    -0.460 OA
BRANCH  77  78
ATOM     78  C   UNL A   1      38.368  23.536  26.279  1.00  0.00     0.338 C 
ATOM     79  O   UNL A   1      38.630  24.531  26.935  1.00  0.00    -0.246 OA
BRANCH  78  80
ATOM     80  C   UNL A   1      37.124  23.443  25.506  1.00  0.00     0.060 A 
ATOM     81  C   UNL A   1      37.076  22.504  24.470  1.00  0.00     0.018 A 
ATOM     82  C   UNL A   1      35.963  24.073  25.970  1.00  0.00     0.021 A 
ATOM     83  C   UNL A   1      35.842  22.096  23.967  1.00  0.00     0.027 A 
ATOM     84  C   UNL A   1      34.747  23.654  25.450  1.00  0.00    -0.022 A 
ATOM     85  C   UNL A   1      34.682  22.607  24.531  1.00  0.00     0.047 A 
ATOM     86  C   UNL A   1      33.379  24.166  25.781  1.00  0.00     0.059 C 
ATOM     87  N   UNL A   1      33.345  22.203  24.368  1.00  0.00    -0.306 N 
ATOM     88  C   UNL A   1      32.479  23.106  25.135  1.00  0.00     0.131 C 
BRANCH  87  89
ATOM     89  C   UNL A   1      32.806  21.076  23.759  1.00  0.00     0.276 C 
ATOM     90  O   UNL A   1      32.184  21.156  22.701  1.00  0.00    -0.267 OA
BRANCH  89  91
ATOM     91  C   UNL A   1      32.967  19.814  24.425  1.00  0.00     0.123 A 
ATOM     92  C   UNL A   1      33.630  18.659  24.048  1.00  0.00     0.055 A 
ATOM     93  N   UNL A   1      32.460  19.548  25.664  1.00  0.00    -0.273 N 
ATOM     94  C   UNL A   1      33.307  17.719  25.043  1.00  0.00     0.135 A 
ATOM     95  N   UNL A   1      32.527  18.241  25.992  1.00  0.00    -0.183 NA
ATOM     96  H   UNL A   1      32.084  20.239  26.256  1.00  0.00     0.190 HD
ENDBRANCH  89  91
ENDBRANCH  87  89
ENDBRANCH  78  80
ENDBRANCH  77  78
ENDBRANCH  76  77
ENDBRANCH  75  76
ENDBRANCH  74  75
ENDBRANCH  73  74
ENDBRANCH   1  73
TORSDOF 19
ENDMDL
MODEL 2
REMARK VINA RESULT:     -11.6      3.409      8.939
REMARK SMILES O=C(OCCOCCOCCOC(=O)c1ccc2c(c1)CCN2C(=O)c1ccn[nH]1)c1ccc(-c2c3nc(c(-c4c(F)c(F)c(F)c(F)c4F)c4ccc([nH]4)c(-c4c(F)c(F)c(F)c(F)c4F)c4nc(c(-c5c(F)c(F)c(F)c(F)c5F)c5ccc2[nH]5)C=C4)C=C3)cc1
REMARK SMILES IDX 7 1 6 2 5 3 4 4 3 5 2 6 1 7 31 8 32 9 93 10 33 11 92 12
REMARK SMILES IDX 34 13 35 14 36 15 86 16 37 17 91 18 85 19 87 20 38 21 90 22
REMARK SMILES IDX 84 23 83 24 39 26 71 27 51 28 70 29 52 30 55 31 69 32 88 33
REMARK SMILES IDX 53 34 54 35 68 37 89 38 56 39 40 40 41 41 49 42 42 43 43 44
REMARK SMILES IDX 47 45 50 46 44 47 45 48 48 49 46 50 72 51 73 52 81 53 74 54
REMARK SMILES IDX 75 55 79 56 82 57 76 58 77 59 80 60 78 61 57 62 58 63 66 64
REMARK SMILES IDX 59 65 60 66 64 67 67 68 61 69 62 70 65 71 63 72 8 73 9 74
REMARK SMILES IDX 10 75 11 76 12 77 13 78 14 79 15 80 16 81 20 82 17 83 19 84
REMARK SMILES IDX 18 85 21 86 23 87 22 88 24 89 25 90 26 91 27 92 30 93 28 94
REMARK SMILES IDX 29 95
REMARK H PARENT 87 25 55 36 30 96
REMARK Flexibility Score: inf
ROOT
ATOM      1  C   UNL A   1      31.964  29.564  26.145  1.00  0.00     0.188 C 
ENDROOT
BRANCH   1   2
ATOM      2  O   UNL A   1      32.295  30.765  26.854  1.00  0.00    -0.376 OA
BRANCH   2   3
ATOM      3  C   UNL A   1      31.331  31.809  26.677  1.00  0.00     0.202 C 
BRANCH   3   4
ATOM      4  C   UNL A   1      31.916  33.227  26.718  1.00  0.00     0.261 C 
BRANCH   4   5
ATOM      5  O   UNL A   1      32.421  33.577  28.018  1.00  0.00    -0.460 OA
BRANCH   5   6
ATOM      6  C   UNL A   1      33.645  34.062  28.348  1.00  0.00     0.338 C 
ATOM      7  O   UNL A   1      33.781  35.279  28.461  1.00  0.00    -0.246 OA
BRANCH   6   8
ATOM      8  C   UNL A   1      34.840  33.204  28.630  1.00  0.00     0.060 A 
ATOM      9  C   UNL A   1      34.801  31.880  29.067  1.00  0.00     0.016 A 
ATOM     10  C   UNL A   1      36.105  33.779  28.406  1.00  0.00     0.016 A 
ATOM     11  C   UNL A   1      35.960  31.204  29.428  1.00  0.00     0.010 A 
ATOM     12  C   UNL A   1      37.282  33.084  28.708  1.00  0.00     0.010 A 
ATOM     13  C   UNL A   1      37.205  31.814  29.285  1.00  0.00    -0.014 A 
BRANCH  13  14
ATOM     14  C   UNL A   1      38.366  31.166  29.931  1.00  0.00     0.031 A 
ATOM     15  C   UNL A   1      38.596  31.422  31.396  1.00  0.00     0.074 A 
ATOM     16  C   UNL A   1      39.081  30.242  29.265  1.00  0.00     0.049 A 
ATOM     17  N   UNL A   1      39.501  30.924  32.197  1.00  0.00    -0.248 NA
ATOM     18  C   UNL A   1      37.668  32.359  32.052  1.00  0.00     0.031 C 
ATOM     19  C   UNL A   1      38.871  29.851  27.869  1.00  0.00     0.029 A 
ATOM     20  N   UNL A   1      40.095  29.426  29.689  1.00  0.00    -0.354 N 
ATOM     21  C   UNL A   1      39.270  31.508  33.436  1.00  0.00     0.074 A 
ATOM     22  C   UNL A   1      38.145  32.402  33.286  1.00  0.00     0.031 C 
ATOM     23  C   UNL A   1      39.704  28.839  27.566  1.00  0.00     0.029 A 
ATOM     24  C   UNL A   1      40.525  28.542  28.731  1.00  0.00     0.049 A 
ATOM     25  H   UNL A   1      40.480  29.471  30.594  1.00  0.00     0.167 HD
ATOM     26  C   UNL A   1      39.941  31.316  34.596  1.00  0.00     0.037 A 
ATOM     27  C   UNL A   1      41.482  27.601  28.803  1.00  0.00     0.037 A 
ATOM     28  C   UNL A   1      41.048  30.410  34.731  1.00  0.00     0.049 A 
ATOM     29  C   UNL A   1      42.244  27.446  30.088  1.00  0.00     0.074 A 
ATOM     30  C   UNL A   1      41.837  30.162  35.839  1.00  0.00     0.029 A 
ATOM     31  N   UNL A   1      41.517  29.594  33.711  1.00  0.00    -0.354 N 
ATOM     32  N   UNL A   1      42.076  28.063  31.233  1.00  0.00    -0.248 NA
ATOM     33  C   UNL A   1      43.343  26.472  30.081  1.00  0.00     0.031 C 
ATOM     34  C   UNL A   1      42.811  29.224  35.476  1.00  0.00     0.029 A 
ATOM     35  C   UNL A   1      42.596  28.853  34.157  1.00  0.00     0.049 A 
ATOM     36  H   UNL A   1      41.137  29.550  32.804  1.00  0.00     0.167 HD
ATOM     37  C   UNL A   1      43.048  27.558  32.082  1.00  0.00     0.074 A 
ATOM     38  C   UNL A   1      43.786  26.564  31.327  1.00  0.00     0.031 C 
ATOM     39  C   UNL A   1      43.316  27.887  33.369  1.00  0.00     0.037 A 
BRANCH  26  40
ATOM     40  C   UNL A   1      39.533  32.155  35.771  1.00  0.00     0.064 A 
ATOM     41  C   UNL A   1      38.535  31.747  36.670  1.00  0.00     0.173 A 
ATOM     42  C   UNL A   1      40.130  33.408  35.979  1.00  0.00     0.173 A 
ATOM     43  F   UNL A   1      37.912  30.572  36.499  1.00  0.00    -0.203 F 
ATOM     44  C   UNL A   1      38.130  32.577  37.713  1.00  0.00     0.198 A 
ATOM     45  C   UNL A   1      39.741  34.222  37.039  1.00  0.00     0.198 A 
ATOM     46  F   UNL A   1      41.085  33.847  35.145  1.00  0.00    -0.203 F 
ATOM     47  F   UNL A   1      37.131  32.194  38.522  1.00  0.00    -0.200 F 
ATOM     48  C   UNL A   1      38.734  33.811  37.898  1.00  0.00     0.200 A 
ATOM     49  F   UNL A   1      40.329  35.412  37.217  1.00  0.00    -0.200 F 
ATOM     50  F   UNL A   1      38.335  34.613  38.896  1.00  0.00    -0.200 F 
ENDBRANCH  26  40
BRANCH  27  51
ATOM     51  C   UNL A   1      41.827  26.763  27.631  1.00  0.00     0.064 A 
ATOM     52  C   UNL A   1      41.249  25.500  27.447  1.00  0.00     0.173 A 
ATOM     53  C   UNL A   1      42.830  27.163  26.738  1.00  0.00     0.173 A 
ATOM     54  F   UNL A   1      40.314  25.062  28.302  1.00  0.00    -0.203 F 
ATOM     55  C   UNL A   1      41.678  24.657  26.423  1.00  0.00     0.198 A 
ATOM     56  C   UNL A   1      43.275  26.309  25.730  1.00  0.00     0.198 A 
ATOM     57  F   UNL A   1      43.403  28.368  26.868  1.00  0.00    -0.203 F 
ATOM     58  F   UNL A   1      41.142  23.435  26.296  1.00  0.00    -0.200 F 
ATOM     59  C   UNL A   1      42.695  25.060  25.568  1.00  0.00     0.200 A 
ATOM     60  F   UNL A   1      44.295  26.685  24.945  1.00  0.00    -0.200 F 
ATOM     61  F   UNL A   1      43.139  24.229  24.615  1.00  0.00    -0.200 F 
ENDBRANCH  27  51
BRANCH  39  62
ATOM     62  C   UNL A   1      44.446  27.157  34.026  1.00  0.00     0.064 A 
ATOM     63  C   UNL A   1      45.749  27.675  34.026  1.00  0.00     0.173 A 
ATOM     64  C   UNL A   1      44.216  25.937  34.678  1.00  0.00     0.173 A 
ATOM     65  F   UNL A   1      46.018  28.829  33.397  1.00  0.00    -0.203 F 
ATOM     66  C   UNL A   1      46.790  26.980  34.635  1.00  0.00     0.198 A 
ATOM     67  C   UNL A   1      45.254  25.260  35.308  1.00  0.00     0.198 A 
ATOM     68  F   UNL A   1      42.984  25.407  34.704  1.00  0.00    -0.203 F 
ATOM     69  F   UNL A   1      48.038  27.467  34.581  1.00  0.00    -0.200 F 
ATOM     70  C   UNL A   1      46.540  25.778  35.280  1.00  0.00     0.200 A 
ATOM     71  F   UNL A   1      45.010  24.103  35.938  1.00  0.00    -0.200 F 
ATOM     72  F   UNL A   1      47.544  25.111  35.866  1.00  0.00    -0.200 F 
ENDBRANCH  39  62
ENDBRANCH  13  14
ENDBRANCH   6   8
ENDBRANCH   5   6
ENDBRANCH   4   5
ENDBRANCH   3   4
ENDBRANCH   2   3
ENDBRANCH   1   2
BRANCH   1  73
ATOM     73  C   UNL A   1      31.077  29.839  24.931  1.00  0.00     0.188 C 
BRANCH  73  74
ATOM     74  O   UNL A   1      30.953  28.778  23.988  1.00  0.00    -0.376 OA
BRANCH  74  75
ATOM     75  C   UNL A   1      31.458  28.997  22.675  1.00  0.00     0.202 C 
BRANCH  75  76
ATOM     76  C   UNL A   1      32.856  28.454  22.354  1.00  0.00     0.261 C 
BRANCH  76  77
ATOM     77  O   UNL A   1      33.161  27.179  22.943  1.00  0.00    -0.460 OA
BRANCH  77  78
ATOM     78  C   UNL A   1      33.179  26.154  22.058  1.00  0.00     0.338 C 
ATOM     79  O   UNL A   1      33.475  26.192  20.875  1.00  0.00    -0.246 OA
BRANCH  78  80
ATOM     80  C   UNL A   1      32.757  24.901  22.694  1.00  0.00     0.060 A 
ATOM     81  C   UNL A   1      33.587  23.786  22.539  1.00  0.00     0.018 A 
ATOM     82  C   UNL A   1      31.718  24.908  23.633  1.00  0.00     0.021 A 
ATOM     83  C   UNL A   1      33.459  22.706  23.410  1.00  0.00     0.027 A 
ATOM     84  C   UNL A   1      31.608  23.819  24.486  1.00  0.00    -0.022 A 
ATOM     85  C   UNL A   1      32.531  22.775  24.439  1.00  0.00     0.047 A 
ATOM     86  C   UNL A   1      30.592  23.593  25.563  1.00  0.00     0.059 C 
ATOM     87  N   UNL A   1      32.362  21.944  25.560  1.00  0.00    -0.306 N 
ATOM     88  C   UNL A   1      31.194  22.404  26.321  1.00  0.00     0.131 C 
BRANCH  87  89
ATOM     89  C   UNL A   1      33.171  20.937  26.073  1.00  0.00     0.276 C 
ATOM     90  O   UNL A   1      34.069  21.183  26.875  1.00  0.00    -0.267 OA
BRANCH  89  91
ATOM     91  C   UNL A   1      32.947  19.597  25.606  1.00  0.00     0.123 A 
ATOM     92  C   UNL A   1      32.810  19.084  24.327  1.00  0.00     0.055 A 
ATOM     93  N   UNL A   1      32.850  18.518  26.437  1.00  0.00    -0.273 N 
ATOM     94  C   UNL A   1      32.461  17.736  24.518  1.00  0.00     0.135 A 
ATOM     95  N   UNL A   1      32.409  17.408  25.811  1.00  0.00    -0.183 NA
ATOM     96  H   UNL A   1      33.078  18.548  27.394  1.00  0.00     0.190 HD
ENDBRANCH  89  91
ENDBRANCH  87  89
ENDBRANCH  78  80
ENDBRANCH  77  78
ENDBRANCH  76  77
ENDBRANCH  75  76
ENDBRANCH  74  75
ENDBRANCH  73  74
ENDBRANCH   1  73
TORSDOF 19
ENDMDL
MODEL 3
REMARK VINA RESULT:     -11.3      3.409      9.096
REMARK SMILES O=C(OCCOCCOCCOC(=O)c1ccc2c(c1)CCN2C(=O)c1ccn[nH]1)c1ccc(-c2c3nc(c(-c4c(F)c(F)c(F)c(F)c4F)c4ccc([nH]4)c(-c4c(F)c(F)c(F)c(F)c4F)c4nc(c(-c5c(F)c(F)c(F)c(F)c5F)c5ccc2[nH]5)C=C4)C=C3)cc1
REMARK SMILES IDX 7 1 6 2 5 3 4 4 3 5 2 6 1 7 31 8 32 9 93 10 33 11 92 12
REMARK SMILES IDX 34 13 35 14 36 15 86 16 37 17 91 18 85 19 87 20 38 21 90 22
REMARK SMILES IDX 84 23 83 24 39 26 71 27 51 28 70 29 52 30 55 31 69 32 88 33
REMARK SMILES IDX 53 34 54 35 68 37 89 38 56 39 40 40 41 41 49 42 42 43 43 44
REMARK SMILES IDX 47 45 50 46 44 47 45 48 48 49 46 50 72 51 73 52 81 53 74 54
REMARK SMILES IDX 75 55 79 56 82 57 76 58 77 59 80 60 78 61 57 62 58 63 66 64
REMARK SMILES IDX 59 65 60 66 64 67 67 68 61 69 62 70 65 71 63 72 8 73 9 74
REMARK SMILES IDX 10 75 11 76 12 77 13 78 14 79 15 80 16 81 20 82 17 83 19 84
REMARK SMILES IDX 18 85 21 86 23 87 22 88 24 89 25 90 26 91 27 92 30 93 28 94
REMARK SMILES IDX 29 95
REMARK H PARENT 87 25 55 36 30 96
REMARK Flexibility Score: inf
ROOT
ATOM      1  C   UNL A   1      32.350  29.039  25.323  1.00  0.00     0.188 C 
ENDROOT
BRANCH   1   2
ATOM      2  O   UNL A   1      31.563  30.220  25.524  1.00  0.00    -0.376 OA
BRANCH   2   3
ATOM      3  C   UNL A   1      31.766  30.823  26.807  1.00  0.00     0.202 C 
BRANCH   3   4
ATOM      4  C   UNL A   1      31.364  32.302  26.884  1.00  0.00     0.261 C 
BRANCH   4   5
ATOM      5  O   UNL A   1      32.501  33.179  26.943  1.00  0.00    -0.460 OA
BRANCH   5   6
ATOM      6  C   UNL A   1      33.302  33.456  28.003  1.00  0.00     0.338 C 
ATOM      7  O   UNL A   1      32.946  34.328  28.793  1.00  0.00    -0.246 OA
BRANCH   6   8
ATOM      8  C   UNL A   1      34.578  32.731  28.304  1.00  0.00     0.060 A 
ATOM      9  C   UNL A   1      34.692  31.366  28.564  1.00  0.00     0.016 A 
ATOM     10  C   UNL A   1      35.761  33.493  28.293  1.00  0.00     0.016 A 
ATOM     11  C   UNL A   1      35.899  30.804  28.962  1.00  0.00     0.010 A 
ATOM     12  C   UNL A   1      36.995  32.924  28.632  1.00  0.00     0.010 A 
ATOM     13  C   UNL A   1      37.050  31.587  29.033  1.00  0.00    -0.014 A 
BRANCH  13  14
ATOM     14  C   UNL A   1      38.230  31.013  29.715  1.00  0.00     0.031 A 
ATOM     15  C   UNL A   1      38.404  31.292  31.183  1.00  0.00     0.074 A 
ATOM     16  C   UNL A   1      39.016  30.129  29.076  1.00  0.00     0.049 A 
ATOM     17  N   UNL A   1      39.315  30.854  32.013  1.00  0.00    -0.248 NA
ATOM     18  C   UNL A   1      37.405  32.176  31.807  1.00  0.00     0.031 C 
ATOM     19  C   UNL A   1      38.868  29.716  27.678  1.00  0.00     0.029 A 
ATOM     20  N   UNL A   1      40.065  29.377  29.534  1.00  0.00    -0.354 N 
ATOM     21  C   UNL A   1      39.016  31.431  33.241  1.00  0.00     0.074 A 
ATOM     22  C   UNL A   1      37.844  32.256  33.052  1.00  0.00     0.031 C 
ATOM     23  C   UNL A   1      39.767  28.754  27.406  1.00  0.00     0.029 A 
ATOM     24  C   UNL A   1      40.572  28.514  28.595  1.00  0.00     0.049 A 
ATOM     25  H   UNL A   1      40.421  29.450  30.448  1.00  0.00     0.167 HD
ATOM     26  C   UNL A   1      39.666  31.288  34.419  1.00  0.00     0.037 A 
ATOM     27  C   UNL A   1      41.581  27.632  28.700  1.00  0.00     0.037 A 
ATOM     28  C   UNL A   1      40.820  30.450  34.592  1.00  0.00     0.049 A 
ATOM     29  C   UNL A   1      42.316  27.531  30.006  1.00  0.00     0.074 A 
ATOM     30  C   UNL A   1      41.592  30.256  35.722  1.00  0.00     0.029 A 
ATOM     31  N   UNL A   1      41.365  29.656  33.591  1.00  0.00    -0.354 N 
ATOM     32  N   UNL A   1      42.080  28.145  31.141  1.00  0.00    -0.248 NA
ATOM     33  C   UNL A   1      43.470  26.624  30.036  1.00  0.00     0.031 C 
ATOM     34  C   UNL A   1      42.630  29.376  35.393  1.00  0.00     0.029 A 
ATOM     35  C   UNL A   1      42.473  28.984  34.072  1.00  0.00     0.049 A 
ATOM     36  H   UNL A   1      41.013  29.584  32.674  1.00  0.00     0.167 HD
ATOM     37  C   UNL A   1      43.057  27.704  32.020  1.00  0.00     0.074 A 
ATOM     38  C   UNL A   1      43.873  26.751  31.294  1.00  0.00     0.031 C 
ATOM     39  C   UNL A   1      43.270  28.057  33.311  1.00  0.00     0.037 A 
BRANCH  26  40
ATOM     40  C   UNL A   1      39.177  32.108  35.576  1.00  0.00     0.064 A 
ATOM     41  C   UNL A   1      39.567  33.443  35.763  1.00  0.00     0.173 A 
ATOM     42  C   UNL A   1      38.328  31.533  36.534  1.00  0.00     0.173 A 
ATOM     43  F   UNL A   1      40.401  34.032  34.892  1.00  0.00    -0.203 F 
ATOM     44  C   UNL A   1      39.152  34.160  36.884  1.00  0.00     0.198 A 
ATOM     45  C   UNL A   1      37.894  32.261  37.638  1.00  0.00     0.198 A 
ATOM     46  F   UNL A   1      37.931  30.258  36.405  1.00  0.00    -0.203 F 
ATOM     47  F   UNL A   1      39.588  35.413  37.075  1.00  0.00    -0.200 F 
ATOM     48  C   UNL A   1      38.314  33.570  37.818  1.00  0.00     0.200 A 
ATOM     49  F   UNL A   1      37.082  31.689  38.537  1.00  0.00    -0.200 F 
ATOM     50  F   UNL A   1      37.924  34.257  38.901  1.00  0.00    -0.200 F 
ENDBRANCH  26  40
BRANCH  27  51
ATOM     51  C   UNL A   1      42.006  26.808  27.544  1.00  0.00     0.064 A 
ATOM     52  C   UNL A   1      41.538  25.499  27.376  1.00  0.00     0.173 A 
ATOM     53  C   UNL A   1      42.982  27.277  26.654  1.00  0.00     0.173 A 
ATOM     54  F   UNL A   1      40.634  24.997  28.230  1.00  0.00    -0.203 F 
ATOM     55  C   UNL A   1      42.046  24.679  26.369  1.00  0.00     0.198 A 
ATOM     56  C   UNL A   1      43.507  26.448  25.665  1.00  0.00     0.198 A 
ATOM     57  F   UNL A   1      43.451  28.528  26.771  1.00  0.00    -0.203 F 
ATOM     58  F   UNL A   1      41.616  23.415  26.257  1.00  0.00    -0.200 F 
ATOM     59  C   UNL A   1      43.035  25.153  25.518  1.00  0.00     0.200 A 
ATOM     60  F   UNL A   1      44.500  26.896  24.883  1.00  0.00    -0.200 F 
ATOM     61  F   UNL A   1      43.556  24.347  24.582  1.00  0.00    -0.200 F 
ENDBRANCH  27  51
BRANCH  39  62
ATOM     62  C   UNL A   1      44.423  27.400  34.004  1.00  0.00     0.064 A 
ATOM     63  C   UNL A   1      45.694  27.992  34.031  1.00  0.00     0.173 A 
ATOM     64  C   UNL A   1      44.247  26.175  34.663  1.00  0.00     0.173 A 
ATOM     65  F   UNL A   1      45.912  29.154  33.396  1.00  0.00    -0.203 F 
ATOM     66  C   UNL A   1      46.757  27.365  34.673  1.00  0.00     0.198 A 
ATOM     67  C   UNL A   1      45.306  25.565  35.327  1.00  0.00     0.198 A 
ATOM     68  F   UNL A   1      43.048  25.575  34.665  1.00  0.00    -0.203 F 
ATOM     69  F   UNL A   1      47.976  27.922  34.644  1.00  0.00    -0.200 F 
ATOM     70  C   UNL A   1      46.561  26.156  35.325  1.00  0.00     0.200 A 
ATOM     71  F   UNL A   1      45.113  24.402  35.963  1.00  0.00    -0.200 F 
ATOM     72  F   UNL A   1      47.586  25.554  35.943  1.00  0.00    -0.200 F 
ENDBRANCH  39  62
ENDBRANCH  13  14
ENDBRANCH   6   8
ENDBRANCH   5   6
ENDBRANCH   4   5
ENDBRANCH   3   4
ENDBRANCH   2   3
ENDBRANCH   1   2
BRANCH   1  73
ATOM     73  C   UNL A   1      33.272  29.162  24.110  1.00  0.00     0.188 C 
BRANCH  73  74
ATOM     74  O   UNL A   1      32.727  28.744  22.861  1.00  0.00    -0.376 OA
BRANCH  74  75
ATOM     75  C   UNL A   1      31.354  29.023  22.610  1.00  0.00     0.202 C 
BRANCH  75  76
ATOM     76  C   UNL A   1      30.423  27.829  22.366  1.00  0.00     0.261 C 
BRANCH  76  77
ATOM     77  O   UNL A   1      30.852  26.592  22.960  1.00  0.00    -0.460 OA
BRANCH  77  78
ATOM     78  C   UNL A   1      31.569  25.802  22.126  1.00  0.00     0.338 C 
ATOM     79  O   UNL A   1      31.854  26.010  20.958  1.00  0.00    -0.246 OA
BRANCH  78  80
ATOM     80  C   UNL A   1      31.988  24.567  22.800  1.00  0.00     0.060 A 
ATOM     81  C   UNL A   1      33.012  23.822  22.207  1.00  0.00     0.018 A 
ATOM     82  C   UNL A   1      31.565  24.307  24.109  1.00  0.00     0.021 A 
ATOM     83  C   UNL A   1      33.709  22.884  22.966  1.00  0.00     0.027 A 
ATOM     84  C   UNL A   1      32.271  23.364  24.843  1.00  0.00    -0.022 A 
ATOM     85  C   UNL A   1      33.393  22.733  24.308  1.00  0.00     0.047 A 
ATOM     86  C   UNL A   1      32.018  22.914  26.249  1.00  0.00     0.059 C 
ATOM     87  N   UNL A   1      34.074  22.038  25.324  1.00  0.00    -0.306 N 
ATOM     88  C   UNL A   1      33.295  22.128  26.565  1.00  0.00     0.131 C 
BRANCH  87  89
ATOM     89  C   UNL A   1      35.340  21.466  25.339  1.00  0.00     0.276 C 
ATOM     90  O   UNL A   1      35.513  20.287  25.036  1.00  0.00    -0.267 OA
BRANCH  89  91
ATOM     91  C   UNL A   1      36.441  22.289  25.757  1.00  0.00     0.123 A 
ATOM     92  C   UNL A   1      36.507  23.633  26.080  1.00  0.00     0.055 A 
ATOM     93  N   UNL A   1      37.707  21.813  25.938  1.00  0.00    -0.273 N 
ATOM     94  C   UNL A   1      37.878  23.889  26.264  1.00  0.00     0.135 A 
ATOM     95  N   UNL A   1      38.620  22.792  26.101  1.00  0.00    -0.183 NA
ATOM     96  H   UNL A   1      37.931  20.854  25.950  1.00  0.00     0.190 HD
ENDBRANCH  89  91
ENDBRANCH  87  89
ENDBRANCH  78  80
ENDBRANCH  77  78
ENDBRANCH  76  77
ENDBRANCH  75  76
ENDBRANCH  74  75
ENDBRANCH  73  74
ENDBRANCH   1  73
TORSDOF 19
ENDMDL
