MODEL 1
REMARK VINA RESULT:     -11.5      0.000      0.000
REMARK SMILES O=C(OCCOCCOCCOC(=O)[C@H]1C[NH2+]CCN1c1ncc(C(F)(F)F)cc1Cl)c1ccc(-c2c3nc(c(-c4c(F)c(F)c(F)c(F)c4F)c4ccc([nH]4)c(-c4c(F)c(F)c(F)c(F)c4F)c4nc(c(-c5c(F)c(F)c(F)c(F)c5F)c5ccc2[nH]5)C=C4)C=C3)cc1
REMARK SMILES IDX 7 1 6 2 5 3 4 4 3 5 2 6 1 7 32 8 33 9 94 10 34 11 93 12
REMARK SMILES IDX 35 13 36 14 37 15 87 16 38 17 92 18 86 19 88 20 39 21 91 22
REMARK SMILES IDX 85 23 84 24 40 26 72 27 52 28 71 29 53 30 56 31 70 32 89 33
REMARK SMILES IDX 54 34 55 35 69 37 90 38 57 39 41 40 42 41 50 42 43 43 44 44
REMARK SMILES IDX 48 45 51 46 45 47 46 48 49 49 47 50 73 51 74 52 82 53 75 54
REMARK SMILES IDX 76 55 80 56 83 57 77 58 78 59 81 60 79 61 58 62 59 63 67 64
REMARK SMILES IDX 60 65 61 66 65 67 68 68 62 69 63 70 66 71 64 72 8 73 9 74
REMARK SMILES IDX 10 75 11 76 12 77 13 78 14 79 15 80 16 81 20 82 17 83 19 84
REMARK SMILES IDX 18 85 21 88 22 89 30 90 23 91 29 92 31 93 24 94 25 95 26 96
REMARK SMILES IDX 27 97 28 98
REMARK H PARENT 88 25 56 36 17 86 17 87
REMARK Flexibility Score: inf
ROOT
ATOM      1  C   UNL A   1      32.390  30.021  25.729  1.00  0.00     0.188 C 
ENDROOT
BRANCH   1   2
ATOM      2  O   UNL A   1      31.446  31.077  25.942  1.00  0.00    -0.376 OA
BRANCH   2   3
ATOM      3  C   UNL A   1      31.717  31.858  27.111  1.00  0.00     0.202 C 
BRANCH   3   4
ATOM      4  C   UNL A   1      32.026  33.344  26.867  1.00  0.00     0.261 C 
BRANCH   4   5
ATOM      5  O   UNL A   1      32.618  34.003  27.997  1.00  0.00    -0.460 OA
BRANCH   5   6
ATOM      6  C   UNL A   1      33.917  34.305  28.228  1.00  0.00     0.338 C 
ATOM      7  O   UNL A   1      34.279  35.466  28.030  1.00  0.00    -0.246 OA
BRANCH   6   8
ATOM      8  C   UNL A   1      34.964  33.320  28.668  1.00  0.00     0.060 A 
ATOM      9  C   UNL A   1      34.739  32.019  29.126  1.00  0.00     0.016 A 
ATOM     10  C   UNL A   1      36.303  33.753  28.585  1.00  0.00     0.016 A 
ATOM     11  C   UNL A   1      35.779  31.195  29.542  1.00  0.00     0.010 A 
ATOM     12  C   UNL A   1      37.359  32.935  28.995  1.00  0.00     0.010 A 
ATOM     13  C   UNL A   1      37.087  31.666  29.513  1.00  0.00    -0.014 A 
BRANCH  13  14
ATOM     14  C   UNL A   1      38.119  30.916  30.247  1.00  0.00     0.031 A 
ATOM     15  C   UNL A   1      38.319  31.251  31.690  1.00  0.00     0.074 A 
ATOM     16  C   UNL A   1      38.796  29.918  29.660  1.00  0.00     0.049 A 
ATOM     17  N   UNL A   1      39.225  30.827  32.526  1.00  0.00    -0.248 NA
ATOM     18  C   UNL A   1      37.342  32.185  32.276  1.00  0.00     0.031 C 
ATOM     19  C   UNL A   1      38.561  29.430  28.305  1.00  0.00     0.029 A 
ATOM     20  N   UNL A   1      39.829  29.147  30.124  1.00  0.00    -0.354 N 
ATOM     21  C   UNL A   1      38.940  31.455  33.729  1.00  0.00     0.074 A 
ATOM     22  C   UNL A   1      37.785  32.296  33.516  1.00  0.00     0.031 C 
ATOM     23  C   UNL A   1      39.462  28.474  28.023  1.00  0.00     0.029 A 
ATOM     24  C   UNL A   1      40.363  28.329  29.160  1.00  0.00     0.049 A 
ATOM     25  H   UNL A   1      40.154  29.177  31.053  1.00  0.00     0.167 HD
ATOM     26  C   UNL A   1      39.599  31.338  34.904  1.00  0.00     0.037 A 
ATOM     27  C   UNL A   1      41.494  27.598  29.187  1.00  0.00     0.037 A 
ATOM     28  C   UNL A   1      40.762  30.511  35.068  1.00  0.00     0.049 A 
ATOM     29  C   UNL A   1      42.296  27.579  30.458  1.00  0.00     0.074 A 
ATOM     30  C   UNL A   1      41.552  30.337  36.188  1.00  0.00     0.029 A 
ATOM     31  N   UNL A   1      41.309  29.727  34.059  1.00  0.00    -0.354 N 
ATOM     32  N   UNL A   1      42.058  28.202  31.589  1.00  0.00    -0.248 NA
ATOM     33  C   UNL A   1      43.515  26.762  30.467  1.00  0.00     0.031 C 
ATOM     34  C   UNL A   1      42.611  29.492  35.838  1.00  0.00     0.029 A 
ATOM     35  C   UNL A   1      42.445  29.086  34.521  1.00  0.00     0.049 A 
ATOM     36  H   UNL A   1      40.942  29.640  33.151  1.00  0.00     0.167 HD
ATOM     37  C   UNL A   1      43.073  27.828  32.456  1.00  0.00     0.074 A 
ATOM     38  C   UNL A   1      43.936  26.928  31.714  1.00  0.00     0.031 C 
ATOM     39  C   UNL A   1      43.267  28.184  33.750  1.00  0.00     0.037 A 
BRANCH  26  40
ATOM     40  C   UNL A   1      39.114  32.193  36.037  1.00  0.00     0.064 A 
ATOM     41  C   UNL A   1      39.581  33.501  36.237  1.00  0.00     0.173 A 
ATOM     42  C   UNL A   1      38.228  31.661  36.987  1.00  0.00     0.173 A 
ATOM     43  F   UNL A   1      40.454  34.046  35.376  1.00  0.00    -0.203 F 
ATOM     44  C   UNL A   1      39.219  34.226  37.371  1.00  0.00     0.198 A 
ATOM     45  C   UNL A   1      37.844  32.401  38.103  1.00  0.00     0.198 A 
ATOM     46  F   UNL A   1      37.758  30.413  36.849  1.00  0.00    -0.203 F 
ATOM     47  F   UNL A   1      39.745  35.441  37.584  1.00  0.00    -0.200 F 
ATOM     48  C   UNL A   1      38.352  33.675  38.302  1.00  0.00     0.200 A 
ATOM     49  F   UNL A   1      37.004  31.867  38.999  1.00  0.00    -0.200 F 
ATOM     50  F   UNL A   1      38.022  34.364  39.404  1.00  0.00    -0.200 F 
ENDBRANCH  26  40
BRANCH  27  51
ATOM     51  C   UNL A   1      41.932  26.889  27.957  1.00  0.00     0.064 A 
ATOM     52  C   UNL A   1      41.493  25.593  27.660  1.00  0.00     0.173 A 
ATOM     53  C   UNL A   1      42.770  27.523  27.023  1.00  0.00     0.173 A 
ATOM     54  F   UNL A   1      40.708  24.939  28.528  1.00  0.00    -0.203 F 
ATOM     55  C   UNL A   1      41.872  24.958  26.478  1.00  0.00     0.198 A 
ATOM     56  C   UNL A   1      43.129  26.896  25.831  1.00  0.00     0.198 A 
ATOM     57  F   UNL A   1      43.223  28.763  27.261  1.00  0.00    -0.203 F 
ATOM     58  F   UNL A   1      41.456  23.709  26.229  1.00  0.00    -0.200 F 
ATOM     59  C   UNL A   1      42.681  25.613  25.560  1.00  0.00     0.200 A 
ATOM     60  F   UNL A   1      43.904  27.537  24.946  1.00  0.00    -0.200 F 
ATOM     61  F   UNL A   1      43.033  25.005  24.419  1.00  0.00    -0.200 F 
ENDBRANCH  27  51
BRANCH  39  62
ATOM     62  C   UNL A   1      44.425  27.561  34.468  1.00  0.00     0.064 A 
ATOM     63  C   UNL A   1      45.643  28.234  34.626  1.00  0.00     0.173 A 
ATOM     64  C   UNL A   1      44.268  26.316  35.096  1.00  0.00     0.173 A 
ATOM     65  F   UNL A   1      45.841  29.420  34.033  1.00  0.00    -0.203 F 
ATOM     66  C   UNL A   1      46.668  27.679  35.388  1.00  0.00     0.198 A 
ATOM     67  C   UNL A   1      45.282  25.778  35.879  1.00  0.00     0.198 A 
ATOM     68  F   UNL A   1      43.114  25.640  34.977  1.00  0.00    -0.203 F 
ATOM     69  F   UNL A   1      47.833  28.328  35.511  1.00  0.00    -0.200 F 
ATOM     70  C   UNL A   1      46.482  26.459  36.023  1.00  0.00     0.200 A 
ATOM     71  F   UNL A   1      45.095  24.608  36.506  1.00  0.00    -0.200 F 
ATOM     72  F   UNL A   1      47.460  25.941  36.779  1.00  0.00    -0.200 F 
ENDBRANCH  39  62
ENDBRANCH  13  14
ENDBRANCH   6   8
ENDBRANCH   5   6
ENDBRANCH   4   5
ENDBRANCH   3   4
ENDBRANCH   2   3
ENDBRANCH   1   2
BRANCH   1  73
ATOM     73  C   UNL A   1      32.131  29.165  24.488  1.00  0.00     0.188 C 
BRANCH  73  74
ATOM     74  O   UNL A   1      32.440  27.777  24.541  1.00  0.00    -0.376 OA
BRANCH  74  75
ATOM     75  C   UNL A   1      31.563  26.904  25.236  1.00  0.00     0.202 C 
BRANCH  75  76
ATOM     76  C   UNL A   1      31.966  26.340  26.610  1.00  0.00     0.261 C 
BRANCH  76  77
ATOM     77  O   UNL A   1      31.720  24.942  26.827  1.00  0.00    -0.462 OA
BRANCH  77  78
ATOM     78  C   UNL A   1      32.688  24.122  26.328  1.00  0.00     0.334 C 
ATOM     79  O   UNL A   1      33.866  24.462  26.197  1.00  0.00    -0.250 OA
BRANCH  78  80
ATOM     80  C   UNL A   1      32.135  22.748  25.887  1.00  0.00     0.249 C 
ATOM     81  C   UNL A   1      30.622  23.015  25.663  1.00  0.00     0.298 C 
ATOM     82  N   UNL A   1      32.769  22.274  24.634  1.00  0.00    -0.331 N 
ATOM     83  N   UNL A   1      30.307  23.860  24.482  1.00  0.00    -0.343 N 
ATOM     84  C   UNL A   1      32.514  23.074  23.433  1.00  0.00     0.180 C 
ATOM     85  C   UNL A   1      30.997  23.346  23.276  1.00  0.00     0.282 C 
ATOM     86  H   UNL A   1      30.614  24.816  24.663  1.00  0.00     0.346 HD
ATOM     87  H   UNL A   1      29.300  23.839  24.321  1.00  0.00     0.346 HD
BRANCH  82  88
ATOM     88  C   UNL A   1      33.240  20.998  24.416  1.00  0.00     0.148 A 
ATOM     89  N   UNL A   1      32.374  20.169  23.777  1.00  0.00    -0.237 NA
ATOM     90  C   UNL A   1      34.439  20.475  24.934  1.00  0.00     0.084 A 
ATOM     91  C   UNL A   1      32.675  18.846  23.663  1.00  0.00     0.126 A 
ATOM     92  C   UNL A   1      34.740  19.117  24.776  1.00  0.00     0.039 A 
ATOM     93  Cl  UNL A   1      35.541  21.361  25.915  1.00  0.00    -0.080 Cl
ATOM     94  C   UNL A   1      33.836  18.268  24.145  1.00  0.00     0.075 A 
BRANCH  94  95
ATOM     95  C   UNL A   1      34.059  16.791  24.053  1.00  0.00     0.417 C 
ATOM     96  F   UNL A   1      34.227  16.369  22.770  1.00  0.00    -0.166 F 
ATOM     97  F   UNL A   1      35.159  16.379  24.735  1.00  0.00    -0.166 F 
ATOM     98  F   UNL A   1      33.020  16.060  24.549  1.00  0.00    -0.166 F 
ENDBRANCH  94  95
ENDBRANCH  82  88
ENDBRANCH  78  80
ENDBRANCH  77  78
ENDBRANCH  76  77
ENDBRANCH  75  76
ENDBRANCH  74  75
ENDBRANCH  73  74
ENDBRANCH   1  73
TORSDOF 19
ENDMDL
MODEL 2
REMARK VINA RESULT:     -11.4      5.461      8.604
REMARK SMILES O=C(OCCOCCOCCOC(=O)[C@H]1C[NH2+]CCN1c1ncc(C(F)(F)F)cc1Cl)c1ccc(-c2c3nc(c(-c4c(F)c(F)c(F)c(F)c4F)c4ccc([nH]4)c(-c4c(F)c(F)c(F)c(F)c4F)c4nc(c(-c5c(F)c(F)c(F)c(F)c5F)c5ccc2[nH]5)C=C4)C=C3)cc1
REMARK SMILES IDX 7 1 6 2 5 3 4 4 3 5 2 6 1 7 32 8 33 9 94 10 34 11 93 12
REMARK SMILES IDX 35 13 36 14 37 15 87 16 38 17 92 18 86 19 88 20 39 21 91 22
REMARK SMILES IDX 85 23 84 24 40 26 72 27 52 28 71 29 53 30 56 31 70 32 89 33
REMARK SMILES IDX 54 34 55 35 69 37 90 38 57 39 41 40 42 41 50 42 43 43 44 44
REMARK SMILES IDX 48 45 51 46 45 47 46 48 49 49 47 50 73 51 74 52 82 53 75 54
REMARK SMILES IDX 76 55 80 56 83 57 77 58 78 59 81 60 79 61 58 62 59 63 67 64
REMARK SMILES IDX 60 65 61 66 65 67 68 68 62 69 63 70 66 71 64 72 8 73 9 74
REMARK SMILES IDX 10 75 11 76 12 77 13 78 14 79 15 80 16 81 20 82 17 83 19 84
REMARK SMILES IDX 18 85 21 88 22 89 30 90 23 91 29 92 31 93 24 94 25 95 26 96
REMARK SMILES IDX 27 97 28 98
REMARK H PARENT 88 25 56 36 17 86 17 87
REMARK Flexibility Score: inf
ROOT
ATOM      1  C   UNL A   1      34.306  22.215  26.374  1.00  0.00     0.188 C 
ENDROOT
BRANCH   1   2
ATOM      2  O   UNL A   1      34.345  21.068  25.516  1.00  0.00    -0.376 OA
BRANCH   2   3
ATOM      3  C   UNL A   1      35.650  20.788  24.997  1.00  0.00     0.202 C 
BRANCH   3   4
ATOM      4  C   UNL A   1      36.806  21.579  25.629  1.00  0.00     0.261 C 
BRANCH   4   5
ATOM      5  O   UNL A   1      38.095  20.980  25.423  1.00  0.00    -0.460 OA
BRANCH   5   6
ATOM      6  C   UNL A   1      39.253  21.191  26.090  1.00  0.00     0.338 C 
ATOM      7  O   UNL A   1      39.965  20.214  26.325  1.00  0.00    -0.246 OA
BRANCH   6   8
ATOM      8  C   UNL A   1      39.718  22.525  26.604  1.00  0.00     0.060 A 
ATOM      9  C   UNL A   1      39.195  23.775  26.261  1.00  0.00     0.016 A 
ATOM     10  C   UNL A   1      40.770  22.501  27.541  1.00  0.00     0.016 A 
ATOM     11  C   UNL A   1      39.720  24.958  26.770  1.00  0.00     0.010 A 
ATOM     12  C   UNL A   1      41.305  23.681  28.065  1.00  0.00     0.010 A 
ATOM     13  C   UNL A   1      40.800  24.914  27.644  1.00  0.00    -0.014 A 
BRANCH  13  14
ATOM     14  C   UNL A   1      41.537  26.160  27.913  1.00  0.00     0.031 A 
ATOM     15  C   UNL A   1      40.816  27.240  28.654  1.00  0.00     0.074 A 
ATOM     16  C   UNL A   1      42.828  26.286  27.574  1.00  0.00     0.049 A 
ATOM     17  N   UNL A   1      41.189  28.461  28.918  1.00  0.00    -0.248 NA
ATOM     18  C   UNL A   1      39.491  26.880  29.189  1.00  0.00     0.031 C 
ATOM     19  C   UNL A   1      43.645  25.231  26.984  1.00  0.00     0.029 A 
ATOM     20  N   UNL A   1      43.674  27.359  27.665  1.00  0.00    -0.354 N 
ATOM     21  C   UNL A   1      40.140  29.021  29.632  1.00  0.00     0.074 A 
ATOM     22  C   UNL A   1      39.111  28.014  29.754  1.00  0.00     0.031 C 
ATOM     23  C   UNL A   1      44.865  25.724  26.713  1.00  0.00     0.029 A 
ATOM     24  C   UNL A   1      44.887  27.139  27.063  1.00  0.00     0.049 A 
ATOM     25  H   UNL A   1      43.435  28.202  28.115  1.00  0.00     0.167 HD
ATOM     26  C   UNL A   1      40.052  30.274  30.133  1.00  0.00     0.037 A 
ATOM     27  C   UNL A   1      45.873  28.011  26.777  1.00  0.00     0.037 A 
ATOM     28  C   UNL A   1      41.086  31.256  29.967  1.00  0.00     0.049 A 
ATOM     29  C   UNL A   1      45.708  29.438  27.220  1.00  0.00     0.074 A 
ATOM     30  C   UNL A   1      41.107  32.574  30.381  1.00  0.00     0.029 A 
ATOM     31  N   UNL A   1      42.289  31.018  29.311  1.00  0.00    -0.354 N 
ATOM     32  N   UNL A   1      44.702  29.988  27.860  1.00  0.00    -0.248 NA
ATOM     33  C   UNL A   1      46.802  30.365  26.911  1.00  0.00     0.031 C 
ATOM     34  C   UNL A   1      42.298  33.148  29.925  1.00  0.00     0.029 A 
ATOM     35  C   UNL A   1      43.050  32.173  29.284  1.00  0.00     0.049 A 
ATOM     36  H   UNL A   1      42.559  30.155  28.924  1.00  0.00     0.167 HD
ATOM     37  C   UNL A   1      45.053  31.315  28.062  1.00  0.00     0.074 A 
ATOM     38  C   UNL A   1      46.365  31.488  27.467  1.00  0.00     0.031 C 
ATOM     39  C   UNL A   1      44.362  32.296  28.693  1.00  0.00     0.037 A 
BRANCH  26  40
ATOM     40  C   UNL A   1      38.764  30.641  30.808  1.00  0.00     0.064 A 
ATOM     41  C   UNL A   1      37.667  31.150  30.096  1.00  0.00     0.173 A 
ATOM     42  C   UNL A   1      38.656  30.558  32.205  1.00  0.00     0.173 A 
ATOM     43  F   UNL A   1      37.729  31.280  28.761  1.00  0.00    -0.203 F 
ATOM     44  C   UNL A   1      36.531  31.610  30.761  1.00  0.00     0.198 A 
ATOM     45  C   UNL A   1      37.507  30.988  32.863  1.00  0.00     0.198 A 
ATOM     46  F   UNL A   1      39.677  30.086  32.934  1.00  0.00    -0.203 F 
ATOM     47  F   UNL A   1      35.532  32.172  30.066  1.00  0.00    -0.200 F 
ATOM     48  C   UNL A   1      36.453  31.529  32.143  1.00  0.00     0.200 A 
ATOM     49  F   UNL A   1      37.433  30.907  34.198  1.00  0.00    -0.200 F 
ATOM     50  F   UNL A   1      35.370  31.992  32.782  1.00  0.00    -0.200 F 
ENDBRANCH  26  40
BRANCH  27  51
ATOM     51  C   UNL A   1      47.049  27.550  25.994  1.00  0.00     0.064 A 
ATOM     52  C   UNL A   1      47.103  27.687  24.602  1.00  0.00     0.173 A 
ATOM     53  C   UNL A   1      48.171  27.002  26.640  1.00  0.00     0.173 A 
ATOM     54  F   UNL A   1      46.051  28.187  23.938  1.00  0.00    -0.203 F 
ATOM     55  C   UNL A   1      48.234  27.296  23.884  1.00  0.00     0.198 A 
ATOM     56  C   UNL A   1      49.308  26.633  25.924  1.00  0.00     0.198 A 
ATOM     57  F   UNL A   1      48.167  26.844  27.972  1.00  0.00    -0.203 F 
ATOM     58  F   UNL A   1      48.251  27.417  22.551  1.00  0.00    -0.200 F 
ATOM     59  C   UNL A   1      49.339  26.779  24.546  1.00  0.00     0.200 A 
ATOM     60  F   UNL A   1      50.374  26.142  26.570  1.00  0.00    -0.200 F 
ATOM     61  F   UNL A   1      50.427  26.416  23.856  1.00  0.00    -0.200 F 
ENDBRANCH  27  51
BRANCH  39  62
ATOM     62  C   UNL A   1      45.028  33.631  28.824  1.00  0.00     0.064 A 
ATOM     63  C   UNL A   1      44.831  34.648  27.882  1.00  0.00     0.173 A 
ATOM     64  C   UNL A   1      45.787  33.922  29.968  1.00  0.00     0.173 A 
ATOM     65  F   UNL A   1      44.124  34.410  26.768  1.00  0.00    -0.203 F 
ATOM     66  C   UNL A   1      45.375  35.915  28.080  1.00  0.00     0.198 A 
ATOM     67  C   UNL A   1      46.305  35.195  30.176  1.00  0.00     0.198 A 
ATOM     68  F   UNL A   1      45.994  32.979  30.899  1.00  0.00    -0.203 F 
ATOM     69  F   UNL A   1      45.194  36.870  27.158  1.00  0.00    -0.200 F 
ATOM     70  C   UNL A   1      46.099  36.190  29.231  1.00  0.00     0.200 A 
ATOM     71  F   UNL A   1      46.989  35.464  31.296  1.00  0.00    -0.200 F 
ATOM     72  F   UNL A   1      46.598  37.417  29.432  1.00  0.00    -0.200 F 
ENDBRANCH  39  62
ENDBRANCH  13  14
ENDBRANCH   6   8
ENDBRANCH   5   6
ENDBRANCH   4   5
ENDBRANCH   3   4
ENDBRANCH   2   3
ENDBRANCH   1   2
BRANCH   1  73
ATOM     73  C   UNL A   1      33.457  22.048  27.635  1.00  0.00     0.188 C 
BRANCH  73  74
ATOM     74  O   UNL A   1      32.371  22.941  27.850  1.00  0.00    -0.376 OA
BRANCH  74  75
ATOM     75  C   UNL A   1      31.281  22.928  26.941  1.00  0.00     0.202 C 
BRANCH  75  76
ATOM     76  C   UNL A   1      30.721  24.251  26.389  1.00  0.00     0.261 C 
BRANCH  76  77
ATOM     77  O   UNL A   1      30.537  24.327  24.967  1.00  0.00    -0.462 OA
BRANCH  77  78
ATOM     78  C   UNL A   1      31.660  24.674  24.278  1.00  0.00     0.334 C 
ATOM     79  O   UNL A   1      32.506  23.859  23.901  1.00  0.00    -0.250 OA
BRANCH  78  80
ATOM     80  C   UNL A   1      31.789  26.201  24.077  1.00  0.00     0.249 C 
ATOM     81  C   UNL A   1      33.322  26.430  23.976  1.00  0.00     0.298 C 
ATOM     82  N   UNL A   1      31.115  26.653  22.837  1.00  0.00    -0.331 N 
ATOM     83  N   UNL A   1      33.950  25.907  22.735  1.00  0.00    -0.343 N 
ATOM     84  C   UNL A   1      31.673  26.159  21.576  1.00  0.00     0.180 C 
ATOM     85  C   UNL A   1      33.207  26.374  21.540  1.00  0.00     0.282 C 
ATOM     86  H   UNL A   1      33.941  24.887  22.759  1.00  0.00     0.346 HD
ATOM     87  H   UNL A   1      34.909  26.249  22.681  1.00  0.00     0.346 HD
BRANCH  82  88
ATOM     88  C   UNL A   1      30.289  27.751  22.738  1.00  0.00     0.148 A 
ATOM     89  N   UNL A   1      30.895  28.888  22.308  1.00  0.00    -0.237 NA
ATOM     90  C   UNL A   1      28.958  27.809  23.189  1.00  0.00     0.084 A 
ATOM     91  C   UNL A   1      30.210  30.064  22.337  1.00  0.00     0.126 A 
ATOM     92  C   UNL A   1      28.264  29.025  23.179  1.00  0.00     0.039 A 
ATOM     93  Cl  UNL A   1      28.123  26.495  23.924  1.00  0.00    -0.080 Cl
ATOM     94  C   UNL A   1      28.900  30.191  22.763  1.00  0.00     0.075 A 
BRANCH  94  95
ATOM     95  C   UNL A   1      28.240  31.531  22.841  1.00  0.00     0.417 C 
ATOM     96  F   UNL A   1      27.641  31.885  21.672  1.00  0.00    -0.166 F 
ATOM     97  F   UNL A   1      27.274  31.591  23.795  1.00  0.00    -0.166 F 
ATOM     98  F   UNL A   1      29.109  32.541  23.131  1.00  0.00    -0.166 F 
ENDBRANCH  94  95
ENDBRANCH  82  88
ENDBRANCH  78  80
ENDBRANCH  77  78
ENDBRANCH  76  77
ENDBRANCH  75  76
ENDBRANCH  74  75
ENDBRANCH  73  74
ENDBRANCH   1  73
TORSDOF 19
ENDMDL
MODEL 3
REMARK VINA RESULT:     -11.2      0.854      7.410
REMARK SMILES O=C(OCCOCCOCCOC(=O)[C@H]1C[NH2+]CCN1c1ncc(C(F)(F)F)cc1Cl)c1ccc(-c2c3nc(c(-c4c(F)c(F)c(F)c(F)c4F)c4ccc([nH]4)c(-c4c(F)c(F)c(F)c(F)c4F)c4nc(c(-c5c(F)c(F)c(F)c(F)c5F)c5ccc2[nH]5)C=C4)C=C3)cc1
REMARK SMILES IDX 7 1 6 2 5 3 4 4 3 5 2 6 1 7 32 8 33 9 94 10 34 11 93 12
REMARK SMILES IDX 35 13 36 14 37 15 87 16 38 17 92 18 86 19 88 20 39 21 91 22
REMARK SMILES IDX 85 23 84 24 40 26 72 27 52 28 71 29 53 30 56 31 70 32 89 33
REMARK SMILES IDX 54 34 55 35 69 37 90 38 57 39 41 40 42 41 50 42 43 43 44 44
REMARK SMILES IDX 48 45 51 46 45 47 46 48 49 49 47 50 73 51 74 52 82 53 75 54
REMARK SMILES IDX 76 55 80 56 83 57 77 58 78 59 81 60 79 61 58 62 59 63 67 64
REMARK SMILES IDX 60 65 61 66 65 67 68 68 62 69 63 70 66 71 64 72 8 73 9 74
REMARK SMILES IDX 10 75 11 76 12 77 13 78 14 79 15 80 16 81 20 82 17 83 19 84
REMARK SMILES IDX 18 85 21 88 22 89 30 90 23 91 29 92 31 93 24 94 25 95 26 96
REMARK SMILES IDX 27 97 28 98
REMARK H PARENT 88 25 56 36 17 86 17 87
REMARK Flexibility Score: inf
ROOT
ATOM      1  C   UNL A   1      32.337  29.320  25.911  1.00  0.00     0.188 C 
ENDROOT
BRANCH   1   2
ATOM      2  O   UNL A   1      31.810  30.651  25.913  1.00  0.00    -0.376 OA
BRANCH   2   3
ATOM      3  C   UNL A   1      32.263  31.443  27.016  1.00  0.00     0.202 C 
BRANCH   3   4
ATOM      4  C   UNL A   1      31.945  32.945  26.938  1.00  0.00     0.261 C 
BRANCH   4   5
ATOM      5  O   UNL A   1      32.536  33.715  27.996  1.00  0.00    -0.460 OA
BRANCH   5   6
ATOM      6  C   UNL A   1      33.821  34.107  28.154  1.00  0.00     0.338 C 
ATOM      7  O   UNL A   1      34.127  35.237  27.771  1.00  0.00    -0.246 OA
BRANCH   6   8
ATOM      8  C   UNL A   1      34.918  33.251  28.725  1.00  0.00     0.060 A 
ATOM      9  C   UNL A   1      34.760  32.191  29.622  1.00  0.00     0.016 A 
ATOM     10  C   UNL A   1      36.226  33.539  28.290  1.00  0.00     0.016 A 
ATOM     11  C   UNL A   1      35.847  31.478  30.118  1.00  0.00     0.010 A 
ATOM     12  C   UNL A   1      37.328  32.829  28.775  1.00  0.00     0.010 A 
ATOM     13  C   UNL A   1      37.135  31.822  29.724  1.00  0.00    -0.014 A 
BRANCH  13  14
ATOM     14  C   UNL A   1      38.270  31.284  30.492  1.00  0.00     0.031 A 
ATOM     15  C   UNL A   1      39.137  30.269  29.818  1.00  0.00     0.074 A 
ATOM     16  C   UNL A   1      38.558  31.749  31.716  1.00  0.00     0.049 A 
ATOM     17  N   UNL A   1      40.121  29.562  30.302  1.00  0.00    -0.248 NA
ATOM     18  C   UNL A   1      38.864  30.033  28.391  1.00  0.00     0.031 C 
ATOM     19  C   UNL A   1      37.855  32.839  32.384  1.00  0.00     0.029 A 
ATOM     20  N   UNL A   1      39.507  31.352  32.620  1.00  0.00    -0.354 N 
ATOM     21  C   UNL A   1      40.571  28.786  29.244  1.00  0.00     0.074 A 
ATOM     22  C   UNL A   1      39.751  29.098  28.097  1.00  0.00     0.031 C 
ATOM     23  C   UNL A   1      38.362  32.992  33.619  1.00  0.00     0.029 A 
ATOM     24  C   UNL A   1      39.383  31.974  33.837  1.00  0.00     0.049 A 
ATOM     25  H   UNL A   1      40.206  30.689  32.418  1.00  0.00     0.167 HD
ATOM     26  C   UNL A   1      41.580  27.886  29.245  1.00  0.00     0.037 A 
ATOM     27  C   UNL A   1      39.989  31.699  35.007  1.00  0.00     0.037 A 
ATOM     28  C   UNL A   1      42.356  27.583  30.416  1.00  0.00     0.049 A 
ATOM     29  C   UNL A   1      41.018  30.602  35.031  1.00  0.00     0.074 A 
ATOM     30  C   UNL A   1      43.373  26.662  30.568  1.00  0.00     0.029 A 
ATOM     31  N   UNL A   1      42.177  28.198  31.650  1.00  0.00    -0.354 N 
ATOM     32  N   UNL A   1      41.423  29.834  34.047  1.00  0.00    -0.248 NA
ATOM     33  C   UNL A   1      41.677  30.332  36.314  1.00  0.00     0.031 C 
ATOM     34  C   UNL A   1      43.770  26.680  31.910  1.00  0.00     0.029 A 
ATOM     35  C   UNL A   1      43.047  27.657  32.579  1.00  0.00     0.049 A 
ATOM     36  H   UNL A   1      41.527  28.913  31.835  1.00  0.00     0.167 HD
ATOM     37  C   UNL A   1      42.406  29.013  34.578  1.00  0.00     0.074 A 
ATOM     38  C   UNL A   1      42.530  29.373  35.977  1.00  0.00     0.031 C 
ATOM     39  C   UNL A   1      43.148  28.059  33.962  1.00  0.00     0.037 A 
BRANCH  26  40
ATOM     40  C   UNL A   1      41.811  27.129  27.971  1.00  0.00     0.064 A 
ATOM     41  C   UNL A   1      41.193  25.896  27.714  1.00  0.00     0.173 A 
ATOM     42  C   UNL A   1      42.731  27.610  27.027  1.00  0.00     0.173 A 
ATOM     43  F   UNL A   1      40.328  25.376  28.599  1.00  0.00    -0.203 F 
ATOM     44  C   UNL A   1      41.525  25.148  26.586  1.00  0.00     0.198 A 
ATOM     45  C   UNL A   1      43.037  26.875  25.884  1.00  0.00     0.198 A 
ATOM     46  F   UNL A   1      43.356  28.779  27.227  1.00  0.00    -0.203 F 
ATOM     47  F   UNL A   1      40.986  23.934  26.405  1.00  0.00    -0.200 F 
ATOM     48  C   UNL A   1      42.447  25.638  25.673  1.00  0.00     0.200 A 
ATOM     49  F   UNL A   1      43.926  27.351  25.003  1.00  0.00    -0.200 F 
ATOM     50  F   UNL A   1      42.783  24.909  24.600  1.00  0.00    -0.200 F 
ENDBRANCH  26  40
BRANCH  27  51
ATOM     51  C   UNL A   1      39.586  32.441  36.230  1.00  0.00     0.064 A 
ATOM     52  C   UNL A   1      40.227  33.624  36.615  1.00  0.00     0.173 A 
ATOM     53  C   UNL A   1      38.508  31.998  37.016  1.00  0.00     0.173 A 
ATOM     54  F   UNL A   1      41.273  34.078  35.909  1.00  0.00    -0.203 F 
ATOM     55  C   UNL A   1      39.807  34.338  37.737  1.00  0.00     0.198 A 
ATOM     56  C   UNL A   1      38.075  32.724  38.123  1.00  0.00     0.198 A 
ATOM     57  F   UNL A   1      37.863  30.867  36.693  1.00  0.00    -0.203 F 
ATOM     58  F   UNL A   1      40.452  35.455  38.097  1.00  0.00    -0.200 F 
ATOM     59  C   UNL A   1      38.725  33.893  38.484  1.00  0.00     0.200 A 
ATOM     60  F   UNL A   1      37.025  32.293  38.835  1.00  0.00    -0.200 F 
ATOM     61  F   UNL A   1      38.315  34.587  39.554  1.00  0.00    -0.200 F 
ENDBRANCH  27  51
BRANCH  39  62
ATOM     62  C   UNL A   1      44.198  27.372  34.780  1.00  0.00     0.064 A 
ATOM     63  C   UNL A   1      43.957  26.144  35.409  1.00  0.00     0.173 A 
ATOM     64  C   UNL A   1      45.495  27.905  34.839  1.00  0.00     0.173 A 
ATOM     65  F   UNL A   1      42.730  25.605  35.389  1.00  0.00    -0.203 F 
ATOM     66  C   UNL A   1      44.980  25.474  36.074  1.00  0.00     0.198 A 
ATOM     67  C   UNL A   1      46.520  27.220  35.480  1.00  0.00     0.198 A 
ATOM     68  F   UNL A   1      45.772  29.076  34.243  1.00  0.00    -0.203 F 
ATOM     69  F   UNL A   1      44.726  24.310  36.688  1.00  0.00    -0.200 F 
ATOM     70  C   UNL A   1      46.261  26.005  36.098  1.00  0.00     0.200 A 
ATOM     71  F   UNL A   1      47.761  27.726  35.486  1.00  0.00    -0.200 F 
ATOM     72  F   UNL A   1      47.251  25.344  36.715  1.00  0.00    -0.200 F 
ENDBRANCH  39  62
ENDBRANCH  13  14
ENDBRANCH   6   8
ENDBRANCH   5   6
ENDBRANCH   4   5
ENDBRANCH   3   4
ENDBRANCH   2   3
ENDBRANCH   1   2
BRANCH   1  73
ATOM     73  C   UNL A   1      31.483  28.287  26.650  1.00  0.00     0.188 C 
BRANCH  73  74
ATOM     74  O   UNL A   1      31.677  26.908  26.360  1.00  0.00    -0.376 OA
BRANCH  74  75
ATOM     75  C   UNL A   1      30.682  26.215  25.623  1.00  0.00     0.202 C 
BRANCH  75  76
ATOM     76  C   UNL A   1      30.839  26.023  24.105  1.00  0.00     0.261 C 
BRANCH  76  77
ATOM     77  O   UNL A   1      31.982  25.273  23.666  1.00  0.00    -0.462 OA
BRANCH  77  78
ATOM     78  C   UNL A   1      31.757  23.935  23.546  1.00  0.00     0.334 C 
ATOM     79  O   UNL A   1      30.654  23.451  23.284  1.00  0.00    -0.250 OA
BRANCH  78  80
ATOM     80  C   UNL A   1      33.019  23.090  23.835  1.00  0.00     0.249 C 
ATOM     81  C   UNL A   1      33.952  24.071  24.597  1.00  0.00     0.298 C 
ATOM     82  N   UNL A   1      32.712  21.909  24.677  1.00  0.00    -0.331 N 
ATOM     83  N   UNL A   1      33.500  24.421  25.969  1.00  0.00    -0.343 N 
ATOM     84  C   UNL A   1      32.243  22.183  26.037  1.00  0.00     0.180 C 
ATOM     85  C   UNL A   1      33.183  23.196  26.740  1.00  0.00     0.282 C 
ATOM     86  H   UNL A   1      32.666  25.006  25.908  1.00  0.00     0.346 HD
ATOM     87  H   UNL A   1      34.249  24.925  26.444  1.00  0.00     0.346 HD
BRANCH  82  88
ATOM     88  C   UNL A   1      33.169  20.630  24.446  1.00  0.00     0.148 A 
ATOM     89  N   UNL A   1      32.217  19.744  24.051  1.00  0.00    -0.237 NA
ATOM     90  C   UNL A   1      34.464  20.165  24.737  1.00  0.00     0.084 A 
ATOM     91  C   UNL A   1      32.530  18.423  23.960  1.00  0.00     0.126 A 
ATOM     92  C   UNL A   1      34.769  18.804  24.605  1.00  0.00     0.039 A 
ATOM     93  Cl  UNL A   1      35.715  21.133  25.414  1.00  0.00    -0.080 Cl
ATOM     94  C   UNL A   1      33.781  17.899  24.227  1.00  0.00     0.075 A 
BRANCH  94  95
ATOM     95  C   UNL A   1      34.027  16.423  24.183  1.00  0.00     0.417 C 
ATOM     96  F   UNL A   1      34.402  15.996  22.946  1.00  0.00    -0.166 F 
ATOM     97  F   UNL A   1      35.007  16.024  25.035  1.00  0.00    -0.166 F 
ATOM     98  F   UNL A   1      32.928  15.687  24.511  1.00  0.00    -0.166 F 
ENDBRANCH  94  95
ENDBRANCH  82  88
ENDBRANCH  78  80
ENDBRANCH  77  78
ENDBRANCH  76  77
ENDBRANCH  75  76
ENDBRANCH  74  75
ENDBRANCH  73  74
ENDBRANCH   1  73
TORSDOF 19
ENDMDL
