MODEL 1
REMARK VINA RESULT:     -10.1      0.000      0.000
REMARK SMILES O=C(COC[C@@H]1CCCCO1)OCCOCCOCCOC(=O)c1ccc(-c2c3nc(c(-c4c(F)c(F)c(F)c(F)c4F)c4ccc([nH]4)c(-c4c(F)c(F)c(F)c(F)c4F)c4nc(c(-c5c(F)c(F)c(F)c(F)c5F)c5ccc2[nH]5)C=C4)C=C3)cc1
REMARK SMILES IDX 16 1 15 2 14 3 13 4 12 5 2 6 1 7 3 8 4 9 5 10 6 11 7 12
REMARK SMILES IDX 11 13 8 14 10 15 9 16 17 17 18 18 19 19 20 20 21 21 22 22
REMARK SMILES IDX 23 23 24 24 25 25 86 26 26 27 85 28 27 29 28 30 29 31 79 32
REMARK SMILES IDX 30 33 84 34 78 35 80 36 31 37 83 38 77 39 76 40 32 42 64 43
REMARK SMILES IDX 44 44 63 45 45 46 48 47 62 48 81 49 46 50 47 51 61 53 82 54
REMARK SMILES IDX 49 55 33 56 34 57 42 58 35 59 36 60 40 61 43 62 37 63 38 64
REMARK SMILES IDX 41 65 39 66 65 67 66 68 74 69 67 70 68 71 72 72 75 73 69 74
REMARK SMILES IDX 70 75 73 76 71 77 50 78 51 79 59 80 52 81 53 82 57 83 60 84
REMARK SMILES IDX 54 85 55 86 58 87 56 88
REMARK H PARENT 80 41 48 52
REMARK Flexibility Score: inf
ROOT
ATOM      1  C   UNL A   1      30.510  25.673  25.668  1.00  0.00     0.188 C 
ENDROOT
BRANCH   1   2
ATOM      2  O   UNL A   1      30.797  24.458  25.018  1.00  0.00    -0.376 OA
BRANCH   2   3
ATOM      3  C   UNL A   1      32.115  24.015  24.749  1.00  0.00     0.202 C 
BRANCH   3   4
ATOM      4  C   UNL A   1      32.949  24.399  23.511  1.00  0.00     0.261 C 
BRANCH   4   5
ATOM      5  O   UNL A   1      32.268  24.659  22.280  1.00  0.00    -0.462 OA
BRANCH   5   6
ATOM      6  C   UNL A   1      32.424  25.873  21.679  1.00  0.00     0.332 C 
ATOM      7  O   UNL A   1      33.210  26.022  20.749  1.00  0.00    -0.250 OA
BRANCH   6   8
ATOM      8  C   UNL A   1      31.778  27.049  22.429  1.00  0.00     0.282 C 
BRANCH   8   9
ATOM      9  O   UNL A   1      30.668  27.740  21.922  1.00  0.00    -0.367 OA
BRANCH   9  10
ATOM     10  C   UNL A   1      30.573  29.099  22.322  1.00  0.00     0.193 C 
BRANCH  10  11
ATOM     11  C   UNL A   1      29.199  29.626  22.836  1.00  0.00     0.144 C 
ATOM     12  C   UNL A   1      28.148  29.756  21.733  1.00  0.00     0.034 C 
ATOM     13  O   UNL A   1      29.224  30.710  23.761  1.00  0.00    -0.376 OA
ATOM     14  C   UNL A   1      28.175  31.116  21.070  1.00  0.00     0.005 C 
ATOM     15  C   UNL A   1      28.906  32.028  23.335  1.00  0.00     0.160 C 
ATOM     16  C   UNL A   1      27.995  32.190  22.124  1.00  0.00     0.029 C 
ENDBRANCH  10  11
ENDBRANCH   9  10
ENDBRANCH   8   9
ENDBRANCH   6   8
ENDBRANCH   5   6
ENDBRANCH   4   5
ENDBRANCH   3   4
ENDBRANCH   2   3
ENDBRANCH   1   2
BRANCH   1  17
ATOM     17  C   UNL A   1      31.664  26.265  26.491  1.00  0.00     0.188 C 
BRANCH  17  18
ATOM     18  O   UNL A   1      32.255  27.486  26.080  1.00  0.00    -0.376 OA
BRANCH  18  19
ATOM     19  C   UNL A   1      31.408  28.570  25.711  1.00  0.00     0.202 C 
BRANCH  19  20
ATOM     20  C   UNL A   1      31.840  30.018  26.005  1.00  0.00     0.261 C 
BRANCH  20  21
ATOM     21  O   UNL A   1      32.513  30.224  27.264  1.00  0.00    -0.460 OA
BRANCH  21  22
ATOM     22  C   UNL A   1      33.246  31.353  27.356  1.00  0.00     0.338 C 
ATOM     23  O   UNL A   1      32.839  32.511  27.287  1.00  0.00    -0.246 OA
BRANCH  22  24
ATOM     24  C   UNL A   1      34.651  31.055  27.685  1.00  0.00     0.060 A 
ATOM     25  C   UNL A   1      35.014  29.718  27.909  1.00  0.00     0.016 A 
ATOM     26  C   UNL A   1      35.561  32.083  27.933  1.00  0.00     0.016 A 
ATOM     27  C   UNL A   1      36.271  29.410  28.436  1.00  0.00     0.010 A 
ATOM     28  C   UNL A   1      36.813  31.774  28.478  1.00  0.00     0.010 A 
ATOM     29  C   UNL A   1      37.157  30.441  28.774  1.00  0.00    -0.014 A 
BRANCH  29  30
ATOM     30  C   UNL A   1      38.341  30.160  29.627  1.00  0.00     0.031 A 
ATOM     31  C   UNL A   1      39.400  29.228  29.104  1.00  0.00     0.074 A 
ATOM     32  C   UNL A   1      38.481  30.707  30.847  1.00  0.00     0.049 A 
ATOM     33  N   UNL A   1      40.457  28.742  29.706  1.00  0.00    -0.248 NA
ATOM     34  C   UNL A   1      39.239  28.778  27.713  1.00  0.00     0.031 C 
ATOM     35  C   UNL A   1      37.555  31.657  31.453  1.00  0.00     0.029 A 
ATOM     36  N   UNL A   1      39.452  30.524  31.800  1.00  0.00    -0.354 N 
ATOM     37  C   UNL A   1      41.073  27.916  28.776  1.00  0.00     0.074 A 
ATOM     38  C   UNL A   1      40.266  27.953  27.575  1.00  0.00     0.031 C 
ATOM     39  C   UNL A   1      37.996  31.969  32.684  1.00  0.00     0.029 A 
ATOM     40  C   UNL A   1      39.207  31.199  32.970  1.00  0.00     0.049 A 
ATOM     41  H   UNL A   1      40.248  29.962  31.659  1.00  0.00     0.167 HD
ATOM     42  C   UNL A   1      42.208  27.188  28.911  1.00  0.00     0.037 A 
ATOM     43  C   UNL A   1      39.863  31.169  34.147  1.00  0.00     0.037 A 
ATOM     44  C   UNL A   1      43.010  27.146  30.105  1.00  0.00     0.049 A 
ATOM     45  C   UNL A   1      41.083  30.293  34.300  1.00  0.00     0.074 A 
ATOM     46  C   UNL A   1      44.181  26.443  30.334  1.00  0.00     0.029 A 
ATOM     47  N   UNL A   1      42.717  27.827  31.277  1.00  0.00    -0.354 N 
ATOM     48  N   UNL A   1      41.664  29.519  33.417  1.00  0.00    -0.248 NA
ATOM     49  C   UNL A   1      41.734  30.285  35.619  1.00  0.00     0.031 C 
ATOM     50  C   UNL A   1      44.568  26.659  31.661  1.00  0.00     0.029 A 
ATOM     51  C   UNL A   1      43.672  27.543  32.240  1.00  0.00     0.049 A 
ATOM     52  H   UNL A   1      41.945  28.424  31.405  1.00  0.00     0.167 HD
ATOM     53  C   UNL A   1      42.761  28.958  34.059  1.00  0.00     0.074 A 
ATOM     54  C   UNL A   1      42.770  29.486  35.408  1.00  0.00     0.031 C 
ATOM     55  C   UNL A   1      43.681  28.087  33.574  1.00  0.00     0.037 A 
BRANCH  42  56
ATOM     56  C   UNL A   1      42.626  26.343  27.743  1.00  0.00     0.064 A 
ATOM     57  C   UNL A   1      42.090  25.063  27.527  1.00  0.00     0.173 A 
ATOM     58  C   UNL A   1      43.565  26.826  26.820  1.00  0.00     0.173 A 
ATOM     59  F   UNL A   1      41.200  24.550  28.389  1.00  0.00    -0.203 F 
ATOM     60  C   UNL A   1      42.505  24.289  26.446  1.00  0.00     0.198 A 
ATOM     61  C   UNL A   1      43.953  26.060  25.725  1.00  0.00     0.198 A 
ATOM     62  F   UNL A   1      44.104  28.044  26.978  1.00  0.00    -0.203 F 
ATOM     63  F   UNL A   1      42.020  23.048  26.291  1.00  0.00    -0.200 F 
ATOM     64  C   UNL A   1      43.430  24.789  25.544  1.00  0.00     0.200 A 
ATOM     65  F   UNL A   1      44.838  26.551  24.845  1.00  0.00    -0.200 F 
ATOM     66  F   UNL A   1      43.825  24.042  24.504  1.00  0.00    -0.200 F 
ENDBRANCH  42  56
BRANCH  43  67
ATOM     67  C   UNL A   1      39.368  31.976  35.293  1.00  0.00     0.064 A 
ATOM     68  C   UNL A   1      38.526  31.414  36.263  1.00  0.00     0.173 A 
ATOM     69  C   UNL A   1      39.709  33.330  35.431  1.00  0.00     0.173 A 
ATOM     70  F   UNL A   1      38.146  30.132  36.156  1.00  0.00    -0.203 F 
ATOM     71  C   UNL A   1      38.032  32.178  37.318  1.00  0.00     0.198 A 
ATOM     72  C   UNL A   1      39.238  34.086  36.502  1.00  0.00     0.198 A 
ATOM     73  F   UNL A   1      40.503  33.919  34.525  1.00  0.00    -0.203 F 
ATOM     74  F   UNL A   1      37.191  31.628  38.204  1.00  0.00    -0.200 F 
ATOM     75  C   UNL A   1      38.394  33.511  37.441  1.00  0.00     0.200 A 
ATOM     76  F   UNL A   1      39.594  35.372  36.621  1.00  0.00    -0.200 F 
ATOM     77  F   UNL A   1      37.920  34.245  38.457  1.00  0.00    -0.200 F 
ENDBRANCH  43  67
BRANCH  55  78
ATOM     78  C   UNL A   1      44.809  27.685  34.482  1.00  0.00     0.064 A 
ATOM     79  C   UNL A   1      44.740  26.541  35.289  1.00  0.00     0.173 A 
ATOM     80  C   UNL A   1      46.002  28.427  34.496  1.00  0.00     0.173 A 
ATOM     81  F   UNL A   1      43.619  25.804  35.321  1.00  0.00    -0.203 F 
ATOM     82  C   UNL A   1      45.815  26.164  36.092  1.00  0.00     0.198 A 
ATOM     83  C   UNL A   1      47.084  28.032  35.277  1.00  0.00     0.198 A 
ATOM     84  F   UNL A   1      46.124  29.526  33.737  1.00  0.00    -0.203 F 
ATOM     85  F   UNL A   1      45.713  25.089  36.886  1.00  0.00    -0.200 F 
ATOM     86  C   UNL A   1      46.988  26.904  36.079  1.00  0.00     0.200 A 
ATOM     87  F   UNL A   1      48.221  28.739  35.251  1.00  0.00    -0.200 F 
ATOM     88  F   UNL A   1      48.025  26.534  36.843  1.00  0.00    -0.200 F 
ENDBRANCH  55  78
ENDBRANCH  29  30
ENDBRANCH  22  24
ENDBRANCH  21  22
ENDBRANCH  20  21
ENDBRANCH  19  20
ENDBRANCH  18  19
ENDBRANCH  17  18
ENDBRANCH   1  17
TORSDOF 20
ENDMDL
MODEL 2
REMARK VINA RESULT:      -9.9      4.162      9.239
REMARK SMILES O=C(COC[C@@H]1CCCCO1)OCCOCCOCCOC(=O)c1ccc(-c2c3nc(c(-c4c(F)c(F)c(F)c(F)c4F)c4ccc([nH]4)c(-c4c(F)c(F)c(F)c(F)c4F)c4nc(c(-c5c(F)c(F)c(F)c(F)c5F)c5ccc2[nH]5)C=C4)C=C3)cc1
REMARK SMILES IDX 16 1 15 2 14 3 13 4 12 5 2 6 1 7 3 8 4 9 5 10 6 11 7 12
REMARK SMILES IDX 11 13 8 14 10 15 9 16 17 17 18 18 19 19 20 20 21 21 22 22
REMARK SMILES IDX 23 23 24 24 25 25 86 26 26 27 85 28 27 29 28 30 29 31 79 32
REMARK SMILES IDX 30 33 84 34 78 35 80 36 31 37 83 38 77 39 76 40 32 42 64 43
REMARK SMILES IDX 44 44 63 45 45 46 48 47 62 48 81 49 46 50 47 51 61 53 82 54
REMARK SMILES IDX 49 55 33 56 34 57 42 58 35 59 36 60 40 61 43 62 37 63 38 64
REMARK SMILES IDX 41 65 39 66 65 67 66 68 74 69 67 70 68 71 72 72 75 73 69 74
REMARK SMILES IDX 70 75 73 76 71 77 50 78 51 79 59 80 52 81 53 82 57 83 60 84
REMARK SMILES IDX 54 85 55 86 58 87 56 88
REMARK H PARENT 80 41 48 52
REMARK Flexibility Score: inf
ROOT
ATOM      1  C   UNL A   1      40.875  19.688  26.383  1.00  0.00     0.188 C 
ENDROOT
BRANCH   1   2
ATOM      2  O   UNL A   1      40.560  20.955  26.907  1.00  0.00    -0.376 OA
BRANCH   2   3
ATOM      3  C   UNL A   1      39.730  21.887  26.236  1.00  0.00     0.202 C 
BRANCH   3   4
ATOM      4  C   UNL A   1      38.258  21.647  25.843  1.00  0.00     0.261 C 
BRANCH   4   5
ATOM      5  O   UNL A   1      37.371  22.768  25.797  1.00  0.00    -0.462 OA
BRANCH   5   6
ATOM      6  C   UNL A   1      36.049  22.556  25.535  1.00  0.00     0.332 C 
ATOM      7  O   UNL A   1      35.184  23.275  26.027  1.00  0.00    -0.250 OA
BRANCH   6   8
ATOM      8  C   UNL A   1      35.737  21.222  24.840  1.00  0.00     0.282 C 
BRANCH   8   9
ATOM      9  O   UNL A   1      34.458  20.910  24.358  1.00  0.00    -0.367 OA
BRANCH   9  10
ATOM     10  C   UNL A   1      33.768  19.909  25.091  1.00  0.00     0.193 C 
BRANCH  10  11
ATOM     11  C   UNL A   1      33.253  18.652  24.326  1.00  0.00     0.144 C 
ATOM     12  C   UNL A   1      32.213  17.849  25.107  1.00  0.00     0.034 C 
ATOM     13  O   UNL A   1      34.227  17.860  23.650  1.00  0.00    -0.376 OA
ATOM     14  C   UNL A   1      32.843  16.789  25.984  1.00  0.00     0.005 C 
ATOM     15  C   UNL A   1      34.657  16.622  24.202  1.00  0.00     0.160 C 
ATOM     16  C   UNL A   1      33.703  15.880  25.129  1.00  0.00     0.029 C 
ENDBRANCH  10  11
ENDBRANCH   9  10
ENDBRANCH   8   9
ENDBRANCH   6   8
ENDBRANCH   5   6
ENDBRANCH   4   5
ENDBRANCH   3   4
ENDBRANCH   2   3
ENDBRANCH   1   2
BRANCH   1  17
ATOM     17  C   UNL A   1      42.370  19.434  26.136  1.00  0.00     0.188 C 
BRANCH  17  18
ATOM     18  O   UNL A   1      43.035  20.149  25.108  1.00  0.00    -0.376 OA
BRANCH  18  19
ATOM     19  C   UNL A   1      44.385  20.555  25.314  1.00  0.00     0.202 C 
BRANCH  19  20
ATOM     20  C   UNL A   1      44.757  22.047  25.251  1.00  0.00     0.261 C 
BRANCH  20  21
ATOM     21  O   UNL A   1      43.660  22.970  25.406  1.00  0.00    -0.460 OA
BRANCH  21  22
ATOM     22  C   UNL A   1      43.960  24.272  25.211  1.00  0.00     0.338 C 
ATOM     23  O   UNL A   1      44.766  24.735  24.407  1.00  0.00    -0.246 OA
BRANCH  22  24
ATOM     24  C   UNL A   1      43.092  25.148  26.017  1.00  0.00     0.060 A 
ATOM     25  C   UNL A   1      43.222  26.537  25.865  1.00  0.00     0.016 A 
ATOM     26  C   UNL A   1      42.283  24.623  27.025  1.00  0.00     0.016 A 
ATOM     27  C   UNL A   1      42.587  27.405  26.757  1.00  0.00     0.010 A 
ATOM     28  C   UNL A   1      41.662  25.493  27.928  1.00  0.00     0.010 A 
ATOM     29  C   UNL A   1      41.846  26.885  27.826  1.00  0.00    -0.014 A 
BRANCH  29  30
ATOM     30  C   UNL A   1      41.446  27.764  28.956  1.00  0.00     0.031 A 
ATOM     31  C   UNL A   1      42.213  27.673  30.247  1.00  0.00     0.074 A 
ATOM     32  C   UNL A   1      40.416  28.622  28.854  1.00  0.00     0.049 A 
ATOM     33  N   UNL A   1      41.980  28.247  31.400  1.00  0.00    -0.248 NA
ATOM     34  C   UNL A   1      43.404  26.810  30.234  1.00  0.00     0.031 C 
ATOM     35  C   UNL A   1      39.619  28.841  27.652  1.00  0.00     0.029 A 
ATOM     36  N   UNL A   1      39.856  29.457  29.789  1.00  0.00    -0.354 N 
ATOM     37  C   UNL A   1      42.980  27.799  32.253  1.00  0.00     0.074 A 
ATOM     38  C   UNL A   1      43.813  26.895  31.491  1.00  0.00     0.031 C 
ATOM     39  C   UNL A   1      38.663  29.746  27.923  1.00  0.00     0.029 A 
ATOM     40  C   UNL A   1      38.749  30.130  29.332  1.00  0.00     0.049 A 
ATOM     41  H   UNL A   1      40.213  29.564  30.700  1.00  0.00     0.167 HD
ATOM     42  C   UNL A   1      43.184  28.111  33.556  1.00  0.00     0.037 A 
ATOM     43  C   UNL A   1      37.885  30.930  29.986  1.00  0.00     0.037 A 
ATOM     44  C   UNL A   1      42.354  29.007  34.317  1.00  0.00     0.049 A 
ATOM     45  C   UNL A   1      38.087  31.204  31.457  1.00  0.00     0.074 A 
ATOM     46  C   UNL A   1      42.485  29.390  35.641  1.00  0.00     0.029 A 
ATOM     47  N   UNL A   1      41.229  29.651  33.824  1.00  0.00    -0.354 N 
ATOM     48  N   UNL A   1      39.036  30.784  32.256  1.00  0.00    -0.248 NA
ATOM     49  C   UNL A   1      37.091  32.063  32.116  1.00  0.00     0.031 C 
ATOM     50  C   UNL A   1      41.411  30.226  35.963  1.00  0.00     0.029 A 
ATOM     51  C   UNL A   1      40.644  30.411  34.825  1.00  0.00     0.049 A 
ATOM     52  H   UNL A   1      40.896  29.579  32.901  1.00  0.00     0.167 HD
ATOM     53  C   UNL A   1      38.771  31.348  33.499  1.00  0.00     0.074 A 
ATOM     54  C   UNL A   1      37.574  32.148  33.347  1.00  0.00     0.031 C 
ATOM     55  C   UNL A   1      39.461  31.218  34.659  1.00  0.00     0.037 A 
BRANCH  42  56
ATOM     56  C   UNL A   1      44.332  27.441  34.251  1.00  0.00     0.064 A 
ATOM     57  C   UNL A   1      44.188  26.198  34.888  1.00  0.00     0.173 A 
ATOM     58  C   UNL A   1      45.599  28.044  34.268  1.00  0.00     0.173 A 
ATOM     59  F   UNL A   1      42.994  25.588  34.913  1.00  0.00    -0.203 F 
ATOM     60  C   UNL A   1      45.263  25.602  35.543  1.00  0.00     0.198 A 
ATOM     61  C   UNL A   1      46.677  27.429  34.897  1.00  0.00     0.198 A 
ATOM     62  F   UNL A   1      45.791  29.229  33.670  1.00  0.00    -0.203 F 
ATOM     63  F   UNL A   1      45.088  24.442  36.192  1.00  0.00    -0.200 F 
ATOM     64  C   UNL A   1      46.506  26.215  35.542  1.00  0.00     0.200 A 
ATOM     65  F   UNL A   1      47.882  28.017  34.884  1.00  0.00    -0.200 F 
ATOM     66  F   UNL A   1      47.539  25.637  36.171  1.00  0.00    -0.200 F 
ENDBRANCH  42  56
BRANCH  43  67
ATOM     67  C   UNL A   1      36.725  31.516  29.264  1.00  0.00     0.064 A 
ATOM     68  C   UNL A   1      36.684  32.881  28.949  1.00  0.00     0.173 A 
ATOM     69  C   UNL A   1      35.625  30.728  28.893  1.00  0.00     0.173 A 
ATOM     70  F   UNL A   1      37.696  33.682  29.312  1.00  0.00    -0.203 F 
ATOM     71  C   UNL A   1      35.581  33.438  28.305  1.00  0.00     0.198 A 
ATOM     72  C   UNL A   1      34.536  31.279  28.223  1.00  0.00     0.198 A 
ATOM     73  F   UNL A   1      35.611  29.417  29.180  1.00  0.00    -0.203 F 
ATOM     74  F   UNL A   1      35.546  34.756  28.059  1.00  0.00    -0.200 F 
ATOM     75  C   UNL A   1      34.512  32.636  27.936  1.00  0.00     0.200 A 
ATOM     76  F   UNL A   1      33.507  30.500  27.863  1.00  0.00    -0.200 F 
ATOM     77  F   UNL A   1      33.452  33.173  27.315  1.00  0.00    -0.200 F 
ENDBRANCH  43  67
BRANCH  55  78
ATOM     78  C   UNL A   1      38.977  31.995  35.850  1.00  0.00     0.064 A 
ATOM     79  C   UNL A   1      38.161  31.416  36.833  1.00  0.00     0.173 A 
ATOM     80  C   UNL A   1      39.387  33.325  36.039  1.00  0.00     0.173 A 
ATOM     81  F   UNL A   1      37.731  30.153  36.694  1.00  0.00    -0.203 F 
ATOM     82  C   UNL A   1      37.759  32.145  37.950  1.00  0.00     0.198 A 
ATOM     83  C   UNL A   1      39.007  34.041  37.171  1.00  0.00     0.198 A 
ATOM     84  F   UNL A   1      40.175  33.925  35.133  1.00  0.00    -0.203 F 
ATOM     85  F   UNL A   1      36.946  31.584  38.857  1.00  0.00    -0.200 F 
ATOM     86  C   UNL A   1      38.188  33.452  38.123  1.00  0.00     0.200 A 
ATOM     87  F   UNL A   1      39.437  35.298  37.342  1.00  0.00    -0.200 F 
ATOM     88  F   UNL A   1      37.810  34.147  39.204  1.00  0.00    -0.200 F 
ENDBRANCH  55  78
ENDBRANCH  29  30
ENDBRANCH  22  24
ENDBRANCH  21  22
ENDBRANCH  20  21
ENDBRANCH  19  20
ENDBRANCH  18  19
ENDBRANCH  17  18
ENDBRANCH   1  17
TORSDOF 20
ENDMDL
MODEL 3
REMARK VINA RESULT:      -9.7      3.675      8.488
REMARK SMILES O=C(COC[C@@H]1CCCCO1)OCCOCCOCCOC(=O)c1ccc(-c2c3nc(c(-c4c(F)c(F)c(F)c(F)c4F)c4ccc([nH]4)c(-c4c(F)c(F)c(F)c(F)c4F)c4nc(c(-c5c(F)c(F)c(F)c(F)c5F)c5ccc2[nH]5)C=C4)C=C3)cc1
REMARK SMILES IDX 16 1 15 2 14 3 13 4 12 5 2 6 1 7 3 8 4 9 5 10 6 11 7 12
REMARK SMILES IDX 11 13 8 14 10 15 9 16 17 17 18 18 19 19 20 20 21 21 22 22
REMARK SMILES IDX 23 23 24 24 25 25 86 26 26 27 85 28 27 29 28 30 29 31 79 32
REMARK SMILES IDX 30 33 84 34 78 35 80 36 31 37 83 38 77 39 76 40 32 42 64 43
REMARK SMILES IDX 44 44 63 45 45 46 48 47 62 48 81 49 46 50 47 51 61 53 82 54
REMARK SMILES IDX 49 55 33 56 34 57 42 58 35 59 36 60 40 61 43 62 37 63 38 64
REMARK SMILES IDX 41 65 39 66 65 67 66 68 74 69 67 70 68 71 72 72 75 73 69 74
REMARK SMILES IDX 70 75 73 76 71 77 50 78 51 79 59 80 52 81 53 82 57 83 60 84
REMARK SMILES IDX 54 85 55 86 58 87 56 88
REMARK H PARENT 80 41 48 52
REMARK Flexibility Score: inf
ROOT
ATOM      1  C   UNL A   1      40.868  19.958  27.025  1.00  0.00     0.188 C 
ENDROOT
BRANCH   1   2
ATOM      2  O   UNL A   1      40.356  21.214  27.399  1.00  0.00    -0.376 OA
BRANCH   2   3
ATOM      3  C   UNL A   1      39.747  22.108  26.484  1.00  0.00     0.202 C 
BRANCH   3   4
ATOM      4  C   UNL A   1      38.437  21.842  25.716  1.00  0.00     0.261 C 
BRANCH   4   5
ATOM      5  O   UNL A   1      37.234  22.461  26.180  1.00  0.00    -0.462 OA
BRANCH   5   6
ATOM      6  C   UNL A   1      36.033  21.996  25.731  1.00  0.00     0.332 C 
ATOM      7  O   UNL A   1      35.975  21.101  24.893  1.00  0.00    -0.250 OA
BRANCH   6   8
ATOM      8  C   UNL A   1      34.822  22.853  26.130  1.00  0.00     0.282 C 
BRANCH   8   9
ATOM      9  O   UNL A   1      34.202  23.736  25.234  1.00  0.00    -0.367 OA
BRANCH   9  10
ATOM     10  C   UNL A   1      33.409  24.746  25.839  1.00  0.00     0.193 C 
BRANCH  10  11
ATOM     11  C   UNL A   1      31.882  24.485  26.014  1.00  0.00     0.144 C 
ATOM     12  C   UNL A   1      31.236  23.820  24.798  1.00  0.00     0.034 C 
ATOM     13  O   UNL A   1      31.107  25.528  26.599  1.00  0.00    -0.376 OA
ATOM     14  C   UNL A   1      30.727  24.830  23.793  1.00  0.00     0.005 C 
ATOM     15  C   UNL A   1      30.276  26.349  25.789  1.00  0.00     0.160 C 
ATOM     16  C   UNL A   1      29.757  25.772  24.478  1.00  0.00     0.029 C 
ENDBRANCH  10  11
ENDBRANCH   9  10
ENDBRANCH   8   9
ENDBRANCH   6   8
ENDBRANCH   5   6
ENDBRANCH   4   5
ENDBRANCH   3   4
ENDBRANCH   2   3
ENDBRANCH   1   2
BRANCH   1  17
ATOM     17  C   UNL A   1      42.373  19.930  26.716  1.00  0.00     0.188 C 
BRANCH  17  18
ATOM     18  O   UNL A   1      42.813  20.130  25.384  1.00  0.00    -0.376 OA
BRANCH  18  19
ATOM     19  C   UNL A   1      44.157  20.543  25.157  1.00  0.00     0.202 C 
BRANCH  19  20
ATOM     20  C   UNL A   1      44.456  21.996  24.748  1.00  0.00     0.261 C 
BRANCH  20  21
ATOM     21  O   UNL A   1      43.552  22.990  25.272  1.00  0.00    -0.460 OA
BRANCH  21  22
ATOM     22  C   UNL A   1      44.002  24.262  25.246  1.00  0.00     0.338 C 
ATOM     23  O   UNL A   1      44.937  24.705  24.582  1.00  0.00    -0.246 OA
BRANCH  22  24
ATOM     24  C   UNL A   1      43.143  25.152  26.045  1.00  0.00     0.060 A 
ATOM     25  C   UNL A   1      43.320  26.538  25.920  1.00  0.00     0.016 A 
ATOM     26  C   UNL A   1      42.293  24.636  27.024  1.00  0.00     0.016 A 
ATOM     27  C   UNL A   1      42.690  27.411  26.811  1.00  0.00     0.010 A 
ATOM     28  C   UNL A   1      41.677  25.511  27.927  1.00  0.00     0.010 A 
ATOM     29  C   UNL A   1      41.907  26.898  27.853  1.00  0.00    -0.014 A 
BRANCH  29  30
ATOM     30  C   UNL A   1      41.506  27.770  28.988  1.00  0.00     0.031 A 
ATOM     31  C   UNL A   1      42.289  27.690  30.270  1.00  0.00     0.074 A 
ATOM     32  C   UNL A   1      40.463  28.613  28.898  1.00  0.00     0.049 A 
ATOM     33  N   UNL A   1      42.061  28.260  31.426  1.00  0.00    -0.248 NA
ATOM     34  C   UNL A   1      43.493  26.844  30.243  1.00  0.00     0.031 C 
ATOM     35  C   UNL A   1      39.650  28.821  27.705  1.00  0.00     0.029 A 
ATOM     36  N   UNL A   1      39.901  29.440  29.839  1.00  0.00    -0.354 N 
ATOM     37  C   UNL A   1      43.076  27.827  32.267  1.00  0.00     0.074 A 
ATOM     38  C   UNL A   1      43.915  26.935  31.496  1.00  0.00     0.031 C 
ATOM     39  C   UNL A   1      38.684  29.711  27.987  1.00  0.00     0.029 A 
ATOM     40  C   UNL A   1      38.780  30.096  29.395  1.00  0.00     0.049 A 
ATOM     41  H   UNL A   1      40.267  29.552  30.746  1.00  0.00     0.167 HD
ATOM     42  C   UNL A   1      43.290  28.142  33.568  1.00  0.00     0.037 A 
ATOM     43  C   UNL A   1      37.912  30.884  30.059  1.00  0.00     0.037 A 
ATOM     44  C   UNL A   1      42.456  29.024  34.339  1.00  0.00     0.049 A 
ATOM     45  C   UNL A   1      38.126  31.160  31.527  1.00  0.00     0.074 A 
ATOM     46  C   UNL A   1      42.596  29.409  35.662  1.00  0.00     0.029 A 
ATOM     47  N   UNL A   1      41.316  29.653  33.859  1.00  0.00    -0.354 N 
ATOM     48  N   UNL A   1      39.090  30.753  32.316  1.00  0.00    -0.248 NA
ATOM     49  C   UNL A   1      37.124  32.004  32.198  1.00  0.00     0.031 C 
ATOM     50  C   UNL A   1      41.514  30.229  35.996  1.00  0.00     0.029 A 
ATOM     51  C   UNL A   1      40.731  30.403  34.866  1.00  0.00     0.049 A 
ATOM     52  H   UNL A   1      40.974  29.576  32.940  1.00  0.00     0.167 HD
ATOM     53  C   UNL A   1      38.831  31.313  33.562  1.00  0.00     0.074 A 
ATOM     54  C   UNL A   1      37.620  32.096  33.424  1.00  0.00     0.031 C 
ATOM     55  C   UNL A   1      39.535  31.193  34.714  1.00  0.00     0.037 A 
BRANCH  42  56
ATOM     56  C   UNL A   1      44.456  27.488  34.250  1.00  0.00     0.064 A 
ATOM     57  C   UNL A   1      44.339  26.240  34.882  1.00  0.00     0.173 A 
ATOM     58  C   UNL A   1      45.712  28.114  34.261  1.00  0.00     0.173 A 
ATOM     59  F   UNL A   1      43.157  25.608  34.913  1.00  0.00    -0.203 F 
ATOM     60  C   UNL A   1      45.430  25.659  35.525  1.00  0.00     0.198 A 
ATOM     61  C   UNL A   1      46.806  27.514  34.877  1.00  0.00     0.198 A 
ATOM     62  F   UNL A   1      45.879  29.305  33.667  1.00  0.00    -0.203 F 
ATOM     63  F   UNL A   1      45.281  24.492  36.168  1.00  0.00    -0.200 F 
ATOM     64  C   UNL A   1      46.662  26.294  35.517  1.00  0.00     0.200 A 
ATOM     65  F   UNL A   1      48.001  28.124  34.857  1.00  0.00    -0.200 F 
ATOM     66  F   UNL A   1      47.710  25.731  36.134  1.00  0.00    -0.200 F 
ENDBRANCH  42  56
BRANCH  43  67
ATOM     67  C   UNL A   1      36.735  31.453  29.350  1.00  0.00     0.064 A 
ATOM     68  C   UNL A   1      35.648  30.644  28.988  1.00  0.00     0.173 A 
ATOM     69  C   UNL A   1      36.682  32.811  29.002  1.00  0.00     0.173 A 
ATOM     70  F   UNL A   1      35.667  29.333  29.270  1.00  0.00    -0.203 F 
ATOM     71  C   UNL A   1      34.561  31.168  28.292  1.00  0.00     0.198 A 
ATOM     72  C   UNL A   1      35.581  33.340  28.332  1.00  0.00     0.198 A 
ATOM     73  F   UNL A   1      37.700  33.625  29.317  1.00  0.00    -0.203 F 
ATOM     74  F   UNL A   1      33.558  30.363  27.916  1.00  0.00    -0.200 F 
ATOM     75  C   UNL A   1      34.525  32.517  27.971  1.00  0.00     0.200 A 
ATOM     76  F   UNL A   1      35.547  34.645  28.029  1.00  0.00    -0.200 F 
ATOM     77  F   UNL A   1      33.478  33.021  27.303  1.00  0.00    -0.200 F 
ENDBRANCH  43  67
BRANCH  55  78
ATOM     78  C   UNL A   1      39.053  31.962  35.911  1.00  0.00     0.064 A 
ATOM     79  C   UNL A   1      39.412  33.300  36.128  1.00  0.00     0.173 A 
ATOM     80  C   UNL A   1      38.167  31.365  36.824  1.00  0.00     0.173 A 
ATOM     81  F   UNL A   1      40.265  33.913  35.294  1.00  0.00    -0.203 F 
ATOM     82  C   UNL A   1      38.919  34.006  37.224  1.00  0.00     0.198 A 
ATOM     83  C   UNL A   1      37.654  32.082  37.901  1.00  0.00     0.198 A 
ATOM     84  F   UNL A   1      37.785  30.090  36.659  1.00  0.00    -0.203 F 
ATOM     85  F   UNL A   1      39.308  35.271  37.434  1.00  0.00    -0.200 F 
ATOM     86  C   UNL A   1      38.035  33.399  38.104  1.00  0.00     0.200 A 
ATOM     87  F   UNL A   1      36.788  31.499  38.740  1.00  0.00    -0.200 F 
ATOM     88  F   UNL A   1      37.552  34.084  39.150  1.00  0.00    -0.200 F 
ENDBRANCH  55  78
ENDBRANCH  29  30
ENDBRANCH  22  24
ENDBRANCH  21  22
ENDBRANCH  20  21
ENDBRANCH  19  20
ENDBRANCH  18  19
ENDBRANCH  17  18
ENDBRANCH   1  17
TORSDOF 20
ENDMDL
