MODEL 1
REMARK VINA RESULT:     -11.2      0.000      0.000
REMARK SMILES CC(C)[NH2+][C@@]1(C(=O)OCCOCCOCCOC(=O)c2ccc(-c3c4nc(c(-c5c(F)c(F)c(F)c(F)c5F)c5ccc([nH]5)c(-c5c(F)c(F)c(F)c(F)c5F)c5nc(c(-c6c(F)c(F)c(F)c(F)c6F)c6ccc3[nH]6)C=C5)C=C4)cc2)CCC[C@@H](Sc2nncn2C)C1
REMARK SMILES IDX 12 1 11 2 10 3 9 4 8 5 6 6 7 7 5 8 83 9 94 10 84 11 86 12
REMARK SMILES IDX 85 13 4 14 2 17 1 18 3 19 87 20 88 21 89 22 92 23 90 24
REMARK SMILES IDX 91 25 93 26 13 27 14 28 15 29 16 30 17 31 18 32 19 33 20 34
REMARK SMILES IDX 21 35 82 36 22 37 81 38 23 39 24 40 25 41 75 42 26 43 80 44
REMARK SMILES IDX 74 45 76 46 27 47 79 48 73 49 72 50 28 52 60 53 40 54 59 55
REMARK SMILES IDX 41 56 44 57 58 58 77 59 42 60 43 61 57 63 78 64 45 65 29 66
REMARK SMILES IDX 30 67 38 68 31 69 32 70 36 71 39 72 33 73 34 74 37 75 35 76
REMARK SMILES IDX 61 77 62 78 70 79 63 80 64 81 68 82 71 83 65 84 66 85 69 86
REMARK SMILES IDX 67 87 46 88 47 89 55 90 48 91 49 92 53 93 56 94 50 95 51 96
REMARK SMILES IDX 54 97 52 98
REMARK H PARENT 4 15 4 16 76 51 44 62
REMARK Flexibility Score: inf
ROOT
ATOM      1  C   UNL A   1      40.060  21.775  26.884  1.00  0.00     0.188 C 
ENDROOT
BRANCH   1   2
ATOM      2  O   UNL A   1      39.607  21.291  25.625  1.00  0.00    -0.376 OA
BRANCH   2   3
ATOM      3  C   UNL A   1      38.212  21.017  25.531  1.00  0.00     0.202 C 
BRANCH   3   4
ATOM      4  C   UNL A   1      37.405  22.174  24.947  1.00  0.00     0.261 C 
BRANCH   4   5
ATOM      5  O   UNL A   1      36.061  21.800  24.596  1.00  0.00    -0.459 OA
BRANCH   5   6
ATOM      6  C   UNL A   1      35.390  22.552  23.697  1.00  0.00     0.368 C 
ATOM      7  O   UNL A   1      35.946  23.194  22.812  1.00  0.00    -0.245 OA
BRANCH   6   8
ATOM      8  C   UNL A   1      33.838  22.563  23.954  1.00  0.00     0.195 C 
ATOM      9  C   UNL A   1      33.639  23.461  25.203  1.00  0.00     0.081 C 
ATOM     10  C   UNL A   1      33.123  21.213  24.266  1.00  0.00     0.096 C 
ATOM     11  C   UNL A   1      34.199  22.815  26.475  1.00  0.00     0.008 C 
ATOM     12  C   UNL A   1      33.645  20.528  25.545  1.00  0.00     0.061 C 
ATOM     13  C   UNL A   1      33.559  21.457  26.760  1.00  0.00     0.015 C 
BRANCH   8  14
ATOM     14  N   UNL A   1      33.138  23.228  22.807  1.00  0.00    -0.330 N 
ATOM     15  H   UNL A   1      33.844  23.483  22.116  1.00  0.00     0.347 HD
ATOM     16  H   UNL A   1      32.452  22.551  22.474  1.00  0.00     0.347 HD
BRANCH  14  17
ATOM     17  C   UNL A   1      32.371  24.439  23.136  1.00  0.00     0.176 C 
ATOM     18  C   UNL A   1      32.650  25.494  22.061  1.00  0.00     0.075 C 
ATOM     19  C   UNL A   1      30.860  24.168  23.193  1.00  0.00     0.075 C 
ENDBRANCH  14  17
ENDBRANCH   8  14
BRANCH  12  20
ATOM     20  S   UNL A   1      32.915  18.882  25.877  1.00  0.00    -0.082 SA
BRANCH  20  21
ATOM     21  C   UNL A   1      33.176  18.020  24.410  1.00  0.00     0.191 A 
ATOM     22  N   UNL A   1      32.528  18.184  23.281  1.00  0.00    -0.124 NA
ATOM     23  N   UNL A   1      34.151  17.080  24.246  1.00  0.00    -0.312 N 
ATOM     24  N   UNL A   1      33.089  17.334  22.352  1.00  0.00    -0.138 NA
ATOM     25  C   UNL A   1      34.064  16.685  22.946  1.00  0.00     0.226 A 
ATOM     26  C   UNL A   1      35.070  16.562  25.225  1.00  0.00     0.153 C 
ENDBRANCH  20  21
ENDBRANCH  12  20
ENDBRANCH   6   8
ENDBRANCH   5   6
ENDBRANCH   4   5
ENDBRANCH   3   4
ENDBRANCH   2   3
ENDBRANCH   1   2
BRANCH   1  27
ATOM     27  C   UNL A   1      41.309  21.061  27.418  1.00  0.00     0.188 C 
BRANCH  27  28
ATOM     28  O   UNL A   1      41.960  20.067  26.640  1.00  0.00    -0.376 OA
BRANCH  28  29
ATOM     29  C   UNL A   1      42.979  20.473  25.744  1.00  0.00     0.202 C 
BRANCH  29  30
ATOM     30  C   UNL A   1      43.549  21.880  25.942  1.00  0.00     0.261 C 
BRANCH  30  31
ATOM     31  O   UNL A   1      42.989  22.859  25.052  1.00  0.00    -0.460 OA
BRANCH  31  32
ATOM     32  C   UNL A   1      43.639  24.050  25.033  1.00  0.00     0.338 C 
ATOM     33  O   UNL A   1      44.593  24.364  24.346  1.00  0.00    -0.246 OA
BRANCH  32  34
ATOM     34  C   UNL A   1      42.923  25.021  25.891  1.00  0.00     0.060 A 
ATOM     35  C   UNL A   1      43.503  26.283  26.079  1.00  0.00     0.016 A 
ATOM     36  C   UNL A   1      41.742  24.681  26.552  1.00  0.00     0.016 A 
ATOM     37  C   UNL A   1      42.928  27.193  26.965  1.00  0.00     0.010 A 
ATOM     38  C   UNL A   1      41.180  25.583  27.461  1.00  0.00     0.010 A 
ATOM     39  C   UNL A   1      41.791  26.827  27.698  1.00  0.00    -0.014 A 
BRANCH  39  40
ATOM     40  C   UNL A   1      41.374  27.653  28.857  1.00  0.00     0.031 A 
ATOM     41  C   UNL A   1      42.169  27.552  30.129  1.00  0.00     0.074 A 
ATOM     42  C   UNL A   1      40.324  28.489  28.782  1.00  0.00     0.049 A 
ATOM     43  N   UNL A   1      41.973  28.138  31.283  1.00  0.00    -0.248 NA
ATOM     44  C   UNL A   1      43.342  26.664  30.096  1.00  0.00     0.031 C 
ATOM     45  C   UNL A   1      39.496  28.700  27.598  1.00  0.00     0.029 A 
ATOM     46  N   UNL A   1      39.778  29.317  29.731  1.00  0.00    -0.354 N 
ATOM     47  C   UNL A   1      42.990  27.683  32.112  1.00  0.00     0.074 A 
ATOM     48  C   UNL A   1      43.792  26.762  31.338  1.00  0.00     0.031 C 
ATOM     49  C   UNL A   1      38.549  29.609  27.887  1.00  0.00     0.029 A 
ATOM     50  C   UNL A   1      38.680  30.014  29.287  1.00  0.00     0.049 A 
ATOM     51  H   UNL A   1      40.139  29.404  30.642  1.00  0.00     0.167 HD
ATOM     52  C   UNL A   1      43.231  28.002  33.405  1.00  0.00     0.037 A 
ATOM     53  C   UNL A   1      37.868  30.862  29.947  1.00  0.00     0.037 A 
ATOM     54  C   UNL A   1      42.430  28.908  34.182  1.00  0.00     0.049 A 
ATOM     55  C   UNL A   1      38.127  31.158  31.403  1.00  0.00     0.074 A 
ATOM     56  C   UNL A   1      42.591  29.289  35.503  1.00  0.00     0.029 A 
ATOM     57  N   UNL A   1      41.310  29.573  33.707  1.00  0.00    -0.354 N 
ATOM     58  N   UNL A   1      39.093  30.729  32.179  1.00  0.00    -0.248 NA
ATOM     59  C   UNL A   1      37.175  32.054  32.077  1.00  0.00     0.031 C 
ATOM     60  C   UNL A   1      41.541  30.151  35.840  1.00  0.00     0.029 A 
ATOM     61  C   UNL A   1      40.755  30.345  34.715  1.00  0.00     0.049 A 
ATOM     62  H   UNL A   1      40.961  29.507  32.789  1.00  0.00     0.167 HD
ATOM     63  C   UNL A   1      38.875  31.313  33.420  1.00  0.00     0.074 A 
ATOM     64  C   UNL A   1      37.697  32.143  33.292  1.00  0.00     0.031 C 
ATOM     65  C   UNL A   1      39.585  31.170  34.567  1.00  0.00     0.037 A 
BRANCH  52  66
ATOM     66  C   UNL A   1      44.393  27.327  34.071  1.00  0.00     0.064 A 
ATOM     67  C   UNL A   1      44.237  26.137  34.797  1.00  0.00     0.173 A 
ATOM     68  C   UNL A   1      45.681  27.872  33.966  1.00  0.00     0.173 A 
ATOM     69  F   UNL A   1      43.022  25.588  34.941  1.00  0.00    -0.203 F 
ATOM     70  C   UNL A   1      45.328  25.530  35.416  1.00  0.00     0.198 A 
ATOM     71  C   UNL A   1      46.772  27.248  34.565  1.00  0.00     0.198 A 
ATOM     72  F   UNL A   1      45.882  29.009  33.283  1.00  0.00    -0.203 F 
ATOM     73  F   UNL A   1      45.149  24.419  36.143  1.00  0.00    -0.200 F 
ATOM     74  C   UNL A   1      46.594  26.083  35.295  1.00  0.00     0.200 A 
ATOM     75  F   UNL A   1      47.997  27.779  34.440  1.00  0.00    -0.200 F 
ATOM     76  F   UNL A   1      47.642  25.496  35.888  1.00  0.00    -0.200 F 
ENDBRANCH  52  66
BRANCH  53  77
ATOM     77  C   UNL A   1      36.713  31.484  29.247  1.00  0.00     0.064 A 
ATOM     78  C   UNL A   1      36.695  32.858  28.965  1.00  0.00     0.173 A 
ATOM     79  C   UNL A   1      35.592  30.728  28.877  1.00  0.00     0.173 A 
ATOM     80  F   UNL A   1      37.730  33.629  29.329  1.00  0.00    -0.203 F 
ATOM     81  C   UNL A   1      35.591  33.453  28.357  1.00  0.00     0.198 A 
ATOM     82  C   UNL A   1      34.501  31.319  28.243  1.00  0.00     0.198 A 
ATOM     83  F   UNL A   1      35.556  29.412  29.130  1.00  0.00    -0.203 F 
ATOM     84  F   UNL A   1      35.579  34.776  28.145  1.00  0.00    -0.200 F 
ATOM     85  C   UNL A   1      34.498  32.683  27.990  1.00  0.00     0.200 A 
ATOM     86  F   UNL A   1      33.451  30.570  27.883  1.00  0.00    -0.200 F 
ATOM     87  F   UNL A   1      33.438  33.255  27.406  1.00  0.00    -0.200 F 
ENDBRANCH  53  77
BRANCH  65  88
ATOM     88  C   UNL A   1      39.125  31.947  35.767  1.00  0.00     0.064 A 
ATOM     89  C   UNL A   1      39.488  33.288  35.957  1.00  0.00     0.173 A 
ATOM     90  C   UNL A   1      38.271  31.356  36.711  1.00  0.00     0.173 A 
ATOM     91  F   UNL A   1      40.312  33.894  35.089  1.00  0.00    -0.203 F 
ATOM     92  C   UNL A   1      39.030  34.003  37.062  1.00  0.00     0.198 A 
ATOM     93  C   UNL A   1      37.795  32.082  37.799  1.00  0.00     0.198 A 
ATOM     94  F   UNL A   1      37.888  30.079  36.570  1.00  0.00    -0.203 F 
ATOM     95  F   UNL A   1      39.423  35.271  37.245  1.00  0.00    -0.200 F 
ATOM     96  C   UNL A   1      38.180  33.402  37.977  1.00  0.00     0.200 A 
ATOM     97  F   UNL A   1      36.962  31.504  38.676  1.00  0.00    -0.200 F 
ATOM     98  F   UNL A   1      37.735  34.094  39.035  1.00  0.00    -0.200 F 
ENDBRANCH  65  88
ENDBRANCH  39  40
ENDBRANCH  32  34
ENDBRANCH  31  32
ENDBRANCH  30  31
ENDBRANCH  29  30
ENDBRANCH  28  29
ENDBRANCH  27  28
ENDBRANCH   1  27
TORSDOF 21
ENDMDL
MODEL 2
REMARK VINA RESULT:     -11.1      3.154      8.499
REMARK SMILES CC(C)[NH2+][C@@]1(C(=O)OCCOCCOCCOC(=O)c2ccc(-c3c4nc(c(-c5c(F)c(F)c(F)c(F)c5F)c5ccc([nH]5)c(-c5c(F)c(F)c(F)c(F)c5F)c5nc(c(-c6c(F)c(F)c(F)c(F)c6F)c6ccc3[nH]6)C=C5)C=C4)cc2)CCC[C@@H](Sc2nncn2C)C1
REMARK SMILES IDX 12 1 11 2 10 3 9 4 8 5 6 6 7 7 5 8 83 9 94 10 84 11 86 12
REMARK SMILES IDX 85 13 4 14 2 17 1 18 3 19 87 20 88 21 89 22 92 23 90 24
REMARK SMILES IDX 91 25 93 26 13 27 14 28 15 29 16 30 17 31 18 32 19 33 20 34
REMARK SMILES IDX 21 35 82 36 22 37 81 38 23 39 24 40 25 41 75 42 26 43 80 44
REMARK SMILES IDX 74 45 76 46 27 47 79 48 73 49 72 50 28 52 60 53 40 54 59 55
REMARK SMILES IDX 41 56 44 57 58 58 77 59 42 60 43 61 57 63 78 64 45 65 29 66
REMARK SMILES IDX 30 67 38 68 31 69 32 70 36 71 39 72 33 73 34 74 37 75 35 76
REMARK SMILES IDX 61 77 62 78 70 79 63 80 64 81 68 82 71 83 65 84 66 85 69 86
REMARK SMILES IDX 67 87 46 88 47 89 55 90 48 91 49 92 53 93 56 94 50 95 51 96
REMARK SMILES IDX 54 97 52 98
REMARK H PARENT 4 15 4 16 76 51 44 62
REMARK Flexibility Score: inf
ROOT
ATOM      1  C   UNL A   1      32.183  27.681  23.688  1.00  0.00     0.188 C 
ENDROOT
BRANCH   1   2
ATOM      2  O   UNL A   1      32.346  26.344  24.149  1.00  0.00    -0.376 OA
BRANCH   2   3
ATOM      3  C   UNL A   1      33.522  25.673  23.706  1.00  0.00     0.202 C 
BRANCH   3   4
ATOM      4  C   UNL A   1      33.233  24.465  22.819  1.00  0.00     0.261 C 
BRANCH   4   5
ATOM      5  O   UNL A   1      33.568  23.215  23.447  1.00  0.00    -0.459 OA
BRANCH   5   6
ATOM      6  C   UNL A   1      32.604  22.542  24.111  1.00  0.00     0.368 C 
ATOM      7  O   UNL A   1      31.483  23.000  24.311  1.00  0.00    -0.245 OA
BRANCH   6   8
ATOM      8  C   UNL A   1      33.097  21.148  24.648  1.00  0.00     0.195 C 
ATOM      9  C   UNL A   1      32.839  21.188  26.177  1.00  0.00     0.081 C 
ATOM     10  C   UNL A   1      34.597  20.766  24.466  1.00  0.00     0.096 C 
ATOM     11  C   UNL A   1      33.759  22.184  26.893  1.00  0.00     0.008 C 
ATOM     12  C   UNL A   1      35.563  21.733  25.179  1.00  0.00     0.061 C 
ATOM     13  C   UNL A   1      35.237  21.866  26.669  1.00  0.00     0.015 C 
BRANCH   8  14
ATOM     14  N   UNL A   1      32.245  20.054  24.079  1.00  0.00    -0.330 N 
ATOM     15  H   UNL A   1      31.445  19.928  24.698  1.00  0.00     0.347 HD
ATOM     16  H   UNL A   1      32.001  20.358  23.136  1.00  0.00     0.347 HD
BRANCH  14  17
ATOM     17  C   UNL A   1      32.899  18.748  23.916  1.00  0.00     0.176 C 
ATOM     18  C   UNL A   1      32.487  17.851  25.087  1.00  0.00     0.075 C 
ATOM     19  C   UNL A   1      32.504  18.064  22.598  1.00  0.00     0.075 C 
ENDBRANCH  14  17
ENDBRANCH   8  14
BRANCH  12  20
ATOM     20  S   UNL A   1      37.338  21.386  24.886  1.00  0.00    -0.082 SA
BRANCH  20  21
ATOM     21  C   UNL A   1      38.144  22.621  25.773  1.00  0.00     0.191 A 
ATOM     22  N   UNL A   1      37.739  23.859  25.934  1.00  0.00    -0.124 NA
ATOM     23  N   UNL A   1      39.301  22.423  26.468  1.00  0.00    -0.312 N 
ATOM     24  N   UNL A   1      38.649  24.491  26.755  1.00  0.00    -0.138 NA
ATOM     25  C   UNL A   1      39.575  23.614  27.070  1.00  0.00     0.226 A 
ATOM     26  C   UNL A   1      40.109  21.235  26.543  1.00  0.00     0.153 C 
ENDBRANCH  20  21
ENDBRANCH  12  20
ENDBRANCH   6   8
ENDBRANCH   5   6
ENDBRANCH   4   5
ENDBRANCH   3   4
ENDBRANCH   2   3
ENDBRANCH   1   2
BRANCH   1  27
ATOM     27  C   UNL A   1      31.681  28.657  24.760  1.00  0.00     0.188 C 
BRANCH  27  28
ATOM     28  O   UNL A   1      31.425  28.208  26.083  1.00  0.00    -0.376 OA
BRANCH  28  29
ATOM     29  C   UNL A   1      31.848  29.020  27.164  1.00  0.00     0.202 C 
BRANCH  29  30
ATOM     30  C   UNL A   1      32.050  30.508  26.868  1.00  0.00     0.261 C 
BRANCH  30  31
ATOM     31  O   UNL A   1      33.420  30.864  26.619  1.00  0.00    -0.460 OA
BRANCH  31  32
ATOM     32  C   UNL A   1      33.963  31.712  27.528  1.00  0.00     0.338 C 
ATOM     33  O   UNL A   1      33.433  32.671  28.056  1.00  0.00    -0.246 OA
BRANCH  32  34
ATOM     34  C   UNL A   1      35.300  31.221  27.930  1.00  0.00     0.060 A 
ATOM     35  C   UNL A   1      35.464  29.842  28.123  1.00  0.00     0.016 A 
ATOM     36  C   UNL A   1      36.357  32.098  28.179  1.00  0.00     0.016 A 
ATOM     37  C   UNL A   1      36.670  29.340  28.609  1.00  0.00     0.010 A 
ATOM     38  C   UNL A   1      37.558  31.598  28.693  1.00  0.00     0.010 A 
ATOM     39  C   UNL A   1      37.706  30.223  28.944  1.00  0.00    -0.014 A 
BRANCH  39  40
ATOM     40  C   UNL A   1      38.850  29.732  29.750  1.00  0.00     0.031 A 
ATOM     41  C   UNL A   1      39.014  30.256  31.150  1.00  0.00     0.074 A 
ATOM     42  C   UNL A   1      39.715  28.827  29.263  1.00  0.00     0.049 A 
ATOM     43  N   UNL A   1      39.955  30.011  32.026  1.00  0.00    -0.248 NA
ATOM     44  C   UNL A   1      37.979  31.190  31.622  1.00  0.00     0.031 C 
ATOM     45  C   UNL A   1      39.645  28.220  27.937  1.00  0.00     0.029 A 
ATOM     46  N   UNL A   1      40.829  28.263  29.836  1.00  0.00    -0.354 N 
ATOM     47  C   UNL A   1      39.630  30.765  33.146  1.00  0.00     0.074 A 
ATOM     48  C   UNL A   1      38.416  31.488  32.836  1.00  0.00     0.031 C 
ATOM     49  C   UNL A   1      40.667  27.357  27.799  1.00  0.00     0.029 A 
ATOM     50  C   UNL A   1      41.485  27.382  29.012  1.00  0.00     0.049 A 
ATOM     51  H   UNL A   1      41.127  28.469  30.751  1.00  0.00     0.167 HD
ATOM     52  C   UNL A   1      40.286  30.850  34.327  1.00  0.00     0.037 A 
ATOM     53  C   UNL A   1      42.627  26.694  29.212  1.00  0.00     0.037 A 
ATOM     54  C   UNL A   1      41.498  30.141  34.635  1.00  0.00     0.049 A 
ATOM     55  C   UNL A   1      43.368  26.849  30.517  1.00  0.00     0.074 A 
ATOM     56  C   UNL A   1      42.242  30.169  35.802  1.00  0.00     0.029 A 
ATOM     57  N   UNL A   1      42.149  29.280  33.766  1.00  0.00    -0.354 N 
ATOM     58  N   UNL A   1      43.052  27.559  31.572  1.00  0.00    -0.248 NA
ATOM     59  C   UNL A   1      44.632  26.109  30.652  1.00  0.00     0.031 C 
ATOM     60  C   UNL A   1      43.368  29.357  35.622  1.00  0.00     0.029 A 
ATOM     61  C   UNL A   1      43.299  28.786  34.361  1.00  0.00     0.049 A 
ATOM     62  H   UNL A   1      41.840  29.052  32.859  1.00  0.00     0.167 HD
ATOM     63  C   UNL A   1      44.063  27.339  32.499  1.00  0.00     0.074 A 
ATOM     64  C   UNL A   1      44.994  26.414  31.890  1.00  0.00     0.031 C 
ATOM     65  C   UNL A   1      44.211  27.861  33.742  1.00  0.00     0.037 A 
BRANCH  52  66
ATOM     66  C   UNL A   1      39.721  31.779  35.359  1.00  0.00     0.064 A 
ATOM     67  C   UNL A   1      38.722  31.367  36.253  1.00  0.00     0.173 A 
ATOM     68  C   UNL A   1      40.198  33.095  35.463  1.00  0.00     0.173 A 
ATOM     69  F   UNL A   1      38.222  30.125  36.180  1.00  0.00    -0.203 F 
ATOM     70  C   UNL A   1      38.203  32.248  37.200  1.00  0.00     0.198 A 
ATOM     71  C   UNL A   1      39.694  33.963  36.427  1.00  0.00     0.198 A 
ATOM     72  F   UNL A   1      41.152  33.536  34.630  1.00  0.00    -0.203 F 
ATOM     73  F   UNL A   1      37.217  31.848  38.014  1.00  0.00    -0.200 F 
ATOM     74  C   UNL A   1      38.693  33.542  37.289  1.00  0.00     0.200 A 
ATOM     75  F   UNL A   1      40.174  35.211  36.518  1.00  0.00    -0.200 F 
ATOM     76  F   UNL A   1      38.194  34.387  38.202  1.00  0.00    -0.200 F 
ENDBRANCH  52  66
BRANCH  53  77
ATOM     77  C   UNL A   1      43.159  25.806  28.145  1.00  0.00     0.064 A 
ATOM     78  C   UNL A   1      43.879  26.331  27.062  1.00  0.00     0.173 A 
ATOM     79  C   UNL A   1      42.930  24.424  28.167  1.00  0.00     0.173 A 
ATOM     80  F   UNL A   1      44.094  27.652  26.979  1.00  0.00    -0.203 F 
ATOM     81  C   UNL A   1      44.333  25.508  26.033  1.00  0.00     0.198 A 
ATOM     82  C   UNL A   1      43.410  23.597  27.153  1.00  0.00     0.198 A 
ATOM     83  F   UNL A   1      42.242  23.872  29.177  1.00  0.00    -0.203 F 
ATOM     84  F   UNL A   1      44.974  26.042  24.984  1.00  0.00    -0.200 F 
ATOM     85  C   UNL A   1      44.104  24.141  26.082  1.00  0.00     0.200 A 
ATOM     86  F   UNL A   1      43.193  22.277  27.208  1.00  0.00    -0.200 F 
ATOM     87  F   UNL A   1      44.540  23.350  25.093  1.00  0.00    -0.200 F 
ENDBRANCH  53  77
BRANCH  65  88
ATOM     88  C   UNL A   1      45.407  27.425  34.537  1.00  0.00     0.064 A 
ATOM     89  C   UNL A   1      46.611  28.143  34.506  1.00  0.00     0.173 A 
ATOM     90  C   UNL A   1      45.332  26.303  35.378  1.00  0.00     0.173 A 
ATOM     91  F   UNL A   1      46.738  29.214  33.708  1.00  0.00    -0.203 F 
ATOM     92  C   UNL A   1      47.704  27.741  35.270  1.00  0.00     0.198 A 
ATOM     93  C   UNL A   1      46.418  25.921  36.161  1.00  0.00     0.198 A 
ATOM     94  F   UNL A   1      44.200  25.588  35.451  1.00  0.00    -0.203 F 
ATOM     95  F   UNL A   1      48.859  28.418  35.193  1.00  0.00    -0.200 F 
ATOM     96  C   UNL A   1      47.605  26.636  36.101  1.00  0.00     0.200 A 
ATOM     97  F   UNL A   1      46.316  24.860  36.974  1.00  0.00    -0.200 F 
ATOM     98  F   UNL A   1      48.655  26.255  36.842  1.00  0.00    -0.200 F 
ENDBRANCH  65  88
ENDBRANCH  39  40
ENDBRANCH  32  34
ENDBRANCH  31  32
ENDBRANCH  30  31
ENDBRANCH  29  30
ENDBRANCH  28  29
ENDBRANCH  27  28
ENDBRANCH   1  27
TORSDOF 21
ENDMDL
MODEL 3
REMARK VINA RESULT:     -11.0      5.227      7.970
REMARK SMILES CC(C)[NH2+][C@@]1(C(=O)OCCOCCOCCOC(=O)c2ccc(-c3c4nc(c(-c5c(F)c(F)c(F)c(F)c5F)c5ccc([nH]5)c(-c5c(F)c(F)c(F)c(F)c5F)c5nc(c(-c6c(F)c(F)c(F)c(F)c6F)c6ccc3[nH]6)C=C5)C=C4)cc2)CCC[C@@H](Sc2nncn2C)C1
REMARK SMILES IDX 12 1 11 2 10 3 9 4 8 5 6 6 7 7 5 8 83 9 94 10 84 11 86 12
REMARK SMILES IDX 85 13 4 14 2 17 1 18 3 19 87 20 88 21 89 22 92 23 90 24
REMARK SMILES IDX 91 25 93 26 13 27 14 28 15 29 16 30 17 31 18 32 19 33 20 34
REMARK SMILES IDX 21 35 82 36 22 37 81 38 23 39 24 40 25 41 75 42 26 43 80 44
REMARK SMILES IDX 74 45 76 46 27 47 79 48 73 49 72 50 28 52 60 53 40 54 59 55
REMARK SMILES IDX 41 56 44 57 58 58 77 59 42 60 43 61 57 63 78 64 45 65 29 66
REMARK SMILES IDX 30 67 38 68 31 69 32 70 36 71 39 72 33 73 34 74 37 75 35 76
REMARK SMILES IDX 61 77 62 78 70 79 63 80 64 81 68 82 71 83 65 84 66 85 69 86
REMARK SMILES IDX 67 87 46 88 47 89 55 90 48 91 49 92 53 93 56 94 50 95 51 96
REMARK SMILES IDX 54 97 52 98
REMARK H PARENT 4 15 4 16 76 51 44 62
REMARK Flexibility Score: inf
ROOT
ATOM      1  C   UNL A   1      40.040  22.845  27.069  1.00  0.00     0.188 C 
ENDROOT
BRANCH   1   2
ATOM      2  O   UNL A   1      38.793  23.208  26.487  1.00  0.00    -0.376 OA
BRANCH   2   3
ATOM      3  C   UNL A   1      38.143  22.193  25.727  1.00  0.00     0.202 C 
BRANCH   3   4
ATOM      4  C   UNL A   1      36.630  22.159  25.930  1.00  0.00     0.261 C 
BRANCH   4   5
ATOM      5  O   UNL A   1      35.962  21.271  25.017  1.00  0.00    -0.459 OA
BRANCH   5   6
ATOM      6  C   UNL A   1      34.876  21.718  24.352  1.00  0.00     0.368 C 
ATOM      7  O   UNL A   1      34.932  22.580  23.479  1.00  0.00    -0.245 OA
BRANCH   6   8
ATOM      8  C   UNL A   1      33.539  21.064  24.862  1.00  0.00     0.195 C 
ATOM      9  C   UNL A   1      32.704  20.796  23.583  1.00  0.00     0.081 C 
ATOM     10  C   UNL A   1      32.623  21.886  25.819  1.00  0.00     0.096 C 
ATOM     11  C   UNL A   1      32.227  22.094  22.920  1.00  0.00     0.008 C 
ATOM     12  C   UNL A   1      32.108  23.198  25.194  1.00  0.00     0.061 C 
ATOM     13  C   UNL A   1      31.384  22.947  23.867  1.00  0.00     0.015 C 
BRANCH   8  14
ATOM     14  N   UNL A   1      33.832  19.736  25.493  1.00  0.00    -0.330 N 
ATOM     15  H   UNL A   1      34.833  19.694  25.680  1.00  0.00     0.347 HD
ATOM     16  H   UNL A   1      33.248  19.694  26.328  1.00  0.00     0.347 HD
BRANCH  14  17
ATOM     17  C   UNL A   1      33.471  18.553  24.698  1.00  0.00     0.176 C 
ATOM     18  C   UNL A   1      34.756  17.797  24.346  1.00  0.00     0.075 C 
ATOM     19  C   UNL A   1      32.528  17.610  25.462  1.00  0.00     0.075 C 
ENDBRANCH  14  17
ENDBRANCH   8  14
BRANCH  12  20
ATOM     20  S   UNL A   1      31.130  24.248  26.331  1.00  0.00    -0.082 SA
BRANCH  20  21
ATOM     21  C   UNL A   1      30.969  25.732  25.474  1.00  0.00     0.191 A 
ATOM     22  N   UNL A   1      29.929  26.122  24.774  1.00  0.00    -0.124 NA
ATOM     23  N   UNL A   1      31.916  26.714  25.473  1.00  0.00    -0.312 N 
ATOM     24  N   UNL A   1      30.196  27.390  24.303  1.00  0.00    -0.138 NA
ATOM     25  C   UNL A   1      31.388  27.730  24.736  1.00  0.00     0.226 A 
ATOM     26  C   UNL A   1      33.221  26.700  26.078  1.00  0.00     0.153 C 
ENDBRANCH  20  21
ENDBRANCH  12  20
ENDBRANCH   6   8
ENDBRANCH   5   6
ENDBRANCH   4   5
ENDBRANCH   3   4
ENDBRANCH   2   3
ENDBRANCH   1   2
BRANCH   1  27
ATOM     27  C   UNL A   1      40.414  21.368  26.880  1.00  0.00     0.188 C 
BRANCH  27  28
ATOM     28  O   UNL A   1      41.766  20.946  26.988  1.00  0.00    -0.376 OA
BRANCH  28  29
ATOM     29  C   UNL A   1      42.026  19.577  27.237  1.00  0.00     0.202 C 
BRANCH  29  30
ATOM     30  C   UNL A   1      42.659  18.778  26.095  1.00  0.00     0.261 C 
BRANCH  30  31
ATOM     31  O   UNL A   1      42.900  19.557  24.912  1.00  0.00    -0.460 OA
BRANCH  31  32
ATOM     32  C   UNL A   1      44.203  19.648  24.545  1.00  0.00     0.338 C 
ATOM     33  O   UNL A   1      44.872  18.809  23.970  1.00  0.00    -0.246 OA
BRANCH  32  34
ATOM     34  C   UNL A   1      44.702  21.015  24.813  1.00  0.00     0.060 A 
ATOM     35  C   UNL A   1      45.271  21.271  26.068  1.00  0.00     0.016 A 
ATOM     36  C   UNL A   1      44.556  22.043  23.880  1.00  0.00     0.016 A 
ATOM     37  C   UNL A   1      45.654  22.568  26.413  1.00  0.00     0.010 A 
ATOM     38  C   UNL A   1      44.914  23.348  24.235  1.00  0.00     0.010 A 
ATOM     39  C   UNL A   1      45.430  23.620  25.515  1.00  0.00    -0.014 A 
BRANCH  39  40
ATOM     40  C   UNL A   1      45.534  25.020  25.993  1.00  0.00     0.031 A 
ATOM     41  C   UNL A   1      46.866  25.711  25.897  1.00  0.00     0.074 A 
ATOM     42  C   UNL A   1      44.469  25.675  26.485  1.00  0.00     0.049 A 
ATOM     43  N   UNL A   1      47.213  26.910  26.289  1.00  0.00    -0.248 NA
ATOM     44  C   UNL A   1      47.957  24.939  25.281  1.00  0.00     0.031 C 
ATOM     45  C   UNL A   1      43.120  25.127  26.599  1.00  0.00     0.029 A 
ATOM     46  N   UNL A   1      44.361  26.950  26.983  1.00  0.00    -0.354 N 
ATOM     47  C   UNL A   1      48.560  27.033  25.975  1.00  0.00     0.074 A 
ATOM     48  C   UNL A   1      48.974  25.783  25.376  1.00  0.00     0.031 C 
ATOM     49  C   UNL A   1      42.313  26.066  27.126  1.00  0.00     0.029 A 
ATOM     50  C   UNL A   1      43.098  27.265  27.422  1.00  0.00     0.049 A 
ATOM     51  H   UNL A   1      45.117  27.579  27.021  1.00  0.00     0.167 HD
ATOM     52  C   UNL A   1      49.381  28.091  26.173  1.00  0.00     0.037 A 
ATOM     53  C   UNL A   1      42.640  28.386  28.013  1.00  0.00     0.037 A 
ATOM     54  C   UNL A   1      48.976  29.331  26.777  1.00  0.00     0.049 A 
ATOM     55  C   UNL A   1      43.588  29.530  28.270  1.00  0.00     0.074 A 
ATOM     56  C   UNL A   1      49.738  30.459  27.027  1.00  0.00     0.029 A 
ATOM     57  N   UNL A   1      47.696  29.603  27.234  1.00  0.00    -0.354 N 
ATOM     58  N   UNL A   1      44.859  29.641  27.966  1.00  0.00    -0.248 NA
ATOM     59  C   UNL A   1      43.037  30.705  28.962  1.00  0.00     0.031 C 
ATOM     60  C   UNL A   1      48.928  31.398  27.676  1.00  0.00     0.029 A 
ATOM     61  C   UNL A   1      47.651  30.873  27.786  1.00  0.00     0.049 A 
ATOM     62  H   UNL A   1      46.932  28.985  27.176  1.00  0.00     0.167 HD
ATOM     63  C   UNL A   1      45.251  30.897  28.412  1.00  0.00     0.074 A 
ATOM     64  C   UNL A   1      44.081  31.520  28.990  1.00  0.00     0.031 C 
ATOM     65  C   UNL A   1      46.474  31.480  28.351  1.00  0.00     0.037 A 
BRANCH  52  66
ATOM     66  C   UNL A   1      50.814  27.931  25.762  1.00  0.00     0.064 A 
ATOM     67  C   UNL A   1      51.818  27.632  26.694  1.00  0.00     0.173 A 
ATOM     68  C   UNL A   1      51.183  28.065  24.415  1.00  0.00     0.173 A 
ATOM     69  F   UNL A   1      51.518  27.513  27.996  1.00  0.00    -0.203 F 
ATOM     70  C   UNL A   1      53.146  27.496  26.295  1.00  0.00     0.198 A 
ATOM     71  C   UNL A   1      52.507  27.903  24.017  1.00  0.00     0.198 A 
ATOM     72  F   UNL A   1      50.258  28.351  23.486  1.00  0.00    -0.203 F 
ATOM     73  F   UNL A   1      54.097  27.256  27.208  1.00  0.00    -0.200 F 
ATOM     74  C   UNL A   1      53.488  27.626  24.957  1.00  0.00     0.200 A 
ATOM     75  F   UNL A   1      52.834  28.021  22.723  1.00  0.00    -0.200 F 
ATOM     76  F   UNL A   1      54.765  27.493  24.575  1.00  0.00    -0.200 F 
ENDBRANCH  52  66
BRANCH  53  77
ATOM     77  C   UNL A   1      41.215  28.483  28.424  1.00  0.00     0.064 A 
ATOM     78  C   UNL A   1      40.796  28.038  29.687  1.00  0.00     0.173 A 
ATOM     79  C   UNL A   1      40.238  28.988  27.554  1.00  0.00     0.173 A 
ATOM     80  F   UNL A   1      41.688  27.517  30.541  1.00  0.00    -0.203 F 
ATOM     81  C   UNL A   1      39.453  28.078  30.055  1.00  0.00     0.198 A 
ATOM     82  C   UNL A   1      38.900  29.054  27.935  1.00  0.00     0.198 A 
ATOM     83  F   UNL A   1      40.584  29.420  26.333  1.00  0.00    -0.203 F 
ATOM     84  F   UNL A   1      39.073  27.600  31.248  1.00  0.00    -0.200 F 
ATOM     85  C   UNL A   1      38.506  28.592  29.182  1.00  0.00     0.200 A 
ATOM     86  F   UNL A   1      37.990  29.559  27.091  1.00  0.00    -0.200 F 
ATOM     87  F   UNL A   1      37.215  28.631  29.536  1.00  0.00    -0.200 F 
ENDBRANCH  53  77
BRANCH  65  88
ATOM     88  C   UNL A   1      46.605  32.871  28.901  1.00  0.00     0.064 A 
ATOM     89  C   UNL A   1      46.379  34.001  28.102  1.00  0.00     0.173 A 
ATOM     90  C   UNL A   1      46.912  33.074  30.256  1.00  0.00     0.173 A 
ATOM     91  F   UNL A   1      46.095  33.860  26.798  1.00  0.00    -0.203 F 
ATOM     92  C   UNL A   1      46.478  35.284  28.634  1.00  0.00     0.198 A 
ATOM     93  C   UNL A   1      46.984  34.358  30.789  1.00  0.00     0.198 A 
ATOM     94  F   UNL A   1      47.128  32.026  31.064  1.00  0.00    -0.203 F 
ATOM     95  F   UNL A   1      46.299  36.351  27.841  1.00  0.00    -0.200 F 
ATOM     96  C   UNL A   1      46.773  35.462  29.977  1.00  0.00     0.200 A 
ATOM     97  F   UNL A   1      47.256  34.527  32.090  1.00  0.00    -0.200 F 
ATOM     98  F   UNL A   1      46.860  36.698  30.488  1.00  0.00    -0.200 F 
ENDBRANCH  65  88
ENDBRANCH  39  40
ENDBRANCH  32  34
ENDBRANCH  31  32
ENDBRANCH  30  31
ENDBRANCH  29  30
ENDBRANCH  28  29
ENDBRANCH  27  28
ENDBRANCH   1  27
TORSDOF 21
ENDMDL
