MODEL 1
REMARK VINA RESULT:     -10.8      0.000      0.000
REMARK SMILES C[C@@H](C(=O)OCCOCCOCCOC(=O)c1ccc(-c2c3nc(c(-c4c(F)c(F)c(F)c(F)c4F)c4ccc([nH]4)c(-c4c(F)c(F)c(F)c(F)c4F)c4nc(c(-c5c(F)c(F)c(F)c(F)c5F)c5ccc2[nH]5)C=C4)C=C3)cc1)c1ccc(O[C@H]2CCCC2=O)cc1F
REMARK SMILES IDX 9 1 8 2 7 3 6 4 5 5 3 6 4 7 2 8 1 9 80 10 81 11 92 12 82 13
REMARK SMILES IDX 91 14 93 15 83 16 84 17 85 18 86 19 89 20 87 21 88 22 90 23
REMARK SMILES IDX 10 24 11 25 12 26 13 27 14 28 15 29 16 30 17 31 18 32 79 33
REMARK SMILES IDX 19 34 78 35 20 36 21 37 22 38 72 39 23 40 77 41 71 42 73 43
REMARK SMILES IDX 24 44 76 45 70 46 69 47 25 49 57 50 37 51 56 52 38 53 41 54
REMARK SMILES IDX 55 55 74 56 39 57 40 58 54 60 75 61 42 62 26 63 27 64 35 65
REMARK SMILES IDX 28 66 29 67 33 68 36 69 30 70 31 71 34 72 32 73 58 74 59 75
REMARK SMILES IDX 67 76 60 77 61 78 65 79 68 80 62 81 63 82 66 83 64 84 43 85
REMARK SMILES IDX 44 86 52 87 45 88 46 89 50 90 53 91 47 92 48 93 51 94 49 95
REMARK H PARENT 73 48 41 59
REMARK Flexibility Score: inf
ROOT
ATOM      1  C   UNL A   1      33.118  26.677  26.404  1.00  0.00     0.188 C 
ENDROOT
BRANCH   1   2
ATOM      2  O   UNL A   1      31.790  26.567  26.898  1.00  0.00    -0.376 OA
BRANCH   2   3
ATOM      3  C   UNL A   1      30.719  26.482  25.962  1.00  0.00     0.202 C 
BRANCH   3   4
ATOM      4  C   UNL A   1      30.060  25.116  25.696  1.00  0.00     0.261 C 
BRANCH   4   5
ATOM      5  O   UNL A   1      30.959  24.038  25.347  1.00  0.00    -0.463 OA
BRANCH   5   6
ATOM      6  C   UNL A   1      31.569  24.139  24.134  1.00  0.00     0.313 C 
ATOM      7  O   UNL A   1      31.058  24.693  23.165  1.00  0.00    -0.252 OA
BRANCH   6   8
ATOM      8  C   UNL A   1      32.986  23.535  24.069  1.00  0.00     0.129 C 
ATOM      9  C   UNL A   1      33.958  24.075  23.013  1.00  0.00     0.025 C 
BRANCH   8  10
ATOM     10  C   UNL A   1      32.890  22.013  24.101  1.00  0.00     0.002 A 
ATOM     11  C   UNL A   1      32.386  21.261  23.034  1.00  0.00     0.011 A 
ATOM     12  C   UNL A   1      33.162  21.333  25.295  1.00  0.00     0.130 A 
ATOM     13  C   UNL A   1      32.121  19.898  23.193  1.00  0.00     0.047 A 
ATOM     14  C   UNL A   1      32.908  19.967  25.452  1.00  0.00     0.086 A 
ATOM     15  F   UNL A   1      33.655  22.010  26.341  1.00  0.00    -0.207 F 
ATOM     16  C   UNL A   1      32.377  19.242  24.397  1.00  0.00     0.123 A 
BRANCH  16  17
ATOM     17  O   UNL A   1      31.995  17.938  24.399  1.00  0.00    -0.483 OA
BRANCH  17  18
ATOM     18  C   UNL A   1      32.909  16.888  24.194  1.00  0.00     0.239 C 
ATOM     19  C   UNL A   1      34.243  17.315  23.574  1.00  0.00     0.054 C 
ATOM     20  C   UNL A   1      33.309  15.941  25.315  1.00  0.00     0.173 C 
ATOM     21  C   UNL A   1      35.328  16.942  24.578  1.00  0.00     0.012 C 
ATOM     22  C   UNL A   1      34.801  15.765  25.389  1.00  0.00     0.080 C 
ATOM     23  O   UNL A   1      32.515  15.353  26.040  1.00  0.00    -0.296 OA
ENDBRANCH  17  18
ENDBRANCH  16  17
ENDBRANCH   8  10
ENDBRANCH   6   8
ENDBRANCH   5   6
ENDBRANCH   4   5
ENDBRANCH   3   4
ENDBRANCH   2   3
ENDBRANCH   1   2
BRANCH   1  24
ATOM     24  C   UNL A   1      33.338  27.201  24.972  1.00  0.00     0.188 C 
BRANCH  24  25
ATOM     25  O   UNL A   1      33.841  28.516  24.916  1.00  0.00    -0.376 OA
BRANCH  25  26
ATOM     26  C   UNL A   1      32.937  29.567  24.645  1.00  0.00     0.202 C 
BRANCH  26  27
ATOM     27  C   UNL A   1      31.999  30.050  25.764  1.00  0.00     0.261 C 
BRANCH  27  28
ATOM     28  O   UNL A   1      32.593  30.287  27.052  1.00  0.00    -0.460 OA
BRANCH  28  29
ATOM     29  C   UNL A   1      33.265  31.451  27.216  1.00  0.00     0.338 C 
ATOM     30  O   UNL A   1      32.830  32.576  27.070  1.00  0.00    -0.246 OA
BRANCH  29  31
ATOM     31  C   UNL A   1      34.579  31.136  27.828  1.00  0.00     0.060 A 
ATOM     32  C   UNL A   1      34.840  29.814  28.208  1.00  0.00     0.016 A 
ATOM     33  C   UNL A   1      35.540  32.129  28.034  1.00  0.00     0.016 A 
ATOM     34  C   UNL A   1      36.060  29.484  28.803  1.00  0.00     0.010 A 
ATOM     35  C   UNL A   1      36.757  31.798  28.646  1.00  0.00     0.010 A 
ATOM     36  C   UNL A   1      37.020  30.476  29.044  1.00  0.00    -0.014 A 
BRANCH  36  37
ATOM     37  C   UNL A   1      38.213  30.158  29.869  1.00  0.00     0.031 A 
ATOM     38  C   UNL A   1      39.237  29.210  29.312  1.00  0.00     0.074 A 
ATOM     39  C   UNL A   1      38.413  30.720  31.076  1.00  0.00     0.049 A 
ATOM     40  N   UNL A   1      40.322  28.731  29.865  1.00  0.00    -0.248 NA
ATOM     41  C   UNL A   1      39.003  28.742  27.937  1.00  0.00     0.031 C 
ATOM     42  C   UNL A   1      37.539  31.706  31.703  1.00  0.00     0.029 A 
ATOM     43  N   UNL A   1      39.424  30.536  31.989  1.00  0.00    -0.354 N 
ATOM     44  C   UNL A   1      40.896  27.902  28.911  1.00  0.00     0.074 A 
ATOM     45  C   UNL A   1      40.031  27.930  27.751  1.00  0.00     0.031 C 
ATOM     46  C   UNL A   1      38.048  32.038  32.903  1.00  0.00     0.029 A 
ATOM     47  C   UNL A   1      39.256  31.251  33.149  1.00  0.00     0.049 A 
ATOM     48  H   UNL A   1      40.197  29.947  31.826  1.00  0.00     0.167 HD
ATOM     49  C   UNL A   1      42.039  27.180  28.994  1.00  0.00     0.037 A 
ATOM     50  C   UNL A   1      39.975  31.243  34.290  1.00  0.00     0.037 A 
ATOM     51  C   UNL A   1      42.886  27.132  30.156  1.00  0.00     0.049 A 
ATOM     52  C   UNL A   1      41.186  30.346  34.399  1.00  0.00     0.074 A 
ATOM     53  C   UNL A   1      44.051  26.409  30.344  1.00  0.00     0.029 A 
ATOM     54  N   UNL A   1      42.652  27.825  31.334  1.00  0.00    -0.354 N 
ATOM     55  N   UNL A   1      41.723  29.560  33.498  1.00  0.00    -0.248 NA
ATOM     56  C   UNL A   1      41.888  30.331  35.693  1.00  0.00     0.031 C 
ATOM     57  C   UNL A   1      44.490  26.620  31.655  1.00  0.00     0.029 A 
ATOM     58  C   UNL A   1      43.638  27.529  32.262  1.00  0.00     0.049 A 
ATOM     59  H   UNL A   1      41.897  28.439  31.488  1.00  0.00     0.167 HD
ATOM     60  C   UNL A   1      42.833  28.980  34.102  1.00  0.00     0.074 A 
ATOM     61  C   UNL A   1      42.906  29.519  35.443  1.00  0.00     0.031 C 
ATOM     62  C   UNL A   1      43.713  28.082  33.591  1.00  0.00     0.037 A 
BRANCH  49  63
ATOM     63  C   UNL A   1      42.407  26.341  27.805  1.00  0.00     0.064 A 
ATOM     64  C   UNL A   1      41.849  25.070  27.595  1.00  0.00     0.173 A 
ATOM     65  C   UNL A   1      43.325  26.819  26.860  1.00  0.00     0.173 A 
ATOM     66  F   UNL A   1      40.980  24.559  28.481  1.00  0.00    -0.203 F 
ATOM     67  C   UNL A   1      42.223  24.298  26.498  1.00  0.00     0.198 A 
ATOM     68  C   UNL A   1      43.671  26.058  25.747  1.00  0.00     0.198 A 
ATOM     69  F   UNL A   1      43.887  28.029  27.013  1.00  0.00    -0.203 F 
ATOM     70  F   UNL A   1      41.722  23.064  26.348  1.00  0.00    -0.200 F 
ATOM     71  C   UNL A   1      43.128  24.795  25.573  1.00  0.00     0.200 A 
ATOM     72  F   UNL A   1      44.537  26.545  24.847  1.00  0.00    -0.200 F 
ATOM     73  F   UNL A   1      43.485  24.051  24.517  1.00  0.00    -0.200 F 
ENDBRANCH  49  63
BRANCH  50  74
ATOM     74  C   UNL A   1      39.550  32.077  35.449  1.00  0.00     0.064 A 
ATOM     75  C   UNL A   1      38.678  31.575  36.425  1.00  0.00     0.173 A 
ATOM     76  C   UNL A   1      39.961  33.413  35.573  1.00  0.00     0.173 A 
ATOM     77  F   UNL A   1      38.227  30.313  36.335  1.00  0.00    -0.203 F 
ATOM     78  C   UNL A   1      38.208  32.383  37.459  1.00  0.00     0.198 A 
ATOM     79  C   UNL A   1      39.521  34.210  36.627  1.00  0.00     0.198 A 
ATOM     80  F   UNL A   1      40.781  33.950  34.657  1.00  0.00    -0.203 F 
ATOM     81  F   UNL A   1      37.309  31.900  38.329  1.00  0.00    -0.200 F 
ATOM     82  C   UNL A   1      38.635  33.699  37.563  1.00  0.00     0.200 A 
ATOM     83  F   UNL A   1      39.934  35.482  36.719  1.00  0.00    -0.200 F 
ATOM     84  F   UNL A   1      38.167  34.484  38.543  1.00  0.00    -0.200 F 
ENDBRANCH  50  74
BRANCH  62  85
ATOM     85  C   UNL A   1      44.864  27.656  34.460  1.00  0.00     0.064 A 
ATOM     86  C   UNL A   1      44.800  26.517  35.276  1.00  0.00     0.173 A 
ATOM     87  C   UNL A   1      46.074  28.370  34.429  1.00  0.00     0.173 A 
ATOM     88  F   UNL A   1      43.666  25.804  35.352  1.00  0.00    -0.203 F 
ATOM     89  C   UNL A   1      45.892  26.124  36.047  1.00  0.00     0.198 A 
ATOM     90  C   UNL A   1      47.174  27.954  35.174  1.00  0.00     0.198 A 
ATOM     91  F   UNL A   1      46.196  29.462  33.659  1.00  0.00    -0.203 F 
ATOM     92  F   UNL A   1      45.791  25.059  36.854  1.00  0.00    -0.200 F 
ATOM     93  C   UNL A   1      47.081  26.836  35.988  1.00  0.00     0.200 A 
ATOM     94  F   UNL A   1      48.327  28.634  35.101  1.00  0.00    -0.200 F 
ATOM     95  F   UNL A   1      48.134  26.449  36.721  1.00  0.00    -0.200 F 
ENDBRANCH  62  85
ENDBRANCH  36  37
ENDBRANCH  29  31
ENDBRANCH  28  29
ENDBRANCH  27  28
ENDBRANCH  26  27
ENDBRANCH  25  26
ENDBRANCH  24  25
ENDBRANCH   1  24
TORSDOF 20
ENDMDL
MODEL 2
REMARK VINA RESULT:     -10.5      2.149      3.267
REMARK SMILES C[C@@H](C(=O)OCCOCCOCCOC(=O)c1ccc(-c2c3nc(c(-c4c(F)c(F)c(F)c(F)c4F)c4ccc([nH]4)c(-c4c(F)c(F)c(F)c(F)c4F)c4nc(c(-c5c(F)c(F)c(F)c(F)c5F)c5ccc2[nH]5)C=C4)C=C3)cc1)c1ccc(O[C@H]2CCCC2=O)cc1F
REMARK SMILES IDX 9 1 8 2 7 3 6 4 5 5 3 6 4 7 2 8 1 9 80 10 81 11 92 12 82 13
REMARK SMILES IDX 91 14 93 15 83 16 84 17 85 18 86 19 89 20 87 21 88 22 90 23
REMARK SMILES IDX 10 24 11 25 12 26 13 27 14 28 15 29 16 30 17 31 18 32 79 33
REMARK SMILES IDX 19 34 78 35 20 36 21 37 22 38 72 39 23 40 77 41 71 42 73 43
REMARK SMILES IDX 24 44 76 45 70 46 69 47 25 49 57 50 37 51 56 52 38 53 41 54
REMARK SMILES IDX 55 55 74 56 39 57 40 58 54 60 75 61 42 62 26 63 27 64 35 65
REMARK SMILES IDX 28 66 29 67 33 68 36 69 30 70 31 71 34 72 32 73 58 74 59 75
REMARK SMILES IDX 67 76 60 77 61 78 65 79 68 80 62 81 63 82 66 83 64 84 43 85
REMARK SMILES IDX 44 86 52 87 45 88 46 89 50 90 53 91 47 92 48 93 51 94 49 95
REMARK H PARENT 73 48 41 59
REMARK Flexibility Score: inf
ROOT
ATOM      1  C   UNL A   1      33.941  27.733  25.480  1.00  0.00     0.188 C 
ENDROOT
BRANCH   1   2
ATOM      2  O   UNL A   1      33.583  26.498  26.085  1.00  0.00    -0.376 OA
BRANCH   2   3
ATOM      3  C   UNL A   1      32.202  26.179  26.222  1.00  0.00     0.202 C 
BRANCH   3   4
ATOM      4  C   UNL A   1      31.795  24.738  26.580  1.00  0.00     0.261 C 
BRANCH   4   5
ATOM      5  O   UNL A   1      31.902  23.767  25.514  1.00  0.00    -0.463 OA
BRANCH   5   6
ATOM      6  C   UNL A   1      33.014  22.982  25.533  1.00  0.00     0.313 C 
ATOM      7  O   UNL A   1      33.155  22.026  26.290  1.00  0.00    -0.252 OA
BRANCH   6   8
ATOM      8  C   UNL A   1      34.089  23.356  24.492  1.00  0.00     0.129 C 
ATOM      9  C   UNL A   1      33.840  22.989  23.025  1.00  0.00     0.025 C 
BRANCH   8  10
ATOM     10  C   UNL A   1      35.463  22.939  25.009  1.00  0.00     0.002 A 
ATOM     11  C   UNL A   1      36.396  23.854  25.510  1.00  0.00     0.011 A 
ATOM     12  C   UNL A   1      35.888  21.616  24.837  1.00  0.00     0.130 A 
ATOM     13  C   UNL A   1      37.709  23.453  25.770  1.00  0.00     0.047 A 
ATOM     14  C   UNL A   1      37.199  21.211  25.107  1.00  0.00     0.086 A 
ATOM     15  F   UNL A   1      35.027  20.702  24.369  1.00  0.00    -0.207 F 
ATOM     16  C   UNL A   1      38.121  22.135  25.571  1.00  0.00     0.123 A 
BRANCH  16  17
ATOM     17  O   UNL A   1      39.445  21.937  25.806  1.00  0.00    -0.483 OA
BRANCH  17  18
ATOM     18  C   UNL A   1      39.916  20.885  26.612  1.00  0.00     0.239 C 
ATOM     19  C   UNL A   1      40.274  19.607  25.848  1.00  0.00     0.054 C 
ATOM     20  C   UNL A   1      41.073  21.072  27.581  1.00  0.00     0.173 C 
ATOM     21  C   UNL A   1      41.755  19.348  26.104  1.00  0.00     0.012 C 
ATOM     22  C   UNL A   1      42.091  19.972  27.452  1.00  0.00     0.080 C 
ATOM     23  O   UNL A   1      41.148  21.979  28.403  1.00  0.00    -0.296 OA
ENDBRANCH  17  18
ENDBRANCH  16  17
ENDBRANCH   8  10
ENDBRANCH   6   8
ENDBRANCH   5   6
ENDBRANCH   4   5
ENDBRANCH   3   4
ENDBRANCH   2   3
ENDBRANCH   1   2
BRANCH   1  24
ATOM     24  C   UNL A   1      33.286  28.122  24.141  1.00  0.00     0.188 C 
BRANCH  24  25
ATOM     25  O   UNL A   1      32.738  29.420  24.129  1.00  0.00    -0.376 OA
BRANCH  25  26
ATOM     26  C   UNL A   1      31.524  29.641  24.817  1.00  0.00     0.202 C 
BRANCH  26  27
ATOM     27  C   UNL A   1      31.479  30.702  25.929  1.00  0.00     0.261 C 
BRANCH  27  28
ATOM     28  O   UNL A   1      32.529  30.658  26.911  1.00  0.00    -0.460 OA
BRANCH  28  29
ATOM     29  C   UNL A   1      33.154  31.824  27.198  1.00  0.00     0.338 C 
ATOM     30  O   UNL A   1      32.687  32.943  27.129  1.00  0.00    -0.246 OA
BRANCH  29  31
ATOM     31  C   UNL A   1      34.455  31.499  27.833  1.00  0.00     0.060 A 
ATOM     32  C   UNL A   1      34.685  30.181  28.249  1.00  0.00     0.016 A 
ATOM     33  C   UNL A   1      35.433  32.477  28.026  1.00  0.00     0.016 A 
ATOM     34  C   UNL A   1      35.891  29.843  28.867  1.00  0.00     0.010 A 
ATOM     35  C   UNL A   1      36.636  32.137  28.660  1.00  0.00     0.010 A 
ATOM     36  C   UNL A   1      36.868  30.821  29.095  1.00  0.00    -0.014 A 
BRANCH  36  37
ATOM     37  C   UNL A   1      38.045  30.501  29.942  1.00  0.00     0.031 A 
ATOM     38  C   UNL A   1      39.126  29.630  29.367  1.00  0.00     0.074 A 
ATOM     39  C   UNL A   1      38.180  30.995  31.187  1.00  0.00     0.049 A 
ATOM     40  N   UNL A   1      40.211  29.162  29.929  1.00  0.00    -0.248 NA
ATOM     41  C   UNL A   1      38.959  29.239  27.958  1.00  0.00     0.031 C 
ATOM     42  C   UNL A   1      37.245  31.905  31.841  1.00  0.00     0.029 A 
ATOM     43  N   UNL A   1      39.167  30.795  32.123  1.00  0.00    -0.354 N 
ATOM     44  C   UNL A   1      40.851  28.417  28.948  1.00  0.00     0.074 A 
ATOM     45  C   UNL A   1      40.026  28.482  27.760  1.00  0.00     0.031 C 
ATOM     46  C   UNL A   1      37.698  32.182  33.076  1.00  0.00     0.029 A 
ATOM     47  C   UNL A   1      38.929  31.430  33.318  1.00  0.00     0.049 A 
ATOM     48  H   UNL A   1      39.968  30.249  31.954  1.00  0.00     0.167 HD
ATOM     49  C   UNL A   1      42.020  27.737  29.029  1.00  0.00     0.037 A 
ATOM     50  C   UNL A   1      39.609  31.381  34.482  1.00  0.00     0.037 A 
ATOM     51  C   UNL A   1      42.829  27.651  30.216  1.00  0.00     0.049 A 
ATOM     52  C   UNL A   1      40.852  30.528  34.580  1.00  0.00     0.074 A 
ATOM     53  C   UNL A   1      44.015  26.966  30.402  1.00  0.00     0.029 A 
ATOM     54  N   UNL A   1      42.526  28.261  31.423  1.00  0.00    -0.354 N 
ATOM     55  N   UNL A   1      41.452  29.821  33.653  1.00  0.00    -0.248 NA
ATOM     56  C   UNL A   1      41.511  30.461  35.895  1.00  0.00     0.031 C 
ATOM     57  C   UNL A   1      44.401  27.113  31.738  1.00  0.00     0.029 A 
ATOM     58  C   UNL A   1      43.492  27.948  32.367  1.00  0.00     0.049 A 
ATOM     59  H   UNL A   1      41.741  28.833  31.587  1.00  0.00     0.167 HD
ATOM     60  C   UNL A   1      42.565  29.250  34.261  1.00  0.00     0.074 A 
ATOM     61  C   UNL A   1      42.570  29.707  35.634  1.00  0.00     0.031 C 
ATOM     62  C   UNL A   1      43.498  28.421  33.729  1.00  0.00     0.037 A 
BRANCH  49  63
ATOM     63  C   UNL A   1      42.463  26.989  27.806  1.00  0.00     0.064 A 
ATOM     64  C   UNL A   1      41.987  25.701  27.514  1.00  0.00     0.173 A 
ATOM     65  C   UNL A   1      43.370  27.572  26.910  1.00  0.00     0.173 A 
ATOM     66  F   UNL A   1      41.132  25.092  28.349  1.00  0.00    -0.203 F 
ATOM     67  C   UNL A   1      42.429  25.014  26.386  1.00  0.00     0.198 A 
ATOM     68  C   UNL A   1      43.785  26.896  25.767  1.00  0.00     0.198 A 
ATOM     69  F   UNL A   1      43.855  28.803  27.142  1.00  0.00    -0.203 F 
ATOM     70  F   UNL A   1      42.006  23.764  26.157  1.00  0.00    -0.200 F 
ATOM     71  C   UNL A   1      43.323  25.614  25.511  1.00  0.00     0.200 A 
ATOM     72  F   UNL A   1      44.639  27.481  24.916  1.00  0.00    -0.200 F 
ATOM     73  F   UNL A   1      43.746  24.952  24.425  1.00  0.00    -0.200 F 
ENDBRANCH  49  63
BRANCH  50  74
ATOM     74  C   UNL A   1      39.111  32.124  35.673  1.00  0.00     0.064 A 
ATOM     75  C   UNL A   1      39.484  33.454  35.909  1.00  0.00     0.173 A 
ATOM     76  C   UNL A   1      38.298  31.498  36.630  1.00  0.00     0.173 A 
ATOM     77  F   UNL A   1      40.288  34.088  35.041  1.00  0.00    -0.203 F 
ATOM     78  C   UNL A   1      39.090  34.119  37.069  1.00  0.00     0.198 A 
ATOM     79  C   UNL A   1      37.875  32.175  37.772  1.00  0.00     0.198 A 
ATOM     80  F   UNL A   1      37.926  30.221  36.464  1.00  0.00    -0.203 F 
ATOM     81  F   UNL A   1      39.532  35.362  37.308  1.00  0.00    -0.200 F 
ATOM     82  C   UNL A   1      38.282  33.481  37.998  1.00  0.00     0.200 A 
ATOM     83  F   UNL A   1      37.096  31.552  38.668  1.00  0.00    -0.200 F 
ATOM     84  F   UNL A   1      37.922  34.111  39.124  1.00  0.00    -0.200 F 
ENDBRANCH  50  74
BRANCH  62  85
ATOM     85  C   UNL A   1      44.637  27.988  34.612  1.00  0.00     0.064 A 
ATOM     86  C   UNL A   1      45.811  28.745  34.738  1.00  0.00     0.173 A 
ATOM     87  C   UNL A   1      44.525  26.822  35.388  1.00  0.00     0.173 A 
ATOM     88  F   UNL A   1      45.975  29.861  34.012  1.00  0.00    -0.203 F 
ATOM     89  C   UNL A   1      46.838  28.340  35.588  1.00  0.00     0.198 A 
ATOM     90  C   UNL A   1      45.539  26.440  36.262  1.00  0.00     0.198 A 
ATOM     91  F   UNL A   1      43.420  26.064  35.315  1.00  0.00    -0.203 F 
ATOM     92  F   UNL A   1      47.969  29.056  35.657  1.00  0.00    -0.200 F 
ATOM     93  C   UNL A   1      46.697  27.194  36.356  1.00  0.00     0.200 A 
ATOM     94  F   UNL A   1      45.392  25.341  37.017  1.00  0.00    -0.200 F 
ATOM     95  F   UNL A   1      47.683  26.813  37.181  1.00  0.00    -0.200 F 
ENDBRANCH  62  85
ENDBRANCH  36  37
ENDBRANCH  29  31
ENDBRANCH  28  29
ENDBRANCH  27  28
ENDBRANCH  26  27
ENDBRANCH  25  26
ENDBRANCH  24  25
ENDBRANCH   1  24
TORSDOF 20
ENDMDL
MODEL 3
REMARK VINA RESULT:     -10.5      4.503      7.510
REMARK SMILES C[C@@H](C(=O)OCCOCCOCCOC(=O)c1ccc(-c2c3nc(c(-c4c(F)c(F)c(F)c(F)c4F)c4ccc([nH]4)c(-c4c(F)c(F)c(F)c(F)c4F)c4nc(c(-c5c(F)c(F)c(F)c(F)c5F)c5ccc2[nH]5)C=C4)C=C3)cc1)c1ccc(O[C@H]2CCCC2=O)cc1F
REMARK SMILES IDX 9 1 8 2 7 3 6 4 5 5 3 6 4 7 2 8 1 9 80 10 81 11 92 12 82 13
REMARK SMILES IDX 91 14 93 15 83 16 84 17 85 18 86 19 89 20 87 21 88 22 90 23
REMARK SMILES IDX 10 24 11 25 12 26 13 27 14 28 15 29 16 30 17 31 18 32 79 33
REMARK SMILES IDX 19 34 78 35 20 36 21 37 22 38 72 39 23 40 77 41 71 42 73 43
REMARK SMILES IDX 24 44 76 45 70 46 69 47 25 49 57 50 37 51 56 52 38 53 41 54
REMARK SMILES IDX 55 55 74 56 39 57 40 58 54 60 75 61 42 62 26 63 27 64 35 65
REMARK SMILES IDX 28 66 29 67 33 68 36 69 30 70 31 71 34 72 32 73 58 74 59 75
REMARK SMILES IDX 67 76 60 77 61 78 65 79 68 80 62 81 63 82 66 83 64 84 43 85
REMARK SMILES IDX 44 86 52 87 45 88 46 89 50 90 53 91 47 92 48 93 51 94 49 95
REMARK H PARENT 73 48 41 59
REMARK Flexibility Score: inf
ROOT
ATOM      1  C   UNL A   1      37.734  23.439  26.070  1.00  0.00     0.188 C 
ENDROOT
BRANCH   1   2
ATOM      2  O   UNL A   1      36.317  23.345  26.125  1.00  0.00    -0.376 OA
BRANCH   2   3
ATOM      3  C   UNL A   1      35.541  24.266  25.364  1.00  0.00     0.202 C 
BRANCH   3   4
ATOM      4  C   UNL A   1      35.157  23.910  23.917  1.00  0.00     0.261 C 
BRANCH   4   5
ATOM      5  O   UNL A   1      34.027  24.627  23.367  1.00  0.00    -0.463 OA
BRANCH   5   6
ATOM      6  C   UNL A   1      33.283  23.953  22.448  1.00  0.00     0.313 C 
ATOM      7  O   UNL A   1      33.622  23.811  21.277  1.00  0.00    -0.252 OA
BRANCH   6   8
ATOM      8  C   UNL A   1      31.981  23.335  22.995  1.00  0.00     0.129 C 
ATOM      9  C   UNL A   1      31.146  24.157  23.985  1.00  0.00     0.025 C 
BRANCH   8  10
ATOM     10  C   UNL A   1      32.251  21.905  23.451  1.00  0.00     0.002 A 
ATOM     11  C   UNL A   1      32.133  20.801  22.600  1.00  0.00     0.011 A 
ATOM     12  C   UNL A   1      32.470  21.647  24.811  1.00  0.00     0.130 A 
ATOM     13  C   UNL A   1      32.181  19.503  23.115  1.00  0.00     0.047 A 
ATOM     14  C   UNL A   1      32.529  20.349  25.326  1.00  0.00     0.086 A 
ATOM     15  F   UNL A   1      32.598  22.673  25.664  1.00  0.00    -0.207 F 
ATOM     16  C   UNL A   1      32.378  19.266  24.476  1.00  0.00     0.123 A 
BRANCH  16  17
ATOM     17  O   UNL A   1      32.327  17.951  24.812  1.00  0.00    -0.483 OA
BRANCH  17  18
ATOM     18  C   UNL A   1      33.300  17.028  24.386  1.00  0.00     0.239 C 
ATOM     19  C   UNL A   1      34.708  17.610  24.237  1.00  0.00     0.054 C 
ATOM     20  C   UNL A   1      33.522  15.706  25.103  1.00  0.00     0.173 C 
ATOM     21  C   UNL A   1      35.604  16.836  25.197  1.00  0.00     0.012 C 
ATOM     22  C   UNL A   1      34.981  15.458  25.376  1.00  0.00     0.080 C 
ATOM     23  O   UNL A   1      32.630  14.913  25.385  1.00  0.00    -0.296 OA
ENDBRANCH  17  18
ENDBRANCH  16  17
ENDBRANCH   8  10
ENDBRANCH   6   8
ENDBRANCH   5   6
ENDBRANCH   4   5
ENDBRANCH   3   4
ENDBRANCH   2   3
ENDBRANCH   1   2
BRANCH   1  24
ATOM     24  C   UNL A   1      38.563  22.142  26.014  1.00  0.00     0.188 C 
BRANCH  24  25
ATOM     25  O   UNL A   1      38.109  21.214  25.057  1.00  0.00    -0.376 OA
BRANCH  25  26
ATOM     26  C   UNL A   1      38.569  19.881  25.146  1.00  0.00     0.202 C 
BRANCH  26  27
ATOM     27  C   UNL A   1      39.708  19.549  26.125  1.00  0.00     0.261 C 
BRANCH  27  28
ATOM     28  O   UNL A   1      41.009  19.321  25.554  1.00  0.00    -0.460 OA
BRANCH  28  29
ATOM     29  C   UNL A   1      42.078  19.525  26.359  1.00  0.00     0.338 C 
ATOM     30  O   UNL A   1      42.935  18.717  26.658  1.00  0.00    -0.246 OA
BRANCH  29  31
ATOM     31  C   UNL A   1      42.162  20.978  26.646  1.00  0.00     0.060 A 
ATOM     32  C   UNL A   1      42.152  21.874  25.570  1.00  0.00     0.016 A 
ATOM     33  C   UNL A   1      42.258  21.454  27.956  1.00  0.00     0.016 A 
ATOM     34  C   UNL A   1      42.247  23.248  25.802  1.00  0.00     0.010 A 
ATOM     35  C   UNL A   1      42.369  22.832  28.184  1.00  0.00     0.010 A 
ATOM     36  C   UNL A   1      42.375  23.737  27.109  1.00  0.00    -0.014 A 
BRANCH  36  37
ATOM     37  C   UNL A   1      42.694  25.171  27.329  1.00  0.00     0.031 A 
ATOM     38  C   UNL A   1      44.041  25.680  26.897  1.00  0.00     0.074 A 
ATOM     39  C   UNL A   1      41.803  26.022  27.869  1.00  0.00     0.049 A 
ATOM     40  N   UNL A   1      44.571  26.867  27.041  1.00  0.00    -0.248 NA
ATOM     41  C   UNL A   1      44.904  24.712  26.201  1.00  0.00     0.031 C 
ATOM     42  C   UNL A   1      40.441  25.679  28.267  1.00  0.00     0.029 A 
ATOM     43  N   UNL A   1      41.917  27.358  28.175  1.00  0.00    -0.354 N 
ATOM     44  C   UNL A   1      45.831  26.788  26.461  1.00  0.00     0.074 A 
ATOM     45  C   UNL A   1      45.991  25.433  25.979  1.00  0.00     0.031 C 
ATOM     46  C   UNL A   1      39.846  26.774  28.771  1.00  0.00     0.029 A 
ATOM     47  C   UNL A   1      40.799  27.883  28.776  1.00  0.00     0.049 A 
ATOM     48  H   UNL A   1      42.724  27.888  27.981  1.00  0.00     0.167 HD
ATOM     49  C   UNL A   1      46.771  27.756  26.345  1.00  0.00     0.037 A 
ATOM     50  C   UNL A   1      40.586  29.107  29.302  1.00  0.00     0.037 A 
ATOM     51  C   UNL A   1      46.623  29.097  26.846  1.00  0.00     0.049 A 
ATOM     52  C   UNL A   1      41.690  30.137  29.257  1.00  0.00     0.074 A 
ATOM     53  C   UNL A   1      47.530  30.140  26.798  1.00  0.00     0.029 A 
ATOM     54  N   UNL A   1      45.498  29.575  27.501  1.00  0.00    -0.354 N 
ATOM     55  N   UNL A   1      42.880  30.058  28.714  1.00  0.00    -0.248 NA
ATOM     56  C   UNL A   1      41.420  31.430  29.908  1.00  0.00     0.031 C 
ATOM     57  C   UNL A   1      46.977  31.233  27.474  1.00  0.00     0.029 A 
ATOM     58  C   UNL A   1      45.698  30.892  27.883  1.00  0.00     0.049 A 
ATOM     59  H   UNL A   1      44.678  29.056  27.670  1.00  0.00     0.167 HD
ATOM     60  C   UNL A   1      43.488  31.290  28.932  1.00  0.00     0.074 A 
ATOM     61  C   UNL A   1      42.528  32.108  29.643  1.00  0.00     0.031 C 
ATOM     62  C   UNL A   1      44.730  31.706  28.577  1.00  0.00     0.037 A 
BRANCH  49  63
ATOM     63  C   UNL A   1      48.067  27.377  25.689  1.00  0.00     0.064 A 
ATOM     64  C   UNL A   1      48.243  27.455  24.299  1.00  0.00     0.173 A 
ATOM     65  C   UNL A   1      49.149  26.936  26.465  1.00  0.00     0.173 A 
ATOM     66  F   UNL A   1      47.232  27.852  23.511  1.00  0.00    -0.203 F 
ATOM     67  C   UNL A   1      49.446  27.075  23.709  1.00  0.00     0.198 A 
ATOM     68  C   UNL A   1      50.360  26.589  25.874  1.00  0.00     0.198 A 
ATOM     69  F   UNL A   1      49.033  26.844  27.799  1.00  0.00    -0.203 F 
ATOM     70  F   UNL A   1      49.573  27.103  22.375  1.00  0.00    -0.200 F 
ATOM     71  C   UNL A   1      50.505  26.648  24.497  1.00  0.00     0.200 A 
ATOM     72  F   UNL A   1      51.386  26.188  26.638  1.00  0.00    -0.200 F 
ATOM     73  F   UNL A   1      51.662  26.285  23.928  1.00  0.00    -0.200 F 
ENDBRANCH  49  63
BRANCH  50  74
ATOM     74  C   UNL A   1      39.289  29.422  29.964  1.00  0.00     0.064 A 
ATOM     75  C   UNL A   1      39.032  29.026  31.284  1.00  0.00     0.173 A 
ATOM     76  C   UNL A   1      38.259  30.074  29.269  1.00  0.00     0.173 A 
ATOM     77  F   UNL A   1      39.971  28.369  31.981  1.00  0.00    -0.203 F 
ATOM     78  C   UNL A   1      37.786  29.241  31.872  1.00  0.00     0.198 A 
ATOM     79  C   UNL A   1      37.026  30.321  29.870  1.00  0.00     0.198 A 
ATOM     80  F   UNL A   1      38.446  30.458  27.998  1.00  0.00    -0.203 F 
ATOM     81  F   UNL A   1      37.541  28.776  33.105  1.00  0.00    -0.200 F 
ATOM     82  C   UNL A   1      36.786  29.893  31.166  1.00  0.00     0.200 A 
ATOM     83  F   UNL A   1      36.063  30.949  29.181  1.00  0.00    -0.200 F 
ATOM     84  F   UNL A   1      35.581  30.080  31.722  1.00  0.00    -0.200 F 
ENDBRANCH  50  74
BRANCH  62  85
ATOM     85  C   UNL A   1      45.115  33.123  28.901  1.00  0.00     0.064 A 
ATOM     86  C   UNL A   1      45.932  33.441  29.996  1.00  0.00     0.173 A 
ATOM     87  C   UNL A   1      44.705  34.175  28.065  1.00  0.00     0.173 A 
ATOM     88  F   UNL A   1      46.344  32.477  30.833  1.00  0.00    -0.203 F 
ATOM     89  C   UNL A   1      46.302  34.759  30.256  1.00  0.00     0.198 A 
ATOM     90  C   UNL A   1      45.105  35.486  28.309  1.00  0.00     0.198 A 
ATOM     91  F   UNL A   1      43.930  33.928  26.997  1.00  0.00    -0.203 F 
ATOM     92  F   UNL A   1      47.045  35.044  31.335  1.00  0.00    -0.200 F 
ATOM     93  C   UNL A   1      45.897  35.778  29.407  1.00  0.00     0.200 A 
ATOM     94  F   UNL A   1      44.727  36.466  27.476  1.00  0.00    -0.200 F 
ATOM     95  F   UNL A   1      46.264  37.044  29.653  1.00  0.00    -0.200 F 
ENDBRANCH  62  85
ENDBRANCH  36  37
ENDBRANCH  29  31
ENDBRANCH  28  29
ENDBRANCH  27  28
ENDBRANCH  26  27
ENDBRANCH  25  26
ENDBRANCH  24  25
ENDBRANCH   1  24
TORSDOF 20
ENDMDL
