MODEL 1
REMARK VINA RESULT:     -10.0      0.000      0.000
REMARK SMILES CC(C)Cc1ccc([C@H](CC[C@@H](C)O)C(=O)OCCOCCOCCOC(=O)c2ccc(-c3c4nc(c(-c5c(F)c(F)c(F)c(F)c5F)c5ccc([nH]5)c(-c5c(F)c(F)c(F)c(F)c5F)c5nc(c(-c6c(F)c(F)c(F)c(F)c6F)c6ccc3[nH]6)C=C5)C=C4)cc2)cc1
REMARK SMILES IDX 21 1 20 2 19 3 18 4 17 5 15 6 16 7 9 8 8 9 5 10 6 11 93 12
REMARK SMILES IDX 7 13 92 14 4 15 2 16 1 17 3 18 10 19 11 20 12 21 13 22 14 23
REMARK SMILES IDX 22 25 23 26 24 27 25 28 26 29 27 30 28 31 29 32 30 33 91 34
REMARK SMILES IDX 31 35 90 36 32 37 33 38 34 39 84 40 35 41 89 42 83 43 85 44
REMARK SMILES IDX 36 45 88 46 82 47 81 48 37 50 69 51 49 52 68 53 50 54 53 55
REMARK SMILES IDX 67 56 86 57 51 58 52 59 66 61 87 62 54 63 38 64 39 65 47 66
REMARK SMILES IDX 40 67 41 68 45 69 48 70 42 71 43 72 46 73 44 74 70 75 71 76
REMARK SMILES IDX 79 77 72 78 73 79 77 80 80 81 74 82 75 83 78 84 76 85 55 86
REMARK SMILES IDX 56 87 64 88 57 89 58 90 62 91 65 92 59 93 60 94 63 95 61 96
REMARK H PARENT 14 24 85 49 53 60
REMARK Flexibility Score: inf
ROOT
ATOM      1  C   UNL A   1      40.808  22.575  27.575  1.00  0.00     0.188 C 
ENDROOT
BRANCH   1   2
ATOM      2  O   UNL A   1      39.620  21.865  27.245  1.00  0.00    -0.376 OA
BRANCH   2   3
ATOM      3  C   UNL A   1      39.213  21.734  25.887  1.00  0.00     0.202 C 
BRANCH   3   4
ATOM      4  C   UNL A   1      37.833  22.281  25.498  1.00  0.00     0.261 C 
BRANCH   4   5
ATOM      5  O   UNL A   1      37.201  21.672  24.347  1.00  0.00    -0.463 OA
BRANCH   5   6
ATOM      6  C   UNL A   1      36.405  22.500  23.617  1.00  0.00     0.313 C 
ATOM      7  O   UNL A   1      36.836  23.317  22.803  1.00  0.00    -0.252 OA
BRANCH   6   8
ATOM      8  C   UNL A   1      34.899  22.397  23.916  1.00  0.00     0.129 C 
BRANCH   8   9
ATOM      9  C   UNL A   1      34.387  23.767  24.338  1.00  0.00    -0.034 A 
ATOM     10  C   UNL A   1      33.704  26.431  24.937  1.00  0.00    -0.048 A 
ATOM     11  C   UNL A   1      33.564  25.946  23.634  1.00  0.00     0.004 A 
ATOM     12  C   UNL A   1      34.114  25.558  25.950  1.00  0.00     0.004 A 
ATOM     13  C   UNL A   1      33.895  24.627  23.341  1.00  0.00     0.005 A 
ATOM     14  C   UNL A   1      34.473  24.246  25.651  1.00  0.00     0.005 A 
BRANCH  10  15
ATOM     15  C   UNL A   1      33.521  27.896  25.235  1.00  0.00     0.038 C 
BRANCH  15  16
ATOM     16  C   UNL A   1      33.595  28.189  26.749  1.00  0.00    -0.013 C 
ATOM     17  C   UNL A   1      34.816  29.040  27.116  1.00  0.00     0.008 C 
ATOM     18  C   UNL A   1      32.314  28.882  27.208  1.00  0.00     0.008 C 
ENDBRANCH  15  16
ENDBRANCH  10  15
ENDBRANCH   8   9
BRANCH   8  19
ATOM     19  C   UNL A   1      34.378  21.214  24.773  1.00  0.00     0.023 C 
BRANCH  19  20
ATOM     20  C   UNL A   1      33.058  20.649  24.204  1.00  0.00     0.033 C 
BRANCH  20  21
ATOM     21  C   UNL A   1      32.900  19.141  24.460  1.00  0.00     0.111 C 
ATOM     22  C   UNL A   1      32.443  18.388  23.216  1.00  0.00     0.038 C 
BRANCH  21  23
ATOM     23  O   UNL A   1      34.145  18.593  24.880  1.00  0.00    -0.393 OA
ATOM     24  H   UNL A   1      34.018  18.095  25.703  1.00  0.00     0.210 HD
ENDBRANCH  21  23
ENDBRANCH  20  21
ENDBRANCH  19  20
ENDBRANCH   8  19
ENDBRANCH   6   8
ENDBRANCH   5   6
ENDBRANCH   4   5
ENDBRANCH   3   4
ENDBRANCH   2   3
ENDBRANCH   1   2
BRANCH   1  25
ATOM     25  C   UNL A   1      42.146  21.843  27.503  1.00  0.00     0.188 C 
BRANCH  25  26
ATOM     26  O   UNL A   1      42.234  20.912  26.445  1.00  0.00    -0.376 OA
BRANCH  26  27
ATOM     27  C   UNL A   1      42.316  19.544  26.797  1.00  0.00     0.202 C 
BRANCH  27  28
ATOM     28  C   UNL A   1      42.996  18.661  25.744  1.00  0.00     0.261 C 
BRANCH  28  29
ATOM     29  O   UNL A   1      43.380  19.340  24.531  1.00  0.00    -0.460 OA
BRANCH  29  30
ATOM     30  C   UNL A   1      44.699  19.508  24.316  1.00  0.00     0.338 C 
ATOM     31  O   UNL A   1      45.479  18.698  23.824  1.00  0.00    -0.246 OA
BRANCH  30  32
ATOM     32  C   UNL A   1      45.038  20.916  24.588  1.00  0.00     0.060 A 
ATOM     33  C   UNL A   1      45.669  21.238  25.795  1.00  0.00     0.016 A 
ATOM     34  C   UNL A   1      44.705  21.921  23.683  1.00  0.00     0.016 A 
ATOM     35  C   UNL A   1      45.934  22.562  26.130  1.00  0.00     0.010 A 
ATOM     36  C   UNL A   1      44.974  23.255  24.016  1.00  0.00     0.010 A 
ATOM     37  C   UNL A   1      45.565  23.584  25.252  1.00  0.00    -0.014 A 
BRANCH  37  38
ATOM     38  C   UNL A   1      45.656  24.999  25.685  1.00  0.00     0.031 A 
ATOM     39  C   UNL A   1      46.977  25.704  25.570  1.00  0.00     0.074 A 
ATOM     40  C   UNL A   1      44.577  25.663  26.137  1.00  0.00     0.049 A 
ATOM     41  N   UNL A   1      47.350  26.861  26.050  1.00  0.00    -0.248 NA
ATOM     42  C   UNL A   1      48.020  25.002  24.805  1.00  0.00     0.031 C 
ATOM     43  C   UNL A   1      43.217  25.130  26.193  1.00  0.00     0.029 A 
ATOM     44  N   UNL A   1      44.462  26.935  26.641  1.00  0.00    -0.354 N 
ATOM     45  C   UNL A   1      48.682  27.008  25.682  1.00  0.00     0.074 A 
ATOM     46  C   UNL A   1      49.051  25.822  24.938  1.00  0.00     0.031 C 
ATOM     47  C   UNL A   1      42.404  26.066  26.711  1.00  0.00     0.029 A 
ATOM     48  C   UNL A   1      43.198  27.235  27.084  1.00  0.00     0.049 A 
ATOM     49  H   UNL A   1      45.213  27.571  26.680  1.00  0.00     0.167 HD
ATOM     50  C   UNL A   1      49.518  28.038  25.951  1.00  0.00     0.037 A 
ATOM     51  C   UNL A   1      42.748  28.310  27.759  1.00  0.00     0.037 A 
ATOM     52  C   UNL A   1      49.130  29.224  26.666  1.00  0.00     0.049 A 
ATOM     53  C   UNL A   1      43.716  29.403  28.129  1.00  0.00     0.074 A 
ATOM     54  C   UNL A   1      49.900  30.325  26.997  1.00  0.00     0.029 A 
ATOM     55  N   UNL A   1      47.854  29.466  27.153  1.00  0.00    -0.354 N 
ATOM     56  N   UNL A   1      44.992  29.511  27.844  1.00  0.00    -0.248 NA
ATOM     57  C   UNL A   1      43.187  30.514  28.933  1.00  0.00     0.031 C 
ATOM     58  C   UNL A   1      49.099  31.214  27.723  1.00  0.00     0.029 A 
ATOM     59  C   UNL A   1      47.819  30.688  27.804  1.00  0.00     0.049 A 
ATOM     60  H   UNL A   1      47.086  28.858  27.052  1.00  0.00     0.167 HD
ATOM     61  C   UNL A   1      45.415  30.699  28.423  1.00  0.00     0.074 A 
ATOM     62  C   UNL A   1      44.254  31.290  29.059  1.00  0.00     0.031 C 
ATOM     63  C   UNL A   1      46.653  31.252  28.433  1.00  0.00     0.037 A 
BRANCH  50  64
ATOM     64  C   UNL A   1      50.945  27.897  25.515  1.00  0.00     0.064 A 
ATOM     65  C   UNL A   1      51.357  28.183  24.206  1.00  0.00     0.173 A 
ATOM     66  C   UNL A   1      51.920  27.476  26.434  1.00  0.00     0.173 A 
ATOM     67  F   UNL A   1      50.460  28.569  23.286  1.00  0.00    -0.203 F 
ATOM     68  C   UNL A   1      52.688  28.030  23.824  1.00  0.00     0.198 A 
ATOM     69  C   UNL A   1      53.254  27.350  26.056  1.00  0.00     0.198 A 
ATOM     70  F   UNL A   1      51.578  27.189  27.699  1.00  0.00    -0.203 F 
ATOM     71  F   UNL A   1      53.051  28.261  22.556  1.00  0.00    -0.200 F 
ATOM     72  C   UNL A   1      53.636  27.619  24.751  1.00  0.00     0.200 A 
ATOM     73  F   UNL A   1      54.169  26.959  26.954  1.00  0.00    -0.200 F 
ATOM     74  F   UNL A   1      54.916  27.472  24.383  1.00  0.00    -0.200 F 
ENDBRANCH  50  64
BRANCH  51  75
ATOM     75  C   UNL A   1      41.325  28.376  28.186  1.00  0.00     0.064 A 
ATOM     76  C   UNL A   1      40.342  28.923  27.351  1.00  0.00     0.173 A 
ATOM     77  C   UNL A   1      40.922  27.902  29.444  1.00  0.00     0.173 A 
ATOM     78  F   UNL A   1      40.683  29.422  26.154  1.00  0.00    -0.203 F 
ATOM     79  C   UNL A   1      39.011  29.000  27.760  1.00  0.00     0.198 A 
ATOM     80  C   UNL A   1      39.587  27.952  29.840  1.00  0.00     0.198 A 
ATOM     81  F   UNL A   1      41.825  27.380  30.287  1.00  0.00    -0.203 F 
ATOM     82  F   UNL A   1      38.098  29.567  26.960  1.00  0.00    -0.200 F 
ATOM     83  C   UNL A   1      38.634  28.507  29.001  1.00  0.00     0.200 A 
ATOM     84  F   UNL A   1      39.226  27.468  31.037  1.00  0.00    -0.200 F 
ATOM     85  F   UNL A   1      37.353  28.575  29.391  1.00  0.00    -0.200 F 
ENDBRANCH  51  75
BRANCH  63  86
ATOM     86  C   UNL A   1      46.810  32.567  29.138  1.00  0.00     0.064 A 
ATOM     87  C   UNL A   1      46.556  33.782  28.485  1.00  0.00     0.173 A 
ATOM     88  C   UNL A   1      47.177  32.610  30.491  1.00  0.00     0.173 A 
ATOM     89  F   UNL A   1      46.217  33.792  27.188  1.00  0.00    -0.203 F 
ATOM     90  C   UNL A   1      46.687  34.994  29.156  1.00  0.00     0.198 A 
ATOM     91  C   UNL A   1      47.281  33.822  31.167  1.00  0.00     0.198 A 
ATOM     92  F   UNL A   1      47.424  31.473  31.161  1.00  0.00    -0.203 F 
ATOM     93  F   UNL A   1      46.481  36.146  28.503  1.00  0.00    -0.200 F 
ATOM     94  C   UNL A   1      47.043  35.014  30.498  1.00  0.00     0.200 A 
ATOM     95  F   UNL A   1      47.613  33.838  32.465  1.00  0.00    -0.200 F 
ATOM     96  F   UNL A   1      47.161  36.181  31.144  1.00  0.00    -0.200 F 
ENDBRANCH  63  86
ENDBRANCH  37  38
ENDBRANCH  30  32
ENDBRANCH  29  30
ENDBRANCH  28  29
ENDBRANCH  27  28
ENDBRANCH  26  27
ENDBRANCH  25  26
ENDBRANCH   1  25
TORSDOF 24
ENDMDL
MODEL 2
REMARK VINA RESULT:      -9.7      6.793     11.173
REMARK SMILES CC(C)Cc1ccc([C@H](CC[C@@H](C)O)C(=O)OCCOCCOCCOC(=O)c2ccc(-c3c4nc(c(-c5c(F)c(F)c(F)c(F)c5F)c5ccc([nH]5)c(-c5c(F)c(F)c(F)c(F)c5F)c5nc(c(-c6c(F)c(F)c(F)c(F)c6F)c6ccc3[nH]6)C=C5)C=C4)cc2)cc1
REMARK SMILES IDX 21 1 20 2 19 3 18 4 17 5 15 6 16 7 9 8 8 9 5 10 6 11 93 12
REMARK SMILES IDX 7 13 92 14 4 15 2 16 1 17 3 18 10 19 11 20 12 21 13 22 14 23
REMARK SMILES IDX 22 25 23 26 24 27 25 28 26 29 27 30 28 31 29 32 30 33 91 34
REMARK SMILES IDX 31 35 90 36 32 37 33 38 34 39 84 40 35 41 89 42 83 43 85 44
REMARK SMILES IDX 36 45 88 46 82 47 81 48 37 50 69 51 49 52 68 53 50 54 53 55
REMARK SMILES IDX 67 56 86 57 51 58 52 59 66 61 87 62 54 63 38 64 39 65 47 66
REMARK SMILES IDX 40 67 41 68 45 69 48 70 42 71 43 72 46 73 44 74 70 75 71 76
REMARK SMILES IDX 79 77 72 78 73 79 77 80 80 81 74 82 75 83 78 84 76 85 55 86
REMARK SMILES IDX 56 87 64 88 57 89 58 90 62 91 65 92 59 93 60 94 63 95 61 96
REMARK H PARENT 14 24 85 49 53 60
REMARK Flexibility Score: inf
ROOT
ATOM      1  C   UNL A   1      33.651  28.665  25.570  1.00  0.00     0.188 C 
ENDROOT
BRANCH   1   2
ATOM      2  O   UNL A   1      34.457  28.276  24.463  1.00  0.00    -0.376 OA
BRANCH   2   3
ATOM      3  C   UNL A   1      33.891  28.172  23.161  1.00  0.00     0.202 C 
BRANCH   3   4
ATOM      4  C   UNL A   1      33.594  26.766  22.621  1.00  0.00     0.261 C 
BRANCH   4   5
ATOM      5  O   UNL A   1      32.730  25.934  23.433  1.00  0.00    -0.463 OA
BRANCH   5   6
ATOM      6  C   UNL A   1      31.468  25.767  22.953  1.00  0.00     0.313 C 
ATOM      7  O   UNL A   1      31.219  25.443  21.792  1.00  0.00    -0.252 OA
BRANCH   6   8
ATOM      8  C   UNL A   1      30.339  26.071  23.953  1.00  0.00     0.129 C 
BRANCH   8   9
ATOM      9  C   UNL A   1      29.576  27.298  23.474  1.00  0.00    -0.034 A 
ATOM     10  C   UNL A   1      28.298  29.730  22.863  1.00  0.00    -0.048 A 
ATOM     11  C   UNL A   1      29.686  29.618  22.749  1.00  0.00     0.004 A 
ATOM     12  C   UNL A   1      27.548  28.601  23.209  1.00  0.00     0.004 A 
ATOM     13  C   UNL A   1      30.316  28.413  23.045  1.00  0.00     0.005 A 
ATOM     14  C   UNL A   1      28.181  27.403  23.532  1.00  0.00     0.005 A 
BRANCH  10  15
ATOM     15  C   UNL A   1      27.621  31.068  22.720  1.00  0.00     0.038 C 
BRANCH  15  16
ATOM     16  C   UNL A   1      28.510  32.085  21.971  1.00  0.00    -0.013 C 
ATOM     17  C   UNL A   1      28.019  32.341  20.542  1.00  0.00     0.008 C 
ATOM     18  C   UNL A   1      28.569  33.397  22.750  1.00  0.00     0.008 C 
ENDBRANCH  15  16
ENDBRANCH  10  15
ENDBRANCH   8   9
BRANCH   8  19
ATOM     19  C   UNL A   1      30.647  26.046  25.472  1.00  0.00     0.023 C 
BRANCH  19  20
ATOM     20  C   UNL A   1      30.184  24.721  26.117  1.00  0.00     0.033 C 
BRANCH  20  21
ATOM     21  C   UNL A   1      31.322  23.695  26.245  1.00  0.00     0.111 C 
ATOM     22  C   UNL A   1      32.676  24.358  26.467  1.00  0.00     0.038 C 
BRANCH  21  23
ATOM     23  O   UNL A   1      31.065  22.829  27.345  1.00  0.00    -0.393 OA
ATOM     24  H   UNL A   1      31.838  22.263  27.499  1.00  0.00     0.210 HD
ENDBRANCH  21  23
ENDBRANCH  20  21
ENDBRANCH  19  20
ENDBRANCH   8  19
ENDBRANCH   6   8
ENDBRANCH   5   6
ENDBRANCH   4   5
ENDBRANCH   3   4
ENDBRANCH   2   3
ENDBRANCH   1   2
BRANCH   1  25
ATOM     25  C   UNL A   1      34.284  29.493  26.685  1.00  0.00     0.188 C 
BRANCH  25  26
ATOM     26  O   UNL A   1      33.356  29.993  27.625  1.00  0.00    -0.376 OA
BRANCH  26  27
ATOM     27  C   UNL A   1      32.613  31.137  27.247  1.00  0.00     0.202 C 
BRANCH  27  28
ATOM     28  C   UNL A   1      33.313  32.470  27.537  1.00  0.00     0.261 C 
BRANCH  28  29
ATOM     29  O   UNL A   1      32.493  33.463  28.186  1.00  0.00    -0.460 OA
BRANCH  29  30
ATOM     30  C   UNL A   1      33.107  34.591  28.594  1.00  0.00     0.338 C 
ATOM     31  O   UNL A   1      32.712  35.744  28.449  1.00  0.00    -0.246 OA
BRANCH  30  32
ATOM     32  C   UNL A   1      34.257  34.216  29.434  1.00  0.00     0.060 A 
ATOM     33  C   UNL A   1      35.544  34.565  29.011  1.00  0.00     0.016 A 
ATOM     34  C   UNL A   1      34.081  33.491  30.610  1.00  0.00     0.016 A 
ATOM     35  C   UNL A   1      36.665  34.160  29.729  1.00  0.00     0.010 A 
ATOM     36  C   UNL A   1      35.207  33.085  31.337  1.00  0.00     0.010 A 
ATOM     37  C   UNL A   1      36.505  33.394  30.886  1.00  0.00    -0.014 A 
BRANCH  37  38
ATOM     38  C   UNL A   1      37.689  32.790  31.542  1.00  0.00     0.031 A 
ATOM     39  C   UNL A   1      38.388  31.650  30.859  1.00  0.00     0.074 A 
ATOM     40  C   UNL A   1      38.163  33.267  32.707  1.00  0.00     0.049 A 
ATOM     41  N   UNL A   1      39.312  30.845  31.313  1.00  0.00    -0.248 NA
ATOM     42  C   UNL A   1      37.985  31.384  29.469  1.00  0.00     0.031 C 
ATOM     43  C   UNL A   1      37.646  34.436  33.416  1.00  0.00     0.029 A 
ATOM     44  N   UNL A   1      39.189  32.817  33.501  1.00  0.00    -0.354 N 
ATOM     45  C   UNL A   1      39.572  29.952  30.281  1.00  0.00     0.074 A 
ATOM     46  C   UNL A   1      38.709  30.314  29.177  1.00  0.00     0.031 C 
ATOM     47  C   UNL A   1      38.352  34.608  34.545  1.00  0.00     0.029 A 
ATOM     48  C   UNL A   1      39.323  33.523  34.671  1.00  0.00     0.049 A 
ATOM     49  H   UNL A   1      39.771  32.063  33.256  1.00  0.00     0.167 HD
ATOM     50  C   UNL A   1      40.448  28.920  30.265  1.00  0.00     0.037 A 
ATOM     51  C   UNL A   1      40.106  33.287  35.742  1.00  0.00     0.037 A 
ATOM     52  C   UNL A   1      41.322  28.588  31.358  1.00  0.00     0.049 A 
ATOM     53  C   UNL A   1      41.007  32.079  35.740  1.00  0.00     0.074 A 
ATOM     54  C   UNL A   1      42.243  27.560  31.449  1.00  0.00     0.029 A 
ATOM     55  N   UNL A   1      41.387  29.291  32.553  1.00  0.00    -0.354 N 
ATOM     56  N   UNL A   1      41.201  31.192  34.794  1.00  0.00    -0.248 NA
ATOM     57  C   UNL A   1      41.779  31.827  36.965  1.00  0.00     0.031 C 
ATOM     58  C   UNL A   1      42.835  27.615  32.716  1.00  0.00     0.029 A 
ATOM     59  C   UNL A   1      42.316  28.704  33.397  1.00  0.00     0.049 A 
ATOM     60  H   UNL A   1      40.852  30.088  32.769  1.00  0.00     0.167 HD
ATOM     61  C   UNL A   1      42.122  30.285  35.301  1.00  0.00     0.074 A 
ATOM     62  C   UNL A   1      42.464  30.741  36.634  1.00  0.00     0.031 C 
ATOM     63  C   UNL A   1      42.636  29.173  34.721  1.00  0.00     0.037 A 
BRANCH  50  64
ATOM     64  C   UNL A   1      40.460  28.046  29.047  1.00  0.00     0.064 A 
ATOM     65  C   UNL A   1      41.267  28.328  27.936  1.00  0.00     0.173 A 
ATOM     66  C   UNL A   1      39.653  26.898  28.999  1.00  0.00     0.173 A 
ATOM     67  F   UNL A   1      42.040  29.425  27.924  1.00  0.00    -0.203 F 
ATOM     68  C   UNL A   1      41.248  27.508  26.810  1.00  0.00     0.198 A 
ATOM     69  C   UNL A   1      39.657  26.066  27.884  1.00  0.00     0.198 A 
ATOM     70  F   UNL A   1      38.862  26.585  30.036  1.00  0.00    -0.203 F 
ATOM     71  F   UNL A   1      41.989  27.822  25.740  1.00  0.00    -0.200 F 
ATOM     72  C   UNL A   1      40.447  26.374  26.788  1.00  0.00     0.200 A 
ATOM     73  F   UNL A   1      38.888  24.968  27.867  1.00  0.00    -0.200 F 
ATOM     74  F   UNL A   1      40.430  25.585  25.705  1.00  0.00    -0.200 F 
ENDBRANCH  50  64
BRANCH  51  75
ATOM     75  C   UNL A   1      40.027  34.176  36.931  1.00  0.00     0.064 A 
ATOM     76  C   UNL A   1      39.141  33.905  37.982  1.00  0.00     0.173 A 
ATOM     77  C   UNL A   1      40.831  35.321  37.035  1.00  0.00     0.173 A 
ATOM     78  F   UNL A   1      38.327  32.842  37.913  1.00  0.00    -0.203 F 
ATOM     79  C   UNL A   1      39.058  34.749  39.088  1.00  0.00     0.198 A 
ATOM     80  C   UNL A   1      40.768  36.149  38.154  1.00  0.00     0.198 A 
ATOM     81  F   UNL A   1      41.688  35.633  36.050  1.00  0.00    -0.203 F 
ATOM     82  F   UNL A   1      38.171  34.491  40.060  1.00  0.00    -0.200 F 
ATOM     83  C   UNL A   1      39.877  35.866  39.177  1.00  0.00     0.200 A 
ATOM     84  F   UNL A   1      41.567  37.222  38.238  1.00  0.00    -0.200 F 
ATOM     85  F   UNL A   1      39.800  36.674  40.244  1.00  0.00    -0.200 F 
ENDBRANCH  51  75
BRANCH  63  86
ATOM     86  C   UNL A   1      43.632  28.384  35.517  1.00  0.00     0.064 A 
ATOM     87  C   UNL A   1      45.011  28.608  35.391  1.00  0.00     0.173 A 
ATOM     88  C   UNL A   1      43.203  27.422  36.443  1.00  0.00     0.173 A 
ATOM     89  F   UNL A   1      45.471  29.507  34.508  1.00  0.00    -0.203 F 
ATOM     90  C   UNL A   1      45.925  27.883  36.150  1.00  0.00     0.198 A 
ATOM     91  C   UNL A   1      44.118  26.717  37.219  1.00  0.00     0.198 A 
ATOM     92  F   UNL A   1      41.893  27.176  36.604  1.00  0.00    -0.203 F 
ATOM     93  F   UNL A   1      47.240  28.083  35.985  1.00  0.00    -0.200 F 
ATOM     94  C   UNL A   1      45.478  26.942  37.068  1.00  0.00     0.200 A 
ATOM     95  F   UNL A   1      43.684  25.818  38.113  1.00  0.00    -0.200 F 
ATOM     96  F   UNL A   1      46.359  26.249  37.802  1.00  0.00    -0.200 F 
ENDBRANCH  63  86
ENDBRANCH  37  38
ENDBRANCH  30  32
ENDBRANCH  29  30
ENDBRANCH  28  29
ENDBRANCH  27  28
ENDBRANCH  26  27
ENDBRANCH  25  26
ENDBRANCH   1  25
TORSDOF 24
ENDMDL
MODEL 3
REMARK VINA RESULT:      -9.0      4.243      9.479
REMARK SMILES CC(C)Cc1ccc([C@H](CC[C@@H](C)O)C(=O)OCCOCCOCCOC(=O)c2ccc(-c3c4nc(c(-c5c(F)c(F)c(F)c(F)c5F)c5ccc([nH]5)c(-c5c(F)c(F)c(F)c(F)c5F)c5nc(c(-c6c(F)c(F)c(F)c(F)c6F)c6ccc3[nH]6)C=C5)C=C4)cc2)cc1
REMARK SMILES IDX 21 1 20 2 19 3 18 4 17 5 15 6 16 7 9 8 8 9 5 10 6 11 93 12
REMARK SMILES IDX 7 13 92 14 4 15 2 16 1 17 3 18 10 19 11 20 12 21 13 22 14 23
REMARK SMILES IDX 22 25 23 26 24 27 25 28 26 29 27 30 28 31 29 32 30 33 91 34
REMARK SMILES IDX 31 35 90 36 32 37 33 38 34 39 84 40 35 41 89 42 83 43 85 44
REMARK SMILES IDX 36 45 88 46 82 47 81 48 37 50 69 51 49 52 68 53 50 54 53 55
REMARK SMILES IDX 67 56 86 57 51 58 52 59 66 61 87 62 54 63 38 64 39 65 47 66
REMARK SMILES IDX 40 67 41 68 45 69 48 70 42 71 43 72 46 73 44 74 70 75 71 76
REMARK SMILES IDX 79 77 72 78 73 79 77 80 80 81 74 82 75 83 78 84 76 85 55 86
REMARK SMILES IDX 56 87 64 88 57 89 58 90 62 91 65 92 59 93 60 94 63 95 61 96
REMARK H PARENT 14 24 85 49 53 60
REMARK Flexibility Score: inf
ROOT
ATOM      1  C   UNL A   1      34.172  32.748  28.796  1.00  0.00     0.188 C 
ENDROOT
BRANCH   1   2
ATOM      2  O   UNL A   1      33.513  32.308  27.614  1.00  0.00    -0.376 OA
BRANCH   2   3
ATOM      3  C   UNL A   1      33.625  30.954  27.189  1.00  0.00     0.202 C 
BRANCH   3   4
ATOM      4  C   UNL A   1      32.336  30.221  26.792  1.00  0.00     0.261 C 
BRANCH   4   5
ATOM      5  O   UNL A   1      32.501  28.942  26.132  1.00  0.00    -0.463 OA
BRANCH   5   6
ATOM      6  C   UNL A   1      31.480  28.061  26.313  1.00  0.00     0.313 C 
ATOM      7  O   UNL A   1      31.030  27.757  27.417  1.00  0.00    -0.252 OA
BRANCH   6   8
ATOM      8  C   UNL A   1      30.946  27.402  25.029  1.00  0.00     0.129 C 
BRANCH   8   9
ATOM      9  C   UNL A   1      31.733  26.126  24.766  1.00  0.00    -0.034 A 
ATOM     10  C   UNL A   1      33.329  23.815  24.593  1.00  0.00    -0.048 A 
ATOM     11  C   UNL A   1      32.268  23.869  25.499  1.00  0.00     0.004 A 
ATOM     12  C   UNL A   1      33.540  24.891  23.723  1.00  0.00     0.004 A 
ATOM     13  C   UNL A   1      31.475  25.009  25.579  1.00  0.00     0.005 A 
ATOM     14  C   UNL A   1      32.764  26.043  23.824  1.00  0.00     0.005 A 
BRANCH  10  15
ATOM     15  C   UNL A   1      34.302  22.665  24.616  1.00  0.00     0.038 C 
BRANCH  15  16
ATOM     16  C   UNL A   1      33.781  21.488  25.469  1.00  0.00    -0.013 C 
ATOM     17  C   UNL A   1      33.994  20.135  24.781  1.00  0.00     0.008 C 
ATOM     18  C   UNL A   1      34.460  21.496  26.836  1.00  0.00     0.008 C 
ENDBRANCH  15  16
ENDBRANCH  10  15
ENDBRANCH   8   9
BRANCH   8  19
ATOM     19  C   UNL A   1      30.693  28.282  23.776  1.00  0.00     0.023 C 
BRANCH  19  20
ATOM     20  C   UNL A   1      29.306  27.995  23.160  1.00  0.00     0.033 C 
BRANCH  20  21
ATOM     21  C   UNL A   1      28.420  29.249  23.086  1.00  0.00     0.111 C 
ATOM     22  C   UNL A   1      28.701  30.083  21.843  1.00  0.00     0.038 C 
BRANCH  21  23
ATOM     23  O   UNL A   1      27.049  28.867  23.066  1.00  0.00    -0.393 OA
ATOM     24  H   UNL A   1      26.537  29.525  22.568  1.00  0.00     0.210 HD
ENDBRANCH  21  23
ENDBRANCH  20  21
ENDBRANCH  19  20
ENDBRANCH   8  19
ENDBRANCH   6   8
ENDBRANCH   5   6
ENDBRANCH   4   5
ENDBRANCH   3   4
ENDBRANCH   2   3
ENDBRANCH   1   2
BRANCH   1  25
ATOM     25  C   UNL A   1      34.189  34.241  29.117  1.00  0.00     0.188 C 
BRANCH  25  26
ATOM     26  O   UNL A   1      33.282  34.619  30.131  1.00  0.00    -0.376 OA
BRANCH  26  27
ATOM     27  C   UNL A   1      33.773  34.634  31.458  1.00  0.00     0.202 C 
BRANCH  27  28
ATOM     28  C   UNL A   1      35.209  34.118  31.606  1.00  0.00     0.261 C 
BRANCH  28  29
ATOM     29  O   UNL A   1      35.331  32.695  31.812  1.00  0.00    -0.460 OA
BRANCH  29  30
ATOM     30  C   UNL A   1      36.271  32.282  32.685  1.00  0.00     0.338 C 
ATOM     31  O   UNL A   1      36.219  32.335  33.910  1.00  0.00    -0.246 OA
BRANCH  30  32
ATOM     32  C   UNL A   1      37.314  31.561  31.936  1.00  0.00     0.060 A 
ATOM     33  C   UNL A   1      38.205  30.742  32.638  1.00  0.00     0.016 A 
ATOM     34  C   UNL A   1      37.446  31.716  30.558  1.00  0.00     0.016 A 
ATOM     35  C   UNL A   1      39.256  30.106  31.985  1.00  0.00     0.010 A 
ATOM     36  C   UNL A   1      38.500  31.075  29.897  1.00  0.00     0.010 A 
ATOM     37  C   UNL A   1      39.427  30.289  30.610  1.00  0.00    -0.014 A 
BRANCH  37  38
ATOM     38  C   UNL A   1      40.652  29.786  29.944  1.00  0.00     0.031 A 
ATOM     39  C   UNL A   1      41.811  30.723  29.765  1.00  0.00     0.074 A 
ATOM     40  C   UNL A   1      40.752  28.507  29.538  1.00  0.00     0.049 A 
ATOM     41  N   UNL A   1      42.900  30.578  29.056  1.00  0.00    -0.248 NA
ATOM     42  C   UNL A   1      41.727  32.002  30.488  1.00  0.00     0.031 C 
ATOM     43  C   UNL A   1      39.744  27.470  29.751  1.00  0.00     0.029 A 
ATOM     44  N   UNL A   1      41.755  27.868  28.852  1.00  0.00    -0.354 N 
ATOM     45  C   UNL A   1      43.611  31.760  29.214  1.00  0.00     0.074 A 
ATOM     46  C   UNL A   1      42.831  32.613  30.086  1.00  0.00     0.031 C 
ATOM     47  C   UNL A   1      40.177  26.324  29.201  1.00  0.00     0.029 A 
ATOM     48  C   UNL A   1      41.458  26.565  28.539  1.00  0.00     0.049 A 
ATOM     49  H   UNL A   1      42.605  28.301  28.610  1.00  0.00     0.167 HD
ATOM     50  C   UNL A   1      44.803  32.102  28.671  1.00  0.00     0.037 A 
ATOM     51  C   UNL A   1      42.121  25.686  27.763  1.00  0.00     0.037 A 
ATOM     52  C   UNL A   1      45.583  31.234  27.830  1.00  0.00     0.049 A 
ATOM     53  C   UNL A   1      43.400  26.117  27.094  1.00  0.00     0.074 A 
ATOM     54  C   UNL A   1      46.801  31.483  27.223  1.00  0.00     0.029 A 
ATOM     55  N   UNL A   1      45.220  29.940  27.484  1.00  0.00    -0.354 N 
ATOM     56  N   UNL A   1      44.037  27.261  27.184  1.00  0.00    -0.248 NA
ATOM     57  C   UNL A   1      44.039  25.145  26.196  1.00  0.00     0.031 C 
ATOM     58  C   UNL A   1      47.154  30.354  26.475  1.00  0.00     0.029 A 
ATOM     59  C   UNL A   1      46.178  29.386  26.652  1.00  0.00     0.049 A 
ATOM     60  H   UNL A   1      44.401  29.484  27.786  1.00  0.00     0.167 HD
ATOM     61  C   UNL A   1      45.153  27.142  26.367  1.00  0.00     0.074 A 
ATOM     62  C   UNL A   1      45.119  25.807  25.804  1.00  0.00     0.031 C 
ATOM     63  C   UNL A   1      46.119  28.056  26.102  1.00  0.00     0.037 A 
BRANCH  50  64
ATOM     64  C   UNL A   1      45.304  33.491  28.929  1.00  0.00     0.064 A 
ATOM     65  C   UNL A   1      44.882  34.589  28.168  1.00  0.00     0.173 A 
ATOM     66  C   UNL A   1      46.218  33.724  29.969  1.00  0.00     0.173 A 
ATOM     67  F   UNL A   1      44.025  34.416  27.149  1.00  0.00    -0.203 F 
ATOM     68  C   UNL A   1      45.375  35.868  28.419  1.00  0.00     0.198 A 
ATOM     69  C   UNL A   1      46.688  35.008  30.235  1.00  0.00     0.198 A 
ATOM     70  F   UNL A   1      46.655  32.707  30.727  1.00  0.00    -0.203 F 
ATOM     71  F   UNL A   1      44.997  36.895  27.647  1.00  0.00    -0.200 F 
ATOM     72  C   UNL A   1      46.273  36.076  29.456  1.00  0.00     0.200 A 
ATOM     73  F   UNL A   1      47.551  35.207  31.241  1.00  0.00    -0.200 F 
ATOM     74  F   UNL A   1      46.747  37.306  29.698  1.00  0.00    -0.200 F 
ENDBRANCH  50  64
BRANCH  51  75
ATOM     75  C   UNL A   1      41.556  24.331  27.524  1.00  0.00     0.064 A 
ATOM     76  C   UNL A   1      40.414  24.150  26.734  1.00  0.00     0.173 A 
ATOM     77  C   UNL A   1      42.145  23.190  28.091  1.00  0.00     0.173 A 
ATOM     78  F   UNL A   1      39.795  25.213  26.199  1.00  0.00    -0.203 F 
ATOM     79  C   UNL A   1      39.877  22.881  26.525  1.00  0.00     0.198 A 
ATOM     80  C   UNL A   1      41.625  21.919  27.859  1.00  0.00     0.198 A 
ATOM     81  F   UNL A   1      43.233  23.309  28.867  1.00  0.00    -0.203 F 
ATOM     82  F   UNL A   1      38.759  22.740  25.800  1.00  0.00    -0.200 F 
ATOM     83  C   UNL A   1      40.487  21.766  27.081  1.00  0.00     0.200 A 
ATOM     84  F   UNL A   1      42.222  20.844  28.392  1.00  0.00    -0.200 F 
ATOM     85  F   UNL A   1      39.974  20.545  26.875  1.00  0.00    -0.200 F 
ENDBRANCH  51  75
BRANCH  63  86
ATOM     86  C   UNL A   1      47.223  27.637  25.176  1.00  0.00     0.064 A 
ATOM     87  C   UNL A   1      48.341  26.933  25.644  1.00  0.00     0.173 A 
ATOM     88  C   UNL A   1      47.141  27.906  23.802  1.00  0.00     0.173 A 
ATOM     89  F   UNL A   1      48.472  26.665  26.952  1.00  0.00    -0.203 F 
ATOM     90  C   UNL A   1      49.350  26.532  24.772  1.00  0.00     0.198 A 
ATOM     91  C   UNL A   1      48.138  27.481  22.929  1.00  0.00     0.198 A 
ATOM     92  F   UNL A   1      46.086  28.571  23.305  1.00  0.00    -0.203 F 
ATOM     93  F   UNL A   1      50.431  25.897  25.246  1.00  0.00    -0.200 F 
ATOM     94  C   UNL A   1      49.244  26.801  23.415  1.00  0.00     0.200 A 
ATOM     95  F   UNL A   1      48.028  27.731  21.617  1.00  0.00    -0.200 F 
ATOM     96  F   UNL A   1      50.213  26.408  22.576  1.00  0.00    -0.200 F 
ENDBRANCH  63  86
ENDBRANCH  37  38
ENDBRANCH  30  32
ENDBRANCH  29  30
ENDBRANCH  28  29
ENDBRANCH  27  28
ENDBRANCH  26  27
ENDBRANCH  25  26
ENDBRANCH   1  25
TORSDOF 24
ENDMDL
