MODEL 1
REMARK VINA RESULT:      -8.8      0.000      0.000
REMARK SMILES CC1CC[NH+]([C@H](c2ccc(F)cc2)c2ccc([C@@H](C)C(=O)OCCOCCOCCOC(=O)c3ccc(-c4c5nc(c(-c6c(F)c(F)c(F)c(F)c6F)c6ccc([nH]6)c(-c6c(F)c(F)c(F)c(F)c6F)c6nc(c(-c7c(F)c(F)c(F)c(F)c7F)c7ccc4[nH]7)C=C6)C=C5)cc3)cc2-c2ccc(C(F)(F)F)cc2)CC1
REMARK SMILES IDX 26 1 25 2 24 3 23 4 22 5 20 6 21 7 18 8 19 9 17 10 14 11
REMARK SMILES IDX 15 12 98 13 16 14 97 15 6 16 5 17 1 18 2 19 3 20 110 21 4 22
REMARK SMILES IDX 109 23 7 25 8 26 13 27 9 28 12 29 10 30 11 31 99 32 100 33
REMARK SMILES IDX 108 34 101 35 107 36 102 37 103 38 104 39 105 40 106 41
REMARK SMILES IDX 27 42 28 43 29 44 30 45 31 46 32 47 33 48 34 49 35 50 96 51
REMARK SMILES IDX 36 52 95 53 37 54 38 55 39 56 89 57 40 58 94 59 88 60 90 61
REMARK SMILES IDX 41 62 93 63 87 64 86 65 42 67 74 68 54 69 73 70 55 71 58 72
REMARK SMILES IDX 72 73 91 74 56 75 57 76 71 78 92 79 59 80 43 81 44 82 52 83
REMARK SMILES IDX 45 84 46 85 50 86 53 87 47 88 48 89 51 90 49 91 75 92 76 93
REMARK SMILES IDX 84 94 77 95 78 96 82 97 85 98 79 99 80 100 83 101 81 102
REMARK SMILES IDX 60 103 61 104 69 105 62 106 63 107 67 108 70 109 64 110
REMARK SMILES IDX 65 111 68 112 66 113
REMARK H PARENT 5 24 90 66 58 77
REMARK Flexibility Score: inf
ROOT
ATOM      1  C   UNL A   1      46.649  31.646  40.461  1.00  0.00     0.188 C 
ENDROOT
BRANCH   1   2
ATOM      2  O   UNL A   1      46.194  30.772  41.487  1.00  0.00    -0.376 OA
BRANCH   2   3
ATOM      3  C   UNL A   1      46.664  29.432  41.509  1.00  0.00     0.202 C 
BRANCH   3   4
ATOM      4  C   UNL A   1      46.239  28.536  40.342  1.00  0.00     0.261 C 
BRANCH   4   5
ATOM      5  O   UNL A   1      46.176  27.128  40.662  1.00  0.00    -0.463 OA
BRANCH   5   6
ATOM      6  C   UNL A   1      45.067  26.459  40.253  1.00  0.00     0.313 C 
ATOM      7  O   UNL A   1      44.283  25.913  41.027  1.00  0.00    -0.252 OA
BRANCH   6   8
ATOM      8  C   UNL A   1      44.864  26.363  38.738  1.00  0.00     0.126 C 
ATOM      9  C   UNL A   1      43.372  26.528  38.451  1.00  0.00     0.025 C 
BRANCH   8  10
ATOM     10  C   UNL A   1      45.444  25.190  37.950  1.00  0.00    -0.033 A 
ATOM     11  C   UNL A   1      46.476  22.965  36.413  1.00  0.00     0.022 A 
ATOM     12  C   UNL A   1      46.793  23.180  37.775  1.00  0.00     0.011 A 
ATOM     13  C   UNL A   1      45.582  23.897  35.818  1.00  0.00    -0.009 A 
ATOM     14  C   UNL A   1      46.264  24.233  38.535  1.00  0.00     0.005 A 
ATOM     15  C   UNL A   1      45.105  24.995  36.594  1.00  0.00     0.013 A 
BRANCH  11  16
ATOM     16  C   UNL A   1      46.993  21.705  35.645  1.00  0.00     0.247 C 
BRANCH  16  17
ATOM     17  N   UNL A   1      47.051  20.400  36.385  1.00  0.00    -0.325 N 
ATOM     18  C   UNL A   1      46.353  17.662  39.752  1.00  0.00     0.008 C 
ATOM     19  C   UNL A   1      46.448  18.835  38.783  1.00  0.00    -0.003 C 
ATOM     20  C   UNL A   1      45.689  18.561  37.486  1.00  0.00     0.065 C 
ATOM     21  C   UNL A   1      47.896  19.122  38.406  1.00  0.00     0.065 C 
ATOM     22  C   UNL A   1      45.738  19.770  36.548  1.00  0.00     0.263 C 
ATOM     23  C   UNL A   1      47.992  20.352  37.505  1.00  0.00     0.263 C 
ATOM     24  H   UNL A   1      47.525  19.743  35.764  1.00  0.00     0.348 HD
ENDBRANCH  16  17
BRANCH  16  25
ATOM     25  C   UNL A   1      48.277  21.907  34.816  1.00  0.00     0.014 A 
ATOM     26  C   UNL A   1      48.838  23.175  34.599  1.00  0.00     0.013 A 
ATOM     27  C   UNL A   1      48.967  20.788  34.304  1.00  0.00     0.013 A 
ATOM     28  C   UNL A   1      50.061  23.316  33.939  1.00  0.00     0.040 A 
ATOM     29  C   UNL A   1      50.162  20.937  33.593  1.00  0.00     0.040 A 
ATOM     30  C   UNL A   1      50.704  22.202  33.428  1.00  0.00     0.123 A 
ATOM     31  F   UNL A   1      51.865  22.347  32.775  1.00  0.00    -0.207 F 
ENDBRANCH  16  25
ENDBRANCH  11  16
BRANCH  13  32
ATOM     32  C   UNL A   1      45.125  23.797  34.415  1.00  0.00    -0.018 A 
ATOM     33  C   UNL A   1      45.711  24.601  33.428  1.00  0.00     0.009 A 
ATOM     34  C   UNL A   1      44.119  22.907  34.012  1.00  0.00     0.009 A 
ATOM     35  C   UNL A   1      45.341  24.513  32.085  1.00  0.00     0.014 A 
ATOM     36  C   UNL A   1      43.749  22.803  32.661  1.00  0.00     0.014 A 
ATOM     37  C   UNL A   1      44.367  23.596  31.682  1.00  0.00     0.056 A 
BRANCH  37  38
ATOM     38  C   UNL A   1      44.003  23.487  30.222  1.00  0.00     0.416 C 
ATOM     39  F   UNL A   1      44.610  22.432  29.614  1.00  0.00    -0.166 F 
ATOM     40  F   UNL A   1      42.665  23.310  30.028  1.00  0.00    -0.166 F 
ATOM     41  F   UNL A   1      44.340  24.588  29.495  1.00  0.00    -0.166 F 
ENDBRANCH  37  38
ENDBRANCH  13  32
ENDBRANCH   8  10
ENDBRANCH   6   8
ENDBRANCH   5   6
ENDBRANCH   4   5
ENDBRANCH   3   4
ENDBRANCH   2   3
ENDBRANCH   1   2
BRANCH   1  42
ATOM     42  C   UNL A   1      48.092  31.521  39.943  1.00  0.00     0.188 C 
BRANCH  42  43
ATOM     43  O   UNL A   1      48.198  31.151  38.578  1.00  0.00    -0.376 OA
BRANCH  43  44
ATOM     44  C   UNL A   1      49.402  30.486  38.235  1.00  0.00     0.202 C 
BRANCH  44  45
ATOM     45  C   UNL A   1      49.127  29.204  37.448  1.00  0.00     0.261 C 
BRANCH  45  46
ATOM     46  O   UNL A   1      49.623  29.255  36.097  1.00  0.00    -0.460 OA
BRANCH  46  47
ATOM     47  C   UNL A   1      49.127  28.325  35.254  1.00  0.00     0.338 C 
ATOM     48  O   UNL A   1      49.693  27.328  34.854  1.00  0.00    -0.246 OA
BRANCH  47  49
ATOM     49  C   UNL A   1      47.729  28.650  34.931  1.00  0.00     0.060 A 
ATOM     50  C   UNL A   1      46.719  27.726  35.218  1.00  0.00     0.016 A 
ATOM     51  C   UNL A   1      47.436  29.823  34.246  1.00  0.00     0.016 A 
ATOM     52  C   UNL A   1      45.416  27.939  34.769  1.00  0.00     0.010 A 
ATOM     53  C   UNL A   1      46.128  30.051  33.812  1.00  0.00     0.010 A 
ATOM     54  C   UNL A   1      45.120  29.094  34.037  1.00  0.00    -0.014 A 
BRANCH  54  55
ATOM     55  C   UNL A   1      43.796  29.271  33.398  1.00  0.00     0.031 A 
ATOM     56  C   UNL A   1      43.585  28.748  32.006  1.00  0.00     0.074 A 
ATOM     57  C   UNL A   1      42.806  29.921  34.031  1.00  0.00     0.049 A 
ATOM     58  N   UNL A   1      42.589  28.953  31.183  1.00  0.00    -0.248 NA
ATOM     59  C   UNL A   1      44.647  27.886  31.466  1.00  0.00     0.031 C 
ATOM     60  C   UNL A   1      42.869  30.419  35.402  1.00  0.00     0.029 A 
ATOM     61  N   UNL A   1      41.561  30.295  33.590  1.00  0.00    -0.354 N 
ATOM     62  C   UNL A   1      42.921  28.276  30.018  1.00  0.00     0.074 A 
ATOM     63  C   UNL A   1      44.211  27.659  30.237  1.00  0.00     0.031 C 
ATOM     64  C   UNL A   1      41.721  31.056  35.686  1.00  0.00     0.029 A 
ATOM     65  C   UNL A   1      40.868  31.054  34.498  1.00  0.00     0.049 A 
ATOM     66  H   UNL A   1      41.202  30.043  32.708  1.00  0.00     0.167 HD
ATOM     67  C   UNL A   1      42.210  28.186  28.868  1.00  0.00     0.037 A 
ATOM     68  C   UNL A   1      39.700  31.713  34.371  1.00  0.00     0.037 A 
ATOM     69  C   UNL A   1      40.917  28.786  28.669  1.00  0.00     0.049 A 
ATOM     70  C   UNL A   1      38.954  31.655  33.066  1.00  0.00     0.074 A 
ATOM     71  C   UNL A   1      40.098  28.718  27.556  1.00  0.00     0.029 A 
ATOM     72  N   UNL A   1      40.259  29.571  29.605  1.00  0.00    -0.354 N 
ATOM     73  N   UNL A   1      39.272  31.025  31.961  1.00  0.00    -0.248 NA
ATOM     74  C   UNL A   1      37.692  32.405  32.985  1.00  0.00     0.031 C 
ATOM     75  C   UNL A   1      38.968  29.506  27.798  1.00  0.00     0.029 A 
ATOM     76  C   UNL A   1      39.058  30.021  29.082  1.00  0.00     0.049 A 
ATOM     77  H   UNL A   1      40.596  29.779  30.506  1.00  0.00     0.167 HD
ATOM     78  C   UNL A   1      38.250  31.288  31.060  1.00  0.00     0.074 A 
ATOM     79  C   UNL A   1      37.293  32.129  31.749  1.00  0.00     0.031 C 
ATOM     80  C   UNL A   1      38.118  30.865  29.778  1.00  0.00     0.037 A 
BRANCH  67  81
ATOM     81  C   UNL A   1      42.836  27.448  27.722  1.00  0.00     0.064 A 
ATOM     82  C   UNL A   1      42.504  26.105  27.484  1.00  0.00     0.173 A 
ATOM     83  C   UNL A   1      43.781  28.049  26.878  1.00  0.00     0.173 A 
ATOM     84  F   UNL A   1      41.607  25.482  28.265  1.00  0.00    -0.203 F 
ATOM     85  C   UNL A   1      43.097  25.391  26.448  1.00  0.00     0.198 A 
ATOM     86  C   UNL A   1      44.352  27.339  25.823  1.00  0.00     0.198 A 
ATOM     87  F   UNL A   1      44.122  29.334  27.053  1.00  0.00    -0.203 F 
ATOM     88  F   UNL A   1      42.779  24.104  26.255  1.00  0.00    -0.200 F 
ATOM     89  C   UNL A   1      44.015  26.010  25.614  1.00  0.00     0.200 A 
ATOM     90  F   UNL A   1      45.220  27.946  25.002  1.00  0.00    -0.200 F 
ATOM     91  F   UNL A   1      44.571  25.327  24.603  1.00  0.00    -0.200 F 
ENDBRANCH  67  81
BRANCH  68  92
ATOM     92  C   UNL A   1      39.189  32.499  35.522  1.00  0.00     0.064 A 
ATOM     93  C   UNL A   1      39.542  33.846  35.697  1.00  0.00     0.173 A 
ATOM     94  C   UNL A   1      38.400  31.895  36.510  1.00  0.00     0.173 A 
ATOM     95  F   UNL A   1      40.295  34.467  34.777  1.00  0.00    -0.203 F 
ATOM     96  C   UNL A   1      39.154  34.549  36.835  1.00  0.00     0.198 A 
ATOM     97  C   UNL A   1      37.996  32.607  37.638  1.00  0.00     0.198 A 
ATOM     98  F   UNL A   1      38.020  30.617  36.373  1.00  0.00    -0.203 F 
ATOM     99  F   UNL A   1      39.541  35.821  36.999  1.00  0.00    -0.200 F 
ATOM    100  C   UNL A   1      38.382  33.928  37.806  1.00  0.00     0.200 A 
ATOM    101  F   UNL A   1      37.234  32.009  38.564  1.00  0.00    -0.200 F 
ATOM    102  F   UNL A   1      38.015  34.601  38.904  1.00  0.00    -0.200 F 
ENDBRANCH  68  92
BRANCH  80 103
ATOM    103  C   UNL A   1      36.889  31.290  29.026  1.00  0.00     0.064 A 
ATOM    104  C   UNL A   1      36.732  32.624  28.620  1.00  0.00     0.173 A 
ATOM    105  C   UNL A   1      35.832  30.401  28.791  1.00  0.00     0.173 A 
ATOM    106  F   UNL A   1      37.713  33.515  28.831  1.00  0.00    -0.203 F 
ATOM    107  C   UNL A   1      35.552  33.057  28.023  1.00  0.00     0.198 A 
ATOM    108  C   UNL A   1      34.661  30.832  28.169  1.00  0.00     0.198 A 
ATOM    109  F   UNL A   1      35.939  29.114  29.149  1.00  0.00    -0.203 F 
ATOM    110  F   UNL A   1      35.410  34.345  27.678  1.00  0.00    -0.200 F 
ATOM    111  C   UNL A   1      34.518  32.161  27.797  1.00  0.00     0.200 A 
ATOM    112  F   UNL A   1      33.672  29.961  27.931  1.00  0.00    -0.200 F 
ATOM    113  F   UNL A   1      33.383  32.578  27.219  1.00  0.00    -0.200 F 
ENDBRANCH  80 103
ENDBRANCH  54  55
ENDBRANCH  47  49
ENDBRANCH  46  47
ENDBRANCH  45  46
ENDBRANCH  44  45
ENDBRANCH  43  44
ENDBRANCH  42  43
ENDBRANCH   1  42
TORSDOF 23
ENDMDL
MODEL 2
REMARK VINA RESULT:      -8.4      5.805     10.982
REMARK SMILES CC1CC[NH+]([C@H](c2ccc(F)cc2)c2ccc([C@@H](C)C(=O)OCCOCCOCCOC(=O)c3ccc(-c4c5nc(c(-c6c(F)c(F)c(F)c(F)c6F)c6ccc([nH]6)c(-c6c(F)c(F)c(F)c(F)c6F)c6nc(c(-c7c(F)c(F)c(F)c(F)c7F)c7ccc4[nH]7)C=C6)C=C5)cc3)cc2-c2ccc(C(F)(F)F)cc2)CC1
REMARK SMILES IDX 26 1 25 2 24 3 23 4 22 5 20 6 21 7 18 8 19 9 17 10 14 11
REMARK SMILES IDX 15 12 98 13 16 14 97 15 6 16 5 17 1 18 2 19 3 20 110 21 4 22
REMARK SMILES IDX 109 23 7 25 8 26 13 27 9 28 12 29 10 30 11 31 99 32 100 33
REMARK SMILES IDX 108 34 101 35 107 36 102 37 103 38 104 39 105 40 106 41
REMARK SMILES IDX 27 42 28 43 29 44 30 45 31 46 32 47 33 48 34 49 35 50 96 51
REMARK SMILES IDX 36 52 95 53 37 54 38 55 39 56 89 57 40 58 94 59 88 60 90 61
REMARK SMILES IDX 41 62 93 63 87 64 86 65 42 67 74 68 54 69 73 70 55 71 58 72
REMARK SMILES IDX 72 73 91 74 56 75 57 76 71 78 92 79 59 80 43 81 44 82 52 83
REMARK SMILES IDX 45 84 46 85 50 86 53 87 47 88 48 89 51 90 49 91 75 92 76 93
REMARK SMILES IDX 84 94 77 95 78 96 82 97 85 98 79 99 80 100 83 101 81 102
REMARK SMILES IDX 60 103 61 104 69 105 62 106 63 107 67 108 70 109 64 110
REMARK SMILES IDX 65 111 68 112 66 113
REMARK H PARENT 5 24 90 66 58 77
REMARK Flexibility Score: inf
ROOT
ATOM      1  C   UNL A   1      44.604  43.053  30.928  1.00  0.00     0.188 C 
ENDROOT
BRANCH   1   2
ATOM      2  O   UNL A   1      44.312  42.330  32.118  1.00  0.00    -0.376 OA
BRANCH   2   3
ATOM      3  C   UNL A   1      43.099  41.596  32.197  1.00  0.00     0.202 C 
BRANCH   3   4
ATOM      4  C   UNL A   1      43.029  40.494  33.257  1.00  0.00     0.261 C 
BRANCH   4   5
ATOM      5  O   UNL A   1      44.307  40.123  33.820  1.00  0.00    -0.463 OA
BRANCH   5   6
ATOM      6  C   UNL A   1      44.677  38.823  33.690  1.00  0.00     0.313 C 
ATOM      7  O   UNL A   1      45.183  38.363  32.668  1.00  0.00    -0.252 OA
BRANCH   6   8
ATOM      8  C   UNL A   1      44.372  37.918  34.887  1.00  0.00     0.126 C 
ATOM      9  C   UNL A   1      45.675  37.239  35.309  1.00  0.00     0.025 C 
BRANCH   8  10
ATOM     10  C   UNL A   1      43.227  36.908  34.825  1.00  0.00    -0.033 A 
ATOM     11  C   UNL A   1      41.076  34.972  34.780  1.00  0.00     0.022 A 
ATOM     12  C   UNL A   1      41.833  35.316  33.636  1.00  0.00     0.011 A 
ATOM     13  C   UNL A   1      41.442  35.612  35.996  1.00  0.00    -0.009 A 
ATOM     14  C   UNL A   1      42.902  36.223  33.660  1.00  0.00     0.005 A 
ATOM     15  C   UNL A   1      42.493  36.577  35.984  1.00  0.00     0.013 A 
BRANCH  11  16
ATOM     16  C   UNL A   1      39.976  33.862  34.728  1.00  0.00     0.247 C 
BRANCH  16  17
ATOM     17  N   UNL A   1      40.420  32.428  34.696  1.00  0.00    -0.325 N 
ATOM     18  C   UNL A   1      42.443  28.820  36.182  1.00  0.00     0.008 C 
ATOM     19  C   UNL A   1      41.867  30.211  35.942  1.00  0.00    -0.003 C 
ATOM     20  C   UNL A   1      40.340  30.191  35.893  1.00  0.00     0.065 C 
ATOM     21  C   UNL A   1      42.352  30.787  34.618  1.00  0.00     0.065 C 
ATOM     22  C   UNL A   1      39.772  31.601  35.717  1.00  0.00     0.263 C 
ATOM     23  C   UNL A   1      41.842  32.214  34.424  1.00  0.00     0.263 C 
ATOM     24  H   UNL A   1      40.042  32.034  33.834  1.00  0.00     0.348 HD
ENDBRANCH  16  17
BRANCH  16  25
ATOM     25  C   UNL A   1      38.841  34.093  33.710  1.00  0.00     0.014 A 
ATOM     26  C   UNL A   1      39.071  34.133  32.326  1.00  0.00     0.013 A 
ATOM     27  C   UNL A   1      37.507  34.202  34.157  1.00  0.00     0.013 A 
ATOM     28  C   UNL A   1      38.008  34.233  31.424  1.00  0.00     0.040 A 
ATOM     29  C   UNL A   1      36.451  34.360  33.254  1.00  0.00     0.040 A 
ATOM     30  C   UNL A   1      36.712  34.362  31.893  1.00  0.00     0.123 A 
ATOM     31  F   UNL A   1      35.701  34.481  31.022  1.00  0.00    -0.207 F 
ENDBRANCH  16  25
ENDBRANCH  11  16
BRANCH  13  32
ATOM     32  C   UNL A   1      40.775  35.341  37.287  1.00  0.00    -0.018 A 
ATOM     33  C   UNL A   1      41.161  34.235  38.058  1.00  0.00     0.009 A 
ATOM     34  C   UNL A   1      39.760  36.162  37.798  1.00  0.00     0.009 A 
ATOM     35  C   UNL A   1      40.587  33.962  39.300  1.00  0.00     0.014 A 
ATOM     36  C   UNL A   1      39.187  35.903  39.053  1.00  0.00     0.014 A 
ATOM     37  C   UNL A   1      39.606  34.807  39.823  1.00  0.00     0.056 A 
BRANCH  37  38
ATOM     38  C   UNL A   1      39.021  34.519  41.184  1.00  0.00     0.416 C 
ATOM     39  F   UNL A   1      39.796  35.000  42.193  1.00  0.00    -0.166 F 
ATOM     40  F   UNL A   1      37.792  35.084  41.356  1.00  0.00    -0.166 F 
ATOM     41  F   UNL A   1      38.856  33.191  41.434  1.00  0.00    -0.166 F 
ENDBRANCH  37  38
ENDBRANCH  13  32
ENDBRANCH   8  10
ENDBRANCH   6   8
ENDBRANCH   5   6
ENDBRANCH   4   5
ENDBRANCH   3   4
ENDBRANCH   2   3
ENDBRANCH   1   2
BRANCH   1  42
ATOM     42  C   UNL A   1      45.602  42.472  29.914  1.00  0.00     0.188 C 
BRANCH  42  43
ATOM     43  O   UNL A   1      45.182  41.264  29.298  1.00  0.00    -0.376 OA
BRANCH  43  44
ATOM     44  C   UNL A   1      46.210  40.309  29.101  1.00  0.00     0.202 C 
BRANCH  44  45
ATOM     45  C   UNL A   1      45.647  38.891  29.017  1.00  0.00     0.261 C 
BRANCH  45  46
ATOM     46  O   UNL A   1      46.014  38.208  27.803  1.00  0.00    -0.460 OA
BRANCH  46  47
ATOM     47  C   UNL A   1      46.869  37.174  27.946  1.00  0.00     0.338 C 
ATOM     48  O   UNL A   1      48.082  37.226  27.950  1.00  0.00    -0.246 OA
BRANCH  47  49
ATOM     49  C   UNL A   1      46.108  35.937  28.185  1.00  0.00     0.060 A 
ATOM     50  C   UNL A   1      46.367  35.175  29.328  1.00  0.00     0.016 A 
ATOM     51  C   UNL A   1      45.219  35.480  27.220  1.00  0.00     0.016 A 
ATOM     52  C   UNL A   1      45.782  33.919  29.489  1.00  0.00     0.010 A 
ATOM     53  C   UNL A   1      44.616  34.232  27.386  1.00  0.00     0.010 A 
ATOM     54  C   UNL A   1      44.922  33.428  28.501  1.00  0.00    -0.014 A 
BRANCH  54  55
ATOM     55  C   UNL A   1      44.422  32.035  28.550  1.00  0.00     0.031 A 
ATOM     56  C   UNL A   1      45.215  30.953  27.875  1.00  0.00     0.074 A 
ATOM     57  C   UNL A   1      43.260  31.741  29.156  1.00  0.00     0.049 A 
ATOM     58  N   UNL A   1      44.883  29.713  27.625  1.00  0.00    -0.248 NA
ATOM     59  C   UNL A   1      46.560  31.325  27.409  1.00  0.00     0.031 C 
ATOM     60  C   UNL A   1      42.434  32.690  29.897  1.00  0.00     0.029 A 
ATOM     61  N   UNL A   1      42.563  30.561  29.219  1.00  0.00    -0.354 N 
ATOM     62  C   UNL A   1      45.962  29.168  26.942  1.00  0.00     0.074 A 
ATOM     63  C   UNL A   1      46.956  30.212  26.813  1.00  0.00     0.031 C 
ATOM     64  C   UNL A   1      41.326  32.061  30.323  1.00  0.00     0.029 A 
ATOM     65  C   UNL A   1      41.344  30.682  29.837  1.00  0.00     0.049 A 
ATOM     66  H   UNL A   1      42.903  29.711  28.857  1.00  0.00     0.167 HD
ATOM     67  C   UNL A   1      46.103  27.909  26.463  1.00  0.00     0.037 A 
ATOM     68  C   UNL A   1      40.336  29.796  29.959  1.00  0.00     0.037 A 
ATOM     69  C   UNL A   1      45.116  26.871  26.616  1.00  0.00     0.049 A 
ATOM     70  C   UNL A   1      40.483  28.421  29.365  1.00  0.00     0.074 A 
ATOM     71  C   UNL A   1      45.182  25.553  26.205  1.00  0.00     0.029 A 
ATOM     72  N   UNL A   1      43.882  27.041  27.227  1.00  0.00    -0.354 N 
ATOM     73  N   UNL A   1      41.498  27.909  28.711  1.00  0.00    -0.248 NA
ATOM     74  C   UNL A   1      39.345  27.504  29.519  1.00  0.00     0.031 C 
ATOM     75  C   UNL A   1      43.965  24.938  26.517  1.00  0.00     0.029 A 
ATOM     76  C   UNL A   1      43.162  25.858  27.173  1.00  0.00     0.049 A 
ATOM     77  H   UNL A   1      43.563  27.878  27.636  1.00  0.00     0.167 HD
ATOM     78  C   UNL A   1      41.130  26.610  28.386  1.00  0.00     0.074 A 
ATOM     79  C   UNL A   1      39.800  26.407  28.923  1.00  0.00     0.031 C 
ATOM     80  C   UNL A   1      41.835  25.673  27.706  1.00  0.00     0.037 A 
BRANCH  67  81
ATOM     81  C   UNL A   1      47.349  27.595  25.689  1.00  0.00     0.064 A 
ATOM     82  C   UNL A   1      47.362  27.728  24.292  1.00  0.00     0.173 A 
ATOM     83  C   UNL A   1      48.517  27.137  26.315  1.00  0.00     0.173 A 
ATOM     84  F   UNL A   1      46.269  28.160  23.644  1.00  0.00    -0.203 F 
ATOM     85  C   UNL A   1      48.495  27.411  23.551  1.00  0.00     0.198 A 
ATOM     86  C   UNL A   1      49.660  26.846  25.572  1.00  0.00     0.198 A 
ATOM     87  F   UNL A   1      48.561  27.006  27.649  1.00  0.00    -0.203 F 
ATOM     88  F   UNL A   1      48.476  27.526  22.216  1.00  0.00    -0.200 F 
ATOM     89  C   UNL A   1      49.646  26.977  24.192  1.00  0.00     0.200 A 
ATOM     90  F   UNL A   1      50.779  26.452  26.195  1.00  0.00    -0.200 F 
ATOM     91  F   UNL A   1      50.744  26.691  23.478  1.00  0.00    -0.200 F 
ENDBRANCH  67  81
BRANCH  68  92
ATOM     92  C   UNL A   1      39.095  30.209  30.660  1.00  0.00     0.064 A 
ATOM     93  C   UNL A   1      38.958  30.053  32.048  1.00  0.00     0.173 A 
ATOM     94  C   UNL A   1      37.995  30.697  29.944  1.00  0.00     0.173 A 
ATOM     95  F   UNL A   1      39.985  29.591  32.776  1.00  0.00    -0.203 F 
ATOM     96  C   UNL A   1      37.753  30.336  32.687  1.00  0.00     0.198 A 
ATOM     97  C   UNL A   1      36.797  31.000  30.588  1.00  0.00     0.198 A 
ATOM     98  F   UNL A   1      38.089  30.884  28.619  1.00  0.00    -0.203 F 
ATOM     99  F   UNL A   1      37.634  30.136  34.006  1.00  0.00    -0.200 F 
ATOM    100  C   UNL A   1      36.673  30.808  31.956  1.00  0.00     0.200 A 
ATOM    101  F   UNL A   1      35.761  31.474  29.882  1.00  0.00    -0.200 F 
ATOM    102  F   UNL A   1      35.512  31.074  32.570  1.00  0.00    -0.200 F 
ENDBRANCH  68  92
BRANCH  80 103
ATOM    103  C   UNL A   1      41.197  24.328  27.507  1.00  0.00     0.064 A 
ATOM    104  C   UNL A   1      41.709  23.196  28.160  1.00  0.00     0.173 A 
ATOM    105  C   UNL A   1      40.143  24.145  26.602  1.00  0.00     0.173 A 
ATOM    106  F   UNL A   1      42.724  23.318  29.029  1.00  0.00    -0.203 F 
ATOM    107  C   UNL A   1      41.201  21.927  27.899  1.00  0.00     0.198 A 
ATOM    108  C   UNL A   1      39.619  22.876  26.362  1.00  0.00     0.198 A 
ATOM    109  F   UNL A   1      39.612  25.197  25.962  1.00  0.00    -0.203 F 
ATOM    110  F   UNL A   1      41.731  20.856  28.506  1.00  0.00    -0.200 F 
ATOM    111  C   UNL A   1      40.156  21.768  27.001  1.00  0.00     0.200 A 
ATOM    112  F   UNL A   1      38.595  22.726  25.512  1.00  0.00    -0.200 F 
ATOM    113  F   UNL A   1      39.665  20.546  26.753  1.00  0.00    -0.200 F 
ENDBRANCH  80 103
ENDBRANCH  54  55
ENDBRANCH  47  49
ENDBRANCH  46  47
ENDBRANCH  45  46
ENDBRANCH  44  45
ENDBRANCH  43  44
ENDBRANCH  42  43
ENDBRANCH   1  42
TORSDOF 23
ENDMDL
MODEL 3
REMARK VINA RESULT:      -8.4      6.217     10.919
REMARK SMILES CC1CC[NH+]([C@H](c2ccc(F)cc2)c2ccc([C@@H](C)C(=O)OCCOCCOCCOC(=O)c3ccc(-c4c5nc(c(-c6c(F)c(F)c(F)c(F)c6F)c6ccc([nH]6)c(-c6c(F)c(F)c(F)c(F)c6F)c6nc(c(-c7c(F)c(F)c(F)c(F)c7F)c7ccc4[nH]7)C=C6)C=C5)cc3)cc2-c2ccc(C(F)(F)F)cc2)CC1
REMARK SMILES IDX 26 1 25 2 24 3 23 4 22 5 20 6 21 7 18 8 19 9 17 10 14 11
REMARK SMILES IDX 15 12 98 13 16 14 97 15 6 16 5 17 1 18 2 19 3 20 110 21 4 22
REMARK SMILES IDX 109 23 7 25 8 26 13 27 9 28 12 29 10 30 11 31 99 32 100 33
REMARK SMILES IDX 108 34 101 35 107 36 102 37 103 38 104 39 105 40 106 41
REMARK SMILES IDX 27 42 28 43 29 44 30 45 31 46 32 47 33 48 34 49 35 50 96 51
REMARK SMILES IDX 36 52 95 53 37 54 38 55 39 56 89 57 40 58 94 59 88 60 90 61
REMARK SMILES IDX 41 62 93 63 87 64 86 65 42 67 74 68 54 69 73 70 55 71 58 72
REMARK SMILES IDX 72 73 91 74 56 75 57 76 71 78 92 79 59 80 43 81 44 82 52 83
REMARK SMILES IDX 45 84 46 85 50 86 53 87 47 88 48 89 51 90 49 91 75 92 76 93
REMARK SMILES IDX 84 94 77 95 78 96 82 97 85 98 79 99 80 100 83 101 81 102
REMARK SMILES IDX 60 103 61 104 69 105 62 106 63 107 67 108 70 109 64 110
REMARK SMILES IDX 65 111 68 112 66 113
REMARK H PARENT 5 24 90 66 58 77
REMARK Flexibility Score: inf
ROOT
ATOM      1  C   UNL A   1      36.745  32.781  33.444  1.00  0.00     0.188 C 
ENDROOT
BRANCH   1   2
ATOM      2  O   UNL A   1      35.676  31.959  32.995  1.00  0.00    -0.376 OA
BRANCH   2   3
ATOM      3  C   UNL A   1      34.677  32.524  32.158  1.00  0.00     0.202 C 
BRANCH   3   4
ATOM      4  C   UNL A   1      34.997  32.601  30.663  1.00  0.00     0.261 C 
BRANCH   4   5
ATOM      5  O   UNL A   1      35.717  31.461  30.145  1.00  0.00    -0.463 OA
BRANCH   5   6
ATOM      6  C   UNL A   1      36.853  31.722  29.447  1.00  0.00     0.313 C 
ATOM      7  O   UNL A   1      36.855  32.123  28.285  1.00  0.00    -0.252 OA
BRANCH   6   8
ATOM      8  C   UNL A   1      38.168  31.432  30.176  1.00  0.00     0.126 C 
ATOM      9  C   UNL A   1      39.005  32.710  30.168  1.00  0.00     0.025 C 
BRANCH   8  10
ATOM     10  C   UNL A   1      39.018  30.222  29.791  1.00  0.00    -0.033 A 
ATOM     11  C   UNL A   1      40.659  27.972  29.002  1.00  0.00     0.022 A 
ATOM     12  C   UNL A   1      39.378  27.831  29.585  1.00  0.00     0.011 A 
ATOM     13  C   UNL A   1      41.112  29.303  28.786  1.00  0.00    -0.009 A 
ATOM     14  C   UNL A   1      38.562  28.917  29.932  1.00  0.00     0.005 A 
ATOM     15  C   UNL A   1      40.290  30.392  29.204  1.00  0.00     0.013 A 
BRANCH  11  16
ATOM     16  C   UNL A   1      41.477  26.731  28.517  1.00  0.00     0.247 C 
BRANCH  16  17
ATOM     17  N   UNL A   1      40.750  25.429  28.345  1.00  0.00    -0.325 N 
ATOM     18  C   UNL A   1      39.685  21.662  26.345  1.00  0.00     0.008 C 
ATOM     19  C   UNL A   1      40.253  23.011  26.773  1.00  0.00    -0.003 C 
ATOM     20  C   UNL A   1      41.001  22.914  28.102  1.00  0.00     0.065 C 
ATOM     21  C   UNL A   1      39.146  24.041  26.954  1.00  0.00     0.065 C 
ATOM     22  C   UNL A   1      41.620  24.259  28.489  1.00  0.00     0.263 C 
ATOM     23  C   UNL A   1      39.727  25.412  27.298  1.00  0.00     0.263 C 
ATOM     24  H   UNL A   1      40.137  25.337  29.155  1.00  0.00     0.348 HD
ENDBRANCH  16  17
BRANCH  16  25
ATOM     25  C   UNL A   1      42.826  26.500  29.227  1.00  0.00     0.014 A 
ATOM     26  C   UNL A   1      43.964  26.043  28.544  1.00  0.00     0.013 A 
ATOM     27  C   UNL A   1      42.964  26.817  30.594  1.00  0.00     0.013 A 
ATOM     28  C   UNL A   1      45.200  25.950  29.190  1.00  0.00     0.040 A 
ATOM     29  C   UNL A   1      44.190  26.667  31.253  1.00  0.00     0.040 A 
ATOM     30  C   UNL A   1      45.300  26.246  30.539  1.00  0.00     0.123 A 
ATOM     31  F   UNL A   1      46.483  26.131  31.156  1.00  0.00    -0.207 F 
ENDBRANCH  16  25
ENDBRANCH  11  16
BRANCH  13  32
ATOM     32  C   UNL A   1      42.412  29.625  28.159  1.00  0.00    -0.018 A 
ATOM     33  C   UNL A   1      43.439  30.192  28.926  1.00  0.00     0.009 A 
ATOM     34  C   UNL A   1      42.678  29.373  26.806  1.00  0.00     0.009 A 
ATOM     35  C   UNL A   1      44.695  30.476  28.387  1.00  0.00     0.014 A 
ATOM     36  C   UNL A   1      43.943  29.642  26.259  1.00  0.00     0.014 A 
ATOM     37  C   UNL A   1      44.968  30.184  27.049  1.00  0.00     0.056 A 
BRANCH  37  38
ATOM     38  C   UNL A   1      46.342  30.462  26.490  1.00  0.00     0.416 C 
ATOM     39  F   UNL A   1      46.613  29.716  25.385  1.00  0.00    -0.166 F 
ATOM     40  F   UNL A   1      46.499  31.762  26.109  1.00  0.00    -0.166 F 
ATOM     41  F   UNL A   1      47.348  30.211  27.372  1.00  0.00    -0.166 F 
ENDBRANCH  37  38
ENDBRANCH  13  32
ENDBRANCH   8  10
ENDBRANCH   6   8
ENDBRANCH   5   6
ENDBRANCH   4   5
ENDBRANCH   3   4
ENDBRANCH   2   3
ENDBRANCH   1   2
BRANCH   1  42
ATOM     42  C   UNL A   1      36.574  33.615  34.724  1.00  0.00     0.188 C 
BRANCH  42  43
ATOM     43  O   UNL A   1      37.782  33.885  35.419  1.00  0.00    -0.376 OA
BRANCH  43  44
ATOM     44  C   UNL A   1      37.845  33.351  36.730  1.00  0.00     0.202 C 
BRANCH  44  45
ATOM     45  C   UNL A   1      38.187  31.861  36.711  1.00  0.00     0.261 C 
BRANCH  45  46
ATOM     46  O   UNL A   1      39.603  31.606  36.772  1.00  0.00    -0.460 OA
BRANCH  46  47
ATOM     47  C   UNL A   1      40.069  30.675  35.914  1.00  0.00     0.338 C 
ATOM     48  O   UNL A   1      39.856  29.480  35.950  1.00  0.00    -0.246 OA
BRANCH  47  49
ATOM     49  C   UNL A   1      40.837  31.331  34.844  1.00  0.00     0.060 A 
ATOM     50  C   UNL A   1      40.633  30.952  33.513  1.00  0.00     0.016 A 
ATOM     51  C   UNL A   1      41.834  32.241  35.172  1.00  0.00     0.016 A 
ATOM     52  C   UNL A   1      41.464  31.436  32.504  1.00  0.00     0.010 A 
ATOM     53  C   UNL A   1      42.656  32.745  34.162  1.00  0.00     0.010 A 
ATOM     54  C   UNL A   1      42.501  32.317  32.829  1.00  0.00    -0.014 A 
BRANCH  54  55
ATOM     55  C   UNL A   1      43.508  32.714  31.818  1.00  0.00     0.031 A 
ATOM     56  C   UNL A   1      44.771  31.913  31.696  1.00  0.00     0.074 A 
ATOM     57  C   UNL A   1      43.317  33.795  31.044  1.00  0.00     0.049 A 
ATOM     58  N   UNL A   1      45.864  32.180  31.027  1.00  0.00    -0.248 NA
ATOM     59  C   UNL A   1      44.812  30.643  32.438  1.00  0.00     0.031 C 
ATOM     60  C   UNL A   1      42.109  34.616  31.026  1.00  0.00     0.029 A 
ATOM     61  N   UNL A   1      44.154  34.402  30.141  1.00  0.00    -0.354 N 
ATOM     62  C   UNL A   1      46.732  31.131  31.296  1.00  0.00     0.074 A 
ATOM     63  C   UNL A   1      46.044  30.226  32.191  1.00  0.00     0.031 C 
ATOM     64  C   UNL A   1      42.289  35.635  30.171  1.00  0.00     0.029 A 
ATOM     65  C   UNL A   1      43.644  35.566  29.624  1.00  0.00     0.049 A 
ATOM     66  H   UNL A   1      45.033  34.038  29.888  1.00  0.00     0.167 HD
ATOM     67  C   UNL A   1      47.994  30.948  30.838  1.00  0.00     0.037 A 
ATOM     68  C   UNL A   1      44.220  36.496  28.837  1.00  0.00     0.037 A 
ATOM     69  C   UNL A   1      48.661  31.843  29.930  1.00  0.00     0.049 A 
ATOM     70  C   UNL A   1      45.644  36.309  28.389  1.00  0.00     0.074 A 
ATOM     71  C   UNL A   1      49.922  31.725  29.374  1.00  0.00     0.029 A 
ATOM     72  N   UNL A   1      48.121  33.027  29.449  1.00  0.00    -0.354 N 
ATOM     73  N   UNL A   1      46.468  35.324  28.651  1.00  0.00    -0.248 NA
ATOM     74  C   UNL A   1      46.220  37.364  27.543  1.00  0.00     0.031 C 
ATOM     75  C   UNL A   1      50.166  32.864  28.600  1.00  0.00     0.029 A 
ATOM     76  C   UNL A   1      49.036  33.666  28.629  1.00  0.00     0.049 A 
ATOM     77  H   UNL A   1      47.220  33.365  29.661  1.00  0.00     0.167 HD
ATOM     78  C   UNL A   1      47.653  35.629  27.996  1.00  0.00     0.074 A 
ATOM     79  C   UNL A   1      47.439  36.889  27.313  1.00  0.00     0.031 C 
ATOM     80  C   UNL A   1      48.811  34.925  27.962  1.00  0.00     0.037 A 
BRANCH  67  81
ATOM     81  C   UNL A   1      48.751  29.757  31.346  1.00  0.00     0.064 A 
ATOM     82  C   UNL A   1      48.758  28.561  30.611  1.00  0.00     0.173 A 
ATOM     83  C   UNL A   1      49.442  29.780  32.566  1.00  0.00     0.173 A 
ATOM     84  F   UNL A   1      48.109  28.485  29.438  1.00  0.00    -0.203 F 
ATOM     85  C   UNL A   1      49.425  27.434  31.080  1.00  0.00     0.198 A 
ATOM     86  C   UNL A   1      50.132  28.658  33.020  1.00  0.00     0.198 A 
ATOM     87  F   UNL A   1      49.478  30.902  33.300  1.00  0.00    -0.203 F 
ATOM     88  F   UNL A   1      49.399  26.297  30.370  1.00  0.00    -0.200 F 
ATOM     89  C   UNL A   1      50.117  27.485  32.280  1.00  0.00     0.200 A 
ATOM     90  F   UNL A   1      50.823  28.716  34.167  1.00  0.00    -0.200 F 
ATOM     91  F   UNL A   1      50.776  26.404  32.721  1.00  0.00    -0.200 F 
ENDBRANCH  67  81
BRANCH  68  92
ATOM     92  C   UNL A   1      43.436  37.695  28.450  1.00  0.00     0.064 A 
ATOM     93  C   UNL A   1      43.402  38.836  29.266  1.00  0.00     0.173 A 
ATOM     94  C   UNL A   1      42.645  37.693  27.294  1.00  0.00     0.173 A 
ATOM     95  F   UNL A   1      44.144  38.885  30.382  1.00  0.00    -0.203 F 
ATOM     96  C   UNL A   1      42.578  39.916  28.958  1.00  0.00     0.198 A 
ATOM     97  C   UNL A   1      41.837  38.783  26.977  1.00  0.00     0.198 A 
ATOM     98  F   UNL A   1      42.663  36.633  26.473  1.00  0.00    -0.203 F 
ATOM     99  F   UNL A   1      42.530  40.975  29.777  1.00  0.00    -0.200 F 
ATOM    100  C   UNL A   1      41.794  39.888  27.814  1.00  0.00     0.200 A 
ATOM    101  F   UNL A   1      41.096  38.761  25.860  1.00  0.00    -0.200 F 
ATOM    102  F   UNL A   1      40.997  40.923  27.521  1.00  0.00    -0.200 F 
ENDBRANCH  68  92
BRANCH  80 103
ATOM    103  C   UNL A   1      49.945  35.484  27.152  1.00  0.00     0.064 A 
ATOM    104  C   UNL A   1      50.095  35.131  25.803  1.00  0.00     0.173 A 
ATOM    105  C   UNL A   1      50.931  36.292  27.735  1.00  0.00     0.173 A 
ATOM    106  F   UNL A   1      49.182  34.353  25.202  1.00  0.00    -0.203 F 
ATOM    107  C   UNL A   1      51.202  35.551  25.071  1.00  0.00     0.198 A 
ATOM    108  C   UNL A   1      52.025  36.732  26.992  1.00  0.00     0.198 A 
ATOM    109  F   UNL A   1      50.827  36.666  29.018  1.00  0.00    -0.203 F 
ATOM    110  F   UNL A   1      51.344  35.169  23.793  1.00  0.00    -0.200 F 
ATOM    111  C   UNL A   1      52.166  36.352  25.665  1.00  0.00     0.200 A 
ATOM    112  F   UNL A   1      52.944  37.524  27.561  1.00  0.00    -0.200 F 
ATOM    113  F   UNL A   1      53.229  36.758  24.959  1.00  0.00    -0.200 F 
ENDBRANCH  80 103
ENDBRANCH  54  55
ENDBRANCH  47  49
ENDBRANCH  46  47
ENDBRANCH  45  46
ENDBRANCH  44  45
ENDBRANCH  43  44
ENDBRANCH  42  43
ENDBRANCH   1  42
TORSDOF 23
ENDMDL
