MODEL 1
REMARK VINA RESULT:      -9.8      0.000      0.000
REMARK SMILES O=C(CCCC(=O)N1CCC(C2N=c3ccccc3=N2)CC1)OCCOCCOCCOC(=O)c1ccc(-c2c3nc(c(-c4c(F)c(F)c(F)c(F)c4F)c4ccc([nH]4)c(-c4c(F)c(F)c(F)c(F)c4F)c4nc(c(-c5c(F)c(F)c(F)c(F)c5F)c5ccc2[nH]5)C=C4)C=C3)cc1
REMARK SMILES IDX 27 1 26 2 25 3 24 4 23 5 2 6 1 7 3 8 4 9 5 10 6 11 7 12 8 13
REMARK SMILES IDX 9 14 22 15 10 16 21 17 11 18 12 19 13 20 20 21 14 22 19 23
REMARK SMILES IDX 15 24 18 25 16 26 17 27 28 28 29 29 30 30 31 31 32 32 33 33
REMARK SMILES IDX 34 34 35 35 36 36 97 37 37 38 96 39 38 40 39 41 40 42 90 43
REMARK SMILES IDX 41 44 95 45 89 46 91 47 42 48 94 49 88 50 87 51 43 53 75 54
REMARK SMILES IDX 55 55 74 56 56 57 59 58 73 59 92 60 57 61 58 62 72 64 93 65
REMARK SMILES IDX 60 66 44 67 45 68 53 69 46 70 47 71 51 72 54 73 48 74 49 75
REMARK SMILES IDX 52 76 50 77 76 78 77 79 85 80 78 81 79 82 83 83 86 84 80 85
REMARK SMILES IDX 81 86 84 87 82 88 61 89 62 90 70 91 63 92 64 93 68 94 71 95
REMARK SMILES IDX 65 96 66 97 69 98 67 99
REMARK H PARENT 91 52 59 63
REMARK Flexibility Score: inf
ROOT
ATOM      1  C   UNL A   1      43.082  19.092  25.394  1.00  0.00     0.188 C 
ENDROOT
BRANCH   1   2
ATOM      2  O   UNL A   1      41.765  18.777  25.844  1.00  0.00    -0.376 OA
BRANCH   2   3
ATOM      3  C   UNL A   1      41.202  19.766  26.716  1.00  0.00     0.202 C 
BRANCH   3   4
ATOM      4  C   UNL A   1      41.979  21.089  26.701  1.00  0.00     0.261 C 
BRANCH   4   5
ATOM      5  O   UNL A   1      41.780  21.757  27.955  1.00  0.00    -0.463 OA
BRANCH   5   6
ATOM      6  C   UNL A   1      42.101  23.071  27.965  1.00  0.00     0.305 C 
ATOM      7  O   UNL A   1      42.482  23.681  28.958  1.00  0.00    -0.252 OA
BRANCH   6   8
ATOM      8  C   UNL A   1      41.702  23.759  26.676  1.00  0.00     0.123 C 
BRANCH   8   9
ATOM      9  C   UNL A   1      40.301  24.369  26.556  1.00  0.00     0.022 C 
BRANCH   9  10
ATOM     10  C   UNL A   1      39.059  23.542  26.886  1.00  0.00     0.101 C 
BRANCH  10  11
ATOM     11  C   UNL A   1      38.209  22.665  25.964  1.00  0.00     0.222 C 
ATOM     12  O   UNL A   1      38.776  21.673  25.481  1.00  0.00    -0.275 OA
ATOM     13  N   UNL A   1      36.848  22.802  25.825  1.00  0.00    -0.343 N 
ATOM     14  C   UNL A   1      36.056  21.586  25.630  1.00  0.00     0.120 C 
ATOM     15  C   UNL A   1      36.101  24.048  25.779  1.00  0.00     0.120 C 
ATOM     16  C   UNL A   1      35.158  21.645  24.402  1.00  0.00     0.029 C 
ATOM     17  C   UNL A   1      35.222  24.134  24.531  1.00  0.00     0.029 C 
ATOM     18  C   UNL A   1      34.295  22.916  24.417  1.00  0.00     0.039 C 
BRANCH  18  19
ATOM     19  C   UNL A   1      33.348  23.021  23.210  1.00  0.00     0.225 C 
ATOM     20  N   UNL A   1      31.950  23.154  23.679  1.00  0.00    -0.256 NA
ATOM     21  N   UNL A   1      33.740  24.187  22.369  1.00  0.00    -0.256 NA
ATOM     22  C   UNL A   1      31.625  24.323  23.252  1.00  0.00     0.085 A 
ATOM     23  C   UNL A   1      32.698  24.942  22.445  1.00  0.00     0.085 A 
ATOM     24  C   UNL A   1      30.389  25.060  23.505  1.00  0.00     0.030 A 
ATOM     25  C   UNL A   1      32.485  26.272  21.869  1.00  0.00     0.030 A 
ATOM     26  C   UNL A   1      30.297  26.293  22.989  1.00  0.00     0.002 A 
ATOM     27  C   UNL A   1      31.330  26.887  22.162  1.00  0.00     0.002 A 
ENDBRANCH  18  19
ENDBRANCH  10  11
ENDBRANCH   9  10
ENDBRANCH   8   9
ENDBRANCH   6   8
ENDBRANCH   5   6
ENDBRANCH   4   5
ENDBRANCH   3   4
ENDBRANCH   2   3
ENDBRANCH   1   2
BRANCH   1  28
ATOM     28  C   UNL A   1      44.124  18.115  25.930  1.00  0.00     0.188 C 
BRANCH  28  29
ATOM     29  O   UNL A   1      45.317  18.064  25.153  1.00  0.00    -0.376 OA
BRANCH  29  30
ATOM     30  C   UNL A   1      46.376  18.919  25.600  1.00  0.00     0.202 C 
BRANCH  30  31
ATOM     31  C   UNL A   1      46.538  20.198  24.771  1.00  0.00     0.261 C 
BRANCH  31  32
ATOM     32  O   UNL A   1      46.094  21.346  25.525  1.00  0.00    -0.460 OA
BRANCH  32  33
ATOM     33  C   UNL A   1      45.169  22.149  24.950  1.00  0.00     0.338 C 
ATOM     34  O   UNL A   1      44.338  21.860  24.113  1.00  0.00    -0.246 OA
BRANCH  33  35
ATOM     35  C   UNL A   1      45.294  23.484  25.563  1.00  0.00     0.060 A 
ATOM     36  C   UNL A   1      45.014  24.609  24.792  1.00  0.00     0.016 A 
ATOM     37  C   UNL A   1      45.629  23.619  26.912  1.00  0.00     0.016 A 
ATOM     38  C   UNL A   1      45.102  25.881  25.366  1.00  0.00     0.010 A 
ATOM     39  C   UNL A   1      45.640  24.892  27.502  1.00  0.00     0.010 A 
ATOM     40  C   UNL A   1      45.359  26.040  26.742  1.00  0.00    -0.014 A 
BRANCH  40  41
ATOM     41  C   UNL A   1      45.171  27.378  27.387  1.00  0.00     0.031 A 
ATOM     42  C   UNL A   1      43.841  27.847  27.919  1.00  0.00     0.074 A 
ATOM     43  C   UNL A   1      46.233  28.208  27.473  1.00  0.00     0.049 A 
ATOM     44  N   UNL A   1      43.532  29.003  28.461  1.00  0.00    -0.248 NA
ATOM     45  C   UNL A   1      42.710  26.914  27.826  1.00  0.00     0.031 C 
ATOM     46  C   UNL A   1      47.576  27.906  26.976  1.00  0.00     0.029 A 
ATOM     47  N   UNL A   1      46.360  29.465  28.017  1.00  0.00    -0.354 N 
ATOM     48  C   UNL A   1      42.178  28.942  28.762  1.00  0.00     0.074 A 
ATOM     49  C   UNL A   1      41.714  27.643  28.316  1.00  0.00     0.031 C 
ATOM     50  C   UNL A   1      48.403  28.910  27.297  1.00  0.00     0.029 A 
ATOM     51  C   UNL A   1      47.637  29.968  27.945  1.00  0.00     0.049 A 
ATOM     52  H   UNL A   1      45.609  29.956  28.420  1.00  0.00     0.167 HD
ATOM     53  C   UNL A   1      41.398  29.875  29.364  1.00  0.00     0.037 A 
ATOM     54  C   UNL A   1      48.147  31.155  28.329  1.00  0.00     0.037 A 
ATOM     55  C   UNL A   1      41.856  31.163  29.829  1.00  0.00     0.049 A 
ATOM     56  C   UNL A   1      47.249  32.185  28.950  1.00  0.00     0.074 A 
ATOM     57  C   UNL A   1      41.132  32.147  30.486  1.00  0.00     0.029 A 
ATOM     58  N   UNL A   1      43.147  31.651  29.692  1.00  0.00    -0.354 N 
ATOM     59  N   UNL A   1      45.977  32.098  29.247  1.00  0.00    -0.248 NA
ATOM     60  C   UNL A   1      47.856  33.483  29.277  1.00  0.00     0.031 C 
ATOM     61  C   UNL A   1      41.968  33.248  30.697  1.00  0.00     0.029 A 
ATOM     62  C   UNL A   1      43.230  32.930  30.225  1.00  0.00     0.049 A 
ATOM     63  H   UNL A   1      43.894  31.161  29.279  1.00  0.00     0.167 HD
ATOM     64  C   UNL A   1      45.634  33.321  29.806  1.00  0.00     0.074 A 
ATOM     65  C   UNL A   1      46.837  34.126  29.831  1.00  0.00     0.031 C 
ATOM     66  C   UNL A   1      44.424  33.736  30.251  1.00  0.00     0.037 A 
BRANCH  53  67
ATOM     67  C   UNL A   1      39.944  29.553  29.579  1.00  0.00     0.064 A 
ATOM     68  C   UNL A   1      39.444  29.238  30.850  1.00  0.00     0.173 A 
ATOM     69  C   UNL A   1      39.023  29.680  28.526  1.00  0.00     0.173 A 
ATOM     70  F   UNL A   1      40.280  29.105  31.890  1.00  0.00    -0.203 F 
ATOM     71  C   UNL A   1      38.079  29.053  31.058  1.00  0.00     0.198 A 
ATOM     72  C   UNL A   1      37.657  29.521  28.743  1.00  0.00     0.198 A 
ATOM     73  F   UNL A   1      39.446  29.996  27.292  1.00  0.00    -0.203 F 
ATOM     74  F   UNL A   1      37.627  28.731  32.278  1.00  0.00    -0.200 F 
ATOM     75  C   UNL A   1      37.187  29.206  30.008  1.00  0.00     0.200 A 
ATOM     76  F   UNL A   1      36.795  29.691  27.731  1.00  0.00    -0.200 F 
ATOM     77  F   UNL A   1      35.872  29.052  30.216  1.00  0.00    -0.200 F 
ENDBRANCH  53  67
BRANCH  54  78
ATOM     78  C   UNL A   1      49.595  31.427  28.132  1.00  0.00     0.064 A 
ATOM     79  C   UNL A   1      50.550  30.884  29.002  1.00  0.00     0.173 A 
ATOM     80  C   UNL A   1      50.054  32.210  27.062  1.00  0.00     0.173 A 
ATOM     81  F   UNL A   1      50.159  30.151  30.054  1.00  0.00    -0.203 F 
ATOM     82  C   UNL A   1      51.910  31.116  28.810  1.00  0.00     0.198 A 
ATOM     83  C   UNL A   1      51.415  32.412  26.852  1.00  0.00     0.198 A 
ATOM     84  F   UNL A   1      49.178  32.751  26.201  1.00  0.00    -0.203 F 
ATOM     85  F   UNL A   1      52.802  30.615  29.676  1.00  0.00    -0.200 F 
ATOM     86  C   UNL A   1      52.342  31.871  27.729  1.00  0.00     0.200 A 
ATOM     87  F   UNL A   1      51.828  33.126  25.795  1.00  0.00    -0.200 F 
ATOM     88  F   UNL A   1      53.651  32.079  27.535  1.00  0.00    -0.200 F 
ENDBRANCH  54  78
BRANCH  66  89
ATOM     89  C   UNL A   1      44.330  35.121  30.825  1.00  0.00     0.064 A 
ATOM     90  C   UNL A   1      44.029  36.229  30.019  1.00  0.00     0.173 A 
ATOM     91  C   UNL A   1      44.489  35.336  32.202  1.00  0.00     0.173 A 
ATOM     92  F   UNL A   1      43.884  36.080  28.694  1.00  0.00    -0.203 F 
ATOM     93  C   UNL A   1      43.906  37.503  30.570  1.00  0.00     0.198 A 
ATOM     94  C   UNL A   1      44.336  36.606  32.753  1.00  0.00     0.198 A 
ATOM     95  F   UNL A   1      44.774  34.310  33.019  1.00  0.00    -0.203 F 
ATOM     96  F   UNL A   1      43.656  38.552  29.774  1.00  0.00    -0.200 F 
ATOM     97  C   UNL A   1      44.050  37.689  31.936  1.00  0.00     0.200 A 
ATOM     98  F   UNL A   1      44.463  36.781  34.076  1.00  0.00    -0.200 F 
ATOM     99  F   UNL A   1      43.918  38.913  32.465  1.00  0.00    -0.200 F 
ENDBRANCH  66  89
ENDBRANCH  40  41
ENDBRANCH  33  35
ENDBRANCH  32  33
ENDBRANCH  31  32
ENDBRANCH  30  31
ENDBRANCH  29  30
ENDBRANCH  28  29
ENDBRANCH   1  28
TORSDOF 21
ENDMDL
MODEL 2
REMARK VINA RESULT:      -9.7      4.577      9.280
REMARK SMILES O=C(CCCC(=O)N1CCC(C2N=c3ccccc3=N2)CC1)OCCOCCOCCOC(=O)c1ccc(-c2c3nc(c(-c4c(F)c(F)c(F)c(F)c4F)c4ccc([nH]4)c(-c4c(F)c(F)c(F)c(F)c4F)c4nc(c(-c5c(F)c(F)c(F)c(F)c5F)c5ccc2[nH]5)C=C4)C=C3)cc1
REMARK SMILES IDX 27 1 26 2 25 3 24 4 23 5 2 6 1 7 3 8 4 9 5 10 6 11 7 12 8 13
REMARK SMILES IDX 9 14 22 15 10 16 21 17 11 18 12 19 13 20 20 21 14 22 19 23
REMARK SMILES IDX 15 24 18 25 16 26 17 27 28 28 29 29 30 30 31 31 32 32 33 33
REMARK SMILES IDX 34 34 35 35 36 36 97 37 37 38 96 39 38 40 39 41 40 42 90 43
REMARK SMILES IDX 41 44 95 45 89 46 91 47 42 48 94 49 88 50 87 51 43 53 75 54
REMARK SMILES IDX 55 55 74 56 56 57 59 58 73 59 92 60 57 61 58 62 72 64 93 65
REMARK SMILES IDX 60 66 44 67 45 68 53 69 46 70 47 71 51 72 54 73 48 74 49 75
REMARK SMILES IDX 52 76 50 77 76 78 77 79 85 80 78 81 79 82 83 83 86 84 80 85
REMARK SMILES IDX 81 86 84 87 82 88 61 89 62 90 70 91 63 92 64 93 68 94 71 95
REMARK SMILES IDX 65 96 66 97 69 98 67 99
REMARK H PARENT 91 52 59 63
REMARK Flexibility Score: inf
ROOT
ATOM      1  C   UNL A   1      35.172  31.632  28.023  1.00  0.00     0.188 C 
ENDROOT
BRANCH   1   2
ATOM      2  O   UNL A   1      34.123  30.975  27.313  1.00  0.00    -0.376 OA
BRANCH   2   3
ATOM      3  C   UNL A   1      34.173  29.545  27.406  1.00  0.00     0.202 C 
BRANCH   3   4
ATOM      4  C   UNL A   1      33.682  28.844  26.132  1.00  0.00     0.261 C 
BRANCH   4   5
ATOM      5  O   UNL A   1      33.083  29.822  25.268  1.00  0.00    -0.463 OA
BRANCH   5   6
ATOM      6  C   UNL A   1      32.497  29.324  24.155  1.00  0.00     0.305 C 
ATOM      7  O   UNL A   1      33.089  29.100  23.106  1.00  0.00    -0.252 OA
BRANCH   6   8
ATOM      8  C   UNL A   1      30.987  29.307  24.272  1.00  0.00     0.123 C 
BRANCH   8   9
ATOM      9  C   UNL A   1      30.162  28.590  23.198  1.00  0.00     0.022 C 
BRANCH   9  10
ATOM     10  C   UNL A   1      30.104  27.064  23.148  1.00  0.00     0.101 C 
BRANCH  10  11
ATOM     11  C   UNL A   1      31.252  26.052  23.144  1.00  0.00     0.222 C 
ATOM     12  O   UNL A   1      31.553  25.575  22.040  1.00  0.00    -0.275 OA
ATOM     13  N   UNL A   1      32.067  25.822  24.228  1.00  0.00    -0.343 N 
ATOM     14  C   UNL A   1      33.477  25.525  23.970  1.00  0.00     0.120 C 
ATOM     15  C   UNL A   1      31.661  25.768  25.623  1.00  0.00     0.120 C 
ATOM     16  C   UNL A   1      33.951  24.240  24.633  1.00  0.00     0.029 C 
ATOM     17  C   UNL A   1      32.101  24.465  26.289  1.00  0.00     0.029 C 
ATOM     18  C   UNL A   1      33.611  24.240  26.131  1.00  0.00     0.039 C 
BRANCH  18  19
ATOM     19  C   UNL A   1      34.087  22.973  26.862  1.00  0.00     0.225 C 
ATOM     20  N   UNL A   1      33.014  21.953  26.850  1.00  0.00    -0.256 NA
ATOM     21  N   UNL A   1      35.322  22.454  26.208  1.00  0.00    -0.256 NA
ATOM     22  C   UNL A   1      33.542  21.005  26.159  1.00  0.00     0.085 A 
ATOM     23  C   UNL A   1      34.942  21.297  25.785  1.00  0.00     0.085 A 
ATOM     24  C   UNL A   1      32.914  19.765  25.710  1.00  0.00     0.030 A 
ATOM     25  C   UNL A   1      35.697  20.312  25.006  1.00  0.00     0.030 A 
ATOM     26  C   UNL A   1      33.655  18.944  24.955  1.00  0.00     0.002 A 
ATOM     27  C   UNL A   1      35.042  19.207  24.620  1.00  0.00     0.002 A 
ENDBRANCH  18  19
ENDBRANCH  10  11
ENDBRANCH   9  10
ENDBRANCH   8   9
ENDBRANCH   6   8
ENDBRANCH   5   6
ENDBRANCH   4   5
ENDBRANCH   3   4
ENDBRANCH   2   3
ENDBRANCH   1   2
BRANCH   1  28
ATOM     28  C   UNL A   1      35.824  30.723  29.060  1.00  0.00     0.188 C 
BRANCH  28  29
ATOM     29  O   UNL A   1      35.722  31.210  30.396  1.00  0.00    -0.376 OA
BRANCH  29  30
ATOM     30  C   UNL A   1      34.839  32.323  30.575  1.00  0.00     0.202 C 
BRANCH  30  31
ATOM     31  C   UNL A   1      35.029  33.063  31.905  1.00  0.00     0.261 C 
BRANCH  31  32
ATOM     32  O   UNL A   1      36.130  33.991  31.812  1.00  0.00    -0.460 OA
BRANCH  32  33
ATOM     33  C   UNL A   1      37.188  33.785  32.629  1.00  0.00     0.338 C 
ATOM     34  O   UNL A   1      37.349  34.179  33.767  1.00  0.00    -0.246 OA
BRANCH  33  35
ATOM     35  C   UNL A   1      38.144  32.920  31.913  1.00  0.00     0.060 A 
ATOM     36  C   UNL A   1      38.368  33.140  30.557  1.00  0.00     0.016 A 
ATOM     37  C   UNL A   1      38.859  31.933  32.595  1.00  0.00     0.016 A 
ATOM     38  C   UNL A   1      39.290  32.345  29.869  1.00  0.00     0.010 A 
ATOM     39  C   UNL A   1      39.839  31.190  31.918  1.00  0.00     0.010 A 
ATOM     40  C   UNL A   1      40.081  31.398  30.550  1.00  0.00    -0.014 A 
BRANCH  40  41
ATOM     41  C   UNL A   1      41.248  30.765  29.858  1.00  0.00     0.031 A 
ATOM     42  C   UNL A   1      41.217  29.352  29.333  1.00  0.00     0.074 A 
ATOM     43  C   UNL A   1      42.384  31.482  29.720  1.00  0.00     0.049 A 
ATOM     44  N   UNL A   1      42.176  28.667  28.753  1.00  0.00    -0.248 NA
ATOM     45  C   UNL A   1      39.960  28.605  29.482  1.00  0.00     0.031 C 
ATOM     46  C   UNL A   1      42.576  32.850  30.204  1.00  0.00     0.029 A 
ATOM     47  N   UNL A   1      43.586  31.174  29.126  1.00  0.00    -0.354 N 
ATOM     48  C   UNL A   1      41.648  27.413  28.479  1.00  0.00     0.074 A 
ATOM     49  C   UNL A   1      40.289  27.419  28.984  1.00  0.00     0.031 C 
ATOM     50  C   UNL A   1      43.786  33.287  29.830  1.00  0.00     0.029 A 
ATOM     51  C   UNL A   1      44.494  32.205  29.156  1.00  0.00     0.049 A 
ATOM     52  H   UNL A   1      43.777  30.299  28.719  1.00  0.00     0.167 HD
ATOM     53  C   UNL A   1      42.235  26.361  27.856  1.00  0.00     0.037 A 
ATOM     54  C   UNL A   1      45.766  32.281  28.717  1.00  0.00     0.037 A 
ATOM     55  C   UNL A   1      43.581  26.353  27.334  1.00  0.00     0.049 A 
ATOM     56  C   UNL A   1      46.404  31.085  28.074  1.00  0.00     0.074 A 
ATOM     57  C   UNL A   1      44.234  25.335  26.654  1.00  0.00     0.029 A 
ATOM     58  N   UNL A   1      44.483  27.403  27.428  1.00  0.00    -0.354 N 
ATOM     59  N   UNL A   1      45.880  29.916  27.804  1.00  0.00    -0.248 NA
ATOM     60  C   UNL A   1      47.816  31.215  27.686  1.00  0.00     0.031 C 
ATOM     61  C   UNL A   1      45.542  25.748  26.385  1.00  0.00     0.029 A 
ATOM     62  C   UNL A   1      45.690  27.045  26.845  1.00  0.00     0.049 A 
ATOM     63  H   UNL A   1      44.292  28.273  27.847  1.00  0.00     0.167 HD
ATOM     64  C   UNL A   1      46.889  29.176  27.205  1.00  0.00     0.074 A 
ATOM     65  C   UNL A   1      48.052  30.036  27.127  1.00  0.00     0.031 C 
ATOM     66  C   UNL A   1      46.851  27.895  26.766  1.00  0.00     0.037 A 
BRANCH  53  67
ATOM     67  C   UNL A   1      41.432  25.101  27.681  1.00  0.00     0.064 A 
ATOM     68  C   UNL A   1      40.375  25.029  26.763  1.00  0.00     0.173 A 
ATOM     69  C   UNL A   1      41.801  23.921  28.349  1.00  0.00     0.173 A 
ATOM     70  F   UNL A   1      39.982  26.125  26.099  1.00  0.00    -0.203 F 
ATOM     71  C   UNL A   1      39.711  23.827  26.526  1.00  0.00     0.198 A 
ATOM     72  C   UNL A   1      41.153  22.716  28.090  1.00  0.00     0.198 A 
ATOM     73  F   UNL A   1      42.816  23.931  29.225  1.00  0.00    -0.203 F 
ATOM     74  F   UNL A   1      38.689  23.788  25.660  1.00  0.00    -0.200 F 
ATOM     75  C   UNL A   1      40.108  22.670  27.180  1.00  0.00     0.200 A 
ATOM     76  F   UNL A   1      41.554  21.596  28.707  1.00  0.00    -0.200 F 
ATOM     77  F   UNL A   1      39.485  21.510  26.933  1.00  0.00    -0.200 F 
ENDBRANCH  53  67
BRANCH  54  78
ATOM     78  C   UNL A   1      46.520  33.552  28.877  1.00  0.00     0.064 A 
ATOM     79  C   UNL A   1      47.268  33.799  30.036  1.00  0.00     0.173 A 
ATOM     80  C   UNL A   1      46.532  34.527  27.869  1.00  0.00     0.173 A 
ATOM     81  F   UNL A   1      47.267  32.908  31.037  1.00  0.00    -0.203 F 
ATOM     82  C   UNL A   1      47.996  34.978  30.181  1.00  0.00     0.198 A 
ATOM     83  C   UNL A   1      47.288  35.689  28.002  1.00  0.00     0.198 A 
ATOM     84  F   UNL A   1      45.833  34.335  26.739  1.00  0.00    -0.203 F 
ATOM     85  F   UNL A   1      48.675  35.208  31.314  1.00  0.00    -0.200 F 
ATOM     86  C   UNL A   1      48.015  35.916  29.160  1.00  0.00     0.200 A 
ATOM     87  F   UNL A   1      47.317  36.584  27.004  1.00  0.00    -0.200 F 
ATOM     88  F   UNL A   1      48.730  37.041  29.294  1.00  0.00    -0.200 F 
ENDBRANCH  54  78
BRANCH  66  89
ATOM     89  C   UNL A   1      48.097  27.335  26.142  1.00  0.00     0.064 A 
ATOM     90  C   UNL A   1      48.330  27.427  24.761  1.00  0.00     0.173 A 
ATOM     91  C   UNL A   1      49.093  26.749  26.937  1.00  0.00     0.173 A 
ATOM     92  F   UNL A   1      47.402  27.964  23.955  1.00  0.00    -0.203 F 
ATOM     93  C   UNL A   1      49.508  26.939  24.200  1.00  0.00     0.198 A 
ATOM     94  C   UNL A   1      50.282  26.288  26.376  1.00  0.00     0.198 A 
ATOM     95  F   UNL A   1      48.923  26.639  28.263  1.00  0.00    -0.203 F 
ATOM     96  F   UNL A   1      49.691  27.003  22.874  1.00  0.00    -0.200 F 
ATOM     97  C   UNL A   1      50.485  26.379  25.007  1.00  0.00     0.200 A 
ATOM     98  F   UNL A   1      51.231  25.759  27.160  1.00  0.00    -0.200 F 
ATOM     99  F   UNL A   1      51.623  25.922  24.466  1.00  0.00    -0.200 F 
ENDBRANCH  66  89
ENDBRANCH  40  41
ENDBRANCH  33  35
ENDBRANCH  32  33
ENDBRANCH  31  32
ENDBRANCH  30  31
ENDBRANCH  29  30
ENDBRANCH  28  29
ENDBRANCH   1  28
TORSDOF 21
ENDMDL
MODEL 3
REMARK VINA RESULT:      -9.6      3.496      6.275
REMARK SMILES O=C(CCCC(=O)N1CCC(C2N=c3ccccc3=N2)CC1)OCCOCCOCCOC(=O)c1ccc(-c2c3nc(c(-c4c(F)c(F)c(F)c(F)c4F)c4ccc([nH]4)c(-c4c(F)c(F)c(F)c(F)c4F)c4nc(c(-c5c(F)c(F)c(F)c(F)c5F)c5ccc2[nH]5)C=C4)C=C3)cc1
REMARK SMILES IDX 27 1 26 2 25 3 24 4 23 5 2 6 1 7 3 8 4 9 5 10 6 11 7 12 8 13
REMARK SMILES IDX 9 14 22 15 10 16 21 17 11 18 12 19 13 20 20 21 14 22 19 23
REMARK SMILES IDX 15 24 18 25 16 26 17 27 28 28 29 29 30 30 31 31 32 32 33 33
REMARK SMILES IDX 34 34 35 35 36 36 97 37 37 38 96 39 38 40 39 41 40 42 90 43
REMARK SMILES IDX 41 44 95 45 89 46 91 47 42 48 94 49 88 50 87 51 43 53 75 54
REMARK SMILES IDX 55 55 74 56 56 57 59 58 73 59 92 60 57 61 58 62 72 64 93 65
REMARK SMILES IDX 60 66 44 67 45 68 53 69 46 70 47 71 51 72 54 73 48 74 49 75
REMARK SMILES IDX 52 76 50 77 76 78 77 79 85 80 78 81 79 82 83 83 86 84 80 85
REMARK SMILES IDX 81 86 84 87 82 88 61 89 62 90 70 91 63 92 64 93 68 94 71 95
REMARK SMILES IDX 65 96 66 97 69 98 67 99
REMARK H PARENT 91 52 59 63
REMARK Flexibility Score: inf
ROOT
ATOM      1  C   UNL A   1      43.142  19.460  25.396  1.00  0.00     0.188 C 
ENDROOT
BRANCH   1   2
ATOM      2  O   UNL A   1      41.897  18.865  25.758  1.00  0.00    -0.376 OA
BRANCH   2   3
ATOM      3  C   UNL A   1      41.127  19.654  26.675  1.00  0.00     0.202 C 
BRANCH   3   4
ATOM      4  C   UNL A   1      40.559  20.929  26.036  1.00  0.00     0.261 C 
BRANCH   4   5
ATOM      5  O   UNL A   1      39.583  21.496  26.923  1.00  0.00    -0.463 OA
BRANCH   5   6
ATOM      6  C   UNL A   1      39.178  22.748  26.609  1.00  0.00     0.305 C 
ATOM      7  O   UNL A   1      39.475  23.749  27.250  1.00  0.00    -0.252 OA
BRANCH   6   8
ATOM      8  C   UNL A   1      38.119  22.743  25.526  1.00  0.00     0.123 C 
BRANCH   8   9
ATOM      9  C   UNL A   1      37.072  21.625  25.509  1.00  0.00     0.022 C 
BRANCH   9  10
ATOM     10  C   UNL A   1      35.941  21.629  24.481  1.00  0.00     0.101 C 
BRANCH  10  11
ATOM     11  C   UNL A   1      35.099  22.802  23.975  1.00  0.00     0.222 C 
ATOM     12  O   UNL A   1      35.649  23.552  23.155  1.00  0.00    -0.275 OA
ATOM     13  N   UNL A   1      33.751  22.930  24.214  1.00  0.00    -0.343 N 
ATOM     14  C   UNL A   1      32.923  23.517  23.159  1.00  0.00     0.120 C 
ATOM     15  C   UNL A   1      33.055  22.608  25.449  1.00  0.00     0.120 C 
ATOM     16  C   UNL A   1      32.081  24.691  23.639  1.00  0.00     0.029 C 
ATOM     17  C   UNL A   1      32.234  23.792  25.959  1.00  0.00     0.029 C 
ATOM     18  C   UNL A   1      31.267  24.307  24.883  1.00  0.00     0.039 C 
BRANCH  18  19
ATOM     19  C   UNL A   1      30.377  25.448  25.403  1.00  0.00     0.225 C 
ATOM     20  N   UNL A   1      30.872  25.912  26.718  1.00  0.00    -0.256 NA
ATOM     21  N   UNL A   1      30.368  26.563  24.414  1.00  0.00    -0.256 NA
ATOM     22  C   UNL A   1      31.219  27.126  26.471  1.00  0.00     0.085 A 
ATOM     23  C   UNL A   1      30.899  27.527  25.084  1.00  0.00     0.085 A 
ATOM     24  C   UNL A   1      31.888  28.068  27.363  1.00  0.00     0.030 A 
ATOM     25  C   UNL A   1      31.217  28.886  24.640  1.00  0.00     0.030 A 
ATOM     26  C   UNL A   1      32.195  29.272  26.862  1.00  0.00     0.002 A 
ATOM     27  C   UNL A   1      31.845  29.684  25.516  1.00  0.00     0.002 A 
ENDBRANCH  18  19
ENDBRANCH  10  11
ENDBRANCH   9  10
ENDBRANCH   8   9
ENDBRANCH   6   8
ENDBRANCH   5   6
ENDBRANCH   4   5
ENDBRANCH   3   4
ENDBRANCH   2   3
ENDBRANCH   1   2
BRANCH   1  28
ATOM     28  C   UNL A   1      44.291  18.457  25.420  1.00  0.00     0.188 C 
BRANCH  28  29
ATOM     29  O   UNL A   1      45.340  18.761  24.506  1.00  0.00    -0.376 OA
BRANCH  29  30
ATOM     30  C   UNL A   1      46.349  19.647  25.006  1.00  0.00     0.202 C 
BRANCH  30  31
ATOM     31  C   UNL A   1      46.050  21.132  24.766  1.00  0.00     0.261 C 
BRANCH  31  32
ATOM     32  O   UNL A   1      46.094  21.861  26.012  1.00  0.00    -0.460 OA
BRANCH  32  33
ATOM     33  C   UNL A   1      45.050  22.674  26.293  1.00  0.00     0.338 C 
ATOM     34  O   UNL A   1      43.903  22.366  26.546  1.00  0.00    -0.246 OA
BRANCH  33  35
ATOM     35  C   UNL A   1      45.553  24.060  26.299  1.00  0.00     0.060 A 
ATOM     36  C   UNL A   1      46.122  24.567  27.463  1.00  0.00     0.016 A 
ATOM     37  C   UNL A   1      45.513  24.836  25.138  1.00  0.00     0.016 A 
ATOM     38  C   UNL A   1      46.627  25.871  27.477  1.00  0.00     0.010 A 
ATOM     39  C   UNL A   1      46.091  26.115  25.135  1.00  0.00     0.010 A 
ATOM     40  C   UNL A   1      46.672  26.644  26.300  1.00  0.00    -0.014 A 
BRANCH  40  41
ATOM     41  C   UNL A   1      47.464  27.914  26.271  1.00  0.00     0.031 A 
ATOM     42  C   UNL A   1      46.847  29.266  26.520  1.00  0.00     0.074 A 
ATOM     43  C   UNL A   1      48.783  27.845  25.984  1.00  0.00     0.049 A 
ATOM     44  N   UNL A   1      47.414  30.451  26.479  1.00  0.00    -0.248 NA
ATOM     45  C   UNL A   1      45.416  29.305  26.846  1.00  0.00     0.031 C 
ATOM     46  C   UNL A   1      49.515  26.612  25.691  1.00  0.00     0.029 A 
ATOM     47  N   UNL A   1      49.746  28.824  25.905  1.00  0.00    -0.354 N 
ATOM     48  C   UNL A   1      46.414  31.371  26.762  1.00  0.00     0.074 A 
ATOM     49  C   UNL A   1      45.193  30.610  26.944  1.00  0.00     0.031 C 
ATOM     50  C   UNL A   1      50.814  26.895  25.533  1.00  0.00     0.029 A 
ATOM     51  C   UNL A   1      51.001  28.339  25.627  1.00  0.00     0.049 A 
ATOM     52  H   UNL A   1      49.554  29.780  26.035  1.00  0.00     0.167 HD
ATOM     53  C   UNL A   1      46.506  32.720  26.871  1.00  0.00     0.037 A 
ATOM     54  C   UNL A   1      52.176  28.971  25.440  1.00  0.00     0.037 A 
ATOM     55  C   UNL A   1      47.721  33.483  26.710  1.00  0.00     0.049 A 
ATOM     56  C   UNL A   1      52.238  30.468  25.521  1.00  0.00     0.074 A 
ATOM     57  C   UNL A   1      47.901  34.852  26.844  1.00  0.00     0.029 A 
ATOM     58  N   UNL A   1      48.961  32.955  26.381  1.00  0.00    -0.354 N 
ATOM     59  N   UNL A   1      51.285  31.317  25.812  1.00  0.00    -0.248 NA
ATOM     60  C   UNL A   1      53.536  31.095  25.234  1.00  0.00     0.031 C 
ATOM     61  C   UNL A   1      49.232  35.157  26.546  1.00  0.00     0.029 A 
ATOM     62  C   UNL A   1      49.899  33.973  26.281  1.00  0.00     0.049 A 
ATOM     63  H   UNL A   1      49.147  31.999  26.241  1.00  0.00     0.167 HD
ATOM     64  C   UNL A   1      51.868  32.575  25.756  1.00  0.00     0.074 A 
ATOM     65  C   UNL A   1      53.264  32.378  25.428  1.00  0.00     0.031 C 
ATOM     66  C   UNL A   1      51.289  33.783  25.954  1.00  0.00     0.037 A 
BRANCH  53  67
ATOM     67  C   UNL A   1      45.256  33.493  27.192  1.00  0.00     0.064 A 
ATOM     68  C   UNL A   1      44.941  33.860  28.508  1.00  0.00     0.173 A 
ATOM     69  C   UNL A   1      44.431  33.974  26.162  1.00  0.00     0.173 A 
ATOM     70  F   UNL A   1      45.695  33.428  29.528  1.00  0.00    -0.203 F 
ATOM     71  C   UNL A   1      43.842  34.672  28.782  1.00  0.00     0.198 A 
ATOM     72  C   UNL A   1      43.350  34.807  26.437  1.00  0.00     0.198 A 
ATOM     73  F   UNL A   1      44.697  33.667  24.883  1.00  0.00    -0.203 F 
ATOM     74  F   UNL A   1      43.548  34.992  30.050  1.00  0.00    -0.200 F 
ATOM     75  C   UNL A   1      43.056  35.154  27.746  1.00  0.00     0.200 A 
ATOM     76  F   UNL A   1      42.605  35.290  25.433  1.00  0.00    -0.200 F 
ATOM     77  F   UNL A   1      42.014  35.955  28.010  1.00  0.00    -0.200 F 
ENDBRANCH  53  67
BRANCH  54  78
ATOM     78  C   UNL A   1      53.399  28.174  25.157  1.00  0.00     0.064 A 
ATOM     79  C   UNL A   1      53.825  27.962  23.839  1.00  0.00     0.173 A 
ATOM     80  C   UNL A   1      54.177  27.634  26.192  1.00  0.00     0.173 A 
ATOM     81  F   UNL A   1      53.101  28.437  22.815  1.00  0.00    -0.203 F 
ATOM     82  C   UNL A   1      54.983  27.236  23.568  1.00  0.00     0.198 A 
ATOM     83  C   UNL A   1      55.351  26.938  25.920  1.00  0.00     0.198 A 
ATOM     84  F   UNL A   1      53.810  27.811  27.471  1.00  0.00    -0.203 F 
ATOM     85  F   UNL A   1      55.351  27.016  22.298  1.00  0.00    -0.200 F 
ATOM     86  C   UNL A   1      55.751  26.735  24.608  1.00  0.00     0.200 A 
ATOM     87  F   UNL A   1      56.100  26.472  26.930  1.00  0.00    -0.200 F 
ATOM     88  F   UNL A   1      56.873  26.052  24.347  1.00  0.00    -0.200 F 
ENDBRANCH  54  78
BRANCH  66  89
ATOM     89  C   UNL A   1      52.162  35.001  25.841  1.00  0.00     0.064 A 
ATOM     90  C   UNL A   1      52.317  35.681  24.623  1.00  0.00     0.173 A 
ATOM     91  C   UNL A   1      52.806  35.526  26.971  1.00  0.00     0.173 A 
ATOM     92  F   UNL A   1      51.736  35.211  23.509  1.00  0.00    -0.203 F 
ATOM     93  C   UNL A   1      53.098  36.832  24.540  1.00  0.00     0.198 A 
ATOM     94  C   UNL A   1      53.562  36.693  26.890  1.00  0.00     0.198 A 
ATOM     95  F   UNL A   1      52.688  34.917  28.161  1.00  0.00    -0.203 F 
ATOM     96  F   UNL A   1      53.263  37.441  23.358  1.00  0.00    -0.200 F 
ATOM     97  C   UNL A   1      53.712  37.341  25.674  1.00  0.00     0.200 A 
ATOM     98  F   UNL A   1      54.143  37.192  27.990  1.00  0.00    -0.200 F 
ATOM     99  F   UNL A   1      54.451  38.456  25.594  1.00  0.00    -0.200 F 
ENDBRANCH  66  89
ENDBRANCH  40  41
ENDBRANCH  33  35
ENDBRANCH  32  33
ENDBRANCH  31  32
ENDBRANCH  30  31
ENDBRANCH  29  30
ENDBRANCH  28  29
ENDBRANCH   1  28
TORSDOF 21
ENDMDL
