MODEL 1
REMARK VINA RESULT:     -10.8      0.000      0.000
REMARK SMILES C[C@H]1CC[C@H](CNC(=O)NCc2ccc(C(=O)OCCOCCOCCOC(=O)c3ccc(-c4c5nc(c(-c6c(F)c(F)c(F)c(F)c6F)c6ccc([nH]6)c(-c6c(F)c(F)c(F)c(F)c6F)c6nc(c(-c7c(F)c(F)c(F)c(F)c7F)c7ccc4[nH]7)C=C6)C=C5)cc3)o2)CC1
REMARK SMILES IDX 22 1 21 2 20 3 19 4 18 5 16 6 17 7 15 8 12 9 13 10 93 11
REMARK SMILES IDX 14 12 11 13 10 14 7 15 8 16 9 18 6 20 5 21 1 22 2 23 95 24
REMARK SMILES IDX 3 25 94 26 4 27 23 28 24 29 25 30 26 31 27 32 28 33 29 34
REMARK SMILES IDX 30 35 31 36 92 37 32 38 91 39 33 40 34 41 35 42 85 43 36 44
REMARK SMILES IDX 90 45 84 46 86 47 37 48 89 49 83 50 82 51 38 53 70 54 50 55
REMARK SMILES IDX 69 56 51 57 54 58 68 59 87 60 52 61 53 62 67 64 88 65 55 66
REMARK SMILES IDX 39 67 40 68 48 69 41 70 42 71 46 72 49 73 43 74 44 75 47 76
REMARK SMILES IDX 45 77 71 78 72 79 80 80 73 81 74 82 78 83 81 84 75 85 76 86
REMARK SMILES IDX 79 87 77 88 56 89 57 90 65 91 58 92 59 93 63 94 66 95 60 96
REMARK SMILES IDX 61 97 64 98 62 99
REMARK H PARENT 7 17 10 19 86 52 54 63
REMARK Flexibility Score: inf
ROOT
ATOM      1  C   UNL A   1      34.856  25.042  25.613  1.00  0.00     0.188 C 
ENDROOT
BRANCH   1   2
ATOM      2  O   UNL A   1      36.005  24.331  25.158  1.00  0.00    -0.376 OA
BRANCH   2   3
ATOM      3  C   UNL A   1      35.922  23.569  23.955  1.00  0.00     0.202 C 
BRANCH   3   4
ATOM      4  C   UNL A   1      36.381  22.110  24.017  1.00  0.00     0.261 C 
BRANCH   4   5
ATOM      5  O   UNL A   1      35.989  21.459  25.239  1.00  0.00    -0.457 OA
BRANCH   5   6
ATOM      6  C   UNL A   1      34.740  20.902  25.242  1.00  0.00     0.374 C 
ATOM      7  O   UNL A   1      34.442  19.863  24.666  1.00  0.00    -0.242 OA
BRANCH   6   8
ATOM      8  C   UNL A   1      33.868  21.648  26.122  1.00  0.00     0.211 A 
ATOM      9  C   UNL A   1      32.193  23.044  26.520  1.00  0.00     0.124 A 
ATOM     10  C   UNL A   1      32.558  22.514  27.740  1.00  0.00     0.048 A 
ATOM     11  O   UNL A   1      33.018  22.554  25.548  1.00  0.00    -0.452 OA
ATOM     12  C   UNL A   1      33.630  21.617  27.486  1.00  0.00     0.058 A 
BRANCH   9  13
ATOM     13  C   UNL A   1      31.145  24.009  26.085  1.00  0.00     0.193 C 
BRANCH  13  14
ATOM     14  N   UNL A   1      31.396  25.293  26.707  1.00  0.00    -0.331 N 
ATOM     15  N   UNL A   1      30.400  26.949  25.358  1.00  0.00    -0.338 N 
ATOM     16  C   UNL A   1      30.943  26.530  26.506  1.00  0.00     0.315 C 
ATOM     17  H   UNL A   1      29.838  27.752  25.456  1.00  0.00     0.165 HD
ATOM     18  O   UNL A   1      31.039  27.343  27.427  1.00  0.00    -0.249 OA
ATOM     19  H   UNL A   1      32.048  25.239  27.443  1.00  0.00     0.165 HD
BRANCH  15  20
ATOM     20  C   UNL A   1      30.476  26.457  23.996  1.00  0.00     0.121 C 
BRANCH  20  21
ATOM     21  C   UNL A   1      29.818  27.434  23.008  1.00  0.00     0.008 C 
ATOM     22  C   UNL A   1      28.028  31.152  21.494  1.00  0.00     0.007 C 
ATOM     23  C   UNL A   1      28.677  30.127  22.422  1.00  0.00    -0.014 C 
ATOM     24  C   UNL A   1      30.051  29.702  21.891  1.00  0.00     0.003 C 
ATOM     25  C   UNL A   1      27.772  28.903  22.600  1.00  0.00     0.003 C 
ATOM     26  C   UNL A   1      30.707  28.669  22.806  1.00  0.00     0.006 C 
ATOM     27  C   UNL A   1      28.417  27.851  23.500  1.00  0.00     0.006 C 
ENDBRANCH  20  21
ENDBRANCH  15  20
ENDBRANCH  13  14
ENDBRANCH   9  13
ENDBRANCH   6   8
ENDBRANCH   5   6
ENDBRANCH   4   5
ENDBRANCH   3   4
ENDBRANCH   2   3
ENDBRANCH   1   2
BRANCH   1  28
ATOM     28  C   UNL A   1      34.238  26.108  24.688  1.00  0.00     0.188 C 
BRANCH  28  29
ATOM     29  O   UNL A   1      33.716  27.215  25.393  1.00  0.00    -0.376 OA
BRANCH  29  30
ATOM     30  C   UNL A   1      33.753  28.487  24.775  1.00  0.00     0.202 C 
BRANCH  30  31
ATOM     31  C   UNL A   1      32.879  29.625  25.325  1.00  0.00     0.261 C 
BRANCH  31  32
ATOM     32  O   UNL A   1      32.918  29.850  26.740  1.00  0.00    -0.460 OA
BRANCH  32  33
ATOM     33  C   UNL A   1      33.432  31.023  27.167  1.00  0.00     0.338 C 
ATOM     34  O   UNL A   1      32.879  32.105  27.203  1.00  0.00    -0.246 OA
BRANCH  33  35
ATOM     35  C   UNL A   1      34.768  30.742  27.731  1.00  0.00     0.060 A 
ATOM     36  C   UNL A   1      35.132  29.418  28.004  1.00  0.00     0.016 A 
ATOM     37  C   UNL A   1      35.651  31.792  27.999  1.00  0.00     0.016 A 
ATOM     38  C   UNL A   1      36.376  29.143  28.577  1.00  0.00     0.010 A 
ATOM     39  C   UNL A   1      36.885  31.517  28.592  1.00  0.00     0.010 A 
ATOM     40  C   UNL A   1      37.239  30.195  28.911  1.00  0.00    -0.014 A 
BRANCH  40  41
ATOM     41  C   UNL A   1      38.431  29.952  29.758  1.00  0.00     0.031 A 
ATOM     42  C   UNL A   1      39.482  29.003  29.254  1.00  0.00     0.074 A 
ATOM     43  C   UNL A   1      38.566  30.537  30.960  1.00  0.00     0.049 A 
ATOM     44  N   UNL A   1      40.550  28.546  29.853  1.00  0.00    -0.248 NA
ATOM     45  C   UNL A   1      39.297  28.499  27.884  1.00  0.00     0.031 C 
ATOM     46  C   UNL A   1      37.642  31.508  31.537  1.00  0.00     0.029 A 
ATOM     47  N   UNL A   1      39.535  30.377  31.920  1.00  0.00    -0.354 N 
ATOM     48  C   UNL A   1      41.159  27.697  28.940  1.00  0.00     0.074 A 
ATOM     49  C   UNL A   1      40.333  27.685  27.752  1.00  0.00     0.031 C 
ATOM     50  C   UNL A   1      38.077  31.844  32.765  1.00  0.00     0.029 A 
ATOM     51  C   UNL A   1      39.287  31.085  33.069  1.00  0.00     0.049 A 
ATOM     52  H   UNL A   1      40.330  29.810  31.795  1.00  0.00     0.167 HD
ATOM     53  C   UNL A   1      42.306  26.992  29.079  1.00  0.00     0.037 A 
ATOM     54  C   UNL A   1      39.952  31.092  34.242  1.00  0.00     0.037 A 
ATOM     55  C   UNL A   1      43.120  26.996  30.264  1.00  0.00     0.049 A 
ATOM     56  C   UNL A   1      41.184  30.239  34.400  1.00  0.00     0.074 A 
ATOM     57  C   UNL A   1      44.302  26.318  30.503  1.00  0.00     0.029 A 
ATOM     58  N   UNL A   1      42.827  27.711  31.415  1.00  0.00    -0.354 N 
ATOM     59  N   UNL A   1      41.763  29.448  33.529  1.00  0.00    -0.248 NA
ATOM     60  C   UNL A   1      41.855  30.278  35.709  1.00  0.00     0.031 C 
ATOM     61  C   UNL A   1      44.704  26.592  31.815  1.00  0.00     0.029 A 
ATOM     62  C   UNL A   1      43.796  27.476  32.376  1.00  0.00     0.049 A 
ATOM     63  H   UNL A   1      42.046  28.299  31.533  1.00  0.00     0.167 HD
ATOM     64  C   UNL A   1      42.881  28.925  34.169  1.00  0.00     0.074 A 
ATOM     65  C   UNL A   1      42.900  29.489  35.503  1.00  0.00     0.031 C 
ATOM     66  C   UNL A   1      43.809  28.059  33.693  1.00  0.00     0.037 A 
BRANCH  53  67
ATOM     67  C   UNL A   1      42.729  26.133  27.926  1.00  0.00     0.064 A 
ATOM     68  C   UNL A   1      42.225  24.836  27.753  1.00  0.00     0.173 A 
ATOM     69  C   UNL A   1      43.636  26.619  26.973  1.00  0.00     0.173 A 
ATOM     70  F   UNL A   1      41.369  24.318  28.649  1.00  0.00    -0.203 F 
ATOM     71  C   UNL A   1      42.631  24.048  26.680  1.00  0.00     0.198 A 
ATOM     72  C   UNL A   1      44.021  25.838  25.887  1.00  0.00     0.198 A 
ATOM     73  F   UNL A   1      44.147  27.854  27.095  1.00  0.00    -0.203 F 
ATOM     74  F   UNL A   1      42.171  22.795  26.558  1.00  0.00    -0.200 F 
ATOM     75  C   UNL A   1      43.524  24.552  25.745  1.00  0.00     0.200 A 
ATOM     76  F   UNL A   1      44.878  26.328  24.981  1.00  0.00    -0.200 F 
ATOM     77  F   UNL A   1      43.911  23.793  24.711  1.00  0.00    -0.200 F 
ENDBRANCH  53  67
BRANCH  54  78
ATOM     78  C   UNL A   1      39.455  31.920  35.371  1.00  0.00     0.064 A 
ATOM     79  C   UNL A   1      39.874  33.247  35.533  1.00  0.00     0.173 A 
ATOM     80  C   UNL A   1      38.574  31.392  36.326  1.00  0.00     0.173 A 
ATOM     81  F   UNL A   1      40.746  33.785  34.667  1.00  0.00    -0.203 F 
ATOM     82  C   UNL A   1      39.441  34.011  36.615  1.00  0.00     0.198 A 
ATOM     83  C   UNL A   1      38.123  32.163  37.394  1.00  0.00     0.198 A 
ATOM     84  F   UNL A   1      38.155  30.121  36.224  1.00  0.00    -0.203 F 
ATOM     85  F   UNL A   1      39.898  35.261  36.776  1.00  0.00    -0.200 F 
ATOM     86  C   UNL A   1      38.563  33.470  37.542  1.00  0.00     0.200 A 
ATOM     87  F   UNL A   1      37.274  31.638  38.289  1.00  0.00    -0.200 F 
ATOM     88  F   UNL A   1      38.154  34.203  38.587  1.00  0.00    -0.200 F 
ENDBRANCH  54  78
BRANCH  66  89
ATOM     89  C   UNL A   1      44.951  27.703  34.597  1.00  0.00     0.064 A 
ATOM     90  C   UNL A   1      44.904  26.582  35.436  1.00  0.00     0.173 A 
ATOM     91  C   UNL A   1      46.130  28.465  34.578  1.00  0.00     0.173 A 
ATOM     92  F   UNL A   1      43.796  25.830  35.498  1.00  0.00    -0.203 F 
ATOM     93  C   UNL A   1      45.992  26.245  36.239  1.00  0.00     0.198 A 
ATOM     94  C   UNL A   1      47.224  28.110  35.362  1.00  0.00     0.198 A 
ATOM     95  F   UNL A   1      46.227  29.542  33.785  1.00  0.00    -0.203 F 
ATOM     96  F   UNL A   1      45.915  25.189  37.060  1.00  0.00    -0.200 F 
ATOM     97  C   UNL A   1      47.152  27.004  36.195  1.00  0.00     0.200 A 
ATOM     98  F   UNL A   1      48.348  28.836  35.308  1.00  0.00    -0.200 F 
ATOM     99  F   UNL A   1      48.201  26.671  36.960  1.00  0.00    -0.200 F 
ENDBRANCH  66  89
ENDBRANCH  40  41
ENDBRANCH  33  35
ENDBRANCH  32  33
ENDBRANCH  31  32
ENDBRANCH  30  31
ENDBRANCH  29  30
ENDBRANCH  28  29
ENDBRANCH   1  28
TORSDOF 21
ENDMDL
MODEL 2
REMARK VINA RESULT:     -10.1      4.567      8.980
REMARK SMILES C[C@H]1CC[C@H](CNC(=O)NCc2ccc(C(=O)OCCOCCOCCOC(=O)c3ccc(-c4c5nc(c(-c6c(F)c(F)c(F)c(F)c6F)c6ccc([nH]6)c(-c6c(F)c(F)c(F)c(F)c6F)c6nc(c(-c7c(F)c(F)c(F)c(F)c7F)c7ccc4[nH]7)C=C6)C=C5)cc3)o2)CC1
REMARK SMILES IDX 22 1 21 2 20 3 19 4 18 5 16 6 17 7 15 8 12 9 13 10 93 11
REMARK SMILES IDX 14 12 11 13 10 14 7 15 8 16 9 18 6 20 5 21 1 22 2 23 95 24
REMARK SMILES IDX 3 25 94 26 4 27 23 28 24 29 25 30 26 31 27 32 28 33 29 34
REMARK SMILES IDX 30 35 31 36 92 37 32 38 91 39 33 40 34 41 35 42 85 43 36 44
REMARK SMILES IDX 90 45 84 46 86 47 37 48 89 49 83 50 82 51 38 53 70 54 50 55
REMARK SMILES IDX 69 56 51 57 54 58 68 59 87 60 52 61 53 62 67 64 88 65 55 66
REMARK SMILES IDX 39 67 40 68 48 69 41 70 42 71 46 72 49 73 43 74 44 75 47 76
REMARK SMILES IDX 45 77 71 78 72 79 80 80 73 81 74 82 78 83 81 84 75 85 76 86
REMARK SMILES IDX 79 87 77 88 56 89 57 90 65 91 58 92 59 93 63 94 66 95 60 96
REMARK SMILES IDX 61 97 64 98 62 99
REMARK H PARENT 7 17 10 19 86 52 54 63
REMARK Flexibility Score: inf
ROOT
ATOM      1  C   UNL A   1      33.648  34.971  30.346  1.00  0.00     0.188 C 
ENDROOT
BRANCH   1   2
ATOM      2  O   UNL A   1      34.053  35.244  31.685  1.00  0.00    -0.376 OA
BRANCH   2   3
ATOM      3  C   UNL A   1      34.016  34.196  32.652  1.00  0.00     0.202 C 
BRANCH   3   4
ATOM      4  C   UNL A   1      34.421  32.796  32.182  1.00  0.00     0.261 C 
BRANCH   4   5
ATOM      5  O   UNL A   1      35.605  32.313  32.842  1.00  0.00    -0.457 OA
BRANCH   5   6
ATOM      6  C   UNL A   1      36.734  32.256  32.073  1.00  0.00     0.374 C 
ATOM      7  O   UNL A   1      36.786  32.575  30.891  1.00  0.00    -0.242 OA
BRANCH   6   8
ATOM      8  C   UNL A   1      37.870  31.889  32.889  1.00  0.00     0.211 A 
ATOM      9  C   UNL A   1      39.557  30.560  33.436  1.00  0.00     0.124 A 
ATOM     10  C   UNL A   1      39.692  31.699  34.203  1.00  0.00     0.048 A 
ATOM     11  O   UNL A   1      38.427  30.657  32.675  1.00  0.00    -0.452 OA
ATOM     12  C   UNL A   1      38.612  32.552  33.851  1.00  0.00     0.058 A 
BRANCH   9  13
ATOM     13  C   UNL A   1      40.350  29.306  33.300  1.00  0.00     0.193 C 
BRANCH  13  14
ATOM     14  N   UNL A   1      40.487  28.689  34.603  1.00  0.00    -0.331 N 
ATOM     15  N   UNL A   1      42.779  28.670  35.151  1.00  0.00    -0.338 N 
ATOM     16  C   UNL A   1      41.486  28.566  35.477  1.00  0.00     0.315 C 
ATOM     17  H   UNL A   1      43.364  28.874  35.916  1.00  0.00     0.165 HD
ATOM     18  O   UNL A   1      41.207  28.330  36.653  1.00  0.00    -0.249 OA
ATOM     19  H   UNL A   1      39.654  28.264  34.913  1.00  0.00     0.165 HD
BRANCH  15  20
ATOM     20  C   UNL A   1      43.491  28.541  33.894  1.00  0.00     0.121 C 
BRANCH  20  21
ATOM     21  C   UNL A   1      44.310  27.240  33.843  1.00  0.00     0.008 C 
ATOM     22  C   UNL A   1      45.167  22.929  33.858  1.00  0.00     0.007 C 
ATOM     23  C   UNL A   1      44.419  24.260  33.907  1.00  0.00    -0.014 C 
ATOM     24  C   UNL A   1      44.612  25.044  32.604  1.00  0.00     0.003 C 
ATOM     25  C   UNL A   1      44.876  25.097  35.107  1.00  0.00     0.003 C 
ATOM     26  C   UNL A   1      43.877  26.383  32.645  1.00  0.00     0.006 C 
ATOM     27  C   UNL A   1      44.162  26.447  35.157  1.00  0.00     0.006 C 
ENDBRANCH  20  21
ENDBRANCH  15  20
ENDBRANCH  13  14
ENDBRANCH   9  13
ENDBRANCH   6   8
ENDBRANCH   5   6
ENDBRANCH   4   5
ENDBRANCH   3   4
ENDBRANCH   2   3
ENDBRANCH   1   2
BRANCH   1  28
ATOM     28  C   UNL A   1      34.668  35.189  29.211  1.00  0.00     0.188 C 
BRANCH  28  29
ATOM     29  O   UNL A   1      34.275  34.590  27.994  1.00  0.00    -0.376 OA
BRANCH  29  30
ATOM     30  C   UNL A   1      33.134  33.752  27.992  1.00  0.00     0.202 C 
BRANCH  30  31
ATOM     31  C   UNL A   1      33.285  32.264  27.643  1.00  0.00     0.261 C 
BRANCH  31  32
ATOM     32  O   UNL A   1      34.406  31.573  28.208  1.00  0.00    -0.460 OA
BRANCH  32  33
ATOM     33  C   UNL A   1      34.495  30.245  27.980  1.00  0.00     0.338 C 
ATOM     34  O   UNL A   1      33.620  29.502  27.579  1.00  0.00    -0.246 OA
BRANCH  33  35
ATOM     35  C   UNL A   1      35.908  29.857  28.167  1.00  0.00     0.060 A 
ATOM     36  C   UNL A   1      36.313  29.314  29.392  1.00  0.00     0.016 A 
ATOM     37  C   UNL A   1      36.830  30.043  27.133  1.00  0.00     0.016 A 
ATOM     38  C   UNL A   1      37.654  28.982  29.598  1.00  0.00     0.010 A 
ATOM     39  C   UNL A   1      38.174  29.730  27.346  1.00  0.00     0.010 A 
ATOM     40  C   UNL A   1      38.596  29.228  28.589  1.00  0.00    -0.014 A 
BRANCH  40  41
ATOM     41  C   UNL A   1      40.047  29.142  28.877  1.00  0.00     0.031 A 
ATOM     42  C   UNL A   1      40.783  27.898  28.460  1.00  0.00     0.074 A 
ATOM     43  C   UNL A   1      40.695  30.129  29.516  1.00  0.00     0.049 A 
ATOM     44  N   UNL A   1      42.018  27.541  28.696  1.00  0.00    -0.248 NA
ATOM     45  C   UNL A   1      40.013  26.923  27.670  1.00  0.00     0.031 C 
ATOM     46  C   UNL A   1      40.105  31.399  29.928  1.00  0.00     0.029 A 
ATOM     47  N   UNL A   1      41.996  30.202  29.949  1.00  0.00    -0.354 N 
ATOM     48  C   UNL A   1      42.172  26.300  28.094  1.00  0.00     0.074 A 
ATOM     49  C   UNL A   1      40.900  25.955  27.497  1.00  0.00     0.031 C 
ATOM     50  C   UNL A   1      41.037  32.121  30.575  1.00  0.00     0.029 A 
ATOM     51  C   UNL A   1      42.275  31.348  30.652  1.00  0.00     0.049 A 
ATOM     52  H   UNL A   1      42.664  29.501  29.771  1.00  0.00     0.167 HD
ATOM     53  C   UNL A   1      43.276  25.519  28.041  1.00  0.00     0.037 A 
ATOM     54  C   UNL A   1      43.396  31.711  31.306  1.00  0.00     0.037 A 
ATOM     55  C   UNL A   1      44.537  25.859  28.644  1.00  0.00     0.049 A 
ATOM     56  C   UNL A   1      44.589  30.790  31.298  1.00  0.00     0.074 A 
ATOM     57  C   UNL A   1      45.716  25.137  28.644  1.00  0.00     0.029 A 
ATOM     58  N   UNL A   1      44.775  27.020  29.364  1.00  0.00    -0.354 N 
ATOM     59  N   UNL A   1      44.734  29.625  30.716  1.00  0.00    -0.248 NA
ATOM     60  C   UNL A   1      45.776  31.236  32.044  1.00  0.00     0.031 C 
ATOM     61  C   UNL A   1      46.660  25.842  29.399  1.00  0.00     0.029 A 
ATOM     62  C   UNL A   1      46.080  27.025  29.830  1.00  0.00     0.049 A 
ATOM     63  H   UNL A   1      44.116  27.733  29.521  1.00  0.00     0.167 HD
ATOM     64  C   UNL A   1      46.033  29.216  30.993  1.00  0.00     0.074 A 
ATOM     65  C   UNL A   1      46.637  30.259  31.796  1.00  0.00     0.031 C 
ATOM     66  C   UNL A   1      46.669  28.080  30.613  1.00  0.00     0.037 A 
BRANCH  53  67
ATOM     67  C   UNL A   1      43.156  24.206  27.329  1.00  0.00     0.064 A 
ATOM     68  C   UNL A   1      43.473  24.076  25.969  1.00  0.00     0.173 A 
ATOM     69  C   UNL A   1      42.735  23.060  28.020  1.00  0.00     0.173 A 
ATOM     70  F   UNL A   1      43.861  25.148  25.261  1.00  0.00    -0.203 F 
ATOM     71  C   UNL A   1      43.352  22.851  25.321  1.00  0.00     0.198 A 
ATOM     72  C   UNL A   1      42.639  21.831  27.374  1.00  0.00     0.198 A 
ATOM     73  F   UNL A   1      42.419  23.133  29.322  1.00  0.00    -0.203 F 
ATOM     74  F   UNL A   1      43.617  22.758  24.010  1.00  0.00    -0.200 F 
ATOM     75  C   UNL A   1      42.940  21.728  26.025  1.00  0.00     0.200 A 
ATOM     76  F   UNL A   1      42.248  20.746  28.057  1.00  0.00    -0.200 F 
ATOM     77  F   UNL A   1      42.827  20.549  25.400  1.00  0.00    -0.200 F 
ENDBRANCH  53  67
BRANCH  54  78
ATOM     78  C   UNL A   1      43.440  33.000  32.042  1.00  0.00     0.064 A 
ATOM     79  C   UNL A   1      43.203  33.054  33.422  1.00  0.00     0.173 A 
ATOM     80  C   UNL A   1      43.691  34.209  31.375  1.00  0.00     0.173 A 
ATOM     81  F   UNL A   1      42.921  31.930  34.097  1.00  0.00    -0.203 F 
ATOM     82  C   UNL A   1      43.203  34.269  34.105  1.00  0.00     0.198 A 
ATOM     83  C   UNL A   1      43.714  35.419  32.063  1.00  0.00     0.198 A 
ATOM     84  F   UNL A   1      43.909  34.213  30.051  1.00  0.00    -0.203 F 
ATOM     85  F   UNL A   1      42.922  34.298  35.415  1.00  0.00    -0.200 F 
ATOM     86  C   UNL A   1      43.463  35.449  33.426  1.00  0.00     0.200 A 
ATOM     87  F   UNL A   1      43.966  36.559  31.403  1.00  0.00    -0.200 F 
ATOM     88  F   UNL A   1      43.455  36.618  34.083  1.00  0.00    -0.200 F 
ENDBRANCH  54  78
BRANCH  66  89
ATOM     89  C   UNL A   1      48.105  27.924  31.016  1.00  0.00     0.064 A 
ATOM     90  C   UNL A   1      49.143  28.530  30.295  1.00  0.00     0.173 A 
ATOM     91  C   UNL A   1      48.439  27.204  32.174  1.00  0.00     0.173 A 
ATOM     92  F   UNL A   1      48.875  29.218  29.176  1.00  0.00    -0.203 F 
ATOM     93  C   UNL A   1      50.467  28.406  30.709  1.00  0.00     0.198 A 
ATOM     94  C   UNL A   1      49.761  27.104  32.599  1.00  0.00     0.198 A 
ATOM     95  F   UNL A   1      47.480  26.613  32.903  1.00  0.00    -0.203 F 
ATOM     96  F   UNL A   1      51.447  28.964  29.987  1.00  0.00    -0.200 F 
ATOM     97  C   UNL A   1      50.774  27.701  31.864  1.00  0.00     0.200 A 
ATOM     98  F   UNL A   1      50.053  26.434  33.721  1.00  0.00    -0.200 F 
ATOM     99  F   UNL A   1      52.047  27.593  32.266  1.00  0.00    -0.200 F 
ENDBRANCH  66  89
ENDBRANCH  40  41
ENDBRANCH  33  35
ENDBRANCH  32  33
ENDBRANCH  31  32
ENDBRANCH  30  31
ENDBRANCH  29  30
ENDBRANCH  28  29
ENDBRANCH   1  28
TORSDOF 21
ENDMDL
MODEL 3
REMARK VINA RESULT:     -10.0      4.604     11.061
REMARK SMILES C[C@H]1CC[C@H](CNC(=O)NCc2ccc(C(=O)OCCOCCOCCOC(=O)c3ccc(-c4c5nc(c(-c6c(F)c(F)c(F)c(F)c6F)c6ccc([nH]6)c(-c6c(F)c(F)c(F)c(F)c6F)c6nc(c(-c7c(F)c(F)c(F)c(F)c7F)c7ccc4[nH]7)C=C6)C=C5)cc3)o2)CC1
REMARK SMILES IDX 22 1 21 2 20 3 19 4 18 5 16 6 17 7 15 8 12 9 13 10 93 11
REMARK SMILES IDX 14 12 11 13 10 14 7 15 8 16 9 18 6 20 5 21 1 22 2 23 95 24
REMARK SMILES IDX 3 25 94 26 4 27 23 28 24 29 25 30 26 31 27 32 28 33 29 34
REMARK SMILES IDX 30 35 31 36 92 37 32 38 91 39 33 40 34 41 35 42 85 43 36 44
REMARK SMILES IDX 90 45 84 46 86 47 37 48 89 49 83 50 82 51 38 53 70 54 50 55
REMARK SMILES IDX 69 56 51 57 54 58 68 59 87 60 52 61 53 62 67 64 88 65 55 66
REMARK SMILES IDX 39 67 40 68 48 69 41 70 42 71 46 72 49 73 43 74 44 75 47 76
REMARK SMILES IDX 45 77 71 78 72 79 80 80 73 81 74 82 78 83 81 84 75 85 76 86
REMARK SMILES IDX 79 87 77 88 56 89 57 90 65 91 58 92 59 93 63 94 66 95 60 96
REMARK SMILES IDX 61 97 64 98 62 99
REMARK H PARENT 7 17 10 19 86 52 54 63
REMARK Flexibility Score: inf
ROOT
ATOM      1  C   UNL A   1      33.436  34.921  29.861  1.00  0.00     0.188 C 
ENDROOT
BRANCH   1   2
ATOM      2  O   UNL A   1      33.994  35.237  31.134  1.00  0.00    -0.376 OA
BRANCH   2   3
ATOM      3  C   UNL A   1      34.141  34.204  32.107  1.00  0.00     0.202 C 
BRANCH   3   4
ATOM      4  C   UNL A   1      34.959  32.974  31.703  1.00  0.00     0.261 C 
BRANCH   4   5
ATOM      5  O   UNL A   1      36.091  32.756  32.565  1.00  0.00    -0.457 OA
BRANCH   5   6
ATOM      6  C   UNL A   1      37.319  32.892  31.979  1.00  0.00     0.374 C 
ATOM      7  O   UNL A   1      37.515  33.422  30.892  1.00  0.00    -0.242 OA
BRANCH   6   8
ATOM      8  C   UNL A   1      38.351  32.437  32.884  1.00  0.00     0.211 A 
ATOM      9  C   UNL A   1      39.611  30.864  33.807  1.00  0.00     0.124 A 
ATOM     10  C   UNL A   1      40.123  32.074  34.229  1.00  0.00     0.048 A 
ATOM     11  O   UNL A   1      38.509  31.085  33.030  1.00  0.00    -0.452 OA
ATOM     12  C   UNL A   1      39.318  33.082  33.635  1.00  0.00     0.058 A 
BRANCH   9  13
ATOM     13  C   UNL A   1      39.993  29.443  34.038  1.00  0.00     0.193 C 
BRANCH  13  14
ATOM     14  N   UNL A   1      40.626  29.329  35.335  1.00  0.00    -0.331 N 
ATOM     15  N   UNL A   1      42.934  29.012  34.979  1.00  0.00    -0.338 N 
ATOM     16  C   UNL A   1      41.891  29.318  35.757  1.00  0.00     0.315 C 
ATOM     17  H   UNL A   1      43.795  29.348  35.321  1.00  0.00     0.165 HD
ATOM     18  O   UNL A   1      42.115  29.593  36.937  1.00  0.00    -0.249 OA
ATOM     19  H   UNL A   1      39.978  29.237  36.070  1.00  0.00     0.165 HD
BRANCH  15  20
ATOM     20  C   UNL A   1      43.052  28.282  33.731  1.00  0.00     0.121 C 
BRANCH  20  21
ATOM     21  C   UNL A   1      43.809  26.957  33.924  1.00  0.00     0.008 C 
ATOM     22  C   UNL A   1      44.635  22.644  33.760  1.00  0.00     0.007 C 
ATOM     23  C   UNL A   1      43.939  23.994  33.607  1.00  0.00    -0.014 C 
ATOM     24  C   UNL A   1      44.760  24.935  32.718  1.00  0.00     0.003 C 
ATOM     25  C   UNL A   1      43.688  24.636  34.976  1.00  0.00     0.003 C 
ATOM     26  C   UNL A   1      44.079  26.295  32.566  1.00  0.00     0.006 C 
ATOM     27  C   UNL A   1      43.021  26.004  34.843  1.00  0.00     0.006 C 
ENDBRANCH  20  21
ENDBRANCH  15  20
ENDBRANCH  13  14
ENDBRANCH   9  13
ENDBRANCH   6   8
ENDBRANCH   5   6
ENDBRANCH   4   5
ENDBRANCH   3   4
ENDBRANCH   2   3
ENDBRANCH   1   2
BRANCH   1  28
ATOM     28  C   UNL A   1      34.343  35.007  28.619  1.00  0.00     0.188 C 
BRANCH  28  29
ATOM     29  O   UNL A   1      33.879  34.220  27.541  1.00  0.00    -0.376 OA
BRANCH  29  30
ATOM     30  C   UNL A   1      32.918  33.216  27.805  1.00  0.00     0.202 C 
BRANCH  30  31
ATOM     31  C   UNL A   1      33.285  31.739  27.593  1.00  0.00     0.261 C 
BRANCH  31  32
ATOM     32  O   UNL A   1      34.604  31.333  27.980  1.00  0.00    -0.460 OA
BRANCH  32  33
ATOM     33  C   UNL A   1      34.874  30.010  27.966  1.00  0.00     0.338 C 
ATOM     34  O   UNL A   1      34.136  29.107  27.623  1.00  0.00    -0.246 OA
BRANCH  33  35
ATOM     35  C   UNL A   1      36.301  29.846  28.310  1.00  0.00     0.060 A 
ATOM     36  C   UNL A   1      37.265  29.942  27.300  1.00  0.00     0.016 A 
ATOM     37  C   UNL A   1      36.679  29.587  29.631  1.00  0.00     0.016 A 
ATOM     38  C   UNL A   1      38.614  29.747  27.604  1.00  0.00     0.010 A 
ATOM     39  C   UNL A   1      38.025  29.370  29.930  1.00  0.00     0.010 A 
ATOM     40  C   UNL A   1      38.994  29.419  28.913  1.00  0.00    -0.014 A 
BRANCH  40  41
ATOM     41  C   UNL A   1      40.368  28.944  29.202  1.00  0.00     0.031 A 
ATOM     42  C   UNL A   1      41.307  29.874  29.918  1.00  0.00     0.074 A 
ATOM     43  C   UNL A   1      40.784  27.727  28.815  1.00  0.00     0.049 A 
ATOM     44  N   UNL A   1      42.579  29.733  30.185  1.00  0.00    -0.248 NA
ATOM     45  C   UNL A   1      40.727  31.139  30.397  1.00  0.00     0.031 C 
ATOM     46  C   UNL A   1      39.957  26.720  28.158  1.00  0.00     0.029 A 
ATOM     47  N   UNL A   1      42.024  27.143  28.907  1.00  0.00    -0.354 N 
ATOM     48  C   UNL A   1      42.954  30.891  30.852  1.00  0.00     0.074 A 
ATOM     49  C   UNL A   1      41.781  31.734  30.935  1.00  0.00     0.031 C 
ATOM     50  C   UNL A   1      40.718  25.645  27.883  1.00  0.00     0.029 A 
ATOM     51  C   UNL A   1      42.089  25.906  28.315  1.00  0.00     0.049 A 
ATOM     52  H   UNL A   1      42.789  27.570  29.354  1.00  0.00     0.167 HD
ATOM     53  C   UNL A   1      44.167  31.221  31.353  1.00  0.00     0.037 A 
ATOM     54  C   UNL A   1      43.148  25.095  28.121  1.00  0.00     0.037 A 
ATOM     55  C   UNL A   1      45.335  30.387  31.260  1.00  0.00     0.049 A 
ATOM     56  C   UNL A   1      44.506  25.517  28.620  1.00  0.00     0.074 A 
ATOM     57  C   UNL A   1      46.610  30.629  31.738  1.00  0.00     0.029 A 
ATOM     58  N   UNL A   1      45.367  29.148  30.637  1.00  0.00    -0.354 N 
ATOM     59  N   UNL A   1      44.852  26.606  29.262  1.00  0.00    -0.248 NA
ATOM     60  C   UNL A   1      45.623  24.595  28.364  1.00  0.00     0.031 C 
ATOM     61  C   UNL A   1      47.426  29.554  31.369  1.00  0.00     0.029 A 
ATOM     62  C   UNL A   1      46.647  28.622  30.701  1.00  0.00     0.049 A 
ATOM     63  H   UNL A   1      44.597  28.709  30.211  1.00  0.00     0.167 HD
ATOM     64  C   UNL A   1      46.213  26.486  29.517  1.00  0.00     0.074 A 
ATOM     65  C   UNL A   1      46.632  25.216  28.960  1.00  0.00     0.031 C 
ATOM     66  C   UNL A   1      47.041  27.348  30.157  1.00  0.00     0.037 A 
BRANCH  53  67
ATOM     67  C   UNL A   1      44.296  32.557  32.020  1.00  0.00     0.064 A 
ATOM     68  C   UNL A   1      43.971  32.736  33.372  1.00  0.00     0.173 A 
ATOM     69  C   UNL A   1      44.765  33.666  31.303  1.00  0.00     0.173 A 
ATOM     70  F   UNL A   1      43.498  31.709  34.096  1.00  0.00    -0.203 F 
ATOM     71  C   UNL A   1      44.090  33.984  33.977  1.00  0.00     0.198 A 
ATOM     72  C   UNL A   1      44.908  34.908  31.917  1.00  0.00     0.198 A 
ATOM     73  F   UNL A   1      45.088  33.546  30.006  1.00  0.00    -0.203 F 
ATOM     74  F   UNL A   1      43.732  34.144  35.258  1.00  0.00    -0.200 F 
ATOM     75  C   UNL A   1      44.564  35.067  33.250  1.00  0.00     0.200 A 
ATOM     76  F   UNL A   1      45.372  35.951  31.216  1.00  0.00    -0.200 F 
ATOM     77  F   UNL A   1      44.682  36.267  33.834  1.00  0.00    -0.200 F 
ENDBRANCH  53  67
BRANCH  54  78
ATOM     78  C   UNL A   1      42.973  23.806  27.404  1.00  0.00     0.064 A 
ATOM     79  C   UNL A   1      42.511  22.664  28.071  1.00  0.00     0.173 A 
ATOM     80  C   UNL A   1      43.291  23.684  26.042  1.00  0.00     0.173 A 
ATOM     81  F   UNL A   1      42.230  22.721  29.381  1.00  0.00    -0.203 F 
ATOM     82  C   UNL A   1      42.387  21.444  27.407  1.00  0.00     0.198 A 
ATOM     83  C   UNL A   1      43.144  22.471  25.375  1.00  0.00     0.198 A 
ATOM     84  F   UNL A   1      43.752  24.745  25.362  1.00  0.00    -0.203 F 
ATOM     85  F   UNL A   1      41.993  20.355  28.081  1.00  0.00    -0.200 F 
ATOM     86  C   UNL A   1      42.699  21.350  26.060  1.00  0.00     0.200 A 
ATOM     87  F   UNL A   1      43.447  22.383  24.072  1.00  0.00    -0.200 F 
ATOM     88  F   UNL A   1      42.587  20.175  25.425  1.00  0.00    -0.200 F 
ENDBRANCH  54  78
BRANCH  66  89
ATOM     89  C   UNL A   1      48.470  26.931  30.336  1.00  0.00     0.064 A 
ATOM     90  C   UNL A   1      48.865  26.087  31.383  1.00  0.00     0.173 A 
ATOM     91  C   UNL A   1      49.446  27.338  29.412  1.00  0.00     0.173 A 
ATOM     92  F   UNL A   1      47.972  25.682  32.298  1.00  0.00    -0.203 F 
ATOM     93  C   UNL A   1      50.191  25.678  31.509  1.00  0.00     0.198 A 
ATOM     94  C   UNL A   1      50.764  26.907  29.527  1.00  0.00     0.198 A 
ATOM     95  F   UNL A   1      49.115  28.138  28.388  1.00  0.00    -0.203 F 
ATOM     96  F   UNL A   1      50.555  24.899  32.536  1.00  0.00    -0.200 F 
ATOM     97  C   UNL A   1      51.137  26.081  30.578  1.00  0.00     0.200 A 
ATOM     98  F   UNL A   1      51.672  27.285  28.619  1.00  0.00    -0.200 F 
ATOM     99  F   UNL A   1      52.409  25.677  30.695  1.00  0.00    -0.200 F 
ENDBRANCH  66  89
ENDBRANCH  40  41
ENDBRANCH  33  35
ENDBRANCH  32  33
ENDBRANCH  31  32
ENDBRANCH  30  31
ENDBRANCH  29  30
ENDBRANCH  28  29
ENDBRANCH   1  28
TORSDOF 21
ENDMDL
