MODEL 1
REMARK VINA RESULT:     -11.2      0.000      0.000
REMARK SMILES O=C(OCCOCCOCCOC(=O)[C@H]1CCCCN1C(=O)c1nc(C2CC2)n[nH]1)c1ccc(-c2c3nc(c(-c4c(F)c(F)c(F)c(F)c4F)c4ccc([nH]4)c(-c4c(F)c(F)c(F)c(F)c4F)c4nc(c(-c5c(F)c(F)c(F)c(F)c5F)c5ccc2[nH]5)C=C4)C=C3)cc1
REMARK SMILES IDX 8 1 7 2 6 3 5 4 4 5 3 6 2 7 1 8 31 9 32 10 93 11 33 12 92 13
REMARK SMILES IDX 34 14 35 15 36 16 86 17 37 18 91 19 85 20 87 21 38 22 90 23
REMARK SMILES IDX 84 24 83 25 39 27 71 28 51 29 70 30 52 31 55 32 69 33 88 34
REMARK SMILES IDX 53 35 54 36 68 38 89 39 56 40 40 41 41 42 49 43 42 44 43 45
REMARK SMILES IDX 47 46 50 47 44 48 45 49 48 50 46 51 72 52 73 53 81 54 74 55
REMARK SMILES IDX 75 56 79 57 82 58 76 59 77 60 80 61 78 62 57 63 58 64 66 65
REMARK SMILES IDX 59 66 60 67 64 68 67 69 61 70 62 71 65 72 63 73 9 74 10 75
REMARK SMILES IDX 11 76 12 77 13 78 14 79 15 80 16 81 20 82 17 83 19 84 18 85
REMARK SMILES IDX 21 86 22 87 23 88 24 89 30 90 25 91 29 92 26 94 27 95 28 96
REMARK H PARENT 87 26 55 37 30 93
REMARK Flexibility Score: inf
ROOT
ATOM      1  C   UNL A   1      36.358  23.704  25.875  1.00  0.00     0.188 C 
ENDROOT
BRANCH   1   2
ATOM      2  C   UNL A   1      37.736  23.180  25.459  1.00  0.00     0.188 C 
BRANCH   2   3
ATOM      3  O   UNL A   1      37.770  21.740  25.459  1.00  0.00    -0.376 OA
BRANCH   3   4
ATOM      4  C   UNL A   1      39.060  21.208  25.777  1.00  0.00     0.202 C 
BRANCH   4   5
ATOM      5  C   UNL A   1      39.134  19.680  25.881  1.00  0.00     0.261 C 
BRANCH   5   6
ATOM      6  O   UNL A   1      40.376  19.136  25.415  1.00  0.00    -0.460 OA
BRANCH   6   7
ATOM      7  C   UNL A   1      41.623  19.250  25.929  1.00  0.00     0.338 C 
ATOM      8  O   UNL A   1      42.300  18.224  25.996  1.00  0.00    -0.246 OA
BRANCH   7   9
ATOM      9  C   UNL A   1      42.258  20.525  26.416  1.00  0.00     0.060 A 
ATOM     10  C   UNL A   1      42.319  20.980  27.733  1.00  0.00     0.016 A 
ATOM     11  C   UNL A   1      42.836  21.348  25.423  1.00  0.00     0.016 A 
ATOM     12  C   UNL A   1      42.831  22.243  28.040  1.00  0.00     0.010 A 
ATOM     13  C   UNL A   1      43.382  22.601  25.726  1.00  0.00     0.010 A 
ATOM     14  C   UNL A   1      43.342  23.069  27.037  1.00  0.00    -0.014 A 
BRANCH  14  15
ATOM     15  C   UNL A   1      43.653  24.474  27.371  1.00  0.00     0.031 A 
ATOM     16  C   UNL A   1      45.010  24.989  27.011  1.00  0.00     0.074 A 
ATOM     17  C   UNL A   1      42.718  25.287  27.887  1.00  0.00     0.049 A 
ATOM     18  N   UNL A   1      45.497  26.195  27.125  1.00  0.00    -0.248 NA
ATOM     19  C   UNL A   1      45.946  24.008  26.437  1.00  0.00     0.031 C 
ATOM     20  C   UNL A   1      41.365  24.876  28.233  1.00  0.00     0.029 A 
ATOM     21  N   UNL A   1      42.744  26.626  28.173  1.00  0.00    -0.354 N 
ATOM     22  C   UNL A   1      46.801  26.113  26.663  1.00  0.00     0.074 A 
ATOM     23  C   UNL A   1      47.023  24.749  26.235  1.00  0.00     0.031 C 
ATOM     24  C   UNL A   1      40.658  25.952  28.615  1.00  0.00     0.029 A 
ATOM     25  C   UNL A   1      41.533  27.121  28.598  1.00  0.00     0.049 A 
ATOM     26  H   UNL A   1      43.551  27.182  28.083  1.00  0.00     0.167 HD
ATOM     27  C   UNL A   1      47.743  27.083  26.642  1.00  0.00     0.037 A 
ATOM     28  C   UNL A   1      41.185  28.378  28.939  1.00  0.00     0.037 A 
ATOM     29  C   UNL A   1      47.523  28.412  27.137  1.00  0.00     0.049 A 
ATOM     30  C   UNL A   1      42.253  29.441  28.914  1.00  0.00     0.074 A 
ATOM     31  C   UNL A   1      48.428  29.446  27.281  1.00  0.00     0.029 A 
ATOM     32  N   UNL A   1      46.297  28.883  27.589  1.00  0.00    -0.354 N 
ATOM     33  N   UNL A   1      43.501  29.347  28.516  1.00  0.00    -0.248 NA
ATOM     34  C   UNL A   1      41.883  30.769  29.420  1.00  0.00     0.031 C 
ATOM     35  C   UNL A   1      47.757  30.531  27.858  1.00  0.00     0.029 A 
ATOM     36  C   UNL A   1      46.423  30.188  28.028  1.00  0.00     0.049 A 
ATOM     37  H   UNL A   1      45.461  28.363  27.595  1.00  0.00     0.167 HD
ATOM     38  C   UNL A   1      44.069  30.593  28.737  1.00  0.00     0.074 A 
ATOM     39  C   UNL A   1      43.017  31.441  29.265  1.00  0.00     0.031 C 
ATOM     40  C   UNL A   1      45.349  30.997  28.547  1.00  0.00     0.037 A 
BRANCH  27  41
ATOM     41  C   UNL A   1      49.106  26.673  26.178  1.00  0.00     0.064 A 
ATOM     42  C   UNL A   1      50.051  26.121  27.054  1.00  0.00     0.173 A 
ATOM     43  C   UNL A   1      49.500  26.927  24.856  1.00  0.00     0.173 A 
ATOM     44  F   UNL A   1      49.732  25.897  28.338  1.00  0.00    -0.203 F 
ATOM     45  C   UNL A   1      51.356  25.872  26.632  1.00  0.00     0.198 A 
ATOM     46  C   UNL A   1      50.797  26.656  24.432  1.00  0.00     0.198 A 
ATOM     47  F   UNL A   1      48.636  27.470  23.986  1.00  0.00    -0.203 F 
ATOM     48  F   UNL A   1      52.264  25.412  27.503  1.00  0.00    -0.200 F 
ATOM     49  C   UNL A   1      51.727  26.141  25.322  1.00  0.00     0.200 A 
ATOM     50  F   UNL A   1      51.156  26.924  23.168  1.00  0.00    -0.200 F 
ATOM     51  F   UNL A   1      52.989  25.926  24.924  1.00  0.00    -0.200 F 
ENDBRANCH  27  41
BRANCH  28  52
ATOM     52  C   UNL A   1      39.784  28.693  29.331  1.00  0.00     0.064 A 
ATOM     53  C   UNL A   1      39.344  28.498  30.647  1.00  0.00     0.173 A 
ATOM     54  C   UNL A   1      38.861  29.212  28.410  1.00  0.00     0.173 A 
ATOM     55  F   UNL A   1      40.179  27.984  31.563  1.00  0.00    -0.203 F 
ATOM     56  C   UNL A   1      38.038  28.806  31.028  1.00  0.00     0.198 A 
ATOM     57  C   UNL A   1      37.565  29.552  28.799  1.00  0.00     0.198 A 
ATOM     58  F   UNL A   1      39.223  29.416  27.136  1.00  0.00    -0.203 F 
ATOM     59  F   UNL A   1      37.636  28.577  32.285  1.00  0.00    -0.200 F 
ATOM     60  C   UNL A   1      37.153  29.344  30.105  1.00  0.00     0.200 A 
ATOM     61  F   UNL A   1      36.723  30.096  27.910  1.00  0.00    -0.200 F 
ATOM     62  F   UNL A   1      35.903  29.659  30.471  1.00  0.00    -0.200 F 
ENDBRANCH  28  52
BRANCH  40  63
ATOM     63  C   UNL A   1      45.684  32.408  28.919  1.00  0.00     0.064 A 
ATOM     64  C   UNL A   1      46.179  32.723  30.192  1.00  0.00     0.173 A 
ATOM     65  C   UNL A   1      45.593  33.434  27.968  1.00  0.00     0.173 A 
ATOM     66  F   UNL A   1      46.273  31.774  31.135  1.00  0.00    -0.203 F 
ATOM     67  C   UNL A   1      46.567  34.022  30.502  1.00  0.00     0.198 A 
ATOM     68  C   UNL A   1      46.001  34.727  28.276  1.00  0.00     0.198 A 
ATOM     69  F   UNL A   1      45.131  33.174  26.736  1.00  0.00    -0.203 F 
ATOM     70  F   UNL A   1      47.020  34.310  31.730  1.00  0.00    -0.200 F 
ATOM     71  C   UNL A   1      46.486  35.021  29.542  1.00  0.00     0.200 A 
ATOM     72  F   UNL A   1      45.933  35.689  27.345  1.00  0.00    -0.200 F 
ATOM     73  F   UNL A   1      46.876  36.269  29.838  1.00  0.00    -0.200 F 
ENDBRANCH  40  63
ENDBRANCH  14  15
ENDBRANCH   7   9
ENDBRANCH   6   7
ENDBRANCH   5   6
ENDBRANCH   4   5
ENDBRANCH   3   4
ENDBRANCH   2   3
ENDBRANCH   1   2
BRANCH   1  74
ATOM     74  O   UNL A   1      35.264  22.830  25.581  1.00  0.00    -0.376 OA
BRANCH  74  75
ATOM     75  C   UNL A   1      34.160  22.841  26.481  1.00  0.00     0.202 C 
BRANCH  75  76
ATOM     76  C   UNL A   1      32.782  22.912  25.827  1.00  0.00     0.261 C 
BRANCH  76  77
ATOM     77  O   UNL A   1      32.438  24.250  25.443  1.00  0.00    -0.462 OA
BRANCH  77  78
ATOM     78  C   UNL A   1      31.520  24.883  26.227  1.00  0.00     0.328 C 
ATOM     79  O   UNL A   1      30.951  24.373  27.186  1.00  0.00    -0.250 OA
BRANCH  78  80
ATOM     80  C   UNL A   1      31.187  26.289  25.701  1.00  0.00     0.195 C 
ATOM     81  C   UNL A   1      31.392  27.455  26.668  1.00  0.00     0.037 C 
ATOM     82  N   UNL A   1      31.956  26.505  24.472  1.00  0.00    -0.322 N 
ATOM     83  C   UNL A   1      32.858  27.865  26.840  1.00  0.00     0.005 C 
ATOM     84  C   UNL A   1      33.394  26.722  24.657  1.00  0.00     0.121 C 
ATOM     85  C   UNL A   1      33.608  27.959  25.517  1.00  0.00     0.022 C 
BRANCH  82  86
ATOM     86  C   UNL A   1      31.311  26.494  23.237  1.00  0.00     0.291 C 
ATOM     87  O   UNL A   1      31.255  25.477  22.546  1.00  0.00    -0.265 OA
BRANCH  86  88
ATOM     88  C   UNL A   1      30.658  27.715  22.844  1.00  0.00     0.214 A 
ATOM     89  N   UNL A   1      29.437  28.070  23.191  1.00  0.00    -0.207 NA
ATOM     90  N   UNL A   1      31.183  28.679  22.040  1.00  0.00    -0.255 N 
ATOM     91  C   UNL A   1      29.221  29.209  22.470  1.00  0.00     0.154 A 
ATOM     92  N   UNL A   1      30.247  29.587  21.698  1.00  0.00    -0.158 NA
ATOM     93  H   UNL A   1      32.122  28.710  21.747  1.00  0.00     0.192 HD
BRANCH  91  94
ATOM     94  C   UNL A   1      27.894  29.942  22.525  1.00  0.00     0.060 C 
ATOM     95  C   UNL A   1      27.681  30.946  23.647  1.00  0.00     0.012 C 
ATOM     96  C   UNL A   1      27.893  31.434  22.255  1.00  0.00     0.012 C 
ENDBRANCH  91  94
ENDBRANCH  86  88
ENDBRANCH  82  86
ENDBRANCH  78  80
ENDBRANCH  77  78
ENDBRANCH  76  77
ENDBRANCH  75  76
ENDBRANCH  74  75
ENDBRANCH   1  74
TORSDOF 20
ENDMDL
MODEL 2
REMARK VINA RESULT:     -10.9      1.453      2.633
REMARK SMILES O=C(OCCOCCOCCOC(=O)[C@H]1CCCCN1C(=O)c1nc(C2CC2)n[nH]1)c1ccc(-c2c3nc(c(-c4c(F)c(F)c(F)c(F)c4F)c4ccc([nH]4)c(-c4c(F)c(F)c(F)c(F)c4F)c4nc(c(-c5c(F)c(F)c(F)c(F)c5F)c5ccc2[nH]5)C=C4)C=C3)cc1
REMARK SMILES IDX 8 1 7 2 6 3 5 4 4 5 3 6 2 7 1 8 31 9 32 10 93 11 33 12 92 13
REMARK SMILES IDX 34 14 35 15 36 16 86 17 37 18 91 19 85 20 87 21 38 22 90 23
REMARK SMILES IDX 84 24 83 25 39 27 71 28 51 29 70 30 52 31 55 32 69 33 88 34
REMARK SMILES IDX 53 35 54 36 68 38 89 39 56 40 40 41 41 42 49 43 42 44 43 45
REMARK SMILES IDX 47 46 50 47 44 48 45 49 48 50 46 51 72 52 73 53 81 54 74 55
REMARK SMILES IDX 75 56 79 57 82 58 76 59 77 60 80 61 78 62 57 63 58 64 66 65
REMARK SMILES IDX 59 66 60 67 64 68 67 69 61 70 62 71 65 72 63 73 9 74 10 75
REMARK SMILES IDX 11 76 12 77 13 78 14 79 15 80 16 81 20 82 17 83 19 84 18 85
REMARK SMILES IDX 21 86 22 87 23 88 24 89 30 90 25 91 29 92 26 94 27 95 28 96
REMARK H PARENT 87 26 55 37 30 93
REMARK Flexibility Score: inf
ROOT
ATOM      1  C   UNL A   1      36.359  23.548  26.009  1.00  0.00     0.188 C 
ENDROOT
BRANCH   1   2
ATOM      2  C   UNL A   1      37.770  23.116  25.599  1.00  0.00     0.188 C 
BRANCH   2   3
ATOM      3  O   UNL A   1      37.864  21.684  25.477  1.00  0.00    -0.376 OA
BRANCH   3   4
ATOM      4  C   UNL A   1      39.177  21.182  25.739  1.00  0.00     0.202 C 
BRANCH   4   5
ATOM      5  C   UNL A   1      39.275  19.664  25.935  1.00  0.00     0.261 C 
BRANCH   5   6
ATOM      6  O   UNL A   1      40.503  19.104  25.450  1.00  0.00    -0.460 OA
BRANCH   6   7
ATOM      7  C   UNL A   1      41.764  19.236  25.921  1.00  0.00     0.338 C 
ATOM      8  O   UNL A   1      42.463  18.222  25.948  1.00  0.00    -0.246 OA
BRANCH   7   9
ATOM      9  C   UNL A   1      42.392  20.515  26.405  1.00  0.00     0.060 A 
ATOM     10  C   UNL A   1      42.457  20.971  27.722  1.00  0.00     0.016 A 
ATOM     11  C   UNL A   1      42.957  21.343  25.409  1.00  0.00     0.016 A 
ATOM     12  C   UNL A   1      42.960  22.238  28.026  1.00  0.00     0.010 A 
ATOM     13  C   UNL A   1      43.494  22.601  25.708  1.00  0.00     0.010 A 
ATOM     14  C   UNL A   1      43.459  23.068  27.020  1.00  0.00    -0.014 A 
BRANCH  14  15
ATOM     15  C   UNL A   1      43.760  24.476  27.352  1.00  0.00     0.031 A 
ATOM     16  C   UNL A   1      45.130  24.986  27.038  1.00  0.00     0.074 A 
ATOM     17  C   UNL A   1      42.807  25.295  27.825  1.00  0.00     0.049 A 
ATOM     18  N   UNL A   1      45.615  26.192  27.159  1.00  0.00    -0.248 NA
ATOM     19  C   UNL A   1      46.084  23.997  26.508  1.00  0.00     0.031 C 
ATOM     20  C   UNL A   1      41.441  24.889  28.126  1.00  0.00     0.029 A 
ATOM     21  N   UNL A   1      42.825  26.637  28.101  1.00  0.00    -0.354 N 
ATOM     22  C   UNL A   1      46.935  26.103  26.747  1.00  0.00     0.074 A 
ATOM     23  C   UNL A   1      47.169  24.735  26.340  1.00  0.00     0.031 C 
ATOM     24  C   UNL A   1      40.724  25.970  28.470  1.00  0.00     0.029 A 
ATOM     25  C   UNL A   1      41.600  27.137  28.475  1.00  0.00     0.049 A 
ATOM     26  H   UNL A   1      43.637  27.191  28.036  1.00  0.00     0.167 HD
ATOM     27  C   UNL A   1      47.879  27.071  26.752  1.00  0.00     0.037 A 
ATOM     28  C   UNL A   1      41.243  28.398  28.792  1.00  0.00     0.037 A 
ATOM     29  C   UNL A   1      47.644  28.405  27.227  1.00  0.00     0.049 A 
ATOM     30  C   UNL A   1      42.314  29.459  28.797  1.00  0.00     0.074 A 
ATOM     31  C   UNL A   1      48.545  29.439  27.395  1.00  0.00     0.029 A 
ATOM     32  N   UNL A   1      46.402  28.882  27.628  1.00  0.00    -0.354 N 
ATOM     33  N   UNL A   1      43.575  29.360  28.447  1.00  0.00    -0.248 NA
ATOM     34  C   UNL A   1      41.927  30.792  29.276  1.00  0.00     0.031 C 
ATOM     35  C   UNL A   1      47.855  30.530  27.936  1.00  0.00     0.029 A 
ATOM     36  C   UNL A   1      46.515  30.191  28.060  1.00  0.00     0.049 A 
ATOM     37  H   UNL A   1      45.565  28.364  27.608  1.00  0.00     0.167 HD
ATOM     38  C   UNL A   1      44.136  30.606  28.677  1.00  0.00     0.074 A 
ATOM     39  C   UNL A   1      43.067  31.461  29.158  1.00  0.00     0.031 C 
ATOM     40  C   UNL A   1      45.424  31.006  28.530  1.00  0.00     0.037 A 
BRANCH  27  41
ATOM     41  C   UNL A   1      49.257  26.655  26.343  1.00  0.00     0.064 A 
ATOM     42  C   UNL A   1      50.189  26.166  27.269  1.00  0.00     0.173 A 
ATOM     43  C   UNL A   1      49.678  26.839  25.017  1.00  0.00     0.173 A 
ATOM     44  F   UNL A   1      49.843  26.011  28.557  1.00  0.00    -0.203 F 
ATOM     45  C   UNL A   1      51.506  25.912  26.891  1.00  0.00     0.198 A 
ATOM     46  C   UNL A   1      50.989  26.563  24.639  1.00  0.00     0.198 A 
ATOM     47  F   UNL A   1      48.828  27.320  24.099  1.00  0.00    -0.203 F 
ATOM     48  F   UNL A   1      52.400  25.514  27.807  1.00  0.00    -0.200 F 
ATOM     49  C   UNL A   1      51.904  26.112  25.577  1.00  0.00     0.200 A 
ATOM     50  F   UNL A   1      51.374  26.765  23.370  1.00  0.00    -0.200 F 
ATOM     51  F   UNL A   1      53.177  25.892  25.220  1.00  0.00    -0.200 F 
ENDBRANCH  27  41
BRANCH  28  52
ATOM     52  C   UNL A   1      39.829  28.719  29.128  1.00  0.00     0.064 A 
ATOM     53  C   UNL A   1      38.950  29.211  28.153  1.00  0.00     0.173 A 
ATOM     54  C   UNL A   1      39.317  28.525  30.421  1.00  0.00     0.173 A 
ATOM     55  F   UNL A   1      39.393  29.435  26.906  1.00  0.00    -0.203 F 
ATOM     56  C   UNL A   1      37.619  29.498  28.455  1.00  0.00     0.198 A 
ATOM     57  C   UNL A   1      37.978  28.781  30.714  1.00  0.00     0.198 A 
ATOM     58  F   UNL A   1      40.111  28.061  31.396  1.00  0.00    -0.203 F 
ATOM     59  F   UNL A   1      36.812  29.999  27.510  1.00  0.00    -0.200 F 
ATOM     60  C   UNL A   1      37.132  29.272  29.733  1.00  0.00     0.200 A 
ATOM     61  F   UNL A   1      37.506  28.535  31.943  1.00  0.00    -0.200 F 
ATOM     62  F   UNL A   1      35.849  29.529  30.023  1.00  0.00    -0.200 F 
ENDBRANCH  28  52
BRANCH  40  63
ATOM     63  C   UNL A   1      45.747  32.420  28.902  1.00  0.00     0.064 A 
ATOM     64  C   UNL A   1      46.153  32.753  30.202  1.00  0.00     0.173 A 
ATOM     65  C   UNL A   1      45.737  33.431  27.930  1.00  0.00     0.173 A 
ATOM     66  F   UNL A   1      46.167  31.820  31.165  1.00  0.00    -0.203 F 
ATOM     67  C   UNL A   1      46.533  34.053  30.518  1.00  0.00     0.198 A 
ATOM     68  C   UNL A   1      46.137  34.725  28.245  1.00  0.00     0.198 A 
ATOM     69  F   UNL A   1      45.362  33.153  26.672  1.00  0.00    -0.203 F 
ATOM     70  F   UNL A   1      46.899  34.358  31.770  1.00  0.00    -0.200 F 
ATOM     71  C   UNL A   1      46.533  35.035  29.537  1.00  0.00     0.200 A 
ATOM     72  F   UNL A   1      46.148  35.670  27.295  1.00  0.00    -0.200 F 
ATOM     73  F   UNL A   1      46.915  36.284  29.839  1.00  0.00    -0.200 F 
ENDBRANCH  40  63
ENDBRANCH  14  15
ENDBRANCH   7   9
ENDBRANCH   6   7
ENDBRANCH   5   6
ENDBRANCH   4   5
ENDBRANCH   3   4
ENDBRANCH   2   3
ENDBRANCH   1   2
BRANCH   1  74
ATOM     74  O   UNL A   1      35.305  22.706  25.534  1.00  0.00    -0.376 OA
BRANCH  74  75
ATOM     75  C   UNL A   1      34.091  22.695  26.278  1.00  0.00     0.202 C 
BRANCH  75  76
ATOM     76  C   UNL A   1      32.824  22.975  25.472  1.00  0.00     0.261 C 
BRANCH  76  77
ATOM     77  O   UNL A   1      32.718  24.355  25.099  1.00  0.00    -0.462 OA
BRANCH  77  78
ATOM     78  C   UNL A   1      32.281  25.207  26.068  1.00  0.00     0.328 C 
ATOM     79  O   UNL A   1      31.381  24.958  26.862  1.00  0.00    -0.250 OA
BRANCH  78  80
ATOM     80  C   UNL A   1      32.970  26.579  25.980  1.00  0.00     0.195 C 
ATOM     81  C   UNL A   1      33.894  26.813  24.785  1.00  0.00     0.037 C 
ATOM     82  N   UNL A   1      31.930  27.611  26.030  1.00  0.00    -0.322 N 
ATOM     83  C   UNL A   1      33.151  27.101  23.476  1.00  0.00     0.005 C 
ATOM     84  C   UNL A   1      31.116  27.746  24.819  1.00  0.00     0.121 C 
ATOM     85  C   UNL A   1      32.017  28.104  23.646  1.00  0.00     0.022 C 
BRANCH  82  86
ATOM     86  C   UNL A   1      31.771  28.384  27.179  1.00  0.00     0.291 C 
ATOM     87  O   UNL A   1      31.260  27.925  28.200  1.00  0.00    -0.265 OA
BRANCH  86  88
ATOM     88  C   UNL A   1      32.296  29.723  27.128  1.00  0.00     0.214 A 
ATOM     89  N   UNL A   1      33.435  30.113  27.663  1.00  0.00    -0.207 NA
ATOM     90  N   UNL A   1      31.694  30.795  26.546  1.00  0.00    -0.255 N 
ATOM     91  C   UNL A   1      33.424  31.466  27.481  1.00  0.00     0.154 A 
ATOM     92  N   UNL A   1      32.340  31.938  26.853  1.00  0.00    -0.158 NA
ATOM     93  H   UNL A   1      30.894  30.744  25.976  1.00  0.00     0.192 HD
BRANCH  91  94
ATOM     94  C   UNL A   1      34.545  32.346  28.001  1.00  0.00     0.060 C 
ATOM     95  C   UNL A   1      34.169  33.662  28.664  1.00  0.00     0.012 C 
ATOM     96  C   UNL A   1      34.665  32.533  29.501  1.00  0.00     0.012 C 
ENDBRANCH  91  94
ENDBRANCH  86  88
ENDBRANCH  82  86
ENDBRANCH  78  80
ENDBRANCH  77  78
ENDBRANCH  76  77
ENDBRANCH  75  76
ENDBRANCH  74  75
ENDBRANCH   1  74
TORSDOF 20
ENDMDL
MODEL 3
REMARK VINA RESULT:     -10.9      2.309      8.268
REMARK SMILES O=C(OCCOCCOCCOC(=O)[C@H]1CCCCN1C(=O)c1nc(C2CC2)n[nH]1)c1ccc(-c2c3nc(c(-c4c(F)c(F)c(F)c(F)c4F)c4ccc([nH]4)c(-c4c(F)c(F)c(F)c(F)c4F)c4nc(c(-c5c(F)c(F)c(F)c(F)c5F)c5ccc2[nH]5)C=C4)C=C3)cc1
REMARK SMILES IDX 8 1 7 2 6 3 5 4 4 5 3 6 2 7 1 8 31 9 32 10 93 11 33 12 92 13
REMARK SMILES IDX 34 14 35 15 36 16 86 17 37 18 91 19 85 20 87 21 38 22 90 23
REMARK SMILES IDX 84 24 83 25 39 27 71 28 51 29 70 30 52 31 55 32 69 33 88 34
REMARK SMILES IDX 53 35 54 36 68 38 89 39 56 40 40 41 41 42 49 43 42 44 43 45
REMARK SMILES IDX 47 46 50 47 44 48 45 49 48 50 46 51 72 52 73 53 81 54 74 55
REMARK SMILES IDX 75 56 79 57 82 58 76 59 77 60 80 61 78 62 57 63 58 64 66 65
REMARK SMILES IDX 59 66 60 67 64 68 67 69 61 70 62 71 65 72 63 73 9 74 10 75
REMARK SMILES IDX 11 76 12 77 13 78 14 79 15 80 16 81 20 82 17 83 19 84 18 85
REMARK SMILES IDX 21 86 22 87 23 88 24 89 30 90 25 91 29 92 26 94 27 95 28 96
REMARK H PARENT 87 26 55 37 30 93
REMARK Flexibility Score: inf
ROOT
ATOM      1  C   UNL A   1      39.202  21.940  25.798  1.00  0.00     0.188 C 
ENDROOT
BRANCH   1   2
ATOM      2  C   UNL A   1      40.054  22.133  27.057  1.00  0.00     0.188 C 
BRANCH   2   3
ATOM      3  O   UNL A   1      41.418  21.728  26.833  1.00  0.00    -0.376 OA
BRANCH   3   4
ATOM      4  C   UNL A   1      41.679  20.383  27.242  1.00  0.00     0.202 C 
BRANCH   4   5
ATOM      5  C   UNL A   1      41.776  19.356  26.108  1.00  0.00     0.261 C 
BRANCH   5   6
ATOM      6  O   UNL A   1      43.121  19.095  25.686  1.00  0.00    -0.460 OA
BRANCH   6   7
ATOM      7  C   UNL A   1      43.915  19.787  24.837  1.00  0.00     0.338 C 
ATOM      8  O   UNL A   1      44.153  19.272  23.744  1.00  0.00    -0.246 OA
BRANCH   7   9
ATOM      9  C   UNL A   1      44.524  21.137  25.107  1.00  0.00     0.060 A 
ATOM     10  C   UNL A   1      45.388  21.472  26.150  1.00  0.00     0.016 A 
ATOM     11  C   UNL A   1      44.162  22.170  24.214  1.00  0.00     0.016 A 
ATOM     12  C   UNL A   1      45.787  22.794  26.362  1.00  0.00     0.010 A 
ATOM     13  C   UNL A   1      44.585  23.491  24.398  1.00  0.00     0.010 A 
ATOM     14  C   UNL A   1      45.370  23.812  25.504  1.00  0.00    -0.014 A 
BRANCH  14  15
ATOM     15  C   UNL A   1      45.621  25.214  25.897  1.00  0.00     0.031 A 
ATOM     16  C   UNL A   1      44.516  25.952  26.584  1.00  0.00     0.074 A 
ATOM     17  C   UNL A   1      46.831  25.773  25.735  1.00  0.00     0.049 A 
ATOM     18  N   UNL A   1      44.512  27.153  27.093  1.00  0.00    -0.248 NA
ATOM     19  C   UNL A   1      43.240  25.230  26.718  1.00  0.00     0.031 C 
ATOM     20  C   UNL A   1      47.969  25.115  25.110  1.00  0.00     0.029 A 
ATOM     21  N   UNL A   1      47.319  26.997  26.112  1.00  0.00    -0.354 N 
ATOM     22  C   UNL A   1      43.229  27.342  27.584  1.00  0.00     0.074 A 
ATOM     23  C   UNL A   1      42.491  26.122  27.344  1.00  0.00     0.031 C 
ATOM     24  C   UNL A   1      49.049  25.906  25.211  1.00  0.00     0.029 A 
ATOM     25  C   UNL A   1      48.660  27.156  25.856  1.00  0.00     0.049 A 
ATOM     26  H   UNL A   1      46.762  27.695  26.528  1.00  0.00     0.167 HD
ATOM     27  C   UNL A   1      42.705  28.455  28.145  1.00  0.00     0.037 A 
ATOM     28  C   UNL A   1      49.469  28.204  26.111  1.00  0.00     0.037 A 
ATOM     29  C   UNL A   1      43.436  29.679  28.311  1.00  0.00     0.049 A 
ATOM     30  C   UNL A   1      48.861  29.436  26.730  1.00  0.00     0.074 A 
ATOM     31  C   UNL A   1      42.984  30.908  28.754  1.00  0.00     0.029 A 
ATOM     32  N   UNL A   1      44.786  29.827  28.018  1.00  0.00    -0.354 N 
ATOM     33  N   UNL A   1      47.633  29.625  27.155  1.00  0.00    -0.248 NA
ATOM     34  C   UNL A   1      49.732  30.609  26.872  1.00  0.00     0.031 C 
ATOM     35  C   UNL A   1      44.053  31.810  28.691  1.00  0.00     0.029 A 
ATOM     36  C   UNL A   1      45.182  31.130  28.255  1.00  0.00     0.049 A 
ATOM     37  H   UNL A   1      45.374  29.109  27.690  1.00  0.00     0.167 HD
ATOM     38  C   UNL A   1      47.578  30.938  27.597  1.00  0.00     0.074 A 
ATOM     39  C   UNL A   1      48.910  31.489  27.430  1.00  0.00     0.031 C 
ATOM     40  C   UNL A   1      46.519  31.637  28.075  1.00  0.00     0.037 A 
BRANCH  27  41
ATOM     41  C   UNL A   1      41.250  28.400  28.491  1.00  0.00     0.064 A 
ATOM     42  C   UNL A   1      40.262  28.863  27.611  1.00  0.00     0.173 A 
ATOM     43  C   UNL A   1      40.849  27.963  29.763  1.00  0.00     0.173 A 
ATOM     44  F   UNL A   1      40.601  29.329  26.399  1.00  0.00    -0.203 F 
ATOM     45  C   UNL A   1      38.927  28.927  28.006  1.00  0.00     0.198 A 
ATOM     46  C   UNL A   1      39.512  28.007  30.146  1.00  0.00     0.198 A 
ATOM     47  F   UNL A   1      41.760  27.526  30.645  1.00  0.00    -0.203 F 
ATOM     48  F   UNL A   1      38.008  29.441  27.177  1.00  0.00    -0.200 F 
ATOM     49  C   UNL A   1      38.554  28.500  29.273  1.00  0.00     0.200 A 
ATOM     50  F   UNL A   1      39.155  27.601  31.373  1.00  0.00    -0.200 F 
ATOM     51  F   UNL A   1      37.274  28.586  29.661  1.00  0.00    -0.200 F 
ENDBRANCH  27  41
BRANCH  28  52
ATOM     52  C   UNL A   1      50.919  28.135  25.781  1.00  0.00     0.064 A 
ATOM     53  C   UNL A   1      51.368  28.323  24.465  1.00  0.00     0.173 A 
ATOM     54  C   UNL A   1      51.889  27.901  26.767  1.00  0.00     0.173 A 
ATOM     55  F   UNL A   1      50.481  28.528  23.480  1.00  0.00    -0.203 F 
ATOM     56  C   UNL A   1      52.725  28.277  24.150  1.00  0.00     0.198 A 
ATOM     57  C   UNL A   1      53.248  27.889  26.457  1.00  0.00     0.198 A 
ATOM     58  F   UNL A   1      51.519  27.711  28.042  1.00  0.00    -0.203 F 
ATOM     59  F   UNL A   1      53.122  28.426  22.878  1.00  0.00    -0.200 F 
ATOM     60  C   UNL A   1      53.665  28.071  25.148  1.00  0.00     0.200 A 
ATOM     61  F   UNL A   1      54.153  27.717  27.429  1.00  0.00    -0.200 F 
ATOM     62  F   UNL A   1      54.972  28.045  24.852  1.00  0.00    -0.200 F 
ENDBRANCH  28  52
BRANCH  40  63
ATOM     63  C   UNL A   1      46.754  33.070  28.440  1.00  0.00     0.064 A 
ATOM     64  C   UNL A   1      47.191  33.429  29.723  1.00  0.00     0.173 A 
ATOM     65  C   UNL A   1      46.626  34.079  27.475  1.00  0.00     0.173 A 
ATOM     66  F   UNL A   1      47.316  32.498  30.679  1.00  0.00    -0.203 F 
ATOM     67  C   UNL A   1      47.487  34.753  30.029  1.00  0.00     0.198 A 
ATOM     68  C   UNL A   1      46.943  35.399  27.779  1.00  0.00     0.198 A 
ATOM     69  F   UNL A   1      46.218  33.778  26.233  1.00  0.00    -0.203 F 
ATOM     70  F   UNL A   1      47.885  35.081  31.265  1.00  0.00    -0.200 F 
ATOM     71  C   UNL A   1      47.372  35.735  29.055  1.00  0.00     0.200 A 
ATOM     72  F   UNL A   1      46.842  36.344  26.835  1.00  0.00    -0.200 F 
ATOM     73  F   UNL A   1      47.674  37.008  29.346  1.00  0.00    -0.200 F 
ENDBRANCH  40  63
ENDBRANCH  14  15
ENDBRANCH   7   9
ENDBRANCH   6   7
ENDBRANCH   5   6
ENDBRANCH   4   5
ENDBRANCH   3   4
ENDBRANCH   2   3
ENDBRANCH   1   2
BRANCH   1  74
ATOM     74  O   UNL A   1      37.812  22.239  25.955  1.00  0.00    -0.376 OA
BRANCH  74  75
ATOM     75  C   UNL A   1      37.037  22.385  24.769  1.00  0.00     0.202 C 
BRANCH  75  76
ATOM     76  C   UNL A   1      36.275  23.703  24.641  1.00  0.00     0.261 C 
BRANCH  76  77
ATOM     77  O   UNL A   1      34.899  23.496  24.299  1.00  0.00    -0.462 OA
BRANCH  77  78
ATOM     78  C   UNL A   1      34.094  24.595  24.349  1.00  0.00     0.328 C 
ATOM     79  O   UNL A   1      34.027  25.450  23.474  1.00  0.00    -0.250 OA
BRANCH  78  80
ATOM     80  C   UNL A   1      33.356  24.706  25.694  1.00  0.00     0.195 C 
ATOM     81  C   UNL A   1      32.907  26.104  26.122  1.00  0.00     0.037 C 
ATOM     82  N   UNL A   1      32.211  23.792  25.657  1.00  0.00    -0.322 N 
ATOM     83  C   UNL A   1      31.656  26.602  25.391  1.00  0.00     0.005 C 
ATOM     84  C   UNL A   1      31.094  24.214  24.807  1.00  0.00     0.121 C 
ATOM     85  C   UNL A   1      30.559  25.549  25.307  1.00  0.00     0.022 C 
BRANCH  82  86
ATOM     86  C   UNL A   1      32.237  22.614  26.401  1.00  0.00     0.291 C 
ATOM     87  O   UNL A   1      31.842  22.577  27.566  1.00  0.00    -0.265 OA
BRANCH  86  88
ATOM     88  C   UNL A   1      32.686  21.432  25.714  1.00  0.00     0.214 A 
ATOM     89  N   UNL A   1      31.906  20.575  25.086  1.00  0.00    -0.207 NA
ATOM     90  N   UNL A   1      33.973  21.001  25.623  1.00  0.00    -0.255 N 
ATOM     91  C   UNL A   1      32.760  19.571  24.730  1.00  0.00     0.154 A 
ATOM     92  N   UNL A   1      34.033  19.762  25.097  1.00  0.00    -0.158 NA
ATOM     93  H   UNL A   1      34.758  21.525  25.904  1.00  0.00     0.192 HD
BRANCH  91  94
ATOM     94  C   UNL A   1      32.266  18.327  24.016  1.00  0.00     0.060 C 
ATOM     95  C   UNL A   1      32.299  18.318  22.496  1.00  0.00     0.012 C 
ATOM     96  C   UNL A   1      33.279  17.492  23.257  1.00  0.00     0.012 C 
ENDBRANCH  91  94
ENDBRANCH  86  88
ENDBRANCH  82  86
ENDBRANCH  78  80
ENDBRANCH  77  78
ENDBRANCH  76  77
ENDBRANCH  75  76
ENDBRANCH  74  75
ENDBRANCH   1  74
TORSDOF 20
ENDMDL
