MODEL 1
REMARK VINA RESULT:     -10.4      0.000      0.000
REMARK SMILES CC[C@@H](C)[C@@H](NC(N)=O)C(=O)N1CCC[C@H](C(=O)OCCOCCOCCOC(=O)c2ccc(-c3c4nc(c(-c5c(F)c(F)c(F)c(F)c5F)c5ccc([nH]5)c(-c5c(F)c(F)c(F)c(F)c5F)c5nc(c(-c6c(F)c(F)c(F)c(F)c6F)c6ccc3[nH]6)C=C5)C=C4)cc2)C1
REMARK SMILES IDX 23 1 22 2 21 3 20 4 19 5 17 6 18 7 16 8 12 9 13 10 94 11
REMARK SMILES IDX 14 12 15 13 10 14 11 15 5 16 3 17 4 18 2 19 1 20 6 21 7 22
REMARK SMILES IDX 8 24 9 25 24 28 25 29 26 30 27 31 28 32 29 33 30 34 31 35
REMARK SMILES IDX 32 36 93 37 33 38 92 39 34 40 35 41 36 42 86 43 37 44 91 45
REMARK SMILES IDX 85 46 87 47 38 48 90 49 84 50 83 51 39 53 71 54 51 55 70 56
REMARK SMILES IDX 52 57 55 58 69 59 88 60 53 61 54 62 68 64 89 65 56 66 40 67
REMARK SMILES IDX 41 68 49 69 42 70 43 71 47 72 50 73 44 74 45 75 48 76 46 77
REMARK SMILES IDX 72 78 73 79 81 80 74 81 75 82 79 83 82 84 76 85 77 86 80 87
REMARK SMILES IDX 78 88 57 89 58 90 66 91 59 92 60 93 64 94 67 95 61 96 62 97
REMARK SMILES IDX 65 98 63 99
REMARK H PARENT 6 23 8 26 8 27 87 52 55 63
REMARK Flexibility Score: inf
ROOT
ATOM      1  C   UNL A   1      39.752  21.632  26.111  1.00  0.00     0.188 C 
ENDROOT
BRANCH   1   2
ATOM      2  O   UNL A   1      38.346  21.811  26.117  1.00  0.00    -0.376 OA
BRANCH   2   3
ATOM      3  C   UNL A   1      37.786  22.786  25.239  1.00  0.00     0.202 C 
BRANCH   3   4
ATOM      4  C   UNL A   1      36.819  22.330  24.133  1.00  0.00     0.261 C 
BRANCH   4   5
ATOM      5  O   UNL A   1      35.769  23.264  23.767  1.00  0.00    -0.463 OA
BRANCH   5   6
ATOM      6  C   UNL A   1      34.566  23.163  24.386  1.00  0.00     0.310 C 
ATOM      7  O   UNL A   1      34.331  23.618  25.503  1.00  0.00    -0.252 OA
BRANCH   6   8
ATOM      8  C   UNL A   1      33.487  22.388  23.613  1.00  0.00     0.119 C 
ATOM      9  N   UNL A   1      32.473  24.368  22.666  1.00  0.00    -0.340 N 
ATOM     10  C   UNL A   1      31.173  24.168  23.290  1.00  0.00     0.119 C 
ATOM     11  C   UNL A   1      33.191  23.150  22.322  1.00  0.00     0.134 C 
ATOM     12  C   UNL A   1      31.249  23.258  24.512  1.00  0.00     0.022 C 
ATOM     13  C   UNL A   1      32.132  22.038  24.256  1.00  0.00     0.019 C 
BRANCH   9  14
ATOM     14  C   UNL A   1      33.066  25.628  22.723  1.00  0.00     0.245 C 
ATOM     15  O   UNL A   1      34.027  25.913  22.001  1.00  0.00    -0.272 OA
BRANCH  14  16
ATOM     16  C   UNL A   1      32.448  26.697  23.688  1.00  0.00     0.176 C 
BRANCH  16  17
ATOM     17  C   UNL A   1      33.218  26.854  25.036  1.00  0.00     0.018 C 
ATOM     18  C   UNL A   1      32.312  26.610  26.248  1.00  0.00     0.010 C 
BRANCH  17  19
ATOM     19  C   UNL A   1      33.916  28.226  25.195  1.00  0.00     0.002 C 
ATOM     20  C   UNL A   1      33.652  28.848  26.565  1.00  0.00     0.004 C 
ENDBRANCH  17  19
ENDBRANCH  16  17
BRANCH  16  21
ATOM     21  N   UNL A   1      32.351  27.963  22.939  1.00  0.00    -0.326 N 
ATOM     22  C   UNL A   1      31.141  28.559  22.721  1.00  0.00     0.312 C 
ATOM     23  H   UNL A   1      33.169  28.385  22.591  1.00  0.00     0.166 HD
ATOM     24  N   UNL A   1      31.236  29.701  22.003  1.00  0.00    -0.352 N 
ATOM     25  O   UNL A   1      30.052  28.121  23.057  1.00  0.00    -0.249 OA
ATOM     26  H   UNL A   1      32.120  30.044  21.738  1.00  0.00     0.161 HD
ATOM     27  H   UNL A   1      30.420  30.189  21.744  1.00  0.00     0.161 HD
ENDBRANCH  16  21
ENDBRANCH  14  16
ENDBRANCH   9  14
ENDBRANCH   6   8
ENDBRANCH   5   6
ENDBRANCH   4   5
ENDBRANCH   3   4
ENDBRANCH   2   3
ENDBRANCH   1   2
BRANCH   1  28
ATOM     28  C   UNL A   1      40.293  20.203  26.131  1.00  0.00     0.188 C 
BRANCH  28  29
ATOM     29  O   UNL A   1      41.679  20.063  25.964  1.00  0.00    -0.376 OA
BRANCH  29  30
ATOM     30  C   UNL A   1      42.344  18.891  26.394  1.00  0.00     0.202 C 
BRANCH  30  31
ATOM     31  C   UNL A   1      43.549  18.296  25.641  1.00  0.00     0.261 C 
BRANCH  31  32
ATOM     32  O   UNL A   1      43.865  18.841  24.351  1.00  0.00    -0.460 OA
BRANCH  32  33
ATOM     33  C   UNL A   1      45.082  19.412  24.188  1.00  0.00     0.338 C 
ATOM     34  O   UNL A   1      46.022  18.972  23.546  1.00  0.00    -0.246 OA
BRANCH  33  35
ATOM     35  C   UNL A   1      44.968  20.809  24.681  1.00  0.00     0.060 A 
ATOM     36  C   UNL A   1      44.488  21.801  23.808  1.00  0.00     0.016 A 
ATOM     37  C   UNL A   1      45.242  21.122  26.013  1.00  0.00     0.016 A 
ATOM     38  C   UNL A   1      44.302  23.108  24.259  1.00  0.00     0.010 A 
ATOM     39  C   UNL A   1      45.087  22.439  26.456  1.00  0.00     0.010 A 
ATOM     40  C   UNL A   1      44.645  23.443  25.575  1.00  0.00    -0.014 A 
BRANCH  40  41
ATOM     41  C   UNL A   1      44.773  24.868  25.972  1.00  0.00     0.031 A 
ATOM     42  C   UNL A   1      46.131  25.504  25.860  1.00  0.00     0.074 A 
ATOM     43  C   UNL A   1      43.730  25.585  26.424  1.00  0.00     0.049 A 
ATOM     44  N   UNL A   1      46.533  26.690  26.238  1.00  0.00    -0.248 NA
ATOM     45  C   UNL A   1      47.182  24.678  25.241  1.00  0.00     0.031 C 
ATOM     46  C   UNL A   1      42.355  25.108  26.534  1.00  0.00     0.029 A 
ATOM     47  N   UNL A   1      43.682  26.874  26.897  1.00  0.00    -0.354 N 
ATOM     48  C   UNL A   1      47.885  26.743  25.922  1.00  0.00     0.074 A 
ATOM     49  C   UNL A   1      48.240  25.465  25.347  1.00  0.00     0.031 C 
ATOM     50  C   UNL A   1      41.598  26.085  27.065  1.00  0.00     0.029 A 
ATOM     51  C   UNL A   1      42.444  27.240  27.369  1.00  0.00     0.049 A 
ATOM     52  H   UNL A   1      44.459  27.479  26.898  1.00  0.00     0.167 HD
ATOM     53  C   UNL A   1      48.752  27.769  26.092  1.00  0.00     0.037 A 
ATOM     54  C   UNL A   1      42.053  28.364  28.002  1.00  0.00     0.037 A 
ATOM     55  C   UNL A   1      48.399  29.038  26.668  1.00  0.00     0.049 A 
ATOM     56  C   UNL A   1      43.054  29.465  28.257  1.00  0.00     0.074 A 
ATOM     57  C   UNL A   1      49.200  30.150  26.862  1.00  0.00     0.029 A 
ATOM     58  N   UNL A   1      47.142  29.361  27.159  1.00  0.00    -0.354 N 
ATOM     59  N   UNL A   1      44.324  29.523  27.935  1.00  0.00    -0.248 NA
ATOM     60  C   UNL A   1      42.565  30.657  28.965  1.00  0.00     0.031 C 
ATOM     61  C   UNL A   1      48.447  31.120  27.530  1.00  0.00     0.029 A 
ATOM     62  C   UNL A   1      47.155  30.642  27.686  1.00  0.00     0.049 A 
ATOM     63  H   UNL A   1      46.356  28.768  27.136  1.00  0.00     0.167 HD
ATOM     64  C   UNL A   1      44.776  30.765  28.369  1.00  0.00     0.074 A 
ATOM     65  C   UNL A   1      43.640  31.433  28.969  1.00  0.00     0.031 C 
ATOM     66  C   UNL A   1      46.017  31.303  28.275  1.00  0.00     0.037 A 
BRANCH  53  67
ATOM     67  C   UNL A   1      50.179  27.538  25.689  1.00  0.00     0.064 A 
ATOM     68  C   UNL A   1      51.174  27.213  26.624  1.00  0.00     0.173 A 
ATOM     69  C   UNL A   1      50.556  27.633  24.341  1.00  0.00     0.173 A 
ATOM     70  F   UNL A   1      50.872  27.127  27.929  1.00  0.00    -0.203 F 
ATOM     71  C   UNL A   1      52.496  27.027  26.230  1.00  0.00     0.198 A 
ATOM     72  C   UNL A   1      51.871  27.410  23.944  1.00  0.00     0.198 A 
ATOM     73  F   UNL A   1      49.644  27.939  23.404  1.00  0.00    -0.203 F 
ATOM     74  F   UNL A   1      53.439  26.778  27.148  1.00  0.00    -0.200 F 
ATOM     75  C   UNL A   1      52.842  27.118  24.889  1.00  0.00     0.200 A 
ATOM     76  F   UNL A   1      52.199  27.484  22.647  1.00  0.00    -0.200 F 
ATOM     77  F   UNL A   1      54.113  26.933  24.509  1.00  0.00    -0.200 F 
ENDBRANCH  53  67
BRANCH  54  78
ATOM     78  C   UNL A   1      40.644  28.503  28.464  1.00  0.00     0.064 A 
ATOM     79  C   UNL A   1      39.646  28.989  27.608  1.00  0.00     0.173 A 
ATOM     80  C   UNL A   1      40.273  28.172  29.775  1.00  0.00     0.173 A 
ATOM     81  F   UNL A   1      39.956  29.351  26.355  1.00  0.00    -0.203 F 
ATOM     82  C   UNL A   1      38.334  29.152  28.051  1.00  0.00     0.198 A 
ATOM     83  C   UNL A   1      38.955  28.305  30.207  1.00  0.00     0.198 A 
ATOM     84  F   UNL A   1      41.191  27.711  30.637  1.00  0.00    -0.203 F 
ATOM     85  F   UNL A   1      37.411  29.666  27.226  1.00  0.00    -0.200 F 
ATOM     86  C   UNL A   1      37.988  28.803  29.347  1.00  0.00     0.200 A 
ATOM     87  F   UNL A   1      38.622  27.957  31.458  1.00  0.00    -0.200 F 
ATOM     88  F   UNL A   1      36.725  28.954  29.769  1.00  0.00    -0.200 F 
ENDBRANCH  54  78
BRANCH  66  89
ATOM     89  C   UNL A   1      46.215  32.703  28.789  1.00  0.00     0.064 A 
ATOM     90  C   UNL A   1      46.003  33.829  27.979  1.00  0.00     0.173 A 
ATOM     91  C   UNL A   1      46.569  32.921  30.131  1.00  0.00     0.173 A 
ATOM     92  F   UNL A   1      45.675  33.679  26.687  1.00  0.00    -0.203 F 
ATOM     93  C   UNL A   1      46.162  35.117  28.486  1.00  0.00     0.198 A 
ATOM     94  C   UNL A   1      46.692  34.209  30.643  1.00  0.00     0.198 A 
ATOM     95  F   UNL A   1      46.774  31.881  30.953  1.00  0.00    -0.203 F 
ATOM     96  F   UNL A   1      46.001  36.176  27.680  1.00  0.00    -0.200 F 
ATOM     97  C   UNL A   1      46.497  35.306  29.819  1.00  0.00     0.200 A 
ATOM     98  F   UNL A   1      46.997  34.388  31.935  1.00  0.00    -0.200 F 
ATOM     99  F   UNL A   1      46.637  36.546  30.307  1.00  0.00    -0.200 F 
ENDBRANCH  66  89
ENDBRANCH  40  41
ENDBRANCH  33  35
ENDBRANCH  32  33
ENDBRANCH  31  32
ENDBRANCH  30  31
ENDBRANCH  29  30
ENDBRANCH  28  29
ENDBRANCH   1  28
TORSDOF 22
ENDMDL
MODEL 2
REMARK VINA RESULT:     -10.3      5.328      9.489
REMARK SMILES CC[C@@H](C)[C@@H](NC(N)=O)C(=O)N1CCC[C@H](C(=O)OCCOCCOCCOC(=O)c2ccc(-c3c4nc(c(-c5c(F)c(F)c(F)c(F)c5F)c5ccc([nH]5)c(-c5c(F)c(F)c(F)c(F)c5F)c5nc(c(-c6c(F)c(F)c(F)c(F)c6F)c6ccc3[nH]6)C=C5)C=C4)cc2)C1
REMARK SMILES IDX 23 1 22 2 21 3 20 4 19 5 17 6 18 7 16 8 12 9 13 10 94 11
REMARK SMILES IDX 14 12 15 13 10 14 11 15 5 16 3 17 4 18 2 19 1 20 6 21 7 22
REMARK SMILES IDX 8 24 9 25 24 28 25 29 26 30 27 31 28 32 29 33 30 34 31 35
REMARK SMILES IDX 32 36 93 37 33 38 92 39 34 40 35 41 36 42 86 43 37 44 91 45
REMARK SMILES IDX 85 46 87 47 38 48 90 49 84 50 83 51 39 53 71 54 51 55 70 56
REMARK SMILES IDX 52 57 55 58 69 59 88 60 53 61 54 62 68 64 89 65 56 66 40 67
REMARK SMILES IDX 41 68 49 69 42 70 43 71 47 72 50 73 44 74 45 75 48 76 46 77
REMARK SMILES IDX 72 78 73 79 81 80 74 81 75 82 79 83 82 84 76 85 77 86 80 87
REMARK SMILES IDX 78 88 57 89 58 90 66 91 59 92 60 93 64 94 67 95 61 96 62 97
REMARK SMILES IDX 65 98 63 99
REMARK H PARENT 6 23 8 26 8 27 87 52 55 63
REMARK Flexibility Score: inf
ROOT
ATOM      1  C   UNL A   1      33.328  28.929  22.706  1.00  0.00     0.188 C 
ENDROOT
BRANCH   1   2
ATOM      2  O   UNL A   1      33.991  27.707  22.983  1.00  0.00    -0.376 OA
BRANCH   2   3
ATOM      3  C   UNL A   1      33.356  26.491  22.587  1.00  0.00     0.202 C 
BRANCH   3   4
ATOM      4  C   UNL A   1      32.644  25.638  23.652  1.00  0.00     0.261 C 
BRANCH   4   5
ATOM      5  O   UNL A   1      33.277  24.378  23.998  1.00  0.00    -0.463 OA
BRANCH   5   6
ATOM      6  C   UNL A   1      34.508  24.406  24.567  1.00  0.00     0.310 C 
ATOM      7  O   UNL A   1      34.780  25.046  25.581  1.00  0.00    -0.252 OA
BRANCH   6   8
ATOM      8  C   UNL A   1      35.595  23.603  23.834  1.00  0.00     0.119 C 
ATOM      9  N   UNL A   1      35.124  21.538  25.000  1.00  0.00    -0.340 N 
ATOM     10  C   UNL A   1      36.441  21.422  25.611  1.00  0.00     0.119 C 
ATOM     11  C   UNL A   1      35.101  22.164  23.687  1.00  0.00     0.134 C 
ATOM     12  C   UNL A   1      37.173  22.759  25.671  1.00  0.00     0.022 C 
ATOM     13  C   UNL A   1      37.040  23.536  24.362  1.00  0.00     0.019 C 
BRANCH   9  14
ATOM     14  C   UNL A   1      33.991  21.351  25.791  1.00  0.00     0.245 C 
ATOM     15  O   UNL A   1      34.058  21.414  27.023  1.00  0.00    -0.272 OA
BRANCH  14  16
ATOM     16  C   UNL A   1      32.616  21.115  25.078  1.00  0.00     0.176 C 
BRANCH  16  17
ATOM     17  C   UNL A   1      32.458  19.690  24.462  1.00  0.00     0.018 C 
ATOM     18  C   UNL A   1      33.541  18.726  24.961  1.00  0.00     0.010 C 
BRANCH  17  19
ATOM     19  C   UNL A   1      32.447  19.681  22.915  1.00  0.00     0.002 C 
ATOM     20  C   UNL A   1      32.213  18.281  22.351  1.00  0.00     0.004 C 
ENDBRANCH  17  19
ENDBRANCH  16  17
BRANCH  16  21
ATOM     21  N   UNL A   1      31.555  21.435  26.049  1.00  0.00    -0.326 N 
ATOM     22  C   UNL A   1      30.650  22.429  25.800  1.00  0.00     0.312 C 
ATOM     23  H   UNL A   1      31.495  20.925  26.889  1.00  0.00     0.166 HD
ATOM     24  N   UNL A   1      29.761  22.598  26.804  1.00  0.00    -0.352 N 
ATOM     25  O   UNL A   1      30.639  23.163  24.825  1.00  0.00    -0.249 OA
ATOM     26  H   UNL A   1      29.781  21.999  27.586  1.00  0.00     0.161 HD
ATOM     27  H   UNL A   1      29.094  23.320  26.755  1.00  0.00     0.161 HD
ENDBRANCH  16  21
ENDBRANCH  14  16
ENDBRANCH   9  14
ENDBRANCH   6   8
ENDBRANCH   5   6
ENDBRANCH   4   5
ENDBRANCH   3   4
ENDBRANCH   2   3
ENDBRANCH   1   2
BRANCH   1  28
ATOM     28  C   UNL A   1      31.803  28.951  22.780  1.00  0.00     0.188 C 
BRANCH  28  29
ATOM     29  O   UNL A   1      31.247  29.122  24.056  1.00  0.00    -0.376 OA
BRANCH  29  30
ATOM     30  C   UNL A   1      32.066  29.440  25.165  1.00  0.00     0.202 C 
BRANCH  30  31
ATOM     31  C   UNL A   1      31.782  30.637  26.091  1.00  0.00     0.261 C 
BRANCH  31  32
ATOM     32  O   UNL A   1      32.594  30.780  27.266  1.00  0.00    -0.460 OA
BRANCH  32  33
ATOM     33  C   UNL A   1      33.310  31.921  27.405  1.00  0.00     0.338 C 
ATOM     34  O   UNL A   1      32.901  33.065  27.295  1.00  0.00    -0.246 OA
BRANCH  33  35
ATOM     35  C   UNL A   1      34.613  31.537  28.006  1.00  0.00     0.060 A 
ATOM     36  C   UNL A   1      34.826  30.195  28.368  1.00  0.00     0.016 A 
ATOM     37  C   UNL A   1      35.647  32.467  28.128  1.00  0.00     0.016 A 
ATOM     38  C   UNL A   1      36.063  29.787  28.869  1.00  0.00     0.010 A 
ATOM     39  C   UNL A   1      36.875  32.065  28.661  1.00  0.00     0.010 A 
ATOM     40  C   UNL A   1      37.079  30.731  29.062  1.00  0.00    -0.014 A 
BRANCH  40  41
ATOM     41  C   UNL A   1      38.262  30.393  29.892  1.00  0.00     0.031 A 
ATOM     42  C   UNL A   1      39.252  29.411  29.330  1.00  0.00     0.074 A 
ATOM     43  C   UNL A   1      38.462  30.928  31.109  1.00  0.00     0.049 A 
ATOM     44  N   UNL A   1      40.303  28.871  29.890  1.00  0.00    -0.248 NA
ATOM     45  C   UNL A   1      39.012  28.974  27.945  1.00  0.00     0.031 C 
ATOM     46  C   UNL A   1      37.610  31.926  31.749  1.00  0.00     0.029 A 
ATOM     47  N   UNL A   1      39.448  30.680  32.033  1.00  0.00    -0.354 N 
ATOM     48  C   UNL A   1      40.837  28.017  28.933  1.00  0.00     0.074 A 
ATOM     49  C   UNL A   1      39.981  28.090  27.770  1.00  0.00     0.031 C 
ATOM     50  C   UNL A   1      38.099  32.191  32.974  1.00  0.00     0.029 A 
ATOM     51  C   UNL A   1      39.272  31.351  33.219  1.00  0.00     0.049 A 
ATOM     52  H   UNL A   1      40.210  30.079  31.862  1.00  0.00     0.167 HD
ATOM     53  C   UNL A   1      41.945  27.243  29.015  1.00  0.00     0.037 A 
ATOM     54  C   UNL A   1      39.959  31.268  34.376  1.00  0.00     0.037 A 
ATOM     55  C   UNL A   1      42.793  27.167  30.174  1.00  0.00     0.049 A 
ATOM     56  C   UNL A   1      41.144  30.338  34.475  1.00  0.00     0.074 A 
ATOM     57  C   UNL A   1      43.952  26.431  30.347  1.00  0.00     0.029 A 
ATOM     58  N   UNL A   1      42.566  27.841  31.365  1.00  0.00    -0.354 N 
ATOM     59  N   UNL A   1      41.661  29.551  33.561  1.00  0.00    -0.248 NA
ATOM     60  C   UNL A   1      41.840  30.284  35.769  1.00  0.00     0.031 C 
ATOM     61  C   UNL A   1      44.389  26.607  31.663  1.00  0.00     0.029 A 
ATOM     62  C   UNL A   1      43.545  27.511  32.288  1.00  0.00     0.049 A 
ATOM     63  H   UNL A   1      41.820  28.463  31.530  1.00  0.00     0.167 HD
ATOM     64  C   UNL A   1      42.758  28.937  34.157  1.00  0.00     0.074 A 
ATOM     65  C   UNL A   1      42.838  29.451  35.508  1.00  0.00     0.031 C 
ATOM     66  C   UNL A   1      43.621  28.033  33.630  1.00  0.00     0.037 A 
BRANCH  53  67
ATOM     67  C   UNL A   1      42.273  26.382  27.830  1.00  0.00     0.064 A 
ATOM     68  C   UNL A   1      43.258  26.742  26.897  1.00  0.00     0.173 A 
ATOM     69  C   UNL A   1      41.598  25.167  27.632  1.00  0.00     0.173 A 
ATOM     70  F   UNL A   1      43.921  27.902  27.031  1.00  0.00    -0.203 F 
ATOM     71  C   UNL A   1      43.529  25.939  25.793  1.00  0.00     0.198 A 
ATOM     72  C   UNL A   1      41.898  24.348  26.547  1.00  0.00     0.198 A 
ATOM     73  F   UNL A   1      40.649  24.772  28.494  1.00  0.00    -0.203 F 
ATOM     74  F   UNL A   1      44.429  26.334  24.884  1.00  0.00    -0.200 F 
ATOM     75  C   UNL A   1      42.854  24.739  25.623  1.00  0.00     0.200 A 
ATOM     76  F   UNL A   1      41.255  23.182  26.394  1.00  0.00    -0.200 F 
ATOM     77  F   UNL A   1      43.120  23.963  24.564  1.00  0.00    -0.200 F 
ENDBRANCH  53  67
BRANCH  54  78
ATOM     78  C   UNL A   1      39.534  32.077  35.551  1.00  0.00     0.064 A 
ATOM     79  C   UNL A   1      38.607  31.579  36.476  1.00  0.00     0.173 A 
ATOM     80  C   UNL A   1      40.032  33.372  35.760  1.00  0.00     0.173 A 
ATOM     81  F   UNL A   1      38.077  30.360  36.303  1.00  0.00    -0.203 F 
ATOM     82  C   UNL A   1      38.183  32.350  37.558  1.00  0.00     0.198 A 
ATOM     83  C   UNL A   1      39.632  34.130  36.859  1.00  0.00     0.198 A 
ATOM     84  F   UNL A   1      40.915  33.900  34.900  1.00  0.00    -0.203 F 
ATOM     85  F   UNL A   1      37.258  31.868  38.399  1.00  0.00    -0.200 F 
ATOM     86  C   UNL A   1      38.702  33.621  37.753  1.00  0.00     0.200 A 
ATOM     87  F   UNL A   1      40.143  35.354  37.049  1.00  0.00    -0.200 F 
ATOM     88  F   UNL A   1      38.298  34.359  38.796  1.00  0.00    -0.200 F 
ENDBRANCH  54  78
BRANCH  66  89
ATOM     89  C   UNL A   1      44.763  27.569  34.493  1.00  0.00     0.064 A 
ATOM     90  C   UNL A   1      45.944  28.313  34.627  1.00  0.00     0.173 A 
ATOM     91  C   UNL A   1      44.647  26.386  35.242  1.00  0.00     0.173 A 
ATOM     92  F   UNL A   1      46.112  29.445  33.926  1.00  0.00    -0.203 F 
ATOM     93  C   UNL A   1      46.976  27.878  35.457  1.00  0.00     0.198 A 
ATOM     94  C   UNL A   1      45.665  25.973  36.097  1.00  0.00     0.198 A 
ATOM     95  F   UNL A   1      43.535  25.640  35.160  1.00  0.00    -0.203 F 
ATOM     96  F   UNL A   1      48.115  28.581  35.531  1.00  0.00    -0.200 F 
ATOM     97  C   UNL A   1      46.831  26.715  36.197  1.00  0.00     0.200 A 
ATOM     98  F   UNL A   1      45.515  24.858  36.826  1.00  0.00    -0.200 F 
ATOM     99  F   UNL A   1      47.820  26.304  37.005  1.00  0.00    -0.200 F 
ENDBRANCH  66  89
ENDBRANCH  40  41
ENDBRANCH  33  35
ENDBRANCH  32  33
ENDBRANCH  31  32
ENDBRANCH  30  31
ENDBRANCH  29  30
ENDBRANCH  28  29
ENDBRANCH   1  28
TORSDOF 22
ENDMDL
MODEL 3
REMARK VINA RESULT:     -10.3      5.048      7.261
REMARK SMILES CC[C@@H](C)[C@@H](NC(N)=O)C(=O)N1CCC[C@H](C(=O)OCCOCCOCCOC(=O)c2ccc(-c3c4nc(c(-c5c(F)c(F)c(F)c(F)c5F)c5ccc([nH]5)c(-c5c(F)c(F)c(F)c(F)c5F)c5nc(c(-c6c(F)c(F)c(F)c(F)c6F)c6ccc3[nH]6)C=C5)C=C4)cc2)C1
REMARK SMILES IDX 23 1 22 2 21 3 20 4 19 5 17 6 18 7 16 8 12 9 13 10 94 11
REMARK SMILES IDX 14 12 15 13 10 14 11 15 5 16 3 17 4 18 2 19 1 20 6 21 7 22
REMARK SMILES IDX 8 24 9 25 24 28 25 29 26 30 27 31 28 32 29 33 30 34 31 35
REMARK SMILES IDX 32 36 93 37 33 38 92 39 34 40 35 41 36 42 86 43 37 44 91 45
REMARK SMILES IDX 85 46 87 47 38 48 90 49 84 50 83 51 39 53 71 54 51 55 70 56
REMARK SMILES IDX 52 57 55 58 69 59 88 60 53 61 54 62 68 64 89 65 56 66 40 67
REMARK SMILES IDX 41 68 49 69 42 70 43 71 47 72 50 73 44 74 45 75 48 76 46 77
REMARK SMILES IDX 72 78 73 79 81 80 74 81 75 82 79 83 82 84 76 85 77 86 80 87
REMARK SMILES IDX 78 88 57 89 58 90 66 91 59 92 60 93 64 94 67 95 61 96 62 97
REMARK SMILES IDX 65 98 63 99
REMARK H PARENT 6 23 8 26 8 27 87 52 55 63
REMARK Flexibility Score: inf
ROOT
ATOM      1  C   UNL A   1      39.744  20.529  25.773  1.00  0.00     0.188 C 
ENDROOT
BRANCH   1   2
ATOM      2  O   UNL A   1      39.774  21.946  25.776  1.00  0.00    -0.376 OA
BRANCH   2   3
ATOM      3  C   UNL A   1      38.580  22.646  26.126  1.00  0.00     0.202 C 
BRANCH   3   4
ATOM      4  C   UNL A   1      37.402  22.655  25.136  1.00  0.00     0.261 C 
BRANCH   4   5
ATOM      5  O   UNL A   1      36.086  22.894  25.701  1.00  0.00    -0.463 OA
BRANCH   5   6
ATOM      6  C   UNL A   1      35.174  21.890  25.668  1.00  0.00     0.310 C 
ATOM      7  O   UNL A   1      34.968  21.121  26.604  1.00  0.00    -0.252 OA
BRANCH   6   8
ATOM      8  C   UNL A   1      34.413  21.731  24.342  1.00  0.00     0.119 C 
ATOM      9  N   UNL A   1      32.573  23.151  25.007  1.00  0.00    -0.340 N 
ATOM     10  C   UNL A   1      31.555  22.114  24.905  1.00  0.00     0.119 C 
ATOM     11  C   UNL A   1      33.672  23.038  24.062  1.00  0.00     0.134 C 
ATOM     12  C   UNL A   1      32.147  20.711  24.977  1.00  0.00     0.022 C 
ATOM     13  C   UNL A   1      33.409  20.584  24.124  1.00  0.00     0.019 C 
BRANCH   9  14
ATOM     14  C   UNL A   1      32.606  23.958  26.144  1.00  0.00     0.245 C 
ATOM     15  O   UNL A   1      32.896  23.489  27.249  1.00  0.00    -0.272 OA
BRANCH  14  16
ATOM     16  C   UNL A   1      32.320  25.490  25.978  1.00  0.00     0.176 C 
BRANCH  16  17
ATOM     17  C   UNL A   1      33.584  26.336  25.632  1.00  0.00     0.018 C 
ATOM     18  C   UNL A   1      33.681  27.602  26.492  1.00  0.00     0.010 C 
BRANCH  17  19
ATOM     19  C   UNL A   1      33.675  26.732  24.139  1.00  0.00     0.002 C 
ATOM     20  C   UNL A   1      33.661  28.247  23.945  1.00  0.00     0.004 C 
ENDBRANCH  17  19
ENDBRANCH  16  17
BRANCH  16  21
ATOM     21  N   UNL A   1      31.249  25.632  24.974  1.00  0.00    -0.326 N 
ATOM     22  C   UNL A   1      29.947  25.796  25.354  1.00  0.00     0.312 C 
ATOM     23  H   UNL A   1      31.475  25.609  24.017  1.00  0.00     0.166 HD
ATOM     24  N   UNL A   1      29.098  25.891  24.306  1.00  0.00    -0.352 N 
ATOM     25  O   UNL A   1      29.527  25.796  26.501  1.00  0.00    -0.249 OA
ATOM     26  H   UNL A   1      29.450  25.889  23.386  1.00  0.00     0.161 HD
ATOM     27  H   UNL A   1      28.129  25.961  24.463  1.00  0.00     0.161 HD
ENDBRANCH  16  21
ENDBRANCH  14  16
ENDBRANCH   9  14
ENDBRANCH   6   8
ENDBRANCH   5   6
ENDBRANCH   4   5
ENDBRANCH   3   4
ENDBRANCH   2   3
ENDBRANCH   1   2
BRANCH   1  28
ATOM     28  C   UNL A   1      40.926  19.786  26.393  1.00  0.00     0.188 C 
BRANCH  28  29
ATOM     29  O   UNL A   1      41.937  19.383  25.508  1.00  0.00    -0.376 OA
BRANCH  29  30
ATOM     30  C   UNL A   1      43.287  19.740  25.742  1.00  0.00     0.202 C 
BRANCH  30  31
ATOM     31  C   UNL A   1      43.861  21.115  25.355  1.00  0.00     0.261 C 
BRANCH  31  32
ATOM     32  O   UNL A   1      43.336  22.270  26.026  1.00  0.00    -0.460 OA
BRANCH  32  33
ATOM     33  C   UNL A   1      43.477  23.473  25.420  1.00  0.00     0.338 C 
ATOM     34  O   UNL A   1      43.768  23.679  24.253  1.00  0.00    -0.246 OA
BRANCH  33  35
ATOM     35  C   UNL A   1      42.927  24.489  26.353  1.00  0.00     0.060 A 
ATOM     36  C   UNL A   1      43.417  25.805  26.291  1.00  0.00     0.016 A 
ATOM     37  C   UNL A   1      41.874  24.174  27.214  1.00  0.00     0.016 A 
ATOM     38  C   UNL A   1      42.872  26.801  27.103  1.00  0.00     0.010 A 
ATOM     39  C   UNL A   1      41.351  25.164  28.051  1.00  0.00     0.010 A 
ATOM     40  C   UNL A   1      41.867  26.474  28.020  1.00  0.00    -0.014 A 
BRANCH  40  41
ATOM     41  C   UNL A   1      41.515  27.420  29.109  1.00  0.00     0.031 A 
ATOM     42  C   UNL A   1      42.304  27.340  30.386  1.00  0.00     0.074 A 
ATOM     43  C   UNL A   1      40.525  28.322  28.986  1.00  0.00     0.049 A 
ATOM     44  N   UNL A   1      42.131  27.973  31.517  1.00  0.00    -0.248 NA
ATOM     45  C   UNL A   1      43.443  26.408  30.383  1.00  0.00     0.031 C 
ATOM     46  C   UNL A   1      39.717  28.538  27.789  1.00  0.00     0.029 A 
ATOM     47  N   UNL A   1      40.021  29.214  29.902  1.00  0.00    -0.354 N 
ATOM     48  C   UNL A   1      43.125  27.500  32.365  1.00  0.00     0.074 A 
ATOM     49  C   UNL A   1      43.879  26.511  31.628  1.00  0.00     0.031 C 
ATOM     50  C   UNL A   1      38.801  29.488  28.050  1.00  0.00     0.029 A 
ATOM     51  C   UNL A   1      38.933  29.915  29.444  1.00  0.00     0.049 A 
ATOM     52  H   UNL A   1      40.405  29.339  30.800  1.00  0.00     0.167 HD
ATOM     53  C   UNL A   1      43.388  27.861  33.643  1.00  0.00     0.037 A 
ATOM     54  C   UNL A   1      38.119  30.776  30.088  1.00  0.00     0.037 A 
ATOM     55  C   UNL A   1      42.634  28.842  34.376  1.00  0.00     0.049 A 
ATOM     56  C   UNL A   1      38.380  31.105  31.538  1.00  0.00     0.074 A 
ATOM     57  C   UNL A   1      42.836  29.296  35.668  1.00  0.00     0.029 A 
ATOM     58  N   UNL A   1      41.521  29.512  33.887  1.00  0.00    -0.354 N 
ATOM     59  N   UNL A   1      39.334  30.676  32.329  1.00  0.00    -0.248 NA
ATOM     60  C   UNL A   1      37.446  32.039  32.186  1.00  0.00     0.031 C 
ATOM     61  C   UNL A   1      41.808  30.189  35.984  1.00  0.00     0.029 A 
ATOM     62  C   UNL A   1      41.007  30.349  34.864  1.00  0.00     0.049 A 
ATOM     63  H   UNL A   1      41.152  29.408  32.980  1.00  0.00     0.167 HD
ATOM     64  C   UNL A   1      39.137  31.311  33.551  1.00  0.00     0.074 A 
ATOM     65  C   UNL A   1      37.978  32.162  33.394  1.00  0.00     0.031 C 
ATOM     66  C   UNL A   1      39.855  31.200  34.697  1.00  0.00     0.037 A 
BRANCH  53  67
ATOM     67  C   UNL A   1      44.513  27.155  34.341  1.00  0.00     0.064 A 
ATOM     68  C   UNL A   1      45.819  27.670  34.358  1.00  0.00     0.173 A 
ATOM     69  C   UNL A   1      44.278  25.947  35.016  1.00  0.00     0.173 A 
ATOM     70  F   UNL A   1      46.102  28.813  33.714  1.00  0.00    -0.203 F 
ATOM     71  C   UNL A   1      46.851  26.985  34.992  1.00  0.00     0.198 A 
ATOM     72  C   UNL A   1      45.305  25.284  35.680  1.00  0.00     0.198 A 
ATOM     73  F   UNL A   1      43.048  25.411  35.033  1.00  0.00    -0.203 F 
ATOM     74  F   UNL A   1      48.101  27.465  34.943  1.00  0.00    -0.200 F 
ATOM     75  C   UNL A   1      46.593  25.797  35.660  1.00  0.00     0.200 A 
ATOM     76  F   UNL A   1      45.048  24.144  36.336  1.00  0.00    -0.200 F 
ATOM     77  F   UNL A   1      47.586  25.142  36.275  1.00  0.00    -0.200 F 
ENDBRANCH  53  67
BRANCH  54  78
ATOM     78  C   UNL A   1      36.961  31.379  29.373  1.00  0.00     0.064 A 
ATOM     79  C   UNL A   1      35.835  30.612  29.042  1.00  0.00     0.173 A 
ATOM     80  C   UNL A   1      36.966  32.728  28.989  1.00  0.00     0.173 A 
ATOM     81  F   UNL A   1      35.796  29.310  29.358  1.00  0.00    -0.203 F 
ATOM     82  C   UNL A   1      34.765  31.168  28.342  1.00  0.00     0.198 A 
ATOM     83  C   UNL A   1      35.882  33.291  28.319  1.00  0.00     0.198 A 
ATOM     84  F   UNL A   1      38.022  33.504  29.274  1.00  0.00    -0.203 F 
ATOM     85  F   UNL A   1      33.723  30.400  27.996  1.00  0.00    -0.200 F 
ATOM     86  C   UNL A   1      34.786  32.508  27.988  1.00  0.00     0.200 A 
ATOM     87  F   UNL A   1      35.902  34.589  27.986  1.00  0.00    -0.200 F 
ATOM     88  F   UNL A   1      33.754  33.043  27.321  1.00  0.00    -0.200 F 
ENDBRANCH  54  78
BRANCH  66  89
ATOM     89  C   UNL A   1      39.444  32.052  35.866  1.00  0.00     0.064 A 
ATOM     90  C   UNL A   1      39.995  33.323  36.090  1.00  0.00     0.173 A 
ATOM     91  C   UNL A   1      38.441  31.610  36.745  1.00  0.00     0.173 A 
ATOM     92  F   UNL A   1      40.964  33.789  35.289  1.00  0.00    -0.203 F 
ATOM     93  C   UNL A   1      39.575  34.107  37.163  1.00  0.00     0.198 A 
ATOM     94  C   UNL A   1      37.999  32.411  37.795  1.00  0.00     0.198 A 
ATOM     95  F   UNL A   1      37.873  30.408  36.572  1.00  0.00    -0.203 F 
ATOM     96  F   UNL A   1      40.151  35.297  37.386  1.00  0.00    -0.200 F 
ATOM     97  C   UNL A   1      38.573  33.654  38.008  1.00  0.00     0.200 A 
ATOM     98  F   UNL A   1      37.017  31.979  38.598  1.00  0.00    -0.200 F 
ATOM     99  F   UNL A   1      38.162  34.416  39.033  1.00  0.00    -0.200 F 
ENDBRANCH  66  89
ENDBRANCH  40  41
ENDBRANCH  33  35
ENDBRANCH  32  33
ENDBRANCH  31  32
ENDBRANCH  30  31
ENDBRANCH  29  30
ENDBRANCH  28  29
ENDBRANCH   1  28
TORSDOF 22
ENDMDL
