MODEL 1
REMARK VINA RESULT:     -10.2      0.000      0.000
REMARK SMILES O=C(CCCc1nc(-c2cccc(Cl)c2)no1)OCCOCCOCCOC(=O)c1ccc(-c2c3nc(c(-c4c(F)c(F)c(F)c(F)c4F)c4ccc([nH]4)c(-c4c(F)c(F)c(F)c(F)c4F)c4nc(c(-c5c(F)c(F)c(F)c(F)c5F)c5ccc2[nH]5)C=C4)C=C3)cc1
REMARK SMILES IDX 22 1 21 2 20 3 19 4 18 5 2 6 1 7 3 8 4 9 5 10 6 11 7 12
REMARK SMILES IDX 17 13 8 14 16 15 9 16 10 17 15 18 11 19 13 20 12 21 14 22
REMARK SMILES IDX 23 23 24 24 25 25 26 26 27 27 28 28 29 29 30 30 31 31 92 32
REMARK SMILES IDX 32 33 91 34 33 35 34 36 35 37 85 38 36 39 90 40 84 41 86 42
REMARK SMILES IDX 37 43 89 44 83 45 82 46 38 48 70 49 50 50 69 51 51 52 54 53
REMARK SMILES IDX 68 54 87 55 52 56 53 57 67 59 88 60 55 61 39 62 40 63 48 64
REMARK SMILES IDX 41 65 42 66 46 67 49 68 43 69 44 70 47 71 45 72 71 73 72 74
REMARK SMILES IDX 80 75 73 76 74 77 78 78 81 79 75 80 76 81 79 82 77 83 56 84
REMARK SMILES IDX 57 85 65 86 58 87 59 88 63 89 66 90 60 91 61 92 64 93 62 94
REMARK H PARENT 86 47 54 58
REMARK Flexibility Score: inf
ROOT
ATOM      1  C   UNL A   1      35.356  23.015  23.464  1.00  0.00     0.188 C 
ENDROOT
BRANCH   1   2
ATOM      2  O   UNL A   1      34.708  24.273  23.612  1.00  0.00    -0.376 OA
BRANCH   2   3
ATOM      3  C   UNL A   1      33.573  24.479  22.782  1.00  0.00     0.202 C 
BRANCH   3   4
ATOM      4  C   UNL A   1      33.208  25.954  22.815  1.00  0.00     0.261 C 
BRANCH   4   5
ATOM      5  O   UNL A   1      31.953  26.197  22.144  1.00  0.00    -0.463 OA
BRANCH   5   6
ATOM      6  C   UNL A   1      31.030  27.119  22.486  1.00  0.00     0.305 C 
ATOM      7  O   UNL A   1      30.652  27.938  21.649  1.00  0.00    -0.252 OA
BRANCH   6   8
ATOM      8  C   UNL A   1      30.492  27.182  23.895  1.00  0.00     0.123 C 
BRANCH   8   9
ATOM      9  C   UNL A   1      31.148  28.227  24.794  1.00  0.00     0.022 C 
BRANCH   9  10
ATOM     10  C   UNL A   1      31.502  27.770  26.213  1.00  0.00     0.101 C 
BRANCH  10  11
ATOM     11  C   UNL A   1      31.536  26.295  26.408  1.00  0.00     0.226 A 
ATOM     12  N   UNL A   1      32.529  25.455  26.223  1.00  0.00    -0.191 NA
ATOM     13  O   UNL A   1      30.380  25.687  26.797  1.00  0.00    -0.339 OA
ATOM     14  C   UNL A   1      31.936  24.235  26.473  1.00  0.00     0.202 A 
ATOM     15  N   UNL A   1      30.647  24.320  26.841  1.00  0.00    -0.057 NA
BRANCH  14  16
ATOM     16  C   UNL A   1      32.630  22.971  26.261  1.00  0.00     0.024 A 
ATOM     17  C   UNL A   1      33.776  22.647  27.003  1.00  0.00     0.012 A 
ATOM     18  C   UNL A   1      32.182  22.079  25.277  1.00  0.00     0.032 A 
ATOM     19  C   UNL A   1      34.461  21.450  26.766  1.00  0.00     0.002 A 
ATOM     20  C   UNL A   1      32.879  20.896  25.033  1.00  0.00     0.041 A 
ATOM     21  C   UNL A   1      34.015  20.576  25.774  1.00  0.00     0.020 A 
ATOM     22  Cl  UNL A   1      32.342  19.830  23.792  1.00  0.00    -0.084 Cl
ENDBRANCH  14  16
ENDBRANCH  10  11
ENDBRANCH   9  10
ENDBRANCH   8   9
ENDBRANCH   6   8
ENDBRANCH   5   6
ENDBRANCH   4   5
ENDBRANCH   3   4
ENDBRANCH   2   3
ENDBRANCH   1   2
BRANCH   1  23
ATOM     23  C   UNL A   1      36.725  22.928  24.144  1.00  0.00     0.188 C 
BRANCH  23  24
ATOM     24  O   UNL A   1      37.306  21.632  24.257  1.00  0.00    -0.376 OA
BRANCH  24  25
ATOM     25  C   UNL A   1      38.161  21.360  25.366  1.00  0.00     0.202 C 
BRANCH  25  26
ATOM     26  C   UNL A   1      38.863  20.005  25.342  1.00  0.00     0.261 C 
BRANCH  26  27
ATOM     27  O   UNL A   1      39.722  19.838  26.486  1.00  0.00    -0.460 OA
BRANCH  27  28
ATOM     28  C   UNL A   1      41.017  19.586  26.208  1.00  0.00     0.338 C 
ATOM     29  O   UNL A   1      41.493  18.557  25.751  1.00  0.00    -0.246 OA
BRANCH  28  30
ATOM     30  C   UNL A   1      41.831  20.792  26.430  1.00  0.00     0.060 A 
ATOM     31  C   UNL A   1      42.138  21.134  27.752  1.00  0.00     0.016 A 
ATOM     32  C   UNL A   1      42.163  21.648  25.376  1.00  0.00     0.016 A 
ATOM     33  C   UNL A   1      42.711  22.372  28.030  1.00  0.00     0.010 A 
ATOM     34  C   UNL A   1      42.732  22.893  25.658  1.00  0.00     0.010 A 
ATOM     35  C   UNL A   1      42.961  23.278  26.990  1.00  0.00    -0.014 A 
BRANCH  35  36
ATOM     36  C   UNL A   1      43.301  24.681  27.330  1.00  0.00     0.031 A 
ATOM     37  C   UNL A   1      44.691  25.183  27.051  1.00  0.00     0.074 A 
ATOM     38  C   UNL A   1      42.365  25.512  27.818  1.00  0.00     0.049 A 
ATOM     39  N   UNL A   1      45.190  26.383  27.211  1.00  0.00    -0.248 NA
ATOM     40  C   UNL A   1      45.649  24.202  26.517  1.00  0.00     0.031 C 
ATOM     41  C   UNL A   1      40.983  25.144  28.112  1.00  0.00     0.029 A 
ATOM     42  N   UNL A   1      42.441  26.840  28.148  1.00  0.00    -0.354 N 
ATOM     43  C   UNL A   1      46.508  26.305  26.783  1.00  0.00     0.074 A 
ATOM     44  C   UNL A   1      46.749  24.931  26.397  1.00  0.00     0.031 C 
ATOM     45  C   UNL A   1      40.338  26.224  28.588  1.00  0.00     0.029 A 
ATOM     46  C   UNL A   1      41.266  27.351  28.640  1.00  0.00     0.049 A 
ATOM     47  H   UNL A   1      43.259  27.377  28.041  1.00  0.00     0.167 HD
ATOM     48  C   UNL A   1      47.430  27.293  26.701  1.00  0.00     0.037 A 
ATOM     49  C   UNL A   1      40.980  28.588  29.086  1.00  0.00     0.037 A 
ATOM     50  C   UNL A   1      47.197  28.657  27.098  1.00  0.00     0.049 A 
ATOM     51  C   UNL A   1      42.036  29.660  29.025  1.00  0.00     0.074 A 
ATOM     52  C   UNL A   1      48.070  29.730  27.063  1.00  0.00     0.029 A 
ATOM     53  N   UNL A   1      46.000  29.132  27.609  1.00  0.00    -0.354 N 
ATOM     54  N   UNL A   1      43.272  29.583  28.592  1.00  0.00    -0.248 NA
ATOM     55  C   UNL A   1      41.650  30.997  29.501  1.00  0.00     0.031 C 
ATOM     56  C   UNL A   1      47.410  30.849  27.584  1.00  0.00     0.029 A 
ATOM     57  C   UNL A   1      46.114  30.481  27.906  1.00  0.00     0.049 A 
ATOM     58  H   UNL A   1      45.187  28.592  27.741  1.00  0.00     0.167 HD
ATOM     59  C   UNL A   1      43.804  30.858  28.728  1.00  0.00     0.074 A 
ATOM     60  C   UNL A   1      42.750  31.697  29.260  1.00  0.00     0.031 C 
ATOM     61  C   UNL A   1      45.055  31.297  28.440  1.00  0.00     0.037 A 
BRANCH  48  62
ATOM     62  C   UNL A   1      48.784  26.931  26.165  1.00  0.00     0.064 A 
ATOM     63  C   UNL A   1      49.094  27.083  24.806  1.00  0.00     0.173 A 
ATOM     64  C   UNL A   1      49.790  26.462  27.022  1.00  0.00     0.173 A 
ATOM     65  F   UNL A   1      48.160  27.513  23.945  1.00  0.00    -0.203 F 
ATOM     66  C   UNL A   1      50.359  26.760  24.319  1.00  0.00     0.198 A 
ATOM     67  C   UNL A   1      51.061  26.162  26.536  1.00  0.00     0.198 A 
ATOM     68  F   UNL A   1      49.544  26.301  28.330  1.00  0.00    -0.203 F 
ATOM     69  F   UNL A   1      50.623  26.878  23.011  1.00  0.00    -0.200 F 
ATOM     70  C   UNL A   1      51.343  26.307  25.186  1.00  0.00     0.200 A 
ATOM     71  F   UNL A   1      52.013  25.733  27.375  1.00  0.00    -0.200 F 
ATOM     72  F   UNL A   1      52.561  26.004  24.718  1.00  0.00    -0.200 F 
ENDBRANCH  48  62
BRANCH  49  73
ATOM     73  C   UNL A   1      39.630  28.882  29.633  1.00  0.00     0.064 A 
ATOM     74  C   UNL A   1      38.613  29.400  28.821  1.00  0.00     0.173 A 
ATOM     75  C   UNL A   1      39.338  28.663  30.987  1.00  0.00     0.173 A 
ATOM     76  F   UNL A   1      38.854  29.651  27.525  1.00  0.00    -0.203 F 
ATOM     77  C   UNL A   1      37.360  29.708  29.346  1.00  0.00     0.198 A 
ATOM     78  C   UNL A   1      38.077  28.946  31.506  1.00  0.00     0.198 A 
ATOM     79  F   UNL A   1      40.279  28.169  31.805  1.00  0.00    -0.203 F 
ATOM     80  F   UNL A   1      36.420  30.246  28.559  1.00  0.00    -0.200 F 
ATOM     81  C   UNL A   1      37.092  29.475  30.687  1.00  0.00     0.200 A 
ATOM     82  F   UNL A   1      37.820  28.712  32.799  1.00  0.00    -0.200 F 
ATOM     83  F   UNL A   1      35.886  29.772  31.192  1.00  0.00    -0.200 F 
ENDBRANCH  49  73
BRANCH  61  84
ATOM     84  C   UNL A   1      45.341  32.749  28.686  1.00  0.00     0.064 A 
ATOM     85  C   UNL A   1      45.928  33.188  29.882  1.00  0.00     0.173 A 
ATOM     86  C   UNL A   1      45.040  33.710  27.708  1.00  0.00     0.173 A 
ATOM     87  F   UNL A   1      46.220  32.308  30.852  1.00  0.00    -0.203 F 
ATOM     88  C   UNL A   1      46.174  34.540  30.103  1.00  0.00     0.198 A 
ATOM     89  C   UNL A   1      45.313  35.058  27.924  1.00  0.00     0.198 A 
ATOM     90  F   UNL A   1      44.485  33.340  26.545  1.00  0.00    -0.203 F 
ATOM     91  F   UNL A   1      46.688  34.942  31.274  1.00  0.00    -0.200 F 
ATOM     92  C   UNL A   1      45.871  35.473  29.123  1.00  0.00     0.200 A 
ATOM     93  F   UNL A   1      45.028  35.958  26.972  1.00  0.00    -0.200 F 
ATOM     94  F   UNL A   1      46.107  36.774  29.339  1.00  0.00    -0.200 F 
ENDBRANCH  61  84
ENDBRANCH  35  36
ENDBRANCH  28  30
ENDBRANCH  27  28
ENDBRANCH  26  27
ENDBRANCH  25  26
ENDBRANCH  24  25
ENDBRANCH  23  24
ENDBRANCH   1  23
TORSDOF 21
ENDMDL
MODEL 2
REMARK VINA RESULT:      -9.9      4.742     10.289
REMARK SMILES O=C(CCCc1nc(-c2cccc(Cl)c2)no1)OCCOCCOCCOC(=O)c1ccc(-c2c3nc(c(-c4c(F)c(F)c(F)c(F)c4F)c4ccc([nH]4)c(-c4c(F)c(F)c(F)c(F)c4F)c4nc(c(-c5c(F)c(F)c(F)c(F)c5F)c5ccc2[nH]5)C=C4)C=C3)cc1
REMARK SMILES IDX 22 1 21 2 20 3 19 4 18 5 2 6 1 7 3 8 4 9 5 10 6 11 7 12
REMARK SMILES IDX 17 13 8 14 16 15 9 16 10 17 15 18 11 19 13 20 12 21 14 22
REMARK SMILES IDX 23 23 24 24 25 25 26 26 27 27 28 28 29 29 30 30 31 31 92 32
REMARK SMILES IDX 32 33 91 34 33 35 34 36 35 37 85 38 36 39 90 40 84 41 86 42
REMARK SMILES IDX 37 43 89 44 83 45 82 46 38 48 70 49 50 50 69 51 51 52 54 53
REMARK SMILES IDX 68 54 87 55 52 56 53 57 67 59 88 60 55 61 39 62 40 63 48 64
REMARK SMILES IDX 41 65 42 66 46 67 49 68 43 69 44 70 47 71 45 72 71 73 72 74
REMARK SMILES IDX 80 75 73 76 74 77 78 78 81 79 75 80 76 81 79 82 77 83 56 84
REMARK SMILES IDX 57 85 65 86 58 87 59 88 63 89 66 90 60 91 61 92 64 93 62 94
REMARK H PARENT 86 47 54 58
REMARK Flexibility Score: inf
ROOT
ATOM      1  C   UNL A   1      33.267  28.972  25.125  1.00  0.00     0.188 C 
ENDROOT
BRANCH   1   2
ATOM      2  O   UNL A   1      32.891  27.603  25.022  1.00  0.00    -0.376 OA
BRANCH   2   3
ATOM      3  C   UNL A   1      32.020  27.129  26.040  1.00  0.00     0.202 C 
BRANCH   3   4
ATOM      4  C   UNL A   1      32.478  25.745  26.468  1.00  0.00     0.261 C 
BRANCH   4   5
ATOM      5  O   UNL A   1      31.399  24.998  27.068  1.00  0.00    -0.463 OA
BRANCH   5   6
ATOM      6  C   UNL A   1      30.764  23.939  26.528  1.00  0.00     0.305 C 
ATOM      7  O   UNL A   1      29.988  23.279  27.220  1.00  0.00    -0.252 OA
BRANCH   6   8
ATOM      8  C   UNL A   1      31.029  23.529  25.099  1.00  0.00     0.123 C 
BRANCH   8   9
ATOM      9  C   UNL A   1      30.542  24.515  24.040  1.00  0.00     0.022 C 
BRANCH   9  10
ATOM     10  C   UNL A   1      31.532  24.842  22.918  1.00  0.00     0.101 C 
BRANCH  10  11
ATOM     11  C   UNL A   1      32.862  24.187  23.043  1.00  0.00     0.226 A 
ATOM     12  N   UNL A   1      33.551  23.903  24.126  1.00  0.00    -0.191 NA
ATOM     13  O   UNL A   1      33.507  23.852  21.890  1.00  0.00    -0.339 OA
ATOM     14  C   UNL A   1      34.724  23.397  23.607  1.00  0.00     0.202 A 
ATOM     15  N   UNL A   1      34.742  23.328  22.265  1.00  0.00    -0.057 NA
BRANCH  14  16
ATOM     16  C   UNL A   1      35.868  23.061  24.445  1.00  0.00     0.024 A 
ATOM     17  C   UNL A   1      36.439  24.018  25.298  1.00  0.00     0.012 A 
ATOM     18  C   UNL A   1      36.441  21.783  24.376  1.00  0.00     0.032 A 
ATOM     19  C   UNL A   1      37.562  23.701  26.070  1.00  0.00     0.002 A 
ATOM     20  C   UNL A   1      37.571  21.479  25.133  1.00  0.00     0.041 A 
ATOM     21  C   UNL A   1      38.133  22.431  25.981  1.00  0.00     0.020 A 
ATOM     22  Cl  UNL A   1      38.289  19.920  25.006  1.00  0.00    -0.084 Cl
ENDBRANCH  14  16
ENDBRANCH  10  11
ENDBRANCH   9  10
ENDBRANCH   8   9
ENDBRANCH   6   8
ENDBRANCH   5   6
ENDBRANCH   4   5
ENDBRANCH   3   4
ENDBRANCH   2   3
ENDBRANCH   1   2
BRANCH   1  23
ATOM     23  C   UNL A   1      32.158  29.891  25.645  1.00  0.00     0.188 C 
BRANCH  23  24
ATOM     24  O   UNL A   1      32.564  31.013  26.423  1.00  0.00    -0.376 OA
BRANCH  24  25
ATOM     25  C   UNL A   1      31.560  31.840  27.009  1.00  0.00     0.202 C 
BRANCH  25  26
ATOM     26  C   UNL A   1      31.779  33.343  26.868  1.00  0.00     0.261 C 
BRANCH  26  27
ATOM     27  O   UNL A   1      33.166  33.691  27.044  1.00  0.00    -0.460 OA
BRANCH  27  28
ATOM     28  C   UNL A   1      33.580  33.792  28.322  1.00  0.00     0.338 C 
ATOM     29  O   UNL A   1      33.012  34.357  29.246  1.00  0.00    -0.246 OA
BRANCH  28  30
ATOM     30  C   UNL A   1      34.815  33.016  28.523  1.00  0.00     0.060 A 
ATOM     31  C   UNL A   1      34.690  31.709  29.004  1.00  0.00     0.016 A 
ATOM     32  C   UNL A   1      36.074  33.608  28.382  1.00  0.00     0.016 A 
ATOM     33  C   UNL A   1      35.822  31.014  29.419  1.00  0.00     0.010 A 
ATOM     34  C   UNL A   1      37.209  32.910  28.805  1.00  0.00     0.010 A 
ATOM     35  C   UNL A   1      37.080  31.630  29.371  1.00  0.00    -0.014 A 
BRANCH  35  36
ATOM     36  C   UNL A   1      38.219  30.989  30.072  1.00  0.00     0.031 A 
ATOM     37  C   UNL A   1      38.477  31.336  31.513  1.00  0.00     0.074 A 
ATOM     38  C   UNL A   1      38.969  30.063  29.452  1.00  0.00     0.049 A 
ATOM     39  N   UNL A   1      39.374  30.853  32.336  1.00  0.00    -0.248 NA
ATOM     40  C   UNL A   1      37.605  32.359  32.109  1.00  0.00     0.031 C 
ATOM     41  C   UNL A   1      38.803  29.634  28.066  1.00  0.00     0.029 A 
ATOM     42  N   UNL A   1      40.020  29.315  29.916  1.00  0.00    -0.354 N 
ATOM     43  C   UNL A   1      39.164  31.502  33.546  1.00  0.00     0.074 A 
ATOM     44  C   UNL A   1      38.084  32.443  33.341  1.00  0.00     0.031 C 
ATOM     45  C   UNL A   1      39.728  28.699  27.787  1.00  0.00     0.029 A 
ATOM     46  C   UNL A   1      40.554  28.476  28.971  1.00  0.00     0.049 A 
ATOM     47  H   UNL A   1      40.359  29.374  30.838  1.00  0.00     0.167 HD
ATOM     48  C   UNL A   1      39.801  31.316  34.727  1.00  0.00     0.037 A 
ATOM     49  C   UNL A   1      41.597  27.628  29.056  1.00  0.00     0.037 A 
ATOM     50  C   UNL A   1      40.885  30.391  34.928  1.00  0.00     0.049 A 
ATOM     51  C   UNL A   1      42.317  27.470  30.369  1.00  0.00     0.074 A 
ATOM     52  C   UNL A   1      41.603  30.136  36.084  1.00  0.00     0.029 A 
ATOM     53  N   UNL A   1      41.410  29.570  33.942  1.00  0.00    -0.354 N 
ATOM     54  N   UNL A   1      42.093  28.067  31.515  1.00  0.00    -0.248 NA
ATOM     55  C   UNL A   1      43.427  26.507  30.403  1.00  0.00     0.031 C 
ATOM     56  C   UNL A   1      42.586  29.184  35.788  1.00  0.00     0.029 A 
ATOM     57  C   UNL A   1      42.453  28.817  34.459  1.00  0.00     0.049 A 
ATOM     58  H   UNL A   1      41.091  29.527  33.012  1.00  0.00     0.167 HD
ATOM     59  C   UNL A   1      43.019  27.543  32.407  1.00  0.00     0.074 A 
ATOM     60  C   UNL A   1      43.792  26.561  31.676  1.00  0.00     0.031 C 
ATOM     61  C   UNL A   1      43.214  27.848  33.714  1.00  0.00     0.037 A 
BRANCH  48  62
ATOM     62  C   UNL A   1      39.343  32.139  35.894  1.00  0.00     0.064 A 
ATOM     63  C   UNL A   1      38.367  31.663  36.783  1.00  0.00     0.173 A 
ATOM     64  C   UNL A   1      39.909  33.396  36.149  1.00  0.00     0.173 A 
ATOM     65  F   UNL A   1      37.786  30.473  36.572  1.00  0.00    -0.203 F 
ATOM     66  C   UNL A   1      37.959  32.427  37.874  1.00  0.00     0.198 A 
ATOM     67  C   UNL A   1      39.516  34.147  37.255  1.00  0.00     0.198 A 
ATOM     68  F   UNL A   1      40.847  33.894  35.331  1.00  0.00    -0.203 F 
ATOM     69  F   UNL A   1      36.999  31.969  38.690  1.00  0.00    -0.200 F 
ATOM     70  C   UNL A   1      38.539  33.664  38.113  1.00  0.00     0.200 A 
ATOM     71  F   UNL A   1      40.082  35.338  37.490  1.00  0.00    -0.200 F 
ATOM     72  F   UNL A   1      38.152  34.394  39.168  1.00  0.00    -0.200 F 
ENDBRANCH  48  62
BRANCH  49  73
ATOM     73  C   UNL A   1      42.023  26.860  27.859  1.00  0.00     0.064 A 
ATOM     74  C   UNL A   1      43.001  27.355  26.987  1.00  0.00     0.173 A 
ATOM     75  C   UNL A   1      41.445  25.619  27.555  1.00  0.00     0.173 A 
ATOM     76  F   UNL A   1      43.565  28.550  27.222  1.00  0.00    -0.203 F 
ATOM     77  C   UNL A   1      43.372  26.647  25.846  1.00  0.00     0.198 A 
ATOM     78  C   UNL A   1      41.834  24.900  26.428  1.00  0.00     0.198 A 
ATOM     79  F   UNL A   1      40.502  25.103  28.358  1.00  0.00    -0.203 F 
ATOM     80  F   UNL A   1      44.276  27.164  25.004  1.00  0.00    -0.200 F 
ATOM     81  C   UNL A   1      42.791  25.418  25.570  1.00  0.00     0.200 A 
ATOM     82  F   UNL A   1      41.277  23.709  26.171  1.00  0.00    -0.200 F 
ATOM     83  F   UNL A   1      43.148  24.738  24.472  1.00  0.00    -0.200 F 
ENDBRANCH  49  73
BRANCH  61  84
ATOM     84  C   UNL A   1      44.299  27.102  34.433  1.00  0.00     0.064 A 
ATOM     85  C   UNL A   1      44.052  25.866  35.051  1.00  0.00     0.173 A 
ATOM     86  C   UNL A   1      45.602  27.619  34.492  1.00  0.00     0.173 A 
ATOM     87  F   UNL A   1      42.819  25.339  35.034  1.00  0.00    -0.203 F 
ATOM     88  C   UNL A   1      45.064  25.192  35.729  1.00  0.00     0.198 A 
ATOM     89  C   UNL A   1      46.617  26.927  35.148  1.00  0.00     0.198 A 
ATOM     90  F   UNL A   1      45.890  28.793  33.910  1.00  0.00    -0.203 F 
ATOM     91  F   UNL A   1      44.793  24.039  36.355  1.00  0.00    -0.200 F 
ATOM     92  C   UNL A   1      46.346  25.720  35.773  1.00  0.00     0.200 A 
ATOM     93  F   UNL A   1      47.857  27.434  35.181  1.00  0.00    -0.200 F 
ATOM     94  F   UNL A   1      47.317  25.070  36.428  1.00  0.00    -0.200 F 
ENDBRANCH  61  84
ENDBRANCH  35  36
ENDBRANCH  28  30
ENDBRANCH  27  28
ENDBRANCH  26  27
ENDBRANCH  25  26
ENDBRANCH  24  25
ENDBRANCH  23  24
ENDBRANCH   1  23
TORSDOF 21
ENDMDL
MODEL 3
REMARK VINA RESULT:      -9.6      5.161     10.513
REMARK SMILES O=C(CCCc1nc(-c2cccc(Cl)c2)no1)OCCOCCOCCOC(=O)c1ccc(-c2c3nc(c(-c4c(F)c(F)c(F)c(F)c4F)c4ccc([nH]4)c(-c4c(F)c(F)c(F)c(F)c4F)c4nc(c(-c5c(F)c(F)c(F)c(F)c5F)c5ccc2[nH]5)C=C4)C=C3)cc1
REMARK SMILES IDX 22 1 21 2 20 3 19 4 18 5 2 6 1 7 3 8 4 9 5 10 6 11 7 12
REMARK SMILES IDX 17 13 8 14 16 15 9 16 10 17 15 18 11 19 13 20 12 21 14 22
REMARK SMILES IDX 23 23 24 24 25 25 26 26 27 27 28 28 29 29 30 30 31 31 92 32
REMARK SMILES IDX 32 33 91 34 33 35 34 36 35 37 85 38 36 39 90 40 84 41 86 42
REMARK SMILES IDX 37 43 89 44 83 45 82 46 38 48 70 49 50 50 69 51 51 52 54 53
REMARK SMILES IDX 68 54 87 55 52 56 53 57 67 59 88 60 55 61 39 62 40 63 48 64
REMARK SMILES IDX 41 65 42 66 46 67 49 68 43 69 44 70 47 71 45 72 71 73 72 74
REMARK SMILES IDX 80 75 73 76 74 77 78 78 81 79 75 80 76 81 79 82 77 83 56 84
REMARK SMILES IDX 57 85 65 86 58 87 59 88 63 89 66 90 60 91 61 92 64 93 62 94
REMARK H PARENT 86 47 54 58
REMARK Flexibility Score: inf
ROOT
ATOM      1  C   UNL A   1      31.496  29.170  25.099  1.00  0.00     0.188 C 
ENDROOT
BRANCH   1   2
ATOM      2  O   UNL A   1      32.345  28.588  24.115  1.00  0.00    -0.376 OA
BRANCH   2   3
ATOM      3  C   UNL A   1      31.815  28.546  22.798  1.00  0.00     0.202 C 
BRANCH   3   4
ATOM      4  C   UNL A   1      31.164  27.190  22.578  1.00  0.00     0.261 C 
BRANCH   4   5
ATOM      5  O   UNL A   1      31.906  26.141  23.235  1.00  0.00    -0.463 OA
BRANCH   5   6
ATOM      6  C   UNL A   1      32.551  25.122  22.633  1.00  0.00     0.305 C 
ATOM      7  O   UNL A   1      33.559  25.353  21.964  1.00  0.00    -0.252 OA
BRANCH   6   8
ATOM      8  C   UNL A   1      32.025  23.711  22.735  1.00  0.00     0.123 C 
BRANCH   8   9
ATOM      9  C   UNL A   1      30.858  23.521  23.699  1.00  0.00     0.022 C 
BRANCH   9  10
ATOM     10  C   UNL A   1      31.204  22.925  25.068  1.00  0.00     0.101 C 
BRANCH  10  11
ATOM     11  C   UNL A   1      32.208  21.828  25.039  1.00  0.00     0.226 A 
ATOM     12  N   UNL A   1      32.029  20.542  24.831  1.00  0.00    -0.191 NA
ATOM     13  O   UNL A   1      33.505  22.157  25.298  1.00  0.00    -0.339 OA
ATOM     14  C   UNL A   1      33.298  20.033  25.016  1.00  0.00     0.202 A 
ATOM     15  N   UNL A   1      34.227  20.966  25.282  1.00  0.00    -0.057 NA
BRANCH  14  16
ATOM     16  C   UNL A   1      33.572  18.601  25.016  1.00  0.00     0.024 A 
ATOM     17  C   UNL A   1      34.759  18.097  24.462  1.00  0.00     0.012 A 
ATOM     18  C   UNL A   1      32.628  17.704  25.535  1.00  0.00     0.032 A 
ATOM     19  C   UNL A   1      34.997  16.719  24.429  1.00  0.00     0.002 A 
ATOM     20  C   UNL A   1      32.863  16.330  25.483  1.00  0.00     0.041 A 
ATOM     21  C   UNL A   1      34.044  15.834  24.934  1.00  0.00     0.020 A 
ATOM     22  Cl  UNL A   1      31.676  15.238  26.084  1.00  0.00    -0.084 Cl
ENDBRANCH  14  16
ENDBRANCH  10  11
ENDBRANCH   9  10
ENDBRANCH   8   9
ENDBRANCH   6   8
ENDBRANCH   5   6
ENDBRANCH   4   5
ENDBRANCH   3   4
ENDBRANCH   2   3
ENDBRANCH   1   2
BRANCH   1  23
ATOM     23  C   UNL A   1      30.583  30.278  24.566  1.00  0.00     0.188 C 
BRANCH  23  24
ATOM     24  O   UNL A   1      30.695  31.556  25.186  1.00  0.00    -0.376 OA
BRANCH  24  25
ATOM     25  C   UNL A   1      31.335  31.647  26.458  1.00  0.00     0.202 C 
BRANCH  25  26
ATOM     26  C   UNL A   1      31.832  33.035  26.849  1.00  0.00     0.261 C 
BRANCH  26  27
ATOM     27  O   UNL A   1      33.070  32.962  27.581  1.00  0.00    -0.460 OA
BRANCH  27  28
ATOM     28  C   UNL A   1      33.319  34.000  28.405  1.00  0.00     0.338 C 
ATOM     29  O   UNL A   1      32.692  35.045  28.495  1.00  0.00    -0.246 OA
BRANCH  28  30
ATOM     30  C   UNL A   1      34.434  33.677  29.311  1.00  0.00     0.060 A 
ATOM     31  C   UNL A   1      35.705  34.156  28.975  1.00  0.00     0.016 A 
ATOM     32  C   UNL A   1      34.263  32.802  30.388  1.00  0.00     0.016 A 
ATOM     33  C   UNL A   1      36.821  33.700  29.669  1.00  0.00     0.010 A 
ATOM     34  C   UNL A   1      35.387  32.339  31.079  1.00  0.00     0.010 A 
ATOM     35  C   UNL A   1      36.673  32.750  30.689  1.00  0.00    -0.014 A 
BRANCH  35  36
ATOM     36  C   UNL A   1      37.881  32.072  31.217  1.00  0.00     0.031 A 
ATOM     37  C   UNL A   1      38.366  32.416  32.599  1.00  0.00     0.074 A 
ATOM     38  C   UNL A   1      38.498  31.117  30.499  1.00  0.00     0.049 A 
ATOM     39  N   UNL A   1      39.360  31.906  33.282  1.00  0.00    -0.248 NA
ATOM     40  C   UNL A   1      37.629  33.473  33.309  1.00  0.00     0.031 C 
ATOM     41  C   UNL A   1      38.110  30.688  29.159  1.00  0.00     0.029 A 
ATOM     42  N   UNL A   1      39.581  30.335  30.807  1.00  0.00    -0.354 N 
ATOM     43  C   UNL A   1      39.357  32.567  34.503  1.00  0.00     0.074 A 
ATOM     44  C   UNL A   1      38.291  33.545  34.454  1.00  0.00     0.031 C 
ATOM     45  C   UNL A   1      38.949  29.720  28.752  1.00  0.00     0.029 A 
ATOM     46  C   UNL A   1      39.937  29.473  29.801  1.00  0.00     0.049 A 
ATOM     47  H   UNL A   1      40.057  30.386  31.668  1.00  0.00     0.167 HD
ATOM     48  C   UNL A   1      40.158  32.365  35.576  1.00  0.00     0.037 A 
ATOM     49  C   UNL A   1      40.951  28.589  29.737  1.00  0.00     0.037 A 
ATOM     50  C   UNL A   1      41.228  31.403  35.621  1.00  0.00     0.049 A 
ATOM     51  C   UNL A   1      41.856  28.413  30.928  1.00  0.00     0.074 A 
ATOM     52  C   UNL A   1      42.102  31.128  36.658  1.00  0.00     0.029 A 
ATOM     53  N   UNL A   1      41.570  30.559  34.575  1.00  0.00    -0.354 N 
ATOM     54  N   UNL A   1      41.827  29.023  32.088  1.00  0.00    -0.248 NA
ATOM     55  C   UNL A   1      42.925  27.411  30.804  1.00  0.00     0.031 C 
ATOM     56  C   UNL A   1      42.997  30.141  36.227  1.00  0.00     0.029 A 
ATOM     57  C   UNL A   1      42.652  29.773  34.937  1.00  0.00     0.049 A 
ATOM     58  H   UNL A   1      41.112  30.524  33.704  1.00  0.00     0.167 HD
ATOM     59  C   UNL A   1      42.858  28.470  32.836  1.00  0.00     0.074 A 
ATOM     60  C   UNL A   1      43.479  27.458  32.007  1.00  0.00     0.031 C 
ATOM     61  C   UNL A   1      43.259  28.774  34.095  1.00  0.00     0.037 A 
BRANCH  48  62
ATOM     62  C   UNL A   1      39.910  33.208  36.791  1.00  0.00     0.064 A 
ATOM     63  C   UNL A   1      38.948  32.846  37.746  1.00  0.00     0.173 A 
ATOM     64  C   UNL A   1      40.662  34.368  37.022  1.00  0.00     0.173 A 
ATOM     65  F   UNL A   1      38.193  31.753  37.562  1.00  0.00    -0.203 F 
ATOM     66  C   UNL A   1      38.736  33.626  38.880  1.00  0.00     0.198 A 
ATOM     67  C   UNL A   1      40.464  35.134  38.170  1.00  0.00     0.198 A 
ATOM     68  F   UNL A   1      41.595  34.757  36.140  1.00  0.00    -0.203 F 
ATOM     69  F   UNL A   1      37.787  33.281  39.762  1.00  0.00    -0.200 F 
ATOM     70  C   UNL A   1      39.498  34.765  39.094  1.00  0.00     0.200 A 
ATOM     71  F   UNL A   1      41.206  36.229  38.379  1.00  0.00    -0.200 F 
ATOM     72  F   UNL A   1      39.298  35.510  40.189  1.00  0.00    -0.200 F 
ENDBRANCH  48  62
BRANCH  49  73
ATOM     73  C   UNL A   1      41.165  27.801  28.497  1.00  0.00     0.064 A 
ATOM     74  C   UNL A   1      40.527  26.570  28.296  1.00  0.00     0.173 A 
ATOM     75  C   UNL A   1      42.030  28.260  27.492  1.00  0.00     0.173 A 
ATOM     76  F   UNL A   1      39.711  26.078  29.241  1.00  0.00    -0.203 F 
ATOM     77  C   UNL A   1      40.760  25.819  27.147  1.00  0.00     0.198 A 
ATOM     78  C   UNL A   1      42.242  27.520  26.332  1.00  0.00     0.198 A 
ATOM     79  F   UNL A   1      42.666  29.432  27.638  1.00  0.00    -0.203 F 
ATOM     80  F   UNL A   1      40.174  24.623  27.001  1.00  0.00    -0.200 F 
ATOM     81  C   UNL A   1      41.613  26.296  26.163  1.00  0.00     0.200 A 
ATOM     82  F   UNL A   1      43.060  27.990  25.380  1.00  0.00    -0.200 F 
ATOM     83  F   UNL A   1      41.837  25.572  25.058  1.00  0.00    -0.200 F 
ENDBRANCH  49  73
BRANCH  61  84
ATOM     84  C   UNL A   1      44.414  27.994  34.650  1.00  0.00     0.064 A 
ATOM     85  C   UNL A   1      45.736  28.447  34.520  1.00  0.00     0.173 A 
ATOM     86  C   UNL A   1      44.196  26.788  35.335  1.00  0.00     0.173 A 
ATOM     87  F   UNL A   1      45.995  29.587  33.861  1.00  0.00    -0.203 F 
ATOM     88  C   UNL A   1      46.799  27.706  35.026  1.00  0.00     0.198 A 
ATOM     89  C   UNL A   1      45.261  26.064  35.863  1.00  0.00     0.198 A 
ATOM     90  F   UNL A   1      42.951  26.316  35.493  1.00  0.00    -0.203 F 
ATOM     91  F   UNL A   1      48.056  28.132  34.844  1.00  0.00    -0.200 F 
ATOM     92  C   UNL A   1      46.561  26.518  35.701  1.00  0.00     0.200 A 
ATOM     93  F   UNL A   1      45.029  24.921  36.523  1.00  0.00    -0.200 F 
ATOM     94  F   UNL A   1      47.586  25.804  36.185  1.00  0.00    -0.200 F 
ENDBRANCH  61  84
ENDBRANCH  35  36
ENDBRANCH  28  30
ENDBRANCH  27  28
ENDBRANCH  26  27
ENDBRANCH  25  26
ENDBRANCH  24  25
ENDBRANCH  23  24
ENDBRANCH   1  23
TORSDOF 21
ENDMDL
