MODEL 1
REMARK VINA RESULT:      -9.1      0.000      0.000
REMARK SMILES CC(C)[N@H+](Cc1cccs1)[C@@H](C)c1ccc(C(=O)OCCOCCOCCOC(=O)c2ccc(-c3c4nc(c(-c5c(F)c(F)c(F)c(F)c5F)c5ccc([nH]5)c(-c5c(F)c(F)c(F)c(F)c5F)c5nc(c(-c6c(F)c(F)c(F)c(F)c6F)c6ccc3[nH]6)C=C5)C=C4)cc2)o1
REMARK SMILES IDX 23 1 22 2 21 3 20 4 19 5 17 6 18 7 16 8 13 9 14 10 94 11
REMARK SMILES IDX 15 12 11 13 12 14 4 15 2 17 1 18 3 19 5 20 6 21 7 22 10 23
REMARK SMILES IDX 8 24 9 25 24 26 25 27 26 28 27 29 28 30 29 31 30 32 31 33
REMARK SMILES IDX 32 34 93 35 33 36 92 37 34 38 35 39 36 40 86 41 37 42 91 43
REMARK SMILES IDX 85 44 87 45 38 46 90 47 84 48 83 49 39 51 71 52 51 53 70 54
REMARK SMILES IDX 52 55 55 56 69 57 88 58 53 59 54 60 68 62 89 63 56 64 40 65
REMARK SMILES IDX 41 66 49 67 42 68 43 69 47 70 50 71 44 72 45 73 48 74 46 75
REMARK SMILES IDX 72 76 73 77 81 78 74 79 75 80 79 81 82 82 76 83 77 84 80 85
REMARK SMILES IDX 78 86 57 87 58 88 66 89 59 90 60 91 64 92 67 93 61 94 62 95
REMARK SMILES IDX 65 96 63 97
REMARK H PARENT 4 16 87 50 55 61
REMARK Flexibility Score: inf
ROOT
ATOM      1  C   UNL A   1      33.117  36.005  30.007  1.00  0.00     0.188 C 
ENDROOT
BRANCH   1   2
ATOM      2  O   UNL A   1      32.795  37.195  30.719  1.00  0.00    -0.376 OA
BRANCH   2   3
ATOM      3  C   UNL A   1      33.538  37.552  31.879  1.00  0.00     0.202 C 
BRANCH   3   4
ATOM      4  C   UNL A   1      33.664  36.491  32.974  1.00  0.00     0.261 C 
BRANCH   4   5
ATOM      5  O   UNL A   1      35.029  36.096  33.193  1.00  0.00    -0.457 OA
BRANCH   5   6
ATOM      6  C   UNL A   1      35.326  34.811  32.843  1.00  0.00     0.374 C 
ATOM      7  O   UNL A   1      34.509  33.985  32.455  1.00  0.00    -0.242 OA
BRANCH   6   8
ATOM      8  C   UNL A   1      36.754  34.615  32.867  1.00  0.00     0.212 A 
ATOM      9  C   UNL A   1      38.724  34.694  33.865  1.00  0.00     0.162 A 
ATOM     10  C   UNL A   1      38.943  34.161  32.610  1.00  0.00     0.053 A 
ATOM     11  O   UNL A   1      37.395  34.936  34.031  1.00  0.00    -0.448 OA
ATOM     12  C   UNL A   1      37.677  34.105  31.970  1.00  0.00     0.059 A 
BRANCH   9  13
ATOM     13  C   UNL A   1      39.608  34.967  35.044  1.00  0.00     0.248 C 
ATOM     14  C   UNL A   1      41.068  35.016  34.561  1.00  0.00     0.084 C 
BRANCH  13  15
ATOM     15  N   UNL A   1      39.425  34.151  36.252  1.00  0.00    -0.320 N 
ATOM     16  H   UNL A   1      38.552  34.618  36.006  1.00  0.00     0.349 HD
BRANCH  15  17
ATOM     17  C   UNL A   1      38.666  34.461  37.469  1.00  0.00     0.178 C 
ATOM     18  C   UNL A   1      38.095  33.344  38.348  1.00  0.00     0.075 C 
ATOM     19  C   UNL A   1      39.428  35.432  38.380  1.00  0.00     0.075 C 
ENDBRANCH  15  17
BRANCH  15  20
ATOM     20  C   UNL A   1      40.214  32.910  36.300  1.00  0.00     0.310 C 
BRANCH  20  21
ATOM     21  C   UNL A   1      39.844  31.827  35.314  1.00  0.00     0.059 A 
ATOM     22  C   UNL A   1      40.597  31.125  34.389  1.00  0.00     0.021 A 
ATOM     23  S   UNL A   1      38.198  31.314  35.259  1.00  0.00    -0.143 S 
ATOM     24  C   UNL A   1      39.834  30.180  33.646  1.00  0.00     0.012 A 
ATOM     25  C   UNL A   1      38.513  30.181  34.021  1.00  0.00     0.065 A 
ENDBRANCH  20  21
ENDBRANCH  15  20
ENDBRANCH  13  15
ENDBRANCH   9  13
ENDBRANCH   6   8
ENDBRANCH   5   6
ENDBRANCH   4   5
ENDBRANCH   3   4
ENDBRANCH   2   3
ENDBRANCH   1   2
BRANCH   1  26
ATOM     26  C   UNL A   1      33.950  36.090  28.713  1.00  0.00     0.188 C 
BRANCH  26  27
ATOM     27  O   UNL A   1      34.046  34.867  28.002  1.00  0.00    -0.376 OA
BRANCH  27  28
ATOM     28  C   UNL A   1      34.376  33.724  28.778  1.00  0.00     0.202 C 
BRANCH  28  29
ATOM     29  C   UNL A   1      34.212  32.411  28.005  1.00  0.00     0.261 C 
BRANCH  29  30
ATOM     30  O   UNL A   1      34.511  31.229  28.765  1.00  0.00    -0.460 OA
BRANCH  30  31
ATOM     31  C   UNL A   1      34.894  30.136  28.071  1.00  0.00     0.338 C 
ATOM     32  O   UNL A   1      34.255  29.530  27.232  1.00  0.00    -0.246 OA
BRANCH  31  33
ATOM     33  C   UNL A   1      36.313  29.880  28.387  1.00  0.00     0.060 A 
ATOM     34  C   UNL A   1      37.268  29.986  27.370  1.00  0.00     0.016 A 
ATOM     35  C   UNL A   1      36.694  29.536  29.687  1.00  0.00     0.016 A 
ATOM     36  C   UNL A   1      38.613  29.731  27.649  1.00  0.00     0.010 A 
ATOM     37  C   UNL A   1      38.036  29.266  29.961  1.00  0.00     0.010 A 
ATOM     38  C   UNL A   1      38.998  29.343  28.940  1.00  0.00    -0.014 A 
BRANCH  38  39
ATOM     39  C   UNL A   1      40.380  28.876  29.204  1.00  0.00     0.031 A 
ATOM     40  C   UNL A   1      41.334  29.799  29.908  1.00  0.00     0.074 A 
ATOM     41  C   UNL A   1      40.790  27.659  28.806  1.00  0.00     0.049 A 
ATOM     42  N   UNL A   1      42.606  29.639  30.172  1.00  0.00    -0.248 NA
ATOM     43  C   UNL A   1      40.776  31.079  30.374  1.00  0.00     0.031 C 
ATOM     44  C   UNL A   1      39.957  26.661  28.141  1.00  0.00     0.029 A 
ATOM     45  N   UNL A   1      42.028  27.068  28.889  1.00  0.00    -0.354 N 
ATOM     46  C   UNL A   1      42.999  30.793  30.836  1.00  0.00     0.074 A 
ATOM     47  C   UNL A   1      41.840  31.656  30.912  1.00  0.00     0.031 C 
ATOM     48  C   UNL A   1      40.713  25.584  27.856  1.00  0.00     0.029 A 
ATOM     49  C   UNL A   1      42.086  25.833  28.292  1.00  0.00     0.049 A 
ATOM     50  H   UNL A   1      42.798  27.490  29.334  1.00  0.00     0.167 HD
ATOM     51  C   UNL A   1      44.215  31.102  31.342  1.00  0.00     0.037 A 
ATOM     52  C   UNL A   1      43.137  25.014  28.095  1.00  0.00     0.037 A 
ATOM     53  C   UNL A   1      45.373  30.253  31.258  1.00  0.00     0.049 A 
ATOM     54  C   UNL A   1      44.503  25.419  28.590  1.00  0.00     0.074 A 
ATOM     55  C   UNL A   1      46.644  30.472  31.760  1.00  0.00     0.029 A 
ATOM     56  N   UNL A   1      45.402  29.024  30.616  1.00  0.00    -0.354 N 
ATOM     57  N   UNL A   1      44.861  26.496  29.246  1.00  0.00    -0.248 NA
ATOM     58  C   UNL A   1      45.611  24.492  28.314  1.00  0.00     0.031 C 
ATOM     59  C   UNL A   1      47.454  29.395  31.384  1.00  0.00     0.029 A 
ATOM     60  C   UNL A   1      46.677  28.486  30.684  1.00  0.00     0.049 A 
ATOM     61  H   UNL A   1      44.631  28.598  30.177  1.00  0.00     0.167 HD
ATOM     62  C   UNL A   1      46.224  26.368  29.478  1.00  0.00     0.074 A 
ATOM     63  C   UNL A   1      46.629  25.102  28.905  1.00  0.00     0.031 C 
ATOM     64  C   UNL A   1      47.065  27.224  30.110  1.00  0.00     0.037 A 
BRANCH  51  65
ATOM     65  C   UNL A   1      44.360  32.433  32.016  1.00  0.00     0.064 A 
ATOM     66  C   UNL A   1      44.215  32.571  33.404  1.00  0.00     0.173 A 
ATOM     67  C   UNL A   1      44.673  33.578  31.269  1.00  0.00     0.173 A 
ATOM     68  F   UNL A   1      43.900  31.507  34.158  1.00  0.00    -0.203 F 
ATOM     69  C   UNL A   1      44.357  33.812  34.017  1.00  0.00     0.198 A 
ATOM     70  C   UNL A   1      44.837  34.814  31.888  1.00  0.00     0.198 A 
ATOM     71  F   UNL A   1      44.823  33.496  29.938  1.00  0.00    -0.203 F 
ATOM     72  F   UNL A   1      44.174  33.930  35.340  1.00  0.00    -0.200 F 
ATOM     73  C   UNL A   1      44.673  34.930  33.260  1.00  0.00     0.200 A 
ATOM     74  F   UNL A   1      45.150  35.891  31.157  1.00  0.00    -0.200 F 
ATOM     75  F   UNL A   1      44.813  36.125  33.853  1.00  0.00    -0.200 F 
ENDBRANCH  51  65
BRANCH  52  76
ATOM     76  C   UNL A   1      42.952  23.730  27.371  1.00  0.00     0.064 A 
ATOM     77  C   UNL A   1      42.419  22.607  28.017  1.00  0.00     0.173 A 
ATOM     78  C   UNL A   1      43.334  23.593  26.029  1.00  0.00     0.173 A 
ATOM     79  F   UNL A   1      42.068  22.683  29.310  1.00  0.00    -0.203 F 
ATOM     80  C   UNL A   1      42.288  21.391  27.352  1.00  0.00     0.198 A 
ATOM     81  C   UNL A   1      43.180  22.382  25.358  1.00  0.00     0.198 A 
ATOM     82  F   UNL A   1      43.860  24.635  25.370  1.00  0.00    -0.203 F 
ATOM     83  F   UNL A   1      41.819  20.319  28.007  1.00  0.00    -0.200 F 
ATOM     84  C   UNL A   1      42.664  21.279  26.022  1.00  0.00     0.200 A 
ATOM     85  F   UNL A   1      43.542  22.280  24.072  1.00  0.00    -0.200 F 
ATOM     86  F   UNL A   1      42.541  20.107  25.385  1.00  0.00    -0.200 F 
ENDBRANCH  52  76
BRANCH  64  87
ATOM     87  C   UNL A   1      48.502  26.811  30.239  1.00  0.00     0.064 A 
ATOM     88  C   UNL A   1      49.468  27.218  29.306  1.00  0.00     0.173 A 
ATOM     89  C   UNL A   1      48.926  26.041  31.331  1.00  0.00     0.173 A 
ATOM     90  F   UNL A   1      49.109  27.942  28.236  1.00  0.00    -0.203 F 
ATOM     91  C   UNL A   1      50.804  26.852  29.454  1.00  0.00     0.198 A 
ATOM     92  C   UNL A   1      50.267  25.699  31.490  1.00  0.00     0.198 A 
ATOM     93  F   UNL A   1      48.043  25.633  32.254  1.00  0.00    -0.203 F 
ATOM     94  F   UNL A   1      51.703  27.218  28.531  1.00  0.00    -0.200 F 
ATOM     95  C   UNL A   1      51.203  26.100  30.549  1.00  0.00     0.200 A 
ATOM     96  F   UNL A   1      50.652  24.981  32.554  1.00  0.00    -0.200 F 
ATOM     97  F   UNL A   1      52.490  25.755  30.694  1.00  0.00    -0.200 F 
ENDBRANCH  64  87
ENDBRANCH  38  39
ENDBRANCH  31  33
ENDBRANCH  30  31
ENDBRANCH  29  30
ENDBRANCH  28  29
ENDBRANCH  27  28
ENDBRANCH  26  27
ENDBRANCH   1  26
TORSDOF 22
ENDMDL
MODEL 2
REMARK VINA RESULT:      -9.0      5.182     11.500
REMARK SMILES CC(C)[N@H+](Cc1cccs1)[C@@H](C)c1ccc(C(=O)OCCOCCOCCOC(=O)c2ccc(-c3c4nc(c(-c5c(F)c(F)c(F)c(F)c5F)c5ccc([nH]5)c(-c5c(F)c(F)c(F)c(F)c5F)c5nc(c(-c6c(F)c(F)c(F)c(F)c6F)c6ccc3[nH]6)C=C5)C=C4)cc2)o1
REMARK SMILES IDX 23 1 22 2 21 3 20 4 19 5 17 6 18 7 16 8 13 9 14 10 94 11
REMARK SMILES IDX 15 12 11 13 12 14 4 15 2 17 1 18 3 19 5 20 6 21 7 22 10 23
REMARK SMILES IDX 8 24 9 25 24 26 25 27 26 28 27 29 28 30 29 31 30 32 31 33
REMARK SMILES IDX 32 34 93 35 33 36 92 37 34 38 35 39 36 40 86 41 37 42 91 43
REMARK SMILES IDX 85 44 87 45 38 46 90 47 84 48 83 49 39 51 71 52 51 53 70 54
REMARK SMILES IDX 52 55 55 56 69 57 88 58 53 59 54 60 68 62 89 63 56 64 40 65
REMARK SMILES IDX 41 66 49 67 42 68 43 69 47 70 50 71 44 72 45 73 48 74 46 75
REMARK SMILES IDX 72 76 73 77 81 78 74 79 75 80 79 81 82 82 76 83 77 84 80 85
REMARK SMILES IDX 78 86 57 87 58 88 66 89 59 90 60 91 64 92 67 93 61 94 62 95
REMARK SMILES IDX 65 96 63 97
REMARK H PARENT 4 16 87 50 55 61
REMARK Flexibility Score: inf
ROOT
ATOM      1  C   UNL A   1      33.088  29.179  25.497  1.00  0.00     0.188 C 
ENDROOT
BRANCH   1   2
ATOM      2  O   UNL A   1      32.997  29.218  24.076  1.00  0.00    -0.376 OA
BRANCH   2   3
ATOM      3  C   UNL A   1      34.036  28.654  23.283  1.00  0.00     0.202 C 
BRANCH   3   4
ATOM      4  C   UNL A   1      33.618  27.963  21.984  1.00  0.00     0.261 C 
BRANCH   4   5
ATOM      5  O   UNL A   1      33.351  26.564  22.174  1.00  0.00    -0.457 OA
BRANCH   5   6
ATOM      6  C   UNL A   1      32.040  26.201  22.063  1.00  0.00     0.374 C 
ATOM      7  O   UNL A   1      31.389  26.241  21.027  1.00  0.00    -0.242 OA
BRANCH   6   8
ATOM      8  C   UNL A   1      31.581  25.636  23.307  1.00  0.00     0.212 A 
ATOM      9  C   UNL A   1      31.585  24.068  24.865  1.00  0.00     0.162 A 
ATOM     10  C   UNL A   1      30.704  25.041  25.293  1.00  0.00     0.053 A 
ATOM     11  O   UNL A   1      32.141  24.446  23.681  1.00  0.00    -0.448 OA
ATOM     12  C   UNL A   1      30.704  26.052  24.295  1.00  0.00     0.059 A 
BRANCH   9  13
ATOM     13  C   UNL A   1      32.082  22.785  25.459  1.00  0.00     0.248 C 
ATOM     14  C   UNL A   1      32.227  22.973  26.980  1.00  0.00     0.084 C 
BRANCH  13  15
ATOM     15  N   UNL A   1      33.250  22.141  24.843  1.00  0.00    -0.320 N 
ATOM     16  H   UNL A   1      33.461  22.408  25.805  1.00  0.00     0.349 HD
BRANCH  15  17
ATOM     17  C   UNL A   1      34.669  22.495  24.962  1.00  0.00     0.178 C 
ATOM     18  C   UNL A   1      35.641  21.604  25.740  1.00  0.00     0.075 C 
ATOM     19  C   UNL A   1      35.296  22.791  23.594  1.00  0.00     0.075 C 
ENDBRANCH  15  17
BRANCH  15  20
ATOM     20  C   UNL A   1      32.945  21.078  23.873  1.00  0.00     0.310 C 
BRANCH  20  21
ATOM     21  C   UNL A   1      32.803  19.676  24.418  1.00  0.00     0.059 A 
ATOM     22  C   UNL A   1      32.839  19.180  25.709  1.00  0.00     0.021 A 
ATOM     23  S   UNL A   1      32.554  18.394  23.291  1.00  0.00    -0.143 S 
ATOM     24  C   UNL A   1      32.664  17.768  25.773  1.00  0.00     0.012 A 
ATOM     25  C   UNL A   1      32.499  17.217  24.526  1.00  0.00     0.065 A 
ENDBRANCH  20  21
ENDBRANCH  15  20
ENDBRANCH  13  15
ENDBRANCH   9  13
ENDBRANCH   6   8
ENDBRANCH   5   6
ENDBRANCH   4   5
ENDBRANCH   3   4
ENDBRANCH   2   3
ENDBRANCH   1   2
BRANCH   1  26
ATOM     26  C   UNL A   1      31.802  29.186  26.346  1.00  0.00     0.188 C 
BRANCH  26  27
ATOM     27  O   UNL A   1      31.424  30.469  26.818  1.00  0.00    -0.376 OA
BRANCH  27  28
ATOM     28  C   UNL A   1      32.464  31.432  26.896  1.00  0.00     0.202 C 
BRANCH  28  29
ATOM     29  C   UNL A   1      31.957  32.830  27.263  1.00  0.00     0.261 C 
BRANCH  29  30
ATOM     30  O   UNL A   1      32.968  33.851  27.266  1.00  0.00    -0.460 OA
BRANCH  30  31
ATOM     31  C   UNL A   1      33.248  34.431  28.452  1.00  0.00     0.338 C 
ATOM     32  O   UNL A   1      32.584  35.261  29.046  1.00  0.00    -0.246 OA
BRANCH  31  33
ATOM     33  C   UNL A   1      34.441  33.764  29.007  1.00  0.00     0.060 A 
ATOM     34  C   UNL A   1      34.275  32.661  29.853  1.00  0.00     0.016 A 
ATOM     35  C   UNL A   1      35.720  34.230  28.691  1.00  0.00     0.016 A 
ATOM     36  C   UNL A   1      35.394  32.029  30.399  1.00  0.00     0.010 A 
ATOM     37  C   UNL A   1      36.837  33.607  29.249  1.00  0.00     0.010 A 
ATOM     38  C   UNL A   1      36.679  32.517  30.122  1.00  0.00    -0.014 A 
BRANCH  38  39
ATOM     39  C   UNL A   1      37.858  31.988  30.848  1.00  0.00     0.031 A 
ATOM     40  C   UNL A   1      38.687  30.916  30.198  1.00  0.00     0.074 A 
ATOM     41  C   UNL A   1      38.176  32.434  32.076  1.00  0.00     0.049 A 
ATOM     42  N   UNL A   1      39.709  30.250  30.673  1.00  0.00    -0.248 NA
ATOM     43  C   UNL A   1      38.310  30.545  28.825  1.00  0.00     0.031 C 
ATOM     44  C   UNL A   1      37.471  33.487  32.802  1.00  0.00     0.029 A 
ATOM     45  N   UNL A   1      39.170  32.034  32.936  1.00  0.00    -0.354 N 
ATOM     46  C   UNL A   1      40.097  29.385  29.660  1.00  0.00     0.074 A 
ATOM     47  C   UNL A   1      39.187  29.590  28.553  1.00  0.00     0.031 C 
ATOM     48  C   UNL A   1      38.043  33.638  34.011  1.00  0.00     0.029 A 
ATOM     49  C   UNL A   1      39.131  32.671  34.151  1.00  0.00     0.049 A 
ATOM     50  H   UNL A   1      39.844  31.356  32.702  1.00  0.00     0.167 HD
ATOM     51  C   UNL A   1      41.123  28.503  29.650  1.00  0.00     0.037 A 
ATOM     52  C   UNL A   1      39.873  32.474  35.258  1.00  0.00     0.037 A 
ATOM     53  C   UNL A   1      42.021  28.286  30.753  1.00  0.00     0.049 A 
ATOM     54  C   UNL A   1      40.955  31.423  35.254  1.00  0.00     0.074 A 
ATOM     55  C   UNL A   1      43.105  27.429  30.829  1.00  0.00     0.029 A 
ATOM     56  N   UNL A   1      41.931  28.926  31.980  1.00  0.00    -0.354 N 
ATOM     57  N   UNL A   1      41.339  30.632  34.281  1.00  0.00    -0.248 NA
ATOM     58  C   UNL A   1      41.705  31.238  36.505  1.00  0.00     0.031 C 
ATOM     59  C   UNL A   1      43.643  27.517  32.117  1.00  0.00     0.029 A 
ATOM     60  C   UNL A   1      42.922  28.462  32.829  1.00  0.00     0.049 A 
ATOM     61  H   UNL A   1      41.261  29.610  32.211  1.00  0.00     0.167 HD
ATOM     62  C   UNL A   1      42.383  29.873  34.794  1.00  0.00     0.074 A 
ATOM     63  C   UNL A   1      42.584  30.307  36.161  1.00  0.00     0.031 C 
ATOM     64  C   UNL A   1      43.110  28.903  34.187  1.00  0.00     0.037 A 
BRANCH  51  65
ATOM     65  C   UNL A   1      41.314  27.685  28.409  1.00  0.00     0.064 A 
ATOM     66  C   UNL A   1      42.190  28.092  27.393  1.00  0.00     0.173 A 
ATOM     67  C   UNL A   1      40.633  26.470  28.246  1.00  0.00     0.173 A 
ATOM     68  F   UNL A   1      42.852  29.254  27.496  1.00  0.00    -0.203 F 
ATOM     69  C   UNL A   1      42.362  27.320  26.247  1.00  0.00     0.198 A 
ATOM     70  C   UNL A   1      40.825  25.690  27.110  1.00  0.00     0.198 A 
ATOM     71  F   UNL A   1      39.785  26.039  29.192  1.00  0.00    -0.203 F 
ATOM     72  F   UNL A   1      43.174  27.746  25.269  1.00  0.00    -0.200 F 
ATOM     73  C   UNL A   1      41.684  26.118  26.109  1.00  0.00     0.200 A 
ATOM     74  F   UNL A   1      40.175  24.526  26.982  1.00  0.00    -0.200 F 
ATOM     75  F   UNL A   1      41.853  25.375  25.006  1.00  0.00    -0.200 F 
ENDBRANCH  51  65
BRANCH  52  76
ATOM     76  C   UNL A   1      39.607  33.271  36.482  1.00  0.00     0.064 A 
ATOM     77  C   UNL A   1      38.650  32.858  37.419  1.00  0.00     0.173 A 
ATOM     78  C   UNL A   1      40.280  34.477  36.724  1.00  0.00     0.173 A 
ATOM     79  F   UNL A   1      37.959  31.727  37.214  1.00  0.00    -0.203 F 
ATOM     80  C   UNL A   1      38.367  33.628  38.544  1.00  0.00     0.198 A 
ATOM     81  C   UNL A   1      40.013  35.235  37.862  1.00  0.00     0.198 A 
ATOM     82  F   UNL A   1      41.196  34.921  35.851  1.00  0.00    -0.203 F 
ATOM     83  F   UNL A   1      37.413  33.234  39.400  1.00  0.00    -0.200 F 
ATOM     84  C   UNL A   1      39.051  34.814  38.767  1.00  0.00     0.200 A 
ATOM     85  F   UNL A   1      40.679  36.378  38.075  1.00  0.00    -0.200 F 
ATOM     86  F   UNL A   1      38.774  35.556  39.848  1.00  0.00    -0.200 F 
ENDBRANCH  52  76
BRANCH  64  87
ATOM     87  C   UNL A   1      44.207  28.261  34.983  1.00  0.00     0.064 A 
ATOM     88  C   UNL A   1      43.989  27.086  35.717  1.00  0.00     0.173 A 
ATOM     89  C   UNL A   1      45.503  28.800  34.974  1.00  0.00     0.173 A 
ATOM     90  F   UNL A   1      42.765  26.541  35.769  1.00  0.00    -0.203 F 
ATOM     91  C   UNL A   1      45.025  26.484  36.428  1.00  0.00     0.198 A 
ATOM     92  C   UNL A   1      46.541  28.181  35.665  1.00  0.00     0.198 A 
ATOM     93  F   UNL A   1      45.764  29.919  34.282  1.00  0.00    -0.203 F 
ATOM     94  F   UNL A   1      44.785  25.383  37.154  1.00  0.00    -0.200 F 
ATOM     95  C   UNL A   1      46.301  27.028  36.396  1.00  0.00     0.200 A 
ATOM     96  F   UNL A   1      47.775  28.703  35.624  1.00  0.00    -0.200 F 
ATOM     97  F   UNL A   1      47.297  26.443  37.074  1.00  0.00    -0.200 F 
ENDBRANCH  64  87
ENDBRANCH  38  39
ENDBRANCH  31  33
ENDBRANCH  30  31
ENDBRANCH  29  30
ENDBRANCH  28  29
ENDBRANCH  27  28
ENDBRANCH  26  27
ENDBRANCH   1  26
TORSDOF 22
ENDMDL
MODEL 3
REMARK VINA RESULT:      -9.0      5.762     12.385
REMARK SMILES CC(C)[N@H+](Cc1cccs1)[C@@H](C)c1ccc(C(=O)OCCOCCOCCOC(=O)c2ccc(-c3c4nc(c(-c5c(F)c(F)c(F)c(F)c5F)c5ccc([nH]5)c(-c5c(F)c(F)c(F)c(F)c5F)c5nc(c(-c6c(F)c(F)c(F)c(F)c6F)c6ccc3[nH]6)C=C5)C=C4)cc2)o1
REMARK SMILES IDX 23 1 22 2 21 3 20 4 19 5 17 6 18 7 16 8 13 9 14 10 94 11
REMARK SMILES IDX 15 12 11 13 12 14 4 15 2 17 1 18 3 19 5 20 6 21 7 22 10 23
REMARK SMILES IDX 8 24 9 25 24 26 25 27 26 28 27 29 28 30 29 31 30 32 31 33
REMARK SMILES IDX 32 34 93 35 33 36 92 37 34 38 35 39 36 40 86 41 37 42 91 43
REMARK SMILES IDX 85 44 87 45 38 46 90 47 84 48 83 49 39 51 71 52 51 53 70 54
REMARK SMILES IDX 52 55 55 56 69 57 88 58 53 59 54 60 68 62 89 63 56 64 40 65
REMARK SMILES IDX 41 66 49 67 42 68 43 69 47 70 50 71 44 72 45 73 48 74 46 75
REMARK SMILES IDX 72 76 73 77 81 78 74 79 75 80 79 81 82 82 76 83 77 84 80 85
REMARK SMILES IDX 78 86 57 87 58 88 66 89 59 90 60 91 64 92 67 93 61 94 62 95
REMARK SMILES IDX 65 96 63 97
REMARK H PARENT 4 16 87 50 55 61
REMARK Flexibility Score: inf
ROOT
ATOM      1  C   UNL A   1      40.416  21.853  26.639  1.00  0.00     0.188 C 
ENDROOT
BRANCH   1   2
ATOM      2  O   UNL A   1      39.129  21.265  26.484  1.00  0.00    -0.376 OA
BRANCH   2   3
ATOM      3  C   UNL A   1      38.340  21.576  25.342  1.00  0.00     0.202 C 
BRANCH   3   4
ATOM      4  C   UNL A   1      36.829  21.371  25.467  1.00  0.00     0.261 C 
BRANCH   4   5
ATOM      5  O   UNL A   1      36.110  21.940  24.360  1.00  0.00    -0.457 OA
BRANCH   5   6
ATOM      6  C   UNL A   1      34.758  22.020  24.524  1.00  0.00     0.374 C 
ATOM      7  O   UNL A   1      34.066  21.159  25.052  1.00  0.00    -0.242 OA
BRANCH   6   8
ATOM      8  C   UNL A   1      34.290  23.319  24.110  1.00  0.00     0.212 A 
ATOM      9  C   UNL A   1      32.741  24.890  23.972  1.00  0.00     0.162 A 
ATOM     10  C   UNL A   1      33.875  25.405  23.374  1.00  0.00     0.053 A 
ATOM     11  O   UNL A   1      33.005  23.642  24.447  1.00  0.00    -0.448 OA
ATOM     12  C   UNL A   1      34.872  24.398  23.467  1.00  0.00     0.059 A 
BRANCH   9  13
ATOM     13  C   UNL A   1      31.377  25.441  24.255  1.00  0.00     0.248 C 
ATOM     14  C   UNL A   1      30.347  24.645  23.433  1.00  0.00     0.084 C 
BRANCH  13  15
ATOM     15  N   UNL A   1      31.185  26.895  24.170  1.00  0.00    -0.320 N 
ATOM     16  H   UNL A   1      31.964  26.677  24.793  1.00  0.00     0.349 HD
BRANCH  15  17
ATOM     17  C   UNL A   1      31.266  27.900  25.236  1.00  0.00     0.178 C 
ATOM     18  C   UNL A   1      31.556  27.493  26.684  1.00  0.00     0.075 C 
ATOM     19  C   UNL A   1      32.225  29.039  24.868  1.00  0.00     0.075 C 
ENDBRANCH  15  17
BRANCH  15  20
ATOM     20  C   UNL A   1      30.723  27.395  22.866  1.00  0.00     0.310 C 
BRANCH  20  21
ATOM     21  C   UNL A   1      29.453  28.214  22.859  1.00  0.00     0.059 A 
ATOM     22  C   UNL A   1      28.192  27.966  23.372  1.00  0.00     0.021 A 
ATOM     23  S   UNL A   1      29.491  29.753  22.081  1.00  0.00    -0.143 S 
ATOM     24  C   UNL A   1      27.270  29.024  23.132  1.00  0.00     0.012 A 
ATOM     25  C   UNL A   1      27.849  30.059  22.438  1.00  0.00     0.065 A 
ENDBRANCH  20  21
ENDBRANCH  15  20
ENDBRANCH  13  15
ENDBRANCH   9  13
ENDBRANCH   6   8
ENDBRANCH   5   6
ENDBRANCH   4   5
ENDBRANCH   3   4
ENDBRANCH   2   3
ENDBRANCH   1   2
BRANCH   1  26
ATOM     26  C   UNL A   1      41.677  20.974  26.529  1.00  0.00     0.188 C 
BRANCH  26  27
ATOM     27  O   UNL A   1      42.360  21.089  25.291  1.00  0.00    -0.376 OA
BRANCH  27  28
ATOM     28  C   UNL A   1      43.764  20.881  25.336  1.00  0.00     0.202 C 
BRANCH  28  29
ATOM     29  C   UNL A   1      44.560  22.190  25.335  1.00  0.00     0.261 C 
BRANCH  29  30
ATOM     30  O   UNL A   1      43.754  23.379  25.283  1.00  0.00    -0.460 OA
BRANCH  30  31
ATOM     31  C   UNL A   1      44.398  24.560  25.405  1.00  0.00     0.338 C 
ATOM     32  O   UNL A   1      45.290  24.994  24.700  1.00  0.00    -0.246 OA
BRANCH  31  33
ATOM     33  C   UNL A   1      43.721  25.332  26.465  1.00  0.00     0.060 A 
ATOM     34  C   UNL A   1      44.127  26.647  26.716  1.00  0.00     0.016 A 
ATOM     35  C   UNL A   1      42.687  24.754  27.207  1.00  0.00     0.016 A 
ATOM     36  C   UNL A   1      43.507  27.385  27.727  1.00  0.00     0.010 A 
ATOM     37  C   UNL A   1      42.079  25.487  28.227  1.00  0.00     0.010 A 
ATOM     38  C   UNL A   1      42.499  26.799  28.505  1.00  0.00    -0.014 A 
BRANCH  38  39
ATOM     39  C   UNL A   1      41.974  27.493  29.704  1.00  0.00     0.031 A 
ATOM     40  C   UNL A   1      40.723  28.315  29.575  1.00  0.00     0.074 A 
ATOM     41  C   UNL A   1      42.609  27.415  30.887  1.00  0.00     0.049 A 
ATOM     42  N   UNL A   1      40.127  29.072  30.461  1.00  0.00    -0.248 NA
ATOM     43  C   UNL A   1      40.055  28.281  28.264  1.00  0.00     0.031 C 
ATOM     44  C   UNL A   1      43.812  26.630  31.151  1.00  0.00     0.029 A 
ATOM     45  N   UNL A   1      42.333  28.027  32.085  1.00  0.00    -0.354 N 
ATOM     46  C   UNL A   1      39.016  29.600  29.819  1.00  0.00     0.074 A 
ATOM     47  C   UNL A   1      39.033  29.100  28.460  1.00  0.00     0.031 C 
ATOM     48  C   UNL A   1      44.185  26.824  32.429  1.00  0.00     0.029 A 
ATOM     49  C   UNL A   1      43.265  27.770  33.060  1.00  0.00     0.049 A 
ATOM     50  H   UNL A   1      41.543  28.597  32.230  1.00  0.00     0.167 HD
ATOM     51  C   UNL A   1      38.064  30.423  30.318  1.00  0.00     0.037 A 
ATOM     52  C   UNL A   1      43.375  28.265  34.308  1.00  0.00     0.037 A 
ATOM     53  C   UNL A   1      38.052  30.932  31.663  1.00  0.00     0.049 A 
ATOM     54  C   UNL A   1      42.351  29.250  34.813  1.00  0.00     0.074 A 
ATOM     55  C   UNL A   1      37.116  31.755  32.266  1.00  0.00     0.029 A 
ATOM     56  N   UNL A   1      39.030  30.675  32.611  1.00  0.00    -0.354 N 
ATOM     57  N   UNL A   1      41.285  29.719  34.212  1.00  0.00    -0.248 NA
ATOM     58  C   UNL A   1      42.549  29.774  36.173  1.00  0.00     0.031 C 
ATOM     59  C   UNL A   1      37.553  32.033  33.567  1.00  0.00     0.029 A 
ATOM     60  C   UNL A   1      38.737  31.347  33.787  1.00  0.00     0.049 A 
ATOM     61  H   UNL A   1      39.817  30.101  32.469  1.00  0.00     0.167 HD
ATOM     62  C   UNL A   1      40.677  30.574  35.121  1.00  0.00     0.074 A 
ATOM     63  C   UNL A   1      41.485  30.550  36.323  1.00  0.00     0.031 C 
ATOM     64  C   UNL A   1      39.550  31.313  34.975  1.00  0.00     0.037 A 
BRANCH  51  65
ATOM     65  C   UNL A   1      36.966  30.843  29.390  1.00  0.00     0.064 A 
ATOM     66  C   UNL A   1      35.917  29.974  29.056  1.00  0.00     0.173 A 
ATOM     67  C   UNL A   1      36.948  32.137  28.849  1.00  0.00     0.173 A 
ATOM     68  F   UNL A   1      35.899  28.722  29.536  1.00  0.00    -0.203 F 
ATOM     69  C   UNL A   1      34.899  30.380  28.197  1.00  0.00     0.198 A 
ATOM     70  C   UNL A   1      35.917  32.547  28.009  1.00  0.00     0.198 A 
ATOM     71  F   UNL A   1      37.929  33.005  29.140  1.00  0.00    -0.203 F 
ATOM     72  F   UNL A   1      33.927  29.520  27.859  1.00  0.00    -0.200 F 
ATOM     73  C   UNL A   1      34.897  31.666  27.679  1.00  0.00     0.200 A 
ATOM     74  F   UNL A   1      35.912  33.792  27.515  1.00  0.00    -0.200 F 
ATOM     75  F   UNL A   1      33.915  32.056  26.854  1.00  0.00    -0.200 F 
ENDBRANCH  51  65
BRANCH  52  76
ATOM     76  C   UNL A   1      44.515  27.860  35.169  1.00  0.00     0.064 A 
ATOM     77  C   UNL A   1      44.375  26.840  36.119  1.00  0.00     0.173 A 
ATOM     78  C   UNL A   1      45.757  28.506  35.080  1.00  0.00     0.173 A 
ATOM     79  F   UNL A   1      43.197  26.215  36.262  1.00  0.00    -0.203 F 
ATOM     80  C   UNL A   1      45.430  26.491  36.959  1.00  0.00     0.198 A 
ATOM     81  C   UNL A   1      46.819  28.138  35.903  1.00  0.00     0.198 A 
ATOM     82  F   UNL A   1      45.937  29.495  34.193  1.00  0.00    -0.203 F 
ATOM     83  F   UNL A   1      45.256  25.545  37.892  1.00  0.00    -0.200 F 
ATOM     84  C   UNL A   1      46.653  27.137  36.848  1.00  0.00     0.200 A 
ATOM     85  F   UNL A   1      47.999  28.764  35.790  1.00  0.00    -0.200 F 
ATOM     86  F   UNL A   1      47.665  26.803  37.659  1.00  0.00    -0.200 F 
ENDBRANCH  52  76
BRANCH  64  87
ATOM     87  C   UNL A   1      39.106  32.138  36.147  1.00  0.00     0.064 A 
ATOM     88  C   UNL A   1      38.262  31.612  37.135  1.00  0.00     0.173 A 
ATOM     89  C   UNL A   1      39.569  33.453  36.308  1.00  0.00     0.173 A 
ATOM     90  F   UNL A   1      37.780  30.366  37.018  1.00  0.00    -0.203 F 
ATOM     91  C   UNL A   1      37.881  32.380  38.234  1.00  0.00     0.198 A 
ATOM     92  C   UNL A   1      39.208  34.208  37.420  1.00  0.00     0.198 A 
ATOM     93  F   UNL A   1      40.384  33.999  35.394  1.00  0.00    -0.203 F 
ATOM     94  F   UNL A   1      37.042  31.872  39.147  1.00  0.00    -0.200 F 
ATOM     95  C   UNL A   1      38.361  33.674  38.379  1.00  0.00     0.200 A 
ATOM     96  F   UNL A   1      39.680  35.454  37.564  1.00  0.00    -0.200 F 
ATOM     97  F   UNL A   1      38.000  34.408  39.440  1.00  0.00    -0.200 F 
ENDBRANCH  64  87
ENDBRANCH  38  39
ENDBRANCH  31  33
ENDBRANCH  30  31
ENDBRANCH  29  30
ENDBRANCH  28  29
ENDBRANCH  27  28
ENDBRANCH  26  27
ENDBRANCH   1  26
TORSDOF 22
ENDMDL
