MODEL 1
REMARK VINA RESULT:     -10.3      0.000      0.000
REMARK SMILES CCC[C@@H](CNC(=O)NCc1c(C)nn(C)c1C)C(=O)OCCOCCOCCOC(=O)c1ccc(-c2c3nc(c(-c4c(F)c(F)c(F)c(F)c4F)c4ccc([nH]4)c(-c4c(F)c(F)c(F)c(F)c4F)c4nc(c(-c5c(F)c(F)c(F)c(F)c5F)c5ccc2[nH]5)C=C4)C=C3)cc1
REMARK SMILES IDX 25 1 24 2 23 3 22 4 21 5 19 6 20 7 4 8 3 9 2 10 1 11 5 12
REMARK SMILES IDX 6 13 7 14 8 16 9 17 10 19 11 20 12 21 17 22 13 23 14 24
REMARK SMILES IDX 15 25 18 26 16 27 26 28 27 29 28 30 29 31 30 32 31 33 32 34
REMARK SMILES IDX 33 35 34 36 95 37 35 38 94 39 36 40 37 41 38 42 88 43 39 44
REMARK SMILES IDX 93 45 87 46 89 47 40 48 92 49 86 50 85 51 41 53 73 54 53 55
REMARK SMILES IDX 72 56 54 57 57 58 71 59 90 60 55 61 56 62 70 64 91 65 58 66
REMARK SMILES IDX 42 67 43 68 51 69 44 70 45 71 49 72 52 73 46 74 47 75 50 76
REMARK SMILES IDX 48 77 74 78 75 79 83 80 76 81 77 82 81 83 84 84 78 85 79 86
REMARK SMILES IDX 82 87 80 88 59 89 60 90 68 91 61 92 62 93 66 94 69 95 63 96
REMARK SMILES IDX 64 97 67 98 65 99
REMARK H PARENT 6 15 9 18 89 52 57 63
REMARK Flexibility Score: inf
ROOT
ATOM      1  C   UNL A   1      31.563  27.670  26.340  1.00  0.00     0.188 C 
ENDROOT
BRANCH   1   2
ATOM      2  O   UNL A   1      32.265  26.474  26.061  1.00  0.00    -0.376 OA
BRANCH   2   3
ATOM      3  C   UNL A   1      33.678  26.510  25.894  1.00  0.00     0.202 C 
BRANCH   3   4
ATOM      4  C   UNL A   1      34.433  25.228  25.494  1.00  0.00     0.261 C 
BRANCH   4   5
ATOM      5  O   UNL A   1      33.646  24.080  25.090  1.00  0.00    -0.463 OA
BRANCH   5   6
ATOM      6  C   UNL A   1      33.956  22.911  25.699  1.00  0.00     0.310 C 
ATOM      7  O   UNL A   1      34.465  22.839  26.816  1.00  0.00    -0.252 OA
BRANCH   6   8
ATOM      8  C   UNL A   1      33.675  21.645  24.902  1.00  0.00     0.118 C 
BRANCH   8   9
ATOM      9  C   UNL A   1      34.566  20.416  25.157  1.00  0.00     0.017 C 
BRANCH   9  10
ATOM     10  C   UNL A   1      36.080  20.721  25.136  1.00  0.00    -0.002 C 
ATOM     11  C   UNL A   1      36.968  19.539  24.753  1.00  0.00     0.004 C 
ENDBRANCH   9  10
ENDBRANCH   8   9
BRANCH   8  12
ATOM     12  C   UNL A   1      32.182  21.300  24.937  1.00  0.00     0.133 C 
BRANCH  12  13
ATOM     13  N   UNL A   1      31.485  21.876  26.063  1.00  0.00    -0.337 N 
ATOM     14  C   UNL A   1      30.829  23.030  26.229  1.00  0.00     0.315 C 
ATOM     15  H   UNL A   1      31.495  21.308  26.867  1.00  0.00     0.165 HD
ATOM     16  O   UNL A   1      30.490  23.341  27.373  1.00  0.00    -0.249 OA
ATOM     17  N   UNL A   1      30.538  23.878  25.241  1.00  0.00    -0.334 N 
ATOM     18  H   UNL A   1      30.174  24.727  25.582  1.00  0.00     0.165 HD
BRANCH  17  19
ATOM     19  C   UNL A   1      30.624  23.869  23.796  1.00  0.00     0.157 C 
BRANCH  19  20
ATOM     20  C   UNL A   1      30.744  25.232  23.215  1.00  0.00     0.015 A 
ATOM     21  C   UNL A   1      31.838  25.725  22.437  1.00  0.00     0.065 A 
ATOM     22  C   UNL A   1      29.891  26.320  23.341  1.00  0.00     0.040 A 
ATOM     23  C   UNL A   1      33.060  25.027  21.955  1.00  0.00     0.069 C 
ATOM     24  N   UNL A   1      31.691  27.020  22.145  1.00  0.00    -0.178 NA
ATOM     25  N   UNL A   1      30.533  27.365  22.729  1.00  0.00    -0.272 N 
ATOM     26  C   UNL A   1      28.566  26.467  23.996  1.00  0.00     0.067 C 
ATOM     27  C   UNL A   1      30.150  28.756  22.704  1.00  0.00     0.174 C 
ENDBRANCH  19  20
ENDBRANCH  17  19
ENDBRANCH  12  13
ENDBRANCH   8  12
ENDBRANCH   6   8
ENDBRANCH   5   6
ENDBRANCH   4   5
ENDBRANCH   3   4
ENDBRANCH   2   3
ENDBRANCH   1   2
BRANCH   1  28
ATOM     28  C   UNL A   1      32.107  29.007  25.842  1.00  0.00     0.188 C 
BRANCH  28  29
ATOM     29  O   UNL A   1      31.916  30.097  26.704  1.00  0.00    -0.376 OA
BRANCH  29  30
ATOM     30  C   UNL A   1      31.274  31.286  26.278  1.00  0.00     0.202 C 
BRANCH  30  31
ATOM     31  C   UNL A   1      31.608  32.665  26.887  1.00  0.00     0.261 C 
BRANCH  31  32
ATOM     32  O   UNL A   1      32.992  32.999  27.085  1.00  0.00    -0.460 OA
BRANCH  32  33
ATOM     33  C   UNL A   1      33.284  33.923  28.039  1.00  0.00     0.338 C 
ATOM     34  O   UNL A   1      32.601  34.866  28.366  1.00  0.00    -0.246 OA
BRANCH  33  35
ATOM     35  C   UNL A   1      34.434  33.388  28.835  1.00  0.00     0.060 A 
ATOM     36  C   UNL A   1      35.735  33.658  28.378  1.00  0.00     0.016 A 
ATOM     37  C   UNL A   1      34.250  32.737  30.056  1.00  0.00     0.016 A 
ATOM     38  C   UNL A   1      36.848  33.222  29.104  1.00  0.00     0.010 A 
ATOM     39  C   UNL A   1      35.364  32.280  30.772  1.00  0.00     0.010 A 
ATOM     40  C   UNL A   1      36.667  32.476  30.276  1.00  0.00    -0.014 A 
BRANCH  40  41
ATOM     41  C   UNL A   1      37.794  31.668  30.818  1.00  0.00     0.031 A 
ATOM     42  C   UNL A   1      38.215  31.936  32.241  1.00  0.00     0.074 A 
ATOM     43  C   UNL A   1      38.420  30.711  30.110  1.00  0.00     0.049 A 
ATOM     44  N   UNL A   1      39.206  31.433  32.933  1.00  0.00    -0.248 NA
ATOM     45  C   UNL A   1      37.402  32.914  32.983  1.00  0.00     0.031 C 
ATOM     46  C   UNL A   1      38.087  30.305  28.749  1.00  0.00     0.029 A 
ATOM     47  N   UNL A   1      39.488  29.913  30.449  1.00  0.00    -0.354 N 
ATOM     48  C   UNL A   1      39.142  32.045  34.178  1.00  0.00     0.074 A 
ATOM     49  C   UNL A   1      38.039  32.979  34.140  1.00  0.00     0.031 C 
ATOM     50  C   UNL A   1      38.944  29.341  28.361  1.00  0.00     0.029 A 
ATOM     51  C   UNL A   1      39.909  29.089  29.432  1.00  0.00     0.049 A 
ATOM     52  H   UNL A   1      39.911  29.930  31.338  1.00  0.00     0.167 HD
ATOM     53  C   UNL A   1      39.924  31.842  35.265  1.00  0.00     0.037 A 
ATOM     54  C   UNL A   1      40.965  28.252  29.369  1.00  0.00     0.037 A 
ATOM     55  C   UNL A   1      41.021  30.914  35.313  1.00  0.00     0.049 A 
ATOM     56  C   UNL A   1      41.878  28.106  30.565  1.00  0.00     0.074 A 
ATOM     57  C   UNL A   1      41.864  30.631  36.373  1.00  0.00     0.029 A 
ATOM     58  N   UNL A   1      41.435  30.125  34.251  1.00  0.00    -0.354 N 
ATOM     59  N   UNL A   1      41.802  28.672  31.745  1.00  0.00    -0.248 NA
ATOM     60  C   UNL A   1      43.028  27.198  30.417  1.00  0.00     0.031 C 
ATOM     61  C   UNL A   1      42.826  29.717  35.934  1.00  0.00     0.029 A 
ATOM     62  C   UNL A   1      42.539  29.375  34.623  1.00  0.00     0.049 A 
ATOM     63  H   UNL A   1      41.007  30.101  33.364  1.00  0.00     0.167 HD
ATOM     64  C   UNL A   1      42.862  28.162  32.489  1.00  0.00     0.074 A 
ATOM     65  C   UNL A   1      43.562  27.231  31.629  1.00  0.00     0.031 C 
ATOM     66  C   UNL A   1      43.220  28.437  33.767  1.00  0.00     0.037 A 
BRANCH  53  67
ATOM     67  C   UNL A   1      39.639  32.668  36.486  1.00  0.00     0.064 A 
ATOM     68  C   UNL A   1      40.367  33.831  36.780  1.00  0.00     0.173 A 
ATOM     69  C   UNL A   1      38.604  32.303  37.361  1.00  0.00     0.173 A 
ATOM     70  F   UNL A   1      41.379  34.215  35.986  1.00  0.00    -0.203 F 
ATOM     71  C   UNL A   1      40.087  34.581  37.920  1.00  0.00     0.198 A 
ATOM     72  C   UNL A   1      38.305  33.074  38.480  1.00  0.00     0.198 A 
ATOM     73  F   UNL A   1      37.877  31.200  37.126  1.00  0.00    -0.203 F 
ATOM     74  F   UNL A   1      40.831  35.657  38.210  1.00  0.00    -0.200 F 
ATOM     75  C   UNL A   1      39.052  34.208  38.763  1.00  0.00     0.200 A 
ATOM     76  F   UNL A   1      37.295  32.720  39.285  1.00  0.00    -0.200 F 
ATOM     77  F   UNL A   1      38.779  34.936  39.854  1.00  0.00    -0.200 F 
ENDBRANCH  53  67
BRANCH  54  78
ATOM     78  C   UNL A   1      41.245  27.488  28.120  1.00  0.00     0.064 A 
ATOM     79  C   UNL A   1      40.726  26.201  27.924  1.00  0.00     0.173 A 
ATOM     80  C   UNL A   1      42.082  28.009  27.122  1.00  0.00     0.173 A 
ATOM     81  F   UNL A   1      39.948  25.642  28.865  1.00  0.00    -0.203 F 
ATOM     82  C   UNL A   1      41.049  25.455  26.791  1.00  0.00     0.198 A 
ATOM     83  C   UNL A   1      42.377  27.277  25.973  1.00  0.00     0.198 A 
ATOM     84  F   UNL A   1      42.616  29.231  27.262  1.00  0.00    -0.203 F 
ATOM     85  F   UNL A   1      40.588  24.204  26.660  1.00  0.00    -0.200 F 
ATOM     86  C   UNL A   1      41.869  25.997  25.813  1.00  0.00     0.200 A 
ATOM     87  F   UNL A   1      43.165  27.807  25.028  1.00  0.00    -0.200 F 
ATOM     88  F   UNL A   1      42.183  25.281  24.725  1.00  0.00    -0.200 F 
ENDBRANCH  54  78
BRANCH  66  89
ATOM     89  C   UNL A   1      44.387  27.684  34.348  1.00  0.00     0.064 A 
ATOM     90  C   UNL A   1      45.686  28.211  34.349  1.00  0.00     0.173 A 
ATOM     91  C   UNL A   1      44.188  26.436  34.959  1.00  0.00     0.173 A 
ATOM     92  F   UNL A   1      45.936  29.396  33.770  1.00  0.00    -0.203 F 
ATOM     93  C   UNL A   1      46.747  27.504  34.913  1.00  0.00     0.198 A 
ATOM     94  C   UNL A   1      45.243  25.748  35.553  1.00  0.00     0.198 A 
ATOM     95  F   UNL A   1      42.964  25.889  34.998  1.00  0.00    -0.203 F 
ATOM     96  F   UNL A   1      47.989  28.004  34.855  1.00  0.00    -0.200 F 
ATOM     97  C   UNL A   1      46.523  26.278  35.521  1.00  0.00     0.200 A 
ATOM     98  F   UNL A   1      45.019  24.574  36.159  1.00  0.00    -0.200 F 
ATOM     99  F   UNL A   1      47.543  25.605  36.072  1.00  0.00    -0.200 F 
ENDBRANCH  66  89
ENDBRANCH  40  41
ENDBRANCH  33  35
ENDBRANCH  32  33
ENDBRANCH  31  32
ENDBRANCH  30  31
ENDBRANCH  29  30
ENDBRANCH  28  29
ENDBRANCH   1  28
TORSDOF 23
ENDMDL
MODEL 2
REMARK VINA RESULT:     -10.0      0.767      2.096
REMARK SMILES CCC[C@@H](CNC(=O)NCc1c(C)nn(C)c1C)C(=O)OCCOCCOCCOC(=O)c1ccc(-c2c3nc(c(-c4c(F)c(F)c(F)c(F)c4F)c4ccc([nH]4)c(-c4c(F)c(F)c(F)c(F)c4F)c4nc(c(-c5c(F)c(F)c(F)c(F)c5F)c5ccc2[nH]5)C=C4)C=C3)cc1
REMARK SMILES IDX 25 1 24 2 23 3 22 4 21 5 19 6 20 7 4 8 3 9 2 10 1 11 5 12
REMARK SMILES IDX 6 13 7 14 8 16 9 17 10 19 11 20 12 21 17 22 13 23 14 24
REMARK SMILES IDX 15 25 18 26 16 27 26 28 27 29 28 30 29 31 30 32 31 33 32 34
REMARK SMILES IDX 33 35 34 36 95 37 35 38 94 39 36 40 37 41 38 42 88 43 39 44
REMARK SMILES IDX 93 45 87 46 89 47 40 48 92 49 86 50 85 51 41 53 73 54 53 55
REMARK SMILES IDX 72 56 54 57 57 58 71 59 90 60 55 61 56 62 70 64 91 65 58 66
REMARK SMILES IDX 42 67 43 68 51 69 44 70 45 71 49 72 52 73 46 74 47 75 50 76
REMARK SMILES IDX 48 77 74 78 75 79 83 80 76 81 77 82 81 83 84 84 78 85 79 86
REMARK SMILES IDX 82 87 80 88 59 89 60 90 68 91 61 92 62 93 66 94 69 95 63 96
REMARK SMILES IDX 64 97 67 98 65 99
REMARK H PARENT 6 15 9 18 89 52 57 63
REMARK Flexibility Score: inf
ROOT
ATOM      1  C   UNL A   1      32.805  27.413  26.721  1.00  0.00     0.188 C 
ENDROOT
BRANCH   1   2
ATOM      2  O   UNL A   1      33.055  26.069  26.355  1.00  0.00    -0.376 OA
BRANCH   2   3
ATOM      3  C   UNL A   1      34.168  25.762  25.524  1.00  0.00     0.202 C 
BRANCH   3   4
ATOM      4  C   UNL A   1      34.710  24.320  25.475  1.00  0.00     0.261 C 
BRANCH   4   5
ATOM      5  O   UNL A   1      33.808  23.275  25.033  1.00  0.00    -0.463 OA
BRANCH   5   6
ATOM      6  C   UNL A   1      34.203  22.007  25.296  1.00  0.00     0.310 C 
ATOM      7  O   UNL A   1      35.140  21.727  26.041  1.00  0.00    -0.252 OA
BRANCH   6   8
ATOM      8  C   UNL A   1      33.441  20.905  24.574  1.00  0.00     0.118 C 
BRANCH   8   9
ATOM      9  C   UNL A   1      33.834  19.445  24.863  1.00  0.00     0.017 C 
BRANCH   9  10
ATOM     10  C   UNL A   1      32.717  18.613  25.529  1.00  0.00    -0.002 C 
ATOM     11  C   UNL A   1      32.949  17.103  25.523  1.00  0.00     0.004 C 
ENDBRANCH   9  10
ENDBRANCH   8   9
BRANCH   8  12
ATOM     12  C   UNL A   1      31.929  21.132  24.677  1.00  0.00     0.133 C 
BRANCH  12  13
ATOM     13  N   UNL A   1      31.527  21.781  25.903  1.00  0.00    -0.337 N 
ATOM     14  C   UNL A   1      31.088  23.015  26.174  1.00  0.00     0.315 C 
ATOM     15  H   UNL A   1      31.588  21.200  26.695  1.00  0.00     0.165 HD
ATOM     16  O   UNL A   1      30.999  23.348  27.358  1.00  0.00    -0.249 OA
ATOM     17  N   UNL A   1      30.766  23.919  25.247  1.00  0.00    -0.334 N 
ATOM     18  H   UNL A   1      30.595  24.804  25.642  1.00  0.00     0.165 HD
BRANCH  17  19
ATOM     19  C   UNL A   1      30.603  23.929  23.808  1.00  0.00     0.157 C 
BRANCH  19  20
ATOM     20  C   UNL A   1      31.357  25.028  23.148  1.00  0.00     0.015 A 
ATOM     21  C   UNL A   1      32.471  24.876  22.266  1.00  0.00     0.065 A 
ATOM     22  C   UNL A   1      31.204  26.401  23.280  1.00  0.00     0.040 A 
ATOM     23  C   UNL A   1      33.107  23.641  21.732  1.00  0.00     0.069 C 
ATOM     24  N   UNL A   1      32.988  26.057  21.917  1.00  0.00    -0.178 NA
ATOM     25  N   UNL A   1      32.234  26.956  22.567  1.00  0.00    -0.272 N 
ATOM     26  C   UNL A   1      30.211  27.219  24.024  1.00  0.00     0.067 C 
ATOM     27  C   UNL A   1      32.625  28.344  22.497  1.00  0.00     0.174 C 
ENDBRANCH  19  20
ENDBRANCH  17  19
ENDBRANCH  12  13
ENDBRANCH   8  12
ENDBRANCH   6   8
ENDBRANCH   5   6
ENDBRANCH   4   5
ENDBRANCH   3   4
ENDBRANCH   2   3
ENDBRANCH   1   2
BRANCH   1  28
ATOM     28  C   UNL A   1      33.332  28.551  25.849  1.00  0.00     0.188 C 
BRANCH  28  29
ATOM     29  O   UNL A   1      33.244  29.833  26.411  1.00  0.00    -0.376 OA
BRANCH  29  30
ATOM     30  C   UNL A   1      32.007  30.512  26.540  1.00  0.00     0.202 C 
BRANCH  30  31
ATOM     31  C   UNL A   1      31.918  31.977  27.019  1.00  0.00     0.261 C 
BRANCH  31  32
ATOM     32  O   UNL A   1      33.104  32.786  26.941  1.00  0.00    -0.460 OA
BRANCH  32  33
ATOM     33  C   UNL A   1      33.304  33.702  27.927  1.00  0.00     0.338 C 
ATOM     34  O   UNL A   1      32.545  34.580  28.263  1.00  0.00    -0.246 OA
BRANCH  33  35
ATOM     35  C   UNL A   1      34.473  33.230  28.735  1.00  0.00     0.060 A 
ATOM     36  C   UNL A   1      35.759  33.398  28.195  1.00  0.00     0.016 A 
ATOM     37  C   UNL A   1      34.326  32.742  30.035  1.00  0.00     0.016 A 
ATOM     38  C   UNL A   1      36.891  33.017  28.923  1.00  0.00     0.010 A 
ATOM     39  C   UNL A   1      35.458  32.339  30.756  1.00  0.00     0.010 A 
ATOM     40  C   UNL A   1      36.742  32.429  30.186  1.00  0.00    -0.014 A 
BRANCH  40  41
ATOM     41  C   UNL A   1      37.869  31.656  30.778  1.00  0.00     0.031 A 
ATOM     42  C   UNL A   1      38.253  31.975  32.201  1.00  0.00     0.074 A 
ATOM     43  C   UNL A   1      38.526  30.688  30.114  1.00  0.00     0.049 A 
ATOM     44  N   UNL A   1      39.237  31.510  32.929  1.00  0.00    -0.248 NA
ATOM     45  C   UNL A   1      37.409  32.963  32.893  1.00  0.00     0.031 C 
ATOM     46  C   UNL A   1      38.230  30.234  28.759  1.00  0.00     0.029 A 
ATOM     47  N   UNL A   1      39.598  29.918  30.502  1.00  0.00    -0.354 N 
ATOM     48  C   UNL A   1      39.135  32.159  34.153  1.00  0.00     0.074 A 
ATOM     49  C   UNL A   1      38.019  33.073  34.062  1.00  0.00     0.031 C 
ATOM     50  C   UNL A   1      39.110  29.273  28.421  1.00  0.00     0.029 A 
ATOM     51  C   UNL A   1      40.055  29.070  29.521  1.00  0.00     0.049 A 
ATOM     52  H   UNL A   1      40.001  29.969  31.398  1.00  0.00     0.167 HD
ATOM     53  C   UNL A   1      39.895  32.002  35.263  1.00  0.00     0.037 A 
ATOM     54  C   UNL A   1      41.124  28.249  29.507  1.00  0.00     0.037 A 
ATOM     55  C   UNL A   1      41.005  31.094  35.364  1.00  0.00     0.049 A 
ATOM     56  C   UNL A   1      42.013  28.155  30.727  1.00  0.00     0.074 A 
ATOM     57  C   UNL A   1      41.828  30.858  36.451  1.00  0.00     0.029 A 
ATOM     58  N   UNL A   1      41.455  30.280  34.337  1.00  0.00    -0.354 N 
ATOM     59  N   UNL A   1      41.901  28.756  31.887  1.00  0.00    -0.248 NA
ATOM     60  C   UNL A   1      43.179  27.261  30.633  1.00  0.00     0.031 C 
ATOM     61  C   UNL A   1      42.814  29.946  36.062  1.00  0.00     0.029 A 
ATOM     62  C   UNL A   1      42.562  29.559  34.756  1.00  0.00     0.049 A 
ATOM     63  H   UNL A   1      41.048  30.221  33.442  1.00  0.00     0.167 HD
ATOM     64  C   UNL A   1      42.952  28.286  32.669  1.00  0.00     0.074 A 
ATOM     65  C   UNL A   1      43.686  27.341  31.855  1.00  0.00     0.031 C 
ATOM     66  C   UNL A   1      43.276  28.606  33.946  1.00  0.00     0.037 A 
BRANCH  53  67
ATOM     67  C   UNL A   1      39.569  32.861  36.451  1.00  0.00     0.064 A 
ATOM     68  C   UNL A   1      38.609  32.479  37.400  1.00  0.00     0.173 A 
ATOM     69  C   UNL A   1      40.247  34.073  36.654  1.00  0.00     0.173 A 
ATOM     70  F   UNL A   1      37.918  31.339  37.244  1.00  0.00    -0.203 F 
ATOM     71  C   UNL A   1      38.320  33.293  38.494  1.00  0.00     0.198 A 
ATOM     72  C   UNL A   1      39.981  34.866  37.767  1.00  0.00     0.198 A 
ATOM     73  F   UNL A   1      41.175  34.484  35.777  1.00  0.00    -0.203 F 
ATOM     74  F   UNL A   1      37.361  32.935  39.358  1.00  0.00    -0.200 F 
ATOM     75  C   UNL A   1      39.012  34.479  38.681  1.00  0.00     0.200 A 
ATOM     76  F   UNL A   1      40.662  36.004  37.953  1.00  0.00    -0.200 F 
ATOM     77  F   UNL A   1      38.740  35.256  39.738  1.00  0.00    -0.200 F 
ENDBRANCH  53  67
BRANCH  54  78
ATOM     78  C   UNL A   1      41.444  27.451  28.289  1.00  0.00     0.064 A 
ATOM     79  C   UNL A   1      42.335  27.932  27.318  1.00  0.00     0.173 A 
ATOM     80  C   UNL A   1      40.825  26.216  28.046  1.00  0.00     0.173 A 
ATOM     81  F   UNL A   1      42.926  29.125  27.486  1.00  0.00    -0.203 F 
ATOM     82  C   UNL A   1      42.576  27.222  26.143  1.00  0.00     0.198 A 
ATOM     83  C   UNL A   1      41.093  25.490  26.887  1.00  0.00     0.198 A 
ATOM     84  F   UNL A   1      39.956  25.713  28.935  1.00  0.00    -0.203 F 
ATOM     85  F   UNL A   1      43.383  27.736  25.206  1.00  0.00    -0.200 F 
ATOM     86  C   UNL A   1      41.960  25.998  25.931  1.00  0.00     0.200 A 
ATOM     87  F   UNL A   1      40.500  24.305  26.690  1.00  0.00    -0.200 F 
ATOM     88  F   UNL A   1      42.189  25.316  24.801  1.00  0.00    -0.200 F 
ENDBRANCH  54  78
BRANCH  66  89
ATOM     89  C   UNL A   1      44.441  27.891  34.576  1.00  0.00     0.064 A 
ATOM     90  C   UNL A   1      44.286  26.682  35.270  1.00  0.00     0.173 A 
ATOM     91  C   UNL A   1      45.741  28.402  34.438  1.00  0.00     0.173 A 
ATOM     92  F   UNL A   1      43.065  26.153  35.440  1.00  0.00    -0.203 F 
ATOM     93  C   UNL A   1      45.384  26.028  35.826  1.00  0.00     0.198 A 
ATOM     94  C   UNL A   1      46.840  27.729  34.964  1.00  0.00     0.198 A 
ATOM     95  F   UNL A   1      45.951  29.549  33.775  1.00  0.00    -0.203 F 
ATOM     96  F   UNL A   1      45.204  24.901  36.530  1.00  0.00    -0.200 F 
ATOM     97  C   UNL A   1      46.659  26.547  35.666  1.00  0.00     0.200 A 
ATOM     98  F   UNL A   1      48.074  28.222  34.789  1.00  0.00    -0.200 F 
ATOM     99  F   UNL A   1      47.715  25.911  36.193  1.00  0.00    -0.200 F 
ENDBRANCH  66  89
ENDBRANCH  40  41
ENDBRANCH  33  35
ENDBRANCH  32  33
ENDBRANCH  31  32
ENDBRANCH  30  31
ENDBRANCH  29  30
ENDBRANCH  28  29
ENDBRANCH   1  28
TORSDOF 23
ENDMDL
MODEL 3
REMARK VINA RESULT:      -9.9      4.602     10.204
REMARK SMILES CCC[C@@H](CNC(=O)NCc1c(C)nn(C)c1C)C(=O)OCCOCCOCCOC(=O)c1ccc(-c2c3nc(c(-c4c(F)c(F)c(F)c(F)c4F)c4ccc([nH]4)c(-c4c(F)c(F)c(F)c(F)c4F)c4nc(c(-c5c(F)c(F)c(F)c(F)c5F)c5ccc2[nH]5)C=C4)C=C3)cc1
REMARK SMILES IDX 25 1 24 2 23 3 22 4 21 5 19 6 20 7 4 8 3 9 2 10 1 11 5 12
REMARK SMILES IDX 6 13 7 14 8 16 9 17 10 19 11 20 12 21 17 22 13 23 14 24
REMARK SMILES IDX 15 25 18 26 16 27 26 28 27 29 28 30 29 31 30 32 31 33 32 34
REMARK SMILES IDX 33 35 34 36 95 37 35 38 94 39 36 40 37 41 38 42 88 43 39 44
REMARK SMILES IDX 93 45 87 46 89 47 40 48 92 49 86 50 85 51 41 53 73 54 53 55
REMARK SMILES IDX 72 56 54 57 57 58 71 59 90 60 55 61 56 62 70 64 91 65 58 66
REMARK SMILES IDX 42 67 43 68 51 69 44 70 45 71 49 72 52 73 46 74 47 75 50 76
REMARK SMILES IDX 48 77 74 78 75 79 83 80 76 81 77 82 81 83 84 84 78 85 79 86
REMARK SMILES IDX 82 87 80 88 59 89 60 90 68 91 61 92 62 93 66 94 69 95 63 96
REMARK SMILES IDX 64 97 67 98 65 99
REMARK H PARENT 6 15 9 18 89 52 57 63
REMARK Flexibility Score: inf
ROOT
ATOM      1  C   UNL A   1      36.293  21.091  25.479  1.00  0.00     0.188 C 
ENDROOT
BRANCH   1   2
ATOM      2  O   UNL A   1      35.435  20.495  24.524  1.00  0.00    -0.376 OA
BRANCH   2   3
ATOM      3  C   UNL A   1      34.488  19.519  24.941  1.00  0.00     0.202 C 
BRANCH   3   4
ATOM      4  C   UNL A   1      33.029  19.613  24.455  1.00  0.00     0.261 C 
BRANCH   4   5
ATOM      5  O   UNL A   1      32.124  20.467  25.198  1.00  0.00    -0.463 OA
BRANCH   5   6
ATOM      6  C   UNL A   1      32.596  21.699  25.502  1.00  0.00     0.310 C 
ATOM      7  O   UNL A   1      33.118  21.982  26.578  1.00  0.00    -0.252 OA
BRANCH   6   8
ATOM      8  C   UNL A   1      32.410  22.769  24.435  1.00  0.00     0.118 C 
BRANCH   8   9
ATOM      9  C   UNL A   1      32.962  22.490  23.026  1.00  0.00     0.017 C 
BRANCH   9  10
ATOM     10  C   UNL A   1      34.377  23.056  22.781  1.00  0.00    -0.002 C 
ATOM     11  C   UNL A   1      34.686  24.357  23.519  1.00  0.00     0.004 C 
ENDBRANCH   9  10
ENDBRANCH   8   9
BRANCH   8  12
ATOM     12  C   UNL A   1      30.958  23.261  24.405  1.00  0.00     0.133 C 
BRANCH  12  13
ATOM     13  N   UNL A   1      30.291  23.161  25.682  1.00  0.00    -0.337 N 
ATOM     14  C   UNL A   1      29.748  24.074  26.495  1.00  0.00     0.315 C 
ATOM     15  H   UNL A   1      30.222  22.239  26.021  1.00  0.00     0.165 HD
ATOM     16  O   UNL A   1      29.410  23.711  27.625  1.00  0.00    -0.249 OA
ATOM     17  N   UNL A   1      29.571  25.357  26.174  1.00  0.00    -0.334 N 
ATOM     18  H   UNL A   1      29.283  25.892  26.949  1.00  0.00     0.165 HD
BRANCH  17  19
ATOM     19  C   UNL A   1      29.695  26.161  24.977  1.00  0.00     0.157 C 
BRANCH  19  20
ATOM     20  C   UNL A   1      31.045  26.768  24.826  1.00  0.00     0.015 A 
ATOM     21  C   UNL A   1      31.761  27.493  25.828  1.00  0.00     0.065 A 
ATOM     22  C   UNL A   1      31.861  26.828  23.705  1.00  0.00     0.040 A 
ATOM     23  C   UNL A   1      31.410  27.764  27.249  1.00  0.00     0.069 C 
ATOM     24  N   UNL A   1      32.905  27.994  25.352  1.00  0.00    -0.178 NA
ATOM     25  N   UNL A   1      32.925  27.613  24.066  1.00  0.00    -0.272 N 
ATOM     26  C   UNL A   1      31.718  26.247  22.345  1.00  0.00     0.067 C 
ATOM     27  C   UNL A   1      33.988  28.114  23.228  1.00  0.00     0.174 C 
ENDBRANCH  19  20
ENDBRANCH  17  19
ENDBRANCH  12  13
ENDBRANCH   8  12
ENDBRANCH   6   8
ENDBRANCH   5   6
ENDBRANCH   4   5
ENDBRANCH   3   4
ENDBRANCH   2   3
ENDBRANCH   1   2
BRANCH   1  28
ATOM     28  C   UNL A   1      37.531  21.857  25.017  1.00  0.00     0.188 C 
BRANCH  28  29
ATOM     29  O   UNL A   1      38.755  21.381  25.512  1.00  0.00    -0.376 OA
BRANCH  29  30
ATOM     30  C   UNL A   1      38.920  20.039  25.936  1.00  0.00     0.202 C 
BRANCH  30  31
ATOM     31  C   UNL A   1      40.251  19.277  25.756  1.00  0.00     0.261 C 
BRANCH  31  32
ATOM     32  O   UNL A   1      41.261  19.433  26.768  1.00  0.00    -0.460 OA
BRANCH  32  33
ATOM     33  C   UNL A   1      42.452  19.970  26.388  1.00  0.00     0.338 C 
ATOM     34  O   UNL A   1      43.279  19.460  25.669  1.00  0.00    -0.246 OA
BRANCH  33  35
ATOM     35  C   UNL A   1      42.412  21.424  26.743  1.00  0.00     0.060 A 
ATOM     36  C   UNL A   1      42.012  22.335  25.750  1.00  0.00     0.016 A 
ATOM     37  C   UNL A   1      42.648  21.876  28.043  1.00  0.00     0.016 A 
ATOM     38  C   UNL A   1      41.913  23.700  26.038  1.00  0.00     0.010 A 
ATOM     39  C   UNL A   1      42.571  23.246  28.325  1.00  0.00     0.010 A 
ATOM     40  C   UNL A   1      42.252  24.171  27.313  1.00  0.00    -0.014 A 
BRANCH  40  41
ATOM     41  C   UNL A   1      42.550  25.616  27.511  1.00  0.00     0.031 A 
ATOM     42  C   UNL A   1      43.863  26.130  26.977  1.00  0.00     0.074 A 
ATOM     43  C   UNL A   1      41.700  26.467  28.115  1.00  0.00     0.049 A 
ATOM     44  N   UNL A   1      44.403  27.318  27.078  1.00  0.00    -0.248 NA
ATOM     45  C   UNL A   1      44.681  25.161  26.228  1.00  0.00     0.031 C 
ATOM     46  C   UNL A   1      40.378  26.126  28.629  1.00  0.00     0.029 A 
ATOM     47  N   UNL A   1      41.842  27.804  28.405  1.00  0.00    -0.354 N 
ATOM     48  C   UNL A   1      45.624  27.232  26.421  1.00  0.00     0.074 A 
ATOM     49  C   UNL A   1      45.763  25.871  25.954  1.00  0.00     0.031 C 
ATOM     50  C   UNL A   1      39.833  27.224  29.187  1.00  0.00     0.029 A 
ATOM     51  C   UNL A   1      40.783  28.335  29.102  1.00  0.00     0.049 A 
ATOM     52  H   UNL A   1      42.629  28.332  28.138  1.00  0.00     0.167 HD
ATOM     53  C   UNL A   1      46.547  28.201  26.212  1.00  0.00     0.037 A 
ATOM     54  C   UNL A   1      40.615  29.564  29.631  1.00  0.00     0.037 A 
ATOM     55  C   UNL A   1      46.416  29.557  26.671  1.00  0.00     0.049 A 
ATOM     56  C   UNL A   1      41.698  30.606  29.462  1.00  0.00     0.074 A 
ATOM     57  C   UNL A   1      47.294  30.613  26.498  1.00  0.00     0.029 A 
ATOM     58  N   UNL A   1      45.344  30.043  27.402  1.00  0.00    -0.354 N 
ATOM     59  N   UNL A   1      42.840  30.524  28.824  1.00  0.00    -0.248 NA
ATOM     60  C   UNL A   1      41.462  31.917  30.089  1.00  0.00     0.031 C 
ATOM     61  C   UNL A   1      46.782  31.722  27.177  1.00  0.00     0.029 A 
ATOM     62  C   UNL A   1      45.551  31.378  27.712  1.00  0.00     0.049 A 
ATOM     63  H   UNL A   1      44.553  29.518  27.662  1.00  0.00     0.167 HD
ATOM     64  C   UNL A   1      43.438  31.776  28.938  1.00  0.00     0.074 A 
ATOM     65  C   UNL A   1      42.526  32.604  29.698  1.00  0.00     0.031 C 
ATOM     66  C   UNL A   1      44.630  32.201  28.453  1.00  0.00     0.037 A 
BRANCH  53  67
ATOM     67  C   UNL A   1      47.800  27.816  25.480  1.00  0.00     0.064 A 
ATOM     68  C   UNL A   1      48.960  27.413  26.159  1.00  0.00     0.173 A 
ATOM     69  C   UNL A   1      47.832  27.826  24.077  1.00  0.00     0.173 A 
ATOM     70  F   UNL A   1      48.990  27.403  27.501  1.00  0.00    -0.203 F 
ATOM     71  C   UNL A   1      50.114  27.063  25.460  1.00  0.00     0.198 A 
ATOM     72  C   UNL A   1      48.974  27.442  23.382  1.00  0.00     0.198 A 
ATOM     73  F   UNL A   1      46.749  28.203  23.379  1.00  0.00    -0.203 F 
ATOM     74  F   UNL A   1      51.227  26.735  26.130  1.00  0.00    -0.200 F 
ATOM     75  C   UNL A   1      50.117  27.068  24.074  1.00  0.00     0.200 A 
ATOM     76  F   UNL A   1      48.970  27.434  22.043  1.00  0.00    -0.200 F 
ATOM     77  F   UNL A   1      51.224  26.722  23.403  1.00  0.00    -0.200 F 
ENDBRANCH  53  67
BRANCH  54  78
ATOM     78  C   UNL A   1      39.379  29.892  30.396  1.00  0.00     0.064 A 
ATOM     79  C   UNL A   1      39.305  29.687  31.781  1.00  0.00     0.173 A 
ATOM     80  C   UNL A   1      38.228  30.366  29.749  1.00  0.00     0.173 A 
ATOM     81  F   UNL A   1      40.367  29.201  32.443  1.00  0.00    -0.203 F 
ATOM     82  C   UNL A   1      38.125  29.921  32.485  1.00  0.00     0.198 A 
ATOM     83  C   UNL A   1      37.058  30.632  30.458  1.00  0.00     0.198 A 
ATOM     84  F   UNL A   1      38.237  30.569  28.423  1.00  0.00    -0.203 F 
ATOM     85  F   UNL A   1      38.066  29.657  33.797  1.00  0.00    -0.200 F 
ATOM     86  C   UNL A   1      37.004  30.399  31.824  1.00  0.00     0.200 A 
ATOM     87  F   UNL A   1      35.980  31.101  29.816  1.00  0.00    -0.200 F 
ATOM     88  F   UNL A   1      35.868  30.621  32.499  1.00  0.00    -0.200 F 
ENDBRANCH  54  78
BRANCH  66  89
ATOM     89  C   UNL A   1      45.006  33.642  28.672  1.00  0.00     0.064 A 
ATOM     90  C   UNL A   1      45.790  34.050  29.762  1.00  0.00     0.173 A 
ATOM     91  C   UNL A   1      44.614  34.622  27.747  1.00  0.00     0.173 A 
ATOM     92  F   UNL A   1      46.184  33.157  30.682  1.00  0.00    -0.203 F 
ATOM     93  C   UNL A   1      46.142  35.388  29.930  1.00  0.00     0.198 A 
ATOM     94  C   UNL A   1      44.997  35.952  27.899  1.00  0.00     0.198 A 
ATOM     95  F   UNL A   1      43.873  34.287  26.680  1.00  0.00    -0.203 F 
ATOM     96  F   UNL A   1      46.848  35.762  31.007  1.00  0.00    -0.200 F 
ATOM     97  C   UNL A   1      45.753  36.335  28.996  1.00  0.00     0.200 A 
ATOM     98  F   UNL A   1      44.637  36.861  26.983  1.00  0.00    -0.200 F 
ATOM     99  F   UNL A   1      46.101  37.620  29.155  1.00  0.00    -0.200 F 
ENDBRANCH  66  89
ENDBRANCH  40  41
ENDBRANCH  33  35
ENDBRANCH  32  33
ENDBRANCH  31  32
ENDBRANCH  30  31
ENDBRANCH  29  30
ENDBRANCH  28  29
ENDBRANCH   1  28
TORSDOF 23
ENDMDL
