MODEL 1
REMARK VINA RESULT:     -10.0      0.000      0.000
REMARK SMILES CN(Cc1ccc(Cl)cc1Cl)S(=O)(=O)CCCC(=O)OCCOCCOCCOC(=O)c1ccc(-c2c3nc(c(-c4c(F)c(F)c(F)c(F)c4F)c4ccc([nH]4)c(-c4c(F)c(F)c(F)c(F)c4F)c4nc(c(-c5c(F)c(F)c(F)c(F)c5F)c5ccc2[nH]5)C=C4)C=C3)cc1
REMARK SMILES IDX 22 1 21 2 20 3 18 4 19 5 17 6 16 7 15 8 12 9 13 10 14 11
REMARK SMILES IDX 2 12 1 13 3 14 4 15 5 16 10 17 6 18 9 19 11 20 7 21 8 22
REMARK SMILES IDX 23 23 24 24 25 25 26 26 27 27 28 28 29 29 30 30 31 31 32 32
REMARK SMILES IDX 33 33 94 34 34 35 93 36 35 37 36 38 37 39 87 40 38 41 92 42
REMARK SMILES IDX 86 43 88 44 39 45 91 46 85 47 84 48 40 50 72 51 52 52 71 53
REMARK SMILES IDX 53 54 56 55 70 56 89 57 54 58 55 59 69 61 90 62 57 63 41 64
REMARK SMILES IDX 42 65 50 66 43 67 44 68 48 69 51 70 45 71 46 72 49 73 47 74
REMARK SMILES IDX 73 75 74 76 82 77 75 78 76 79 80 80 83 81 77 82 78 83 81 84
REMARK SMILES IDX 79 85 58 86 59 87 67 88 60 89 61 90 65 91 68 92 62 93 63 94
REMARK SMILES IDX 66 95 64 96
REMARK H PARENT 88 49 56 60
REMARK Flexibility Score: inf
ROOT
ATOM      1  C   UNL A   1      35.893  30.585  27.696  1.00  0.00     0.202 C 
ENDROOT
BRANCH   1   2
ATOM      2  C   UNL A   1      34.747  29.593  27.457  1.00  0.00     0.261 C 
BRANCH   2   3
ATOM      3  O   UNL A   1      33.581  30.170  26.825  1.00  0.00    -0.463 OA
BRANCH   3   4
ATOM      4  C   UNL A   1      33.039  29.494  25.786  1.00  0.00     0.305 C 
ATOM      5  O   UNL A   1      33.618  29.307  24.721  1.00  0.00    -0.252 OA
BRANCH   4   6
ATOM      6  C   UNL A   1      31.663  28.899  26.052  1.00  0.00     0.124 C 
BRANCH   6   7
ATOM      7  C   UNL A   1      31.403  27.612  26.838  1.00  0.00     0.029 C 
BRANCH   7   8
ATOM      8  C   UNL A   1      32.075  26.312  26.430  1.00  0.00     0.155 C 
BRANCH   8   9
ATOM      9  S   UNL A   1      31.028  24.873  26.340  1.00  0.00     0.214 S 
ATOM     10  O   UNL A   1      29.674  25.368  26.494  1.00  0.00    -0.212 OA
ATOM     11  O   UNL A   1      31.565  23.888  27.251  1.00  0.00    -0.212 OA
BRANCH   9  12
ATOM     12  N   UNL A   1      31.211  24.324  24.775  1.00  0.00    -0.201 NA
ATOM     13  C   UNL A   1      32.277  23.386  24.408  1.00  0.00     0.124 C 
BRANCH  12  14
ATOM     14  C   UNL A   1      30.362  24.791  23.678  1.00  0.00     0.138 C 
BRANCH  14  15
ATOM     15  C   UNL A   1      30.300  26.253  23.309  1.00  0.00    -0.014 A 
ATOM     16  C   UNL A   1      29.044  26.873  23.519  1.00  0.00     0.008 A 
ATOM     17  C   UNL A   1      31.340  27.042  22.803  1.00  0.00     0.047 A 
ATOM     18  C   UNL A   1      28.807  28.193  23.142  1.00  0.00     0.021 A 
ATOM     19  C   UNL A   1      31.092  28.358  22.390  1.00  0.00     0.041 A 
ATOM     20  Cl  UNL A   1      32.980  26.515  22.695  1.00  0.00    -0.084 Cl
ATOM     21  C   UNL A   1      29.827  28.919  22.546  1.00  0.00     0.042 A 
ATOM     22  Cl  UNL A   1      29.529  30.528  22.019  1.00  0.00    -0.084 Cl
ENDBRANCH  14  15
ENDBRANCH  12  14
ENDBRANCH   9  12
ENDBRANCH   8   9
ENDBRANCH   7   8
ENDBRANCH   6   7
ENDBRANCH   4   6
ENDBRANCH   3   4
ENDBRANCH   2   3
ENDBRANCH   1   2
BRANCH   1  23
ATOM     23  O   UNL A   1      35.585  31.970  27.617  1.00  0.00    -0.376 OA
BRANCH  23  24
ATOM     24  C   UNL A   1      36.351  32.889  28.388  1.00  0.00     0.188 C 
BRANCH  24  25
ATOM     25  C   UNL A   1      35.632  33.874  29.329  1.00  0.00     0.188 C 
BRANCH  25  26
ATOM     26  O   UNL A   1      34.224  33.794  29.302  1.00  0.00    -0.376 OA
BRANCH  26  27
ATOM     27  C   UNL A   1      33.542  34.874  28.685  1.00  0.00     0.202 C 
BRANCH  27  28
ATOM     28  C   UNL A   1      32.900  35.872  29.660  1.00  0.00     0.261 C 
BRANCH  28  29
ATOM     29  O   UNL A   1      32.320  35.297  30.847  1.00  0.00    -0.460 OA
BRANCH  29  30
ATOM     30  C   UNL A   1      32.657  35.848  32.038  1.00  0.00     0.338 C 
ATOM     31  O   UNL A   1      32.007  36.652  32.681  1.00  0.00    -0.246 OA
BRANCH  30  32
ATOM     32  C   UNL A   1      33.824  35.093  32.560  1.00  0.00     0.060 A 
ATOM     33  C   UNL A   1      35.092  35.697  32.534  1.00  0.00     0.016 A 
ATOM     34  C   UNL A   1      33.662  33.828  33.125  1.00  0.00     0.016 A 
ATOM     35  C   UNL A   1      36.203  35.026  33.054  1.00  0.00     0.010 A 
ATOM     36  C   UNL A   1      34.778  33.147  33.623  1.00  0.00     0.010 A 
ATOM     37  C   UNL A   1      36.058  33.730  33.565  1.00  0.00    -0.014 A 
BRANCH  37  38
ATOM     38  C   UNL A   1      37.255  32.892  33.830  1.00  0.00     0.031 A 
ATOM     39  C   UNL A   1      38.030  33.152  35.094  1.00  0.00     0.074 A 
ATOM     40  C   UNL A   1      37.661  31.931  32.982  1.00  0.00     0.049 A 
ATOM     41  N   UNL A   1      39.157  32.634  35.507  1.00  0.00    -0.248 NA
ATOM     42  C   UNL A   1      37.450  34.144  36.015  1.00  0.00     0.031 C 
ATOM     43  C   UNL A   1      36.981  31.544  31.750  1.00  0.00     0.029 A 
ATOM     44  N   UNL A   1      38.767  31.114  33.029  1.00  0.00    -0.354 N 
ATOM     45  C   UNL A   1      39.426  33.244  36.725  1.00  0.00     0.074 A 
ATOM     46  C   UNL A   1      38.363  34.192  36.972  1.00  0.00     0.031 C 
ATOM     47  C   UNL A   1      37.694  30.576  31.145  1.00  0.00     0.029 A 
ATOM     48  C   UNL A   1      38.899  30.302  31.928  1.00  0.00     0.049 A 
ATOM     49  H   UNL A   1      39.402  31.111  33.781  1.00  0.00     0.167 HD
ATOM     50  C   UNL A   1      40.464  33.029  37.567  1.00  0.00     0.037 A 
ATOM     51  C   UNL A   1      39.894  29.461  31.583  1.00  0.00     0.037 A 
ATOM     52  C   UNL A   1      41.525  32.090  37.322  1.00  0.00     0.049 A 
ATOM     53  C   UNL A   1      41.086  29.300  32.498  1.00  0.00     0.074 A 
ATOM     54  C   UNL A   1      42.613  31.790  38.123  1.00  0.00     0.029 A 
ATOM     55  N   UNL A   1      41.637  31.305  36.185  1.00  0.00    -0.354 N 
ATOM     56  N   UNL A   1      41.324  29.861  33.659  1.00  0.00    -0.248 NA
ATOM     57  C   UNL A   1      42.147  28.384  32.053  1.00  0.00     0.031 C 
ATOM     58  C   UNL A   1      43.416  30.869  37.442  1.00  0.00     0.029 A 
ATOM     59  C   UNL A   1      42.792  30.542  36.249  1.00  0.00     0.049 A 
ATOM     60  H   UNL A   1      40.992  31.292  35.441  1.00  0.00     0.167 HD
ATOM     61  C   UNL A   1      42.537  29.340  34.098  1.00  0.00     0.074 A 
ATOM     62  C   UNL A   1      42.982  28.410  33.082  1.00  0.00     0.031 C 
ATOM     63  C   UNL A   1      43.218  29.605  35.241  1.00  0.00     0.037 A 
BRANCH  50  64
ATOM     64  C   UNL A   1      40.519  33.853  38.822  1.00  0.00     0.064 A 
ATOM     65  C   UNL A   1      39.870  33.451  40.001  1.00  0.00     0.173 A 
ATOM     66  C   UNL A   1      41.253  35.048  38.851  1.00  0.00     0.173 A 
ATOM     67  F   UNL A   1      39.140  32.326  40.019  1.00  0.00    -0.203 F 
ATOM     68  C   UNL A   1      39.933  34.230  41.152  1.00  0.00     0.198 A 
ATOM     69  C   UNL A   1      41.340  35.806  40.015  1.00  0.00     0.198 A 
ATOM     70  F   UNL A   1      41.892  35.477  37.752  1.00  0.00    -0.203 F 
ATOM     71  F   UNL A   1      39.260  33.855  42.250  1.00  0.00    -0.200 F 
ATOM     72  C   UNL A   1      40.674  35.402  41.161  1.00  0.00     0.200 A 
ATOM     73  F   UNL A   1      42.069  36.931  40.026  1.00  0.00    -0.200 F 
ATOM     74  F   UNL A   1      40.740  36.146  42.273  1.00  0.00    -0.200 F 
ENDBRANCH  50  64
BRANCH  51  75
ATOM     75  C   UNL A   1      39.830  28.710  30.299  1.00  0.00     0.064 A 
ATOM     76  C   UNL A   1      39.272  27.424  30.239  1.00  0.00     0.173 A 
ATOM     77  C   UNL A   1      40.359  29.244  29.114  1.00  0.00     0.173 A 
ATOM     78  F   UNL A   1      38.781  26.855  31.350  1.00  0.00    -0.203 F 
ATOM     79  C   UNL A   1      39.266  26.695  29.051  1.00  0.00     0.198 A 
ATOM     80  C   UNL A   1      40.323  28.527  27.920  1.00  0.00     0.198 A 
ATOM     81  F   UNL A   1      40.912  30.466  29.117  1.00  0.00    -0.203 F 
ATOM     82  F   UNL A   1      38.779  25.447  29.036  1.00  0.00    -0.200 F 
ATOM     83  C   UNL A   1      39.786  27.249  27.891  1.00  0.00     0.200 A 
ATOM     84  F   UNL A   1      40.819  29.070  26.800  1.00  0.00    -0.200 F 
ATOM     85  F   UNL A   1      39.780  26.547  26.750  1.00  0.00    -0.200 F 
ENDBRANCH  51  75
BRANCH  63  86
ATOM     86  C   UNL A   1      44.489  28.843  35.491  1.00  0.00     0.064 A 
ATOM     87  C   UNL A   1      44.497  27.606  36.153  1.00  0.00     0.173 A 
ATOM     88  C   UNL A   1      45.713  29.335  35.010  1.00  0.00     0.173 A 
ATOM     89  F   UNL A   1      43.358  27.095  36.643  1.00  0.00    -0.203 F 
ATOM     90  C   UNL A   1      45.686  26.906  36.348  1.00  0.00     0.198 A 
ATOM     91  C   UNL A   1      46.893  28.615  35.175  1.00  0.00     0.198 A 
ATOM     92  F   UNL A   1      45.763  30.508  34.360  1.00  0.00    -0.203 F 
ATOM     93  F   UNL A   1      45.676  25.749  37.026  1.00  0.00    -0.200 F 
ATOM     94  C   UNL A   1      46.880  27.405  35.851  1.00  0.00     0.200 A 
ATOM     95  F   UNL A   1      48.043  29.092  34.677  1.00  0.00    -0.200 F 
ATOM     96  F   UNL A   1      48.020  26.723  36.029  1.00  0.00    -0.200 F 
ENDBRANCH  63  86
ENDBRANCH  37  38
ENDBRANCH  30  32
ENDBRANCH  29  30
ENDBRANCH  28  29
ENDBRANCH  27  28
ENDBRANCH  26  27
ENDBRANCH  25  26
ENDBRANCH  24  25
ENDBRANCH  23  24
ENDBRANCH   1  23
TORSDOF 23
ENDMDL
MODEL 2
REMARK VINA RESULT:      -9.7      2.931      8.646
REMARK SMILES CN(Cc1ccc(Cl)cc1Cl)S(=O)(=O)CCCC(=O)OCCOCCOCCOC(=O)c1ccc(-c2c3nc(c(-c4c(F)c(F)c(F)c(F)c4F)c4ccc([nH]4)c(-c4c(F)c(F)c(F)c(F)c4F)c4nc(c(-c5c(F)c(F)c(F)c(F)c5F)c5ccc2[nH]5)C=C4)C=C3)cc1
REMARK SMILES IDX 22 1 21 2 20 3 18 4 19 5 17 6 16 7 15 8 12 9 13 10 14 11
REMARK SMILES IDX 2 12 1 13 3 14 4 15 5 16 10 17 6 18 9 19 11 20 7 21 8 22
REMARK SMILES IDX 23 23 24 24 25 25 26 26 27 27 28 28 29 29 30 30 31 31 32 32
REMARK SMILES IDX 33 33 94 34 34 35 93 36 35 37 36 38 37 39 87 40 38 41 92 42
REMARK SMILES IDX 86 43 88 44 39 45 91 46 85 47 84 48 40 50 72 51 52 52 71 53
REMARK SMILES IDX 53 54 56 55 70 56 89 57 54 58 55 59 69 61 90 62 57 63 41 64
REMARK SMILES IDX 42 65 50 66 43 67 44 68 48 69 51 70 45 71 46 72 49 73 47 74
REMARK SMILES IDX 73 75 74 76 82 77 75 78 76 79 80 80 83 81 77 82 78 83 81 84
REMARK SMILES IDX 79 85 58 86 59 87 67 88 60 89 61 90 65 91 68 92 62 93 63 94
REMARK SMILES IDX 66 95 64 96
REMARK H PARENT 88 49 56 60
REMARK Flexibility Score: inf
ROOT
ATOM      1  C   UNL A   1      32.915  26.600  22.533  1.00  0.00     0.202 C 
ENDROOT
BRANCH   1   2
ATOM      2  C   UNL A   1      31.451  26.145  22.480  1.00  0.00     0.261 C 
BRANCH   2   3
ATOM      3  O   UNL A   1      30.506  27.112  22.993  1.00  0.00    -0.463 OA
BRANCH   3   4
ATOM      4  C   UNL A   1      29.632  26.688  23.934  1.00  0.00     0.305 C 
ATOM      5  O   UNL A   1      28.453  26.445  23.705  1.00  0.00    -0.252 OA
BRANCH   4   6
ATOM      6  C   UNL A   1      30.234  26.454  25.312  1.00  0.00     0.124 C 
BRANCH   6   7
ATOM      7  C   UNL A   1      30.422  25.081  25.964  1.00  0.00     0.029 C 
BRANCH   7   8
ATOM      8  C   UNL A   1      31.781  24.663  26.497  1.00  0.00     0.155 C 
BRANCH   8   9
ATOM      9  S   UNL A   1      32.087  22.911  26.601  1.00  0.00     0.214 S 
ATOM     10  O   UNL A   1      31.040  22.287  25.816  1.00  0.00    -0.212 OA
ATOM     11  O   UNL A   1      32.262  22.581  27.997  1.00  0.00    -0.212 OA
BRANCH   9  12
ATOM     12  N   UNL A   1      33.538  22.695  25.805  1.00  0.00    -0.201 NA
ATOM     13  C   UNL A   1      34.799  23.208  26.350  1.00  0.00     0.124 C 
BRANCH  12  14
ATOM     14  C   UNL A   1      33.623  22.040  24.498  1.00  0.00     0.138 C 
BRANCH  14  15
ATOM     15  C   UNL A   1      33.710  20.538  24.384  1.00  0.00    -0.014 A 
ATOM     16  C   UNL A   1      32.529  19.900  23.936  1.00  0.00     0.008 A 
ATOM     17  C   UNL A   1      34.821  19.732  24.660  1.00  0.00     0.047 A 
ATOM     18  C   UNL A   1      32.427  18.512  23.866  1.00  0.00     0.021 A 
ATOM     19  C   UNL A   1      34.708  18.336  24.626  1.00  0.00     0.041 A 
ATOM     20  Cl  UNL A   1      36.397  20.352  25.000  1.00  0.00    -0.084 Cl
ATOM     21  C   UNL A   1      33.511  17.735  24.247  1.00  0.00     0.042 A 
ATOM     22  Cl  UNL A   1      33.376  16.022  24.226  1.00  0.00    -0.084 Cl
ENDBRANCH  14  15
ENDBRANCH  12  14
ENDBRANCH   9  12
ENDBRANCH   8   9
ENDBRANCH   7   8
ENDBRANCH   6   7
ENDBRANCH   4   6
ENDBRANCH   3   4
ENDBRANCH   2   3
ENDBRANCH   1   2
BRANCH   1  23
ATOM     23  O   UNL A   1      33.195  27.944  22.164  1.00  0.00    -0.376 OA
BRANCH  23  24
ATOM     24  C   UNL A   1      33.407  28.907  23.190  1.00  0.00     0.188 C 
BRANCH  24  25
ATOM     25  C   UNL A   1      33.651  28.434  24.635  1.00  0.00     0.188 C 
BRANCH  25  26
ATOM     26  O   UNL A   1      32.619  28.753  25.543  1.00  0.00    -0.376 OA
BRANCH  26  27
ATOM     27  C   UNL A   1      31.717  29.771  25.140  1.00  0.00     0.202 C 
BRANCH  27  28
ATOM     28  C   UNL A   1      31.625  30.966  26.100  1.00  0.00     0.261 C 
BRANCH  28  29
ATOM     29  O   UNL A   1      32.550  30.950  27.204  1.00  0.00    -0.460 OA
BRANCH  29  30
ATOM     30  C   UNL A   1      33.274  32.072  27.429  1.00  0.00     0.338 C 
ATOM     31  O   UNL A   1      32.877  33.222  27.374  1.00  0.00    -0.246 OA
BRANCH  30  32
ATOM     32  C   UNL A   1      34.567  31.653  28.028  1.00  0.00     0.060 A 
ATOM     33  C   UNL A   1      34.757  30.302  28.361  1.00  0.00     0.016 A 
ATOM     34  C   UNL A   1      35.603  32.571  28.206  1.00  0.00     0.016 A 
ATOM     35  C   UNL A   1      35.977  29.871  28.890  1.00  0.00     0.010 A 
ATOM     36  C   UNL A   1      36.814  32.144  28.760  1.00  0.00     0.010 A 
ATOM     37  C   UNL A   1      36.999  30.798  29.130  1.00  0.00    -0.014 A 
BRANCH  37  38
ATOM     38  C   UNL A   1      38.167  30.425  29.968  1.00  0.00     0.031 A 
ATOM     39  C   UNL A   1      39.145  29.428  29.405  1.00  0.00     0.074 A 
ATOM     40  C   UNL A   1      38.364  30.938  31.195  1.00  0.00     0.049 A 
ATOM     41  N   UNL A   1      40.182  28.864  29.968  1.00  0.00    -0.248 NA
ATOM     42  C   UNL A   1      38.909  29.005  28.015  1.00  0.00     0.031 C 
ATOM     43  C   UNL A   1      37.525  31.942  31.839  1.00  0.00     0.029 A 
ATOM     44  N   UNL A   1      39.338  30.663  32.126  1.00  0.00    -0.354 N 
ATOM     45  C   UNL A   1      40.713  28.014  29.007  1.00  0.00     0.074 A 
ATOM     46  C   UNL A   1      39.869  28.112  27.837  1.00  0.00     0.031 C 
ATOM     47  C   UNL A   1      38.008  32.188  33.071  1.00  0.00     0.029 A 
ATOM     48  C   UNL A   1      39.168  31.329  33.315  1.00  0.00     0.049 A 
ATOM     49  H   UNL A   1      40.087  30.046  31.956  1.00  0.00     0.167 HD
ATOM     50  C   UNL A   1      41.811  27.227  29.089  1.00  0.00     0.037 A 
ATOM     51  C   UNL A   1      39.852  31.232  34.473  1.00  0.00     0.037 A 
ATOM     52  C   UNL A   1      42.650  27.124  30.253  1.00  0.00     0.049 A 
ATOM     53  C   UNL A   1      41.023  30.282  34.569  1.00  0.00     0.074 A 
ATOM     54  C   UNL A   1      43.793  26.365  30.428  1.00  0.00     0.029 A 
ATOM     55  N   UNL A   1      42.429  27.796  31.446  1.00  0.00    -0.354 N 
ATOM     56  N   UNL A   1      41.535  29.498  33.651  1.00  0.00    -0.248 NA
ATOM     57  C   UNL A   1      41.712  30.206  35.866  1.00  0.00     0.031 C 
ATOM     58  C   UNL A   1      44.229  26.529  31.747  1.00  0.00     0.029 A 
ATOM     59  C   UNL A   1      43.399  27.445  32.372  1.00  0.00     0.049 A 
ATOM     60  H   UNL A   1      41.692  28.428  31.611  1.00  0.00     0.167 HD
ATOM     61  C   UNL A   1      42.624  28.869  34.245  1.00  0.00     0.074 A 
ATOM     62  C   UNL A   1      42.704  29.369  35.601  1.00  0.00     0.031 C 
ATOM     63  C   UNL A   1      43.482  27.962  33.714  1.00  0.00     0.037 A 
BRANCH  50  64
ATOM     64  C   UNL A   1      42.149  26.384  27.892  1.00  0.00     0.064 A 
ATOM     65  C   UNL A   1      43.166  26.746  26.995  1.00  0.00     0.173 A 
ATOM     66  C   UNL A   1      41.462  25.184  27.656  1.00  0.00     0.173 A 
ATOM     67  F   UNL A   1      43.840  27.893  27.167  1.00  0.00    -0.203 F 
ATOM     68  C   UNL A   1      43.462  25.952  25.892  1.00  0.00     0.198 A 
ATOM     69  C   UNL A   1      41.785  24.375  26.570  1.00  0.00     0.198 A 
ATOM     70  F   UNL A   1      40.482  24.791  28.484  1.00  0.00    -0.203 F 
ATOM     71  F   UNL A   1      44.400  26.345  25.018  1.00  0.00    -0.200 F 
ATOM     72  C   UNL A   1      42.778  24.763  25.685  1.00  0.00     0.200 A 
ATOM     73  F   UNL A   1      41.132  23.221  26.380  1.00  0.00    -0.200 F 
ATOM     74  F   UNL A   1      43.071  23.996  24.626  1.00  0.00    -0.200 F 
ENDBRANCH  50  64
BRANCH  51  75
ATOM     75  C   UNL A   1      39.444  32.040  35.655  1.00  0.00     0.064 A 
ATOM     76  C   UNL A   1      38.492  31.561  36.567  1.00  0.00     0.173 A 
ATOM     77  C   UNL A   1      39.966  33.323  35.876  1.00  0.00     0.173 A 
ATOM     78  F   UNL A   1      37.939  30.353  36.384  1.00  0.00    -0.203 F 
ATOM     79  C   UNL A   1      38.064  32.341  37.640  1.00  0.00     0.198 A 
ATOM     80  C   UNL A   1      39.561  34.089  36.968  1.00  0.00     0.198 A 
ATOM     81  F   UNL A   1      40.874  33.834  35.031  1.00  0.00    -0.203 F 
ATOM     82  F   UNL A   1      37.112  31.880  38.462  1.00  0.00    -0.200 F 
ATOM     83  C   UNL A   1      38.603  33.602  37.843  1.00  0.00     0.200 A 
ATOM     84  F   UNL A   1      40.092  35.304  37.165  1.00  0.00    -0.200 F 
ATOM     85  F   UNL A   1      38.191  34.351  38.875  1.00  0.00    -0.200 F 
ENDBRANCH  51  75
BRANCH  63  86
ATOM     86  C   UNL A   1      44.620  27.488  34.573  1.00  0.00     0.064 A 
ATOM     87  C   UNL A   1      45.833  28.187  34.654  1.00  0.00     0.173 A 
ATOM     88  C   UNL A   1      44.471  26.342  35.372  1.00  0.00     0.173 A 
ATOM     89  F   UNL A   1      46.033  29.281  33.904  1.00  0.00    -0.203 F 
ATOM     90  C   UNL A   1      46.864  27.743  35.480  1.00  0.00     0.198 A 
ATOM     91  C   UNL A   1      45.490  25.922  36.223  1.00  0.00     0.198 A 
ATOM     92  F   UNL A   1      43.329  25.641  35.343  1.00  0.00    -0.203 F 
ATOM     93  F   UNL A   1      48.032  28.400  35.503  1.00  0.00    -0.200 F 
ATOM     94  C   UNL A   1      46.688  26.617  36.270  1.00  0.00     0.200 A 
ATOM     95  F   UNL A   1      45.310  24.844  37.000  1.00  0.00    -0.200 F 
ATOM     96  F   UNL A   1      47.676  26.199  37.073  1.00  0.00    -0.200 F 
ENDBRANCH  63  86
ENDBRANCH  37  38
ENDBRANCH  30  32
ENDBRANCH  29  30
ENDBRANCH  28  29
ENDBRANCH  27  28
ENDBRANCH  26  27
ENDBRANCH  25  26
ENDBRANCH  24  25
ENDBRANCH  23  24
ENDBRANCH   1  23
TORSDOF 23
ENDMDL
MODEL 3
REMARK VINA RESULT:      -9.4      1.682      3.037
REMARK SMILES CN(Cc1ccc(Cl)cc1Cl)S(=O)(=O)CCCC(=O)OCCOCCOCCOC(=O)c1ccc(-c2c3nc(c(-c4c(F)c(F)c(F)c(F)c4F)c4ccc([nH]4)c(-c4c(F)c(F)c(F)c(F)c4F)c4nc(c(-c5c(F)c(F)c(F)c(F)c5F)c5ccc2[nH]5)C=C4)C=C3)cc1
REMARK SMILES IDX 22 1 21 2 20 3 18 4 19 5 17 6 16 7 15 8 12 9 13 10 14 11
REMARK SMILES IDX 2 12 1 13 3 14 4 15 5 16 10 17 6 18 9 19 11 20 7 21 8 22
REMARK SMILES IDX 23 23 24 24 25 25 26 26 27 27 28 28 29 29 30 30 31 31 32 32
REMARK SMILES IDX 33 33 94 34 34 35 93 36 35 37 36 38 37 39 87 40 38 41 92 42
REMARK SMILES IDX 86 43 88 44 39 45 91 46 85 47 84 48 40 50 72 51 52 52 71 53
REMARK SMILES IDX 53 54 56 55 70 56 89 57 54 58 55 59 69 61 90 62 57 63 41 64
REMARK SMILES IDX 42 65 50 66 43 67 44 68 48 69 51 70 45 71 46 72 49 73 47 74
REMARK SMILES IDX 73 75 74 76 82 77 75 78 76 79 80 80 83 81 77 82 78 83 81 84
REMARK SMILES IDX 79 85 58 86 59 87 67 88 60 89 61 90 65 91 68 92 62 93 63 94
REMARK SMILES IDX 66 95 64 96
REMARK H PARENT 88 49 56 60
REMARK Flexibility Score: inf
ROOT
ATOM      1  C   UNL A   1      34.809  29.355  27.100  1.00  0.00     0.202 C 
ENDROOT
BRANCH   1   2
ATOM      2  C   UNL A   1      33.781  28.297  26.677  1.00  0.00     0.261 C 
BRANCH   2   3
ATOM      3  O   UNL A   1      32.803  28.765  25.721  1.00  0.00    -0.463 OA
BRANCH   3   4
ATOM      4  C   UNL A   1      32.499  27.944  24.690  1.00  0.00     0.305 C 
ATOM      5  O   UNL A   1      33.296  27.637  23.810  1.00  0.00    -0.252 OA
BRANCH   4   6
ATOM      6  C   UNL A   1      31.098  27.351  24.729  1.00  0.00     0.124 C 
BRANCH   6   7
ATOM      7  C   UNL A   1      30.609  26.327  25.757  1.00  0.00     0.029 C 
BRANCH   7   8
ATOM      8  C   UNL A   1      31.561  25.283  26.314  1.00  0.00     0.155 C 
BRANCH   8   9
ATOM      9  S   UNL A   1      31.046  23.583  26.168  1.00  0.00     0.214 S 
ATOM     10  O   UNL A   1      30.647  23.416  24.784  1.00  0.00    -0.212 OA
ATOM     11  O   UNL A   1      30.118  23.316  27.243  1.00  0.00    -0.212 OA
BRANCH   9  12
ATOM     12  N   UNL A   1      32.441  22.703  26.422  1.00  0.00    -0.201 NA
ATOM     13  C   UNL A   1      32.975  22.479  27.769  1.00  0.00     0.124 C 
BRANCH  12  14
ATOM     14  C   UNL A   1      33.237  22.163  25.319  1.00  0.00     0.138 C 
BRANCH  14  15
ATOM     15  C   UNL A   1      34.744  22.216  25.346  1.00  0.00    -0.014 A 
ATOM     16  C   UNL A   1      35.392  20.959  25.271  1.00  0.00     0.008 A 
ATOM     17  C   UNL A   1      35.549  23.360  25.425  1.00  0.00     0.047 A 
ATOM     18  C   UNL A   1      36.776  20.842  25.376  1.00  0.00     0.021 A 
ATOM     19  C   UNL A   1      36.937  23.239  25.568  1.00  0.00     0.041 A 
ATOM     20  Cl  UNL A   1      34.941  24.971  25.301  1.00  0.00    -0.084 Cl
ATOM     21  C   UNL A   1      37.540  21.985  25.559  1.00  0.00     0.042 A 
ATOM     22  Cl  UNL A   1      39.242  21.846  25.753  1.00  0.00    -0.084 Cl
ENDBRANCH  14  15
ENDBRANCH  12  14
ENDBRANCH   9  12
ENDBRANCH   8   9
ENDBRANCH   7   8
ENDBRANCH   6   7
ENDBRANCH   4   6
ENDBRANCH   3   4
ENDBRANCH   2   3
ENDBRANCH   1   2
BRANCH   1  23
ATOM     23  O   UNL A   1      34.348  30.692  27.245  1.00  0.00    -0.376 OA
BRANCH  23  24
ATOM     24  C   UNL A   1      34.704  31.417  28.417  1.00  0.00     0.188 C 
BRANCH  24  25
ATOM     25  C   UNL A   1      34.847  32.949  28.348  1.00  0.00     0.188 C 
BRANCH  25  26
ATOM     26  O   UNL A   1      33.668  33.666  28.644  1.00  0.00    -0.376 OA
BRANCH  26  27
ATOM     27  C   UNL A   1      33.672  35.047  28.322  1.00  0.00     0.202 C 
BRANCH  27  28
ATOM     28  C   UNL A   1      33.160  35.970  29.438  1.00  0.00     0.261 C 
BRANCH  28  29
ATOM     29  O   UNL A   1      32.448  35.317  30.506  1.00  0.00    -0.460 OA
BRANCH  29  30
ATOM     30  C   UNL A   1      32.665  35.763  31.767  1.00  0.00     0.338 C 
ATOM     31  O   UNL A   1      31.928  36.473  32.428  1.00  0.00    -0.246 OA
BRANCH  30  32
ATOM     32  C   UNL A   1      33.825  35.012  32.309  1.00  0.00     0.060 A 
ATOM     33  C   UNL A   1      35.079  35.640  32.361  1.00  0.00     0.016 A 
ATOM     34  C   UNL A   1      33.666  33.721  32.817  1.00  0.00     0.016 A 
ATOM     35  C   UNL A   1      36.181  34.971  32.902  1.00  0.00     0.010 A 
ATOM     36  C   UNL A   1      34.774  33.043  33.335  1.00  0.00     0.010 A 
ATOM     37  C   UNL A   1      36.043  33.653  33.355  1.00  0.00    -0.014 A 
BRANCH  37  38
ATOM     38  C   UNL A   1      37.245  32.828  33.638  1.00  0.00     0.031 A 
ATOM     39  C   UNL A   1      37.986  33.084  34.924  1.00  0.00     0.074 A 
ATOM     40  C   UNL A   1      37.685  31.884  32.788  1.00  0.00     0.049 A 
ATOM     41  N   UNL A   1      39.110  32.576  35.357  1.00  0.00    -0.248 NA
ATOM     42  C   UNL A   1      37.370  34.056  35.842  1.00  0.00     0.031 C 
ATOM     43  C   UNL A   1      37.040  31.503  31.536  1.00  0.00     0.029 A 
ATOM     44  N   UNL A   1      38.801  31.082  32.852  1.00  0.00    -0.354 N 
ATOM     45  C   UNL A   1      39.341  33.175  36.589  1.00  0.00     0.074 A 
ATOM     46  C   UNL A   1      38.259  34.105  36.821  1.00  0.00     0.031 C 
ATOM     47  C   UNL A   1      37.781  30.553  30.936  1.00  0.00     0.029 A 
ATOM     48  C   UNL A   1      38.971  30.286  31.745  1.00  0.00     0.049 A 
ATOM     49  H   UNL A   1      39.418  31.079  33.618  1.00  0.00     0.167 HD
ATOM     50  C   UNL A   1      40.362  32.963  37.452  1.00  0.00     0.037 A 
ATOM     51  C   UNL A   1      39.986  29.464  31.413  1.00  0.00     0.037 A 
ATOM     52  C   UNL A   1      41.442  32.043  37.221  1.00  0.00     0.049 A 
ATOM     53  C   UNL A   1      41.157  29.308  32.354  1.00  0.00     0.074 A 
ATOM     54  C   UNL A   1      42.515  31.748  38.044  1.00  0.00     0.029 A 
ATOM     55  N   UNL A   1      41.593  31.274  36.077  1.00  0.00    -0.354 N 
ATOM     56  N   UNL A   1      41.360  29.858  33.527  1.00  0.00    -0.248 NA
ATOM     57  C   UNL A   1      42.242  28.413  31.923  1.00  0.00     0.031 C 
ATOM     58  C   UNL A   1      43.347  30.848  37.371  1.00  0.00     0.029 A 
ATOM     59  C   UNL A   1      42.757  30.526  36.160  1.00  0.00     0.049 A 
ATOM     60  H   UNL A   1      40.965  31.261  35.318  1.00  0.00     0.167 HD
ATOM     61  C   UNL A   1      42.570  29.348  33.988  1.00  0.00     0.074 A 
ATOM     62  C   UNL A   1      43.052  28.438  32.972  1.00  0.00     0.031 C 
ATOM     63  C   UNL A   1      43.219  29.609  35.150  1.00  0.00     0.037 A 
BRANCH  50  64
ATOM     64  C   UNL A   1      40.375  33.772  38.718  1.00  0.00     0.064 A 
ATOM     65  C   UNL A   1      39.623  33.399  39.843  1.00  0.00     0.173 A 
ATOM     66  C   UNL A   1      41.172  34.922  38.813  1.00  0.00     0.173 A 
ATOM     67  F   UNL A   1      38.831  32.317  39.797  1.00  0.00    -0.203 F 
ATOM     68  C   UNL A   1      39.649  34.163  41.006  1.00  0.00     0.198 A 
ATOM     69  C   UNL A   1      41.221  35.665  39.990  1.00  0.00     0.198 A 
ATOM     70  F   UNL A   1      41.911  35.323  37.767  1.00  0.00    -0.203 F 
ATOM     71  F   UNL A   1      38.881  33.818  42.049  1.00  0.00    -0.200 F 
ATOM     72  C   UNL A   1      40.454  35.290  41.081  1.00  0.00     0.200 A 
ATOM     73  F   UNL A   1      42.010  36.745  40.065  1.00  0.00    -0.200 F 
ATOM     74  F   UNL A   1      40.483  36.020  42.205  1.00  0.00    -0.200 F 
ENDBRANCH  50  64
BRANCH  51  75
ATOM     75  C   UNL A   1      39.963  28.728  30.119  1.00  0.00     0.064 A 
ATOM     76  C   UNL A   1      39.377  27.457  30.018  1.00  0.00     0.173 A 
ATOM     77  C   UNL A   1      40.559  29.261  28.966  1.00  0.00     0.173 A 
ATOM     78  F   UNL A   1      38.822  26.889  31.098  1.00  0.00    -0.203 F 
ATOM     79  C   UNL A   1      39.409  26.741  28.823  1.00  0.00     0.198 A 
ATOM     80  C   UNL A   1      40.561  28.558  27.763  1.00  0.00     0.198 A 
ATOM     81  F   UNL A   1      41.140  30.470  29.008  1.00  0.00    -0.203 F 
ATOM     82  F   UNL A   1      38.893  25.506  28.771  1.00  0.00    -0.200 F 
ATOM     83  C   UNL A   1      39.995  27.294  27.694  1.00  0.00     0.200 A 
ATOM     84  F   UNL A   1      41.121  29.101  26.673  1.00  0.00    -0.200 F 
ATOM     85  F   UNL A   1      40.025  26.605  26.546  1.00  0.00    -0.200 F 
ENDBRANCH  51  75
BRANCH  63  86
ATOM     86  C   UNL A   1      44.495  28.861  35.422  1.00  0.00     0.064 A 
ATOM     87  C   UNL A   1      45.751  29.380  35.073  1.00  0.00     0.173 A 
ATOM     88  C   UNL A   1      44.460  27.628  36.094  1.00  0.00     0.173 A 
ATOM     89  F   UNL A   1      45.840  30.548  34.420  1.00  0.00    -0.203 F 
ATOM     90  C   UNL A   1      46.921  28.680  35.361  1.00  0.00     0.198 A 
ATOM     91  C   UNL A   1      45.634  26.949  36.412  1.00  0.00     0.198 A 
ATOM     92  F   UNL A   1      43.288  27.090  36.460  1.00  0.00    -0.203 F 
ATOM     93  F   UNL A   1      48.106  29.172  34.975  1.00  0.00    -0.200 F 
ATOM     94  C   UNL A   1      46.862  27.471  36.038  1.00  0.00     0.200 A 
ATOM     95  F   UNL A   1      45.574  25.790  37.083  1.00  0.00    -0.200 F 
ATOM     96  F   UNL A   1      47.989  26.806  36.325  1.00  0.00    -0.200 F 
ENDBRANCH  63  86
ENDBRANCH  37  38
ENDBRANCH  30  32
ENDBRANCH  29  30
ENDBRANCH  28  29
ENDBRANCH  27  28
ENDBRANCH  26  27
ENDBRANCH  25  26
ENDBRANCH  24  25
ENDBRANCH  23  24
ENDBRANCH   1  23
TORSDOF 23
ENDMDL
