MODEL 1
REMARK VINA RESULT:     -10.4      0.000      0.000
REMARK SMILES Nc1nc(CC(=O)NC2(CC(=O)OCCOCCOCCOC(=O)c3ccc(-c4c5nc(c(-c6c(F)c(F)c(F)c(F)c6F)c6ccc([nH]6)c(-c6c(F)c(F)c(F)c(F)c6F)c6nc(c(-c7c(F)c(F)c(F)c(F)c7F)c7ccc4[nH]7)C=C6)C=C5)cc3)CCC2)cs1
REMARK SMILES IDX 16 1 15 2 14 3 13 4 11 5 12 6 10 7 9 8 88 9 90 10 89 11 8 12
REMARK SMILES IDX 6 13 7 14 5 16 4 17 2 18 3 19 92 20 91 21 1 22 17 25 18 26
REMARK SMILES IDX 19 27 20 28 21 29 22 30 23 31 24 32 25 33 26 34 87 35 27 36
REMARK SMILES IDX 86 37 28 38 29 39 30 40 80 41 31 42 85 43 79 44 81 45 32 46
REMARK SMILES IDX 84 47 78 48 77 49 33 51 65 52 45 53 64 54 46 55 49 56 63 57
REMARK SMILES IDX 82 58 47 59 48 60 62 62 83 63 50 64 34 65 35 66 43 67 36 68
REMARK SMILES IDX 37 69 41 70 44 71 38 72 39 73 42 74 40 75 66 76 67 77 75 78
REMARK SMILES IDX 68 79 69 80 73 81 76 82 70 83 71 84 74 85 72 86 51 87 52 88
REMARK SMILES IDX 60 89 53 90 54 91 58 92 61 93 55 94 56 95 59 96 57 97
REMARK H PARENT 8 15 1 23 1 24 81 50 49 61
REMARK Flexibility Score: inf
ROOT
ATOM      1  O   UNL A   1      33.020  30.092  27.470  1.00  0.00    -0.376 OA
ENDROOT
BRANCH   1   2
ATOM      2  C   UNL A   1      33.168  29.152  26.409  1.00  0.00     0.202 C 
BRANCH   2   3
ATOM      3  C   UNL A   1      32.768  29.675  25.031  1.00  0.00     0.261 C 
BRANCH   3   4
ATOM      4  O   UNL A   1      31.339  29.624  24.846  1.00  0.00    -0.463 OA
BRANCH   4   5
ATOM      5  C   UNL A   1      30.939  28.816  23.835  1.00  0.00     0.308 C 
ATOM      6  O   UNL A   1      30.892  29.164  22.659  1.00  0.00    -0.252 OA
BRANCH   5   7
ATOM      7  C   UNL A   1      30.456  27.467  24.282  1.00  0.00     0.151 C 
BRANCH   7   8
ATOM      8  C   UNL A   1      31.307  26.209  24.103  1.00  0.00     0.050 C 
ATOM      9  C   UNL A   1      30.501  24.878  24.322  1.00  0.00     0.029 C 
ATOM     10  C   UNL A   1      32.101  25.794  25.399  1.00  0.00     0.029 C 
ATOM     11  C   UNL A   1      30.905  24.919  25.807  1.00  0.00     0.005 C 
BRANCH   8  12
ATOM     12  N   UNL A   1      32.173  26.094  22.901  1.00  0.00    -0.350 N 
ATOM     13  C   UNL A   1      33.330  25.464  22.566  1.00  0.00     0.226 C 
ATOM     14  O   UNL A   1      33.720  25.633  21.406  1.00  0.00    -0.275 OA
ATOM     15  H   UNL A   1      31.812  26.611  22.146  1.00  0.00     0.164 HD
BRANCH  13  16
ATOM     16  C   UNL A   1      34.120  24.572  23.478  1.00  0.00     0.157 C 
BRANCH  16  17
ATOM     17  C   UNL A   1      33.553  23.205  23.502  1.00  0.00     0.063 A 
ATOM     18  C   UNL A   1      32.338  21.601  22.590  1.00  0.00     0.180 A 
ATOM     19  N   UNL A   1      32.863  22.780  22.387  1.00  0.00    -0.225 NA
ATOM     20  S   UNL A   1      32.722  20.882  24.097  1.00  0.00    -0.106 S 
ATOM     21  C   UNL A   1      33.621  22.279  24.526  1.00  0.00     0.093 A 
BRANCH  18  22
ATOM     22  N   UNL A   1      31.544  21.019  21.690  1.00  0.00    -0.375 N 
ATOM     23  H   UNL A   1      31.702  21.162  20.729  1.00  0.00     0.159 HD
ATOM     24  H   UNL A   1      30.800  20.448  21.986  1.00  0.00     0.159 HD
ENDBRANCH  18  22
ENDBRANCH  16  17
ENDBRANCH  13  16
ENDBRANCH   8  12
ENDBRANCH   7   8
ENDBRANCH   5   7
ENDBRANCH   4   5
ENDBRANCH   3   4
ENDBRANCH   2   3
ENDBRANCH   1   2
BRANCH   1  25
ATOM     25  C   UNL A   1      34.021  31.095  27.606  1.00  0.00     0.188 C 
BRANCH  25  26
ATOM     26  C   UNL A   1      33.558  32.553  27.763  1.00  0.00     0.188 C 
BRANCH  26  27
ATOM     27  O   UNL A   1      34.425  33.496  28.376  1.00  0.00    -0.376 OA
BRANCH  27  28
ATOM     28  C   UNL A   1      33.870  34.340  29.371  1.00  0.00     0.202 C 
BRANCH  28  29
ATOM     29  C   UNL A   1      34.331  34.047  30.796  1.00  0.00     0.261 C 
BRANCH  29  30
ATOM     30  O   UNL A   1      34.467  32.639  31.057  1.00  0.00    -0.460 OA
BRANCH  30  31
ATOM     31  C   UNL A   1      35.346  32.295  32.029  1.00  0.00     0.338 C 
ATOM     32  O   UNL A   1      35.169  32.380  33.239  1.00  0.00    -0.246 OA
BRANCH  31  33
ATOM     33  C   UNL A   1      36.563  31.692  31.441  1.00  0.00     0.060 A 
ATOM     34  C   UNL A   1      37.537  31.186  32.311  1.00  0.00     0.016 A 
ATOM     35  C   UNL A   1      36.765  31.623  30.057  1.00  0.00     0.016 A 
ATOM     36  C   UNL A   1      38.685  30.571  31.805  1.00  0.00     0.010 A 
ATOM     37  C   UNL A   1      37.933  31.042  29.552  1.00  0.00     0.010 A 
ATOM     38  C   UNL A   1      38.895  30.505  30.422  1.00  0.00    -0.014 A 
BRANCH  38  39
ATOM     39  C   UNL A   1      40.172  29.974  29.887  1.00  0.00     0.031 A 
ATOM     40  C   UNL A   1      41.346  30.900  29.756  1.00  0.00     0.074 A 
ATOM     41  C   UNL A   1      40.286  28.687  29.514  1.00  0.00     0.049 A 
ATOM     42  N   UNL A   1      42.541  30.665  29.276  1.00  0.00    -0.248 NA
ATOM     43  C   UNL A   1      41.149  32.274  30.243  1.00  0.00     0.031 C 
ATOM     44  C   UNL A   1      39.245  27.671  29.655  1.00  0.00     0.029 A 
ATOM     45  N   UNL A   1      41.333  28.018  28.927  1.00  0.00    -0.354 N 
ATOM     46  C   UNL A   1      43.244  31.851  29.426  1.00  0.00     0.074 A 
ATOM     47  C   UNL A   1      42.338  32.811  30.022  1.00  0.00     0.031 C 
ATOM     48  C   UNL A   1      39.694  26.513  29.139  1.00  0.00     0.029 A 
ATOM     49  C   UNL A   1      41.043  26.715  28.606  1.00  0.00     0.049 A 
ATOM     50  H   UNL A   1      42.208  28.433  28.753  1.00  0.00     0.167 HD
ATOM     51  C   UNL A   1      44.527  32.121  29.090  1.00  0.00     0.037 A 
ATOM     52  C   UNL A   1      41.772  25.804  27.929  1.00  0.00     0.037 A 
ATOM     53  C   UNL A   1      45.406  31.193  28.434  1.00  0.00     0.049 A 
ATOM     54  C   UNL A   1      43.142  26.182  27.419  1.00  0.00     0.074 A 
ATOM     55  C   UNL A   1      46.718  31.380  28.037  1.00  0.00     0.029 A 
ATOM     56  N   UNL A   1      45.048  29.910  28.046  1.00  0.00    -0.354 N 
ATOM     57  N   UNL A   1      43.816  27.293  27.595  1.00  0.00    -0.248 NA
ATOM     58  C   UNL A   1      43.846  25.182  26.602  1.00  0.00     0.031 C 
ATOM     59  C   UNL A   1      47.133  30.232  27.350  1.00  0.00     0.029 A 
ATOM     60  C   UNL A   1      46.098  29.312  27.369  1.00  0.00     0.049 A 
ATOM     61  H   UNL A   1      44.177  29.489  28.225  1.00  0.00     0.167 HD
ATOM     62  C   UNL A   1      45.024  27.121  26.929  1.00  0.00     0.074 A 
ATOM     63  C   UNL A   1      44.999  25.791  26.359  1.00  0.00     0.031 C 
ATOM     64  C   UNL A   1      46.058  27.988  26.799  1.00  0.00     0.037 A 
BRANCH  51  65
ATOM     65  C   UNL A   1      45.027  33.502  29.385  1.00  0.00     0.064 A 
ATOM     66  C   UNL A   1      45.624  33.821  30.614  1.00  0.00     0.173 A 
ATOM     67  C   UNL A   1      44.896  34.522  28.431  1.00  0.00     0.173 A 
ATOM     68  F   UNL A   1      45.753  32.883  31.565  1.00  0.00    -0.203 F 
ATOM     69  C   UNL A   1      46.044  35.119  30.888  1.00  0.00     0.198 A 
ATOM     70  C   UNL A   1      45.340  35.813  28.700  1.00  0.00     0.198 A 
ATOM     71  F   UNL A   1      44.331  34.268  27.242  1.00  0.00    -0.203 F 
ATOM     72  F   UNL A   1      46.563  35.414  32.089  1.00  0.00    -0.200 F 
ATOM     73  C   UNL A   1      45.906  36.112  29.931  1.00  0.00     0.200 A 
ATOM     74  F   UNL A   1      45.212  36.771  27.771  1.00  0.00    -0.200 F 
ATOM     75  F   UNL A   1      46.304  37.363  30.199  1.00  0.00    -0.200 F 
ENDBRANCH  51  65
BRANCH  52  76
ATOM     76  C   UNL A   1      41.215  24.453  27.649  1.00  0.00     0.064 A 
ATOM     77  C   UNL A   1      41.762  23.308  28.244  1.00  0.00     0.173 A 
ATOM     78  C   UNL A   1      40.157  24.276  26.746  1.00  0.00     0.173 A 
ATOM     79  F   UNL A   1      42.800  23.422  29.086  1.00  0.00    -0.203 F 
ATOM     80  C   UNL A   1      41.283  22.037  27.935  1.00  0.00     0.198 A 
ATOM     81  C   UNL A   1      39.659  23.006  26.458  1.00  0.00     0.198 A 
ATOM     82  F   UNL A   1      39.607  25.336  26.136  1.00  0.00    -0.203 F 
ATOM     83  F   UNL A   1      41.859  20.955  28.477  1.00  0.00    -0.200 F 
ATOM     84  C   UNL A   1      40.228  21.887  27.046  1.00  0.00     0.200 A 
ATOM     85  F   UNL A   1      38.640  22.866  25.600  1.00  0.00    -0.200 F 
ATOM     86  F   UNL A   1      39.771  20.664  26.745  1.00  0.00    -0.200 F 
ENDBRANCH  52  76
BRANCH  64  87
ATOM     87  C   UNL A   1      47.256  27.532  26.015  1.00  0.00     0.064 A 
ATOM     88  C   UNL A   1      48.321  26.859  26.632  1.00  0.00     0.173 A 
ATOM     89  C   UNL A   1      47.308  27.707  24.625  1.00  0.00     0.173 A 
ATOM     90  F   UNL A   1      48.326  26.680  27.962  1.00  0.00    -0.203 F 
ATOM     91  C   UNL A   1      49.399  26.389  25.887  1.00  0.00     0.198 A 
ATOM     92  C   UNL A   1      48.373  27.211  23.878  1.00  0.00     0.198 A 
ATOM     93  F   UNL A   1      46.312  28.339  23.985  1.00  0.00    -0.203 F 
ATOM     94  F   UNL A   1      50.421  25.778  26.502  1.00  0.00    -0.200 F 
ATOM     95  C   UNL A   1      49.419  26.555  24.510  1.00  0.00     0.200 A 
ATOM     96  F   UNL A   1      48.384  27.358  22.546  1.00  0.00    -0.200 F 
ATOM     97  F   UNL A   1      50.449  26.086  23.792  1.00  0.00    -0.200 F 
ENDBRANCH  64  87
ENDBRANCH  38  39
ENDBRANCH  31  33
ENDBRANCH  30  31
ENDBRANCH  29  30
ENDBRANCH  28  29
ENDBRANCH  27  28
ENDBRANCH  26  27
ENDBRANCH  25  26
ENDBRANCH   1  25
TORSDOF 22
ENDMDL
MODEL 2
REMARK VINA RESULT:     -10.4      5.042      7.303
REMARK SMILES Nc1nc(CC(=O)NC2(CC(=O)OCCOCCOCCOC(=O)c3ccc(-c4c5nc(c(-c6c(F)c(F)c(F)c(F)c6F)c6ccc([nH]6)c(-c6c(F)c(F)c(F)c(F)c6F)c6nc(c(-c7c(F)c(F)c(F)c(F)c7F)c7ccc4[nH]7)C=C6)C=C5)cc3)CCC2)cs1
REMARK SMILES IDX 16 1 15 2 14 3 13 4 11 5 12 6 10 7 9 8 88 9 90 10 89 11 8 12
REMARK SMILES IDX 6 13 7 14 5 16 4 17 2 18 3 19 92 20 91 21 1 22 17 25 18 26
REMARK SMILES IDX 19 27 20 28 21 29 22 30 23 31 24 32 25 33 26 34 87 35 27 36
REMARK SMILES IDX 86 37 28 38 29 39 30 40 80 41 31 42 85 43 79 44 81 45 32 46
REMARK SMILES IDX 84 47 78 48 77 49 33 51 65 52 45 53 64 54 46 55 49 56 63 57
REMARK SMILES IDX 82 58 47 59 48 60 62 62 83 63 50 64 34 65 35 66 43 67 36 68
REMARK SMILES IDX 37 69 41 70 44 71 38 72 39 73 42 74 40 75 66 76 67 77 75 78
REMARK SMILES IDX 68 79 69 80 73 81 76 82 70 83 71 84 74 85 72 86 51 87 52 88
REMARK SMILES IDX 60 89 53 90 54 91 58 92 61 93 55 94 56 95 59 96 57 97
REMARK H PARENT 8 15 1 23 1 24 81 50 49 61
REMARK Flexibility Score: inf
ROOT
ATOM      1  O   UNL A   1      34.032  31.404  27.454  1.00  0.00    -0.376 OA
ENDROOT
BRANCH   1   2
ATOM      2  C   UNL A   1      34.156  29.988  27.362  1.00  0.00     0.202 C 
BRANCH   2   3
ATOM      3  C   UNL A   1      33.190  29.323  26.384  1.00  0.00     0.261 C 
BRANCH   3   4
ATOM      4  O   UNL A   1      32.998  27.930  26.702  1.00  0.00    -0.463 OA
BRANCH   4   5
ATOM      5  C   UNL A   1      31.736  27.617  27.080  1.00  0.00     0.308 C 
ATOM      6  O   UNL A   1      31.166  28.119  28.044  1.00  0.00    -0.252 OA
BRANCH   5   7
ATOM      7  C   UNL A   1      31.109  26.515  26.275  1.00  0.00     0.151 C 
BRANCH   7   8
ATOM      8  C   UNL A   1      31.410  26.338  24.786  1.00  0.00     0.050 C 
ATOM      9  C   UNL A   1      30.976  27.570  23.913  1.00  0.00     0.029 C 
ATOM     10  C   UNL A   1      30.293  25.549  24.005  1.00  0.00     0.029 C 
ATOM     11  C   UNL A   1      29.610  26.892  23.700  1.00  0.00     0.005 C 
BRANCH   8  12
ATOM     12  N   UNL A   1      32.761  25.870  24.378  1.00  0.00    -0.350 N 
ATOM     13  C   UNL A   1      33.579  24.823  24.663  1.00  0.00     0.226 C 
ATOM     14  O   UNL A   1      34.663  24.808  24.072  1.00  0.00    -0.275 OA
ATOM     15  H   UNL A   1      33.172  26.482  23.726  1.00  0.00     0.164 HD
BRANCH  13  16
ATOM     16  C   UNL A   1      33.241  23.696  25.594  1.00  0.00     0.157 C 
BRANCH  16  17
ATOM     17  C   UNL A   1      32.984  22.447  24.843  1.00  0.00     0.063 A 
ATOM     18  C   UNL A   1      32.227  21.387  23.059  1.00  0.00     0.180 A 
ATOM     19  N   UNL A   1      32.499  22.563  23.558  1.00  0.00    -0.225 NA
ATOM     20  S   UNL A   1      32.629  20.058  24.063  1.00  0.00    -0.106 S 
ATOM     21  C   UNL A   1      33.164  21.146  25.277  1.00  0.00     0.093 A 
BRANCH  18  22
ATOM     22  N   UNL A   1      31.657  21.245  21.861  1.00  0.00    -0.375 N 
ATOM     23  H   UNL A   1      31.455  22.038  21.315  1.00  0.00     0.159 HD
ATOM     24  H   UNL A   1      31.438  20.347  21.524  1.00  0.00     0.159 HD
ENDBRANCH  18  22
ENDBRANCH  16  17
ENDBRANCH  13  16
ENDBRANCH   8  12
ENDBRANCH   7   8
ENDBRANCH   5   7
ENDBRANCH   4   5
ENDBRANCH   3   4
ENDBRANCH   2   3
ENDBRANCH   1   2
BRANCH   1  25
ATOM     25  C   UNL A   1      35.070  32.114  28.122  1.00  0.00     0.188 C 
BRANCH  25  26
ATOM     26  C   UNL A   1      34.686  32.963  29.345  1.00  0.00     0.188 C 
BRANCH  26  27
ATOM     27  O   UNL A   1      33.462  33.681  29.336  1.00  0.00    -0.376 OA
BRANCH  27  28
ATOM     28  C   UNL A   1      33.487  35.007  28.833  1.00  0.00     0.202 C 
BRANCH  28  29
ATOM     29  C   UNL A   1      32.892  36.062  29.761  1.00  0.00     0.261 C 
BRANCH  29  30
ATOM     30  O   UNL A   1      32.222  35.486  30.897  1.00  0.00    -0.460 OA
BRANCH  30  31
ATOM     31  C   UNL A   1      32.666  35.883  32.114  1.00  0.00     0.338 C 
ATOM     32  O   UNL A   1      32.157  36.731  32.838  1.00  0.00    -0.246 OA
BRANCH  31  33
ATOM     33  C   UNL A   1      33.834  35.075  32.531  1.00  0.00     0.060 A 
ATOM     34  C   UNL A   1      35.112  35.616  32.343  1.00  0.00     0.016 A 
ATOM     35  C   UNL A   1      33.695  33.800  33.092  1.00  0.00     0.016 A 
ATOM     36  C   UNL A   1      36.245  34.910  32.755  1.00  0.00     0.010 A 
ATOM     37  C   UNL A   1      34.832  33.077  33.469  1.00  0.00     0.010 A 
ATOM     38  C   UNL A   1      36.112  33.631  33.312  1.00  0.00    -0.014 A 
BRANCH  38  39
ATOM     39  C   UNL A   1      37.317  32.827  33.626  1.00  0.00     0.031 A 
ATOM     40  C   UNL A   1      38.066  33.107  34.895  1.00  0.00     0.074 A 
ATOM     41  C   UNL A   1      37.746  31.864  32.791  1.00  0.00     0.049 A 
ATOM     42  N   UNL A   1      39.165  32.560  35.351  1.00  0.00    -0.248 NA
ATOM     43  C   UNL A   1      37.493  34.136  35.777  1.00  0.00     0.031 C 
ATOM     44  C   UNL A   1      37.071  31.447  31.563  1.00  0.00     0.029 A 
ATOM     45  N   UNL A   1      38.866  31.069  32.846  1.00  0.00    -0.354 N 
ATOM     46  C   UNL A   1      39.400  33.159  36.580  1.00  0.00     0.074 A 
ATOM     47  C   UNL A   1      38.343  34.125  36.792  1.00  0.00     0.031 C 
ATOM     48  C   UNL A   1      37.805  30.493  30.964  1.00  0.00     0.029 A 
ATOM     49  C   UNL A   1      39.016  30.254  31.751  1.00  0.00     0.049 A 
ATOM     50  H   UNL A   1      39.499  31.081  33.600  1.00  0.00     0.167 HD
ATOM     51  C   UNL A   1      40.410  32.930  37.452  1.00  0.00     0.037 A 
ATOM     52  C   UNL A   1      40.034  29.436  31.411  1.00  0.00     0.037 A 
ATOM     53  C   UNL A   1      41.499  32.024  37.212  1.00  0.00     0.049 A 
ATOM     54  C   UNL A   1      41.231  29.322  32.324  1.00  0.00     0.074 A 
ATOM     55  C   UNL A   1      42.580  31.739  38.028  1.00  0.00     0.029 A 
ATOM     56  N   UNL A   1      41.664  31.281  36.053  1.00  0.00    -0.354 N 
ATOM     57  N   UNL A   1      41.431  29.863  33.502  1.00  0.00    -0.248 NA
ATOM     58  C   UNL A   1      42.351  28.495  31.852  1.00  0.00     0.031 C 
ATOM     59  C   UNL A   1      43.432  30.872  37.333  1.00  0.00     0.029 A 
ATOM     60  C   UNL A   1      42.854  30.575  36.110  1.00  0.00     0.049 A 
ATOM     61  H   UNL A   1      41.029  31.259  35.301  1.00  0.00     0.167 HD
ATOM     62  C   UNL A   1      42.685  29.430  33.917  1.00  0.00     0.074 A 
ATOM     63  C   UNL A   1      43.194  28.567  32.873  1.00  0.00     0.031 C 
ATOM     64  C   UNL A   1      43.354  29.724  35.059  1.00  0.00     0.037 A 
BRANCH  51  65
ATOM     65  C   UNL A   1      40.399  33.725  38.721  1.00  0.00     0.064 A 
ATOM     66  C   UNL A   1      41.150  34.903  38.857  1.00  0.00     0.173 A 
ATOM     67  C   UNL A   1      39.639  33.298  39.820  1.00  0.00     0.173 A 
ATOM     68  F   UNL A   1      41.908  35.341  37.839  1.00  0.00    -0.203 F 
ATOM     69  C   UNL A   1      41.163  35.607  40.057  1.00  0.00     0.198 A 
ATOM     70  C   UNL A   1      39.635  34.019  41.009  1.00  0.00     0.198 A 
ATOM     71  F   UNL A   1      38.906  32.178  39.740  1.00  0.00    -0.203 F 
ATOM     72  F   UNL A   1      41.929  36.701  40.182  1.00  0.00    -0.200 F 
ATOM     73  C   UNL A   1      40.404  35.168  41.130  1.00  0.00     0.200 A 
ATOM     74  F   UNL A   1      38.896  33.596  42.045  1.00  0.00    -0.200 F 
ATOM     75  F   UNL A   1      40.423  35.843  42.288  1.00  0.00    -0.200 F 
ENDBRANCH  51  65
BRANCH  52  76
ATOM     76  C   UNL A   1      39.998  28.686  30.127  1.00  0.00     0.064 A 
ATOM     77  C   UNL A   1      39.409  27.417  30.047  1.00  0.00     0.173 A 
ATOM     78  C   UNL A   1      40.591  29.203  28.965  1.00  0.00     0.173 A 
ATOM     79  F   UNL A   1      38.862  26.863  31.139  1.00  0.00    -0.203 F 
ATOM     80  C   UNL A   1      39.431  26.686  28.861  1.00  0.00     0.198 A 
ATOM     81  C   UNL A   1      40.588  28.483  27.772  1.00  0.00     0.198 A 
ATOM     82  F   UNL A   1      41.182  30.406  28.990  1.00  0.00    -0.203 F 
ATOM     83  F   UNL A   1      38.909  25.452  28.826  1.00  0.00    -0.200 F 
ATOM     84  C   UNL A   1      40.015  27.222  27.722  1.00  0.00     0.200 A 
ATOM     85  F   UNL A   1      41.152  29.006  26.675  1.00  0.00    -0.200 F 
ATOM     86  F   UNL A   1      40.040  26.517  26.583  1.00  0.00    -0.200 F 
ENDBRANCH  52  76
BRANCH  64  87
ATOM     87  C   UNL A   1      44.711  29.108  35.250  1.00  0.00     0.064 A 
ATOM     88  C   UNL A   1      44.864  27.840  35.831  1.00  0.00     0.173 A 
ATOM     89  C   UNL A   1      45.862  29.759  34.784  1.00  0.00     0.173 A 
ATOM     90  F   UNL A   1      43.795  27.183  36.307  1.00  0.00    -0.203 F 
ATOM     91  C   UNL A   1      46.120  27.253  35.949  1.00  0.00     0.198 A 
ATOM     92  C   UNL A   1      47.115  29.158  34.878  1.00  0.00     0.198 A 
ATOM     93  F   UNL A   1      45.771  30.971  34.215  1.00  0.00    -0.203 F 
ATOM     94  F   UNL A   1      46.247  26.056  36.538  1.00  0.00    -0.200 F 
ATOM     95  C   UNL A   1      47.243  27.907  35.463  1.00  0.00     0.200 A 
ATOM     96  F   UNL A   1      48.196  29.783  34.394  1.00  0.00    -0.200 F 
ATOM     97  F   UNL A   1      48.450  27.333  35.561  1.00  0.00    -0.200 F 
ENDBRANCH  64  87
ENDBRANCH  38  39
ENDBRANCH  31  33
ENDBRANCH  30  31
ENDBRANCH  29  30
ENDBRANCH  28  29
ENDBRANCH  27  28
ENDBRANCH  26  27
ENDBRANCH  25  26
ENDBRANCH   1  25
TORSDOF 22
ENDMDL
MODEL 3
REMARK VINA RESULT:     -10.3      4.339      8.654
REMARK SMILES Nc1nc(CC(=O)NC2(CC(=O)OCCOCCOCCOC(=O)c3ccc(-c4c5nc(c(-c6c(F)c(F)c(F)c(F)c6F)c6ccc([nH]6)c(-c6c(F)c(F)c(F)c(F)c6F)c6nc(c(-c7c(F)c(F)c(F)c(F)c7F)c7ccc4[nH]7)C=C6)C=C5)cc3)CCC2)cs1
REMARK SMILES IDX 16 1 15 2 14 3 13 4 11 5 12 6 10 7 9 8 88 9 90 10 89 11 8 12
REMARK SMILES IDX 6 13 7 14 5 16 4 17 2 18 3 19 92 20 91 21 1 22 17 25 18 26
REMARK SMILES IDX 19 27 20 28 21 29 22 30 23 31 24 32 25 33 26 34 87 35 27 36
REMARK SMILES IDX 86 37 28 38 29 39 30 40 80 41 31 42 85 43 79 44 81 45 32 46
REMARK SMILES IDX 84 47 78 48 77 49 33 51 65 52 45 53 64 54 46 55 49 56 63 57
REMARK SMILES IDX 82 58 47 59 48 60 62 62 83 63 50 64 34 65 35 66 43 67 36 68
REMARK SMILES IDX 37 69 41 70 44 71 38 72 39 73 42 74 40 75 66 76 67 77 75 78
REMARK SMILES IDX 68 79 69 80 73 81 76 82 70 83 71 84 74 85 72 86 51 87 52 88
REMARK SMILES IDX 60 89 53 90 54 91 58 92 61 93 55 94 56 95 59 96 57 97
REMARK H PARENT 8 15 1 23 1 24 81 50 49 61
REMARK Flexibility Score: inf
ROOT
ATOM      1  O   UNL A   1      30.872  25.132  24.007  1.00  0.00    -0.376 OA
ENDROOT
BRANCH   1   2
ATOM      2  C   UNL A   1      30.660  25.938  25.163  1.00  0.00     0.202 C 
BRANCH   2   3
ATOM      3  C   UNL A   1      31.642  25.689  26.305  1.00  0.00     0.261 C 
BRANCH   3   4
ATOM      4  O   UNL A   1      32.395  24.476  26.095  1.00  0.00    -0.463 OA
BRANCH   4   5
ATOM      5  C   UNL A   1      33.720  24.674  25.901  1.00  0.00     0.308 C 
ATOM      6  O   UNL A   1      34.220  25.766  25.650  1.00  0.00    -0.252 OA
BRANCH   5   7
ATOM      7  C   UNL A   1      34.537  23.414  25.921  1.00  0.00     0.151 C 
BRANCH   7   8
ATOM      8  C   UNL A   1      35.156  22.838  24.647  1.00  0.00     0.050 C 
ATOM      9  C   UNL A   1      35.741  21.392  24.840  1.00  0.00     0.029 C 
ATOM     10  C   UNL A   1      36.651  23.276  24.416  1.00  0.00     0.029 C 
ATOM     11  C   UNL A   1      37.099  22.027  25.192  1.00  0.00     0.005 C 
BRANCH   8  12
ATOM     12  N   UNL A   1      34.388  22.916  23.377  1.00  0.00    -0.350 N 
ATOM     13  C   UNL A   1      33.145  22.578  22.944  1.00  0.00     0.226 C 
ATOM     14  O   UNL A   1      32.896  22.834  21.762  1.00  0.00    -0.275 OA
ATOM     15  H   UNL A   1      34.923  23.321  22.658  1.00  0.00     0.164 HD
BRANCH  13  16
ATOM     16  C   UNL A   1      32.073  21.967  23.798  1.00  0.00     0.157 C 
BRANCH  16  17
ATOM     17  C   UNL A   1      32.324  20.524  24.012  1.00  0.00     0.063 A 
ATOM     18  C   UNL A   1      32.699  18.807  25.349  1.00  0.00     0.180 A 
ATOM     19  N   UNL A   1      32.372  20.071  25.313  1.00  0.00    -0.225 NA
ATOM     20  S   UNL A   1      32.873  18.055  23.820  1.00  0.00    -0.106 S 
ATOM     21  C   UNL A   1      32.530  19.550  23.053  1.00  0.00     0.093 A 
BRANCH  18  22
ATOM     22  N   UNL A   1      32.902  18.165  26.501  1.00  0.00    -0.375 N 
ATOM     23  H   UNL A   1      33.639  18.438  27.093  1.00  0.00     0.159 HD
ATOM     24  H   UNL A   1      32.315  17.418  26.757  1.00  0.00     0.159 HD
ENDBRANCH  18  22
ENDBRANCH  16  17
ENDBRANCH  13  16
ENDBRANCH   8  12
ENDBRANCH   7   8
ENDBRANCH   5   7
ENDBRANCH   4   5
ENDBRANCH   3   4
ENDBRANCH   2   3
ENDBRANCH   1   2
BRANCH   1  25
ATOM     25  C   UNL A   1      30.985  25.796  22.753  1.00  0.00     0.188 C 
BRANCH  25  26
ATOM     26  C   UNL A   1      32.269  26.596  22.480  1.00  0.00     0.188 C 
BRANCH  26  27
ATOM     27  O   UNL A   1      32.323  27.969  22.836  1.00  0.00    -0.376 OA
BRANCH  27  28
ATOM     28  C   UNL A   1      33.217  28.340  23.873  1.00  0.00     0.202 C 
BRANCH  28  29
ATOM     29  C   UNL A   1      32.602  29.183  24.986  1.00  0.00     0.261 C 
BRANCH  29  30
ATOM     30  O   UNL A   1      33.434  30.295  25.364  1.00  0.00    -0.460 OA
BRANCH  30  31
ATOM     31  C   UNL A   1      33.225  30.801  26.603  1.00  0.00     0.338 C 
ATOM     32  O   UNL A   1      32.199  31.334  27.012  1.00  0.00    -0.246 OA
BRANCH  31  33
ATOM     33  C   UNL A   1      34.393  30.545  27.474  1.00  0.00     0.060 A 
ATOM     34  C   UNL A   1      35.331  31.572  27.642  1.00  0.00     0.016 A 
ATOM     35  C   UNL A   1      34.586  29.317  28.118  1.00  0.00     0.016 A 
ATOM     36  C   UNL A   1      36.430  31.394  28.485  1.00  0.00     0.010 A 
ATOM     37  C   UNL A   1      35.708  29.126  28.932  1.00  0.00     0.010 A 
ATOM     38  C   UNL A   1      36.632  30.165  29.127  1.00  0.00    -0.014 A 
BRANCH  38  39
ATOM     39  C   UNL A   1      37.866  29.930  29.914  1.00  0.00     0.031 A 
ATOM     40  C   UNL A   1      38.905  28.993  29.373  1.00  0.00     0.074 A 
ATOM     41  C   UNL A   1      38.058  30.535  31.100  1.00  0.00     0.049 A 
ATOM     42  N   UNL A   1      40.035  28.607  29.907  1.00  0.00    -0.248 NA
ATOM     43  C   UNL A   1      38.639  28.423  28.043  1.00  0.00     0.031 C 
ATOM     44  C   UNL A   1      37.159  31.517  31.703  1.00  0.00     0.029 A 
ATOM     45  N   UNL A   1      39.072  30.398  32.017  1.00  0.00    -0.354 N 
ATOM     46  C   UNL A   1      40.625  27.770  28.971  1.00  0.00     0.074 A 
ATOM     47  C   UNL A   1      39.721  27.688  27.843  1.00  0.00     0.031 C 
ATOM     48  C   UNL A   1      37.647  31.874  32.905  1.00  0.00     0.029 A 
ATOM     49  C   UNL A   1      38.875  31.121  33.167  1.00  0.00     0.049 A 
ATOM     50  H   UNL A   1      39.865  29.835  31.863  1.00  0.00     0.167 HD
ATOM     51  C   UNL A   1      41.812  27.123  29.046  1.00  0.00     0.037 A 
ATOM     52  C   UNL A   1      39.590  31.144  34.312  1.00  0.00     0.037 A 
ATOM     53  C   UNL A   1      42.678  27.145  30.192  1.00  0.00     0.049 A 
ATOM     54  C   UNL A   1      40.824  30.284  34.432  1.00  0.00     0.074 A 
ATOM     55  C   UNL A   1      43.892  26.506  30.370  1.00  0.00     0.029 A 
ATOM     56  N   UNL A   1      42.403  27.820  31.373  1.00  0.00    -0.354 N 
ATOM     57  N   UNL A   1      41.397  29.523  33.531  1.00  0.00    -0.248 NA
ATOM     58  C   UNL A   1      41.503  30.274  35.737  1.00  0.00     0.031 C 
ATOM     59  C   UNL A   1      44.319  26.741  31.682  1.00  0.00     0.029 A 
ATOM     60  C   UNL A   1      43.400  27.571  32.301  1.00  0.00     0.049 A 
ATOM     61  H   UNL A   1      41.616  28.390  31.527  1.00  0.00     0.167 HD
ATOM     62  C   UNL A   1      42.507  28.960  34.150  1.00  0.00     0.074 A 
ATOM     63  C   UNL A   1      42.539  29.480  35.501  1.00  0.00     0.031 C 
ATOM     64  C   UNL A   1      43.415  28.089  33.647  1.00  0.00     0.037 A 
BRANCH  51  65
ATOM     65  C   UNL A   1      42.202  26.290  27.864  1.00  0.00     0.064 A 
ATOM     66  C   UNL A   1      41.690  24.997  27.674  1.00  0.00     0.173 A 
ATOM     67  C   UNL A   1      43.108  26.785  26.914  1.00  0.00     0.173 A 
ATOM     68  F   UNL A   1      40.835  24.472  28.567  1.00  0.00    -0.203 F 
ATOM     69  C   UNL A   1      42.096  24.219  26.594  1.00  0.00     0.198 A 
ATOM     70  C   UNL A   1      43.491  26.014  25.822  1.00  0.00     0.198 A 
ATOM     71  F   UNL A   1      43.627  28.014  27.052  1.00  0.00    -0.203 F 
ATOM     72  F   UNL A   1      41.635  22.967  26.461  1.00  0.00    -0.200 F 
ATOM     73  C   UNL A   1      42.992  24.728  25.667  1.00  0.00     0.200 A 
ATOM     74  F   UNL A   1      44.354  26.509  24.923  1.00  0.00    -0.200 F 
ATOM     75  F   UNL A   1      43.387  23.977  24.631  1.00  0.00    -0.200 F 
ENDBRANCH  51  65
BRANCH  52  76
ATOM     76  C   UNL A   1      39.141  31.977  35.460  1.00  0.00     0.064 A 
ATOM     77  C   UNL A   1      38.330  31.440  36.469  1.00  0.00     0.173 A 
ATOM     78  C   UNL A   1      39.476  33.336  35.548  1.00  0.00     0.173 A 
ATOM     79  F   UNL A   1      37.951  30.155  36.410  1.00  0.00    -0.203 F 
ATOM     80  C   UNL A   1      37.857  32.234  37.512  1.00  0.00     0.198 A 
ATOM     81  C   UNL A   1      39.026  34.123  36.606  1.00  0.00     0.198 A 
ATOM     82  F   UNL A   1      40.237  33.904  34.601  1.00  0.00    -0.203 F 
ATOM     83  F   UNL A   1      37.038  31.709  38.434  1.00  0.00    -0.200 F 
ATOM     84  C   UNL A   1      38.210  33.574  37.583  1.00  0.00     0.200 A 
ATOM     85  F   UNL A   1      39.370  35.416  36.671  1.00  0.00    -0.200 F 
ATOM     86  F   UNL A   1      37.750  34.338  38.583  1.00  0.00    -0.200 F 
ENDBRANCH  52  76
BRANCH  64  87
ATOM     87  C   UNL A   1      44.528  27.641  34.551  1.00  0.00     0.064 A 
ATOM     88  C   UNL A   1      44.377  26.539  35.406  1.00  0.00     0.173 A 
ATOM     89  C   UNL A   1      45.779  28.273  34.511  1.00  0.00     0.173 A 
ATOM     90  F   UNL A   1      43.195  25.909  35.492  1.00  0.00    -0.203 F 
ATOM     91  C   UNL A   1      45.434  26.095  36.196  1.00  0.00     0.198 A 
ATOM     92  C   UNL A   1      46.843  27.809  35.281  1.00  0.00     0.198 A 
ATOM     93  F   UNL A   1      45.979  29.328  33.706  1.00  0.00    -0.203 F 
ATOM     94  F   UNL A   1      45.257  25.060  37.029  1.00  0.00    -0.200 F 
ATOM     95  C   UNL A   1      46.668  26.723  36.125  1.00  0.00     0.200 A 
ATOM     96  F   UNL A   1      48.039  28.408  35.200  1.00  0.00    -0.200 F 
ATOM     97  F   UNL A   1      47.690  26.283  36.873  1.00  0.00    -0.200 F 
ENDBRANCH  64  87
ENDBRANCH  38  39
ENDBRANCH  31  33
ENDBRANCH  30  31
ENDBRANCH  29  30
ENDBRANCH  28  29
ENDBRANCH  27  28
ENDBRANCH  26  27
ENDBRANCH  25  26
ENDBRANCH   1  25
TORSDOF 22
ENDMDL
