MODEL 1
REMARK VINA RESULT:     -10.6      0.000      0.000
REMARK SMILES CCC[C@H](Cc1ccn(-c2ccccc2)n1)C(=O)OCCOCCOCCOC(=O)c1ccc(-c2c3nc(c(-c4c(F)c(F)c(F)c(F)c4F)c4ccc([nH]4)c(-c4c(F)c(F)c(F)c(F)c4F)c4nc(c(-c5c(F)c(F)c(F)c(F)c5F)c5ccc2[nH]5)C=C4)C=C3)cc1
REMARK SMILES IDX 23 1 22 2 21 3 20 4 19 5 17 6 18 7 4 8 3 9 2 10 1 11 5 12
REMARK SMILES IDX 6 13 7 14 16 15 8 16 9 17 10 18 11 19 15 20 12 21 14 22
REMARK SMILES IDX 13 23 24 24 25 25 26 26 27 27 28 28 29 29 30 30 31 31 32 32
REMARK SMILES IDX 93 33 33 34 92 35 34 36 35 37 36 38 86 39 37 40 91 41 85 42
REMARK SMILES IDX 87 43 38 44 90 45 84 46 83 47 39 49 71 50 51 51 70 52 52 53
REMARK SMILES IDX 55 54 69 55 88 56 53 57 54 58 68 60 89 61 56 62 40 63 41 64
REMARK SMILES IDX 49 65 42 66 43 67 47 68 50 69 44 70 45 71 48 72 46 73 72 74
REMARK SMILES IDX 73 75 81 76 74 77 75 78 79 79 82 80 76 81 77 82 80 83 78 84
REMARK SMILES IDX 57 85 58 86 66 87 59 88 60 89 64 90 67 91 61 92 62 93 65 94
REMARK SMILES IDX 63 95
REMARK H PARENT 87 48 55 59
REMARK Flexibility Score: inf
ROOT
ATOM      1  C   UNL A   1      37.977  22.027  25.725  1.00  0.00     0.188 C 
ENDROOT
BRANCH   1   2
ATOM      2  O   UNL A   1      37.342  22.496  24.536  1.00  0.00    -0.376 OA
BRANCH   2   3
ATOM      3  C   UNL A   1      36.531  23.656  24.679  1.00  0.00     0.202 C 
BRANCH   3   4
ATOM      4  C   UNL A   1      35.293  23.727  23.773  1.00  0.00     0.261 C 
BRANCH   4   5
ATOM      5  O   UNL A   1      34.472  24.903  23.953  1.00  0.00    -0.463 OA
BRANCH   5   6
ATOM      6  C   UNL A   1      33.493  25.085  23.028  1.00  0.00     0.309 C 
ATOM      7  O   UNL A   1      33.700  25.128  21.817  1.00  0.00    -0.252 OA
BRANCH   6   8
ATOM      8  C   UNL A   1      32.080  25.249  23.589  1.00  0.00     0.105 C 
BRANCH   8   9
ATOM      9  C   UNL A   1      32.170  25.928  24.969  1.00  0.00     0.015 C 
BRANCH   9  10
ATOM     10  C   UNL A   1      31.060  26.902  25.370  1.00  0.00    -0.003 C 
ATOM     11  C   UNL A   1      31.515  28.150  26.110  1.00  0.00     0.004 C 
ENDBRANCH   9  10
ENDBRANCH   8   9
BRANCH   8  12
ATOM     12  C   UNL A   1      31.133  24.044  23.503  1.00  0.00     0.073 C 
BRANCH  12  13
ATOM     13  C   UNL A   1      31.646  22.800  24.181  1.00  0.00     0.064 A 
ATOM     14  C   UNL A   1      31.430  22.430  25.525  1.00  0.00     0.046 A 
ATOM     15  N   UNL A   1      32.319  21.853  23.512  1.00  0.00    -0.173 NA
ATOM     16  C   UNL A   1      31.923  21.154  25.625  1.00  0.00     0.115 A 
ATOM     17  N   UNL A   1      32.397  20.802  24.379  1.00  0.00    -0.241 N 
BRANCH  17  18
ATOM     18  C   UNL A   1      32.890  19.525  23.983  1.00  0.00     0.065 A 
ATOM     19  C   UNL A   1      33.980  18.941  24.651  1.00  0.00     0.028 A 
ATOM     20  C   UNL A   1      32.280  18.833  22.930  1.00  0.00     0.028 A 
ATOM     21  C   UNL A   1      34.454  17.684  24.262  1.00  0.00     0.002 A 
ATOM     22  C   UNL A   1      32.777  17.588  22.529  1.00  0.00     0.002 A 
ATOM     23  C   UNL A   1      33.861  17.014  23.196  1.00  0.00     0.000 A 
ENDBRANCH  17  18
ENDBRANCH  12  13
ENDBRANCH   8  12
ENDBRANCH   6   8
ENDBRANCH   5   6
ENDBRANCH   4   5
ENDBRANCH   3   4
ENDBRANCH   2   3
ENDBRANCH   1   2
BRANCH   1  24
ATOM     24  C   UNL A   1      38.798  23.079  26.474  1.00  0.00     0.188 C 
BRANCH  24  25
ATOM     25  O   UNL A   1      40.188  22.793  26.573  1.00  0.00    -0.376 OA
BRANCH  25  26
ATOM     26  C   UNL A   1      40.682  21.705  27.353  1.00  0.00     0.202 C 
BRANCH  26  27
ATOM     27  C   UNL A   1      41.630  20.631  26.795  1.00  0.00     0.261 C 
BRANCH  27  28
ATOM     28  O   UNL A   1      42.216  20.933  25.548  1.00  0.00    -0.460 OA
BRANCH  28  29
ATOM     29  C   UNL A   1      43.565  20.904  25.519  1.00  0.00     0.338 C 
ATOM     30  O   UNL A   1      44.282  19.935  25.370  1.00  0.00    -0.246 OA
BRANCH  29  31
ATOM     31  C   UNL A   1      44.015  22.304  25.655  1.00  0.00     0.060 A 
ATOM     32  C   UNL A   1      44.881  22.602  26.703  1.00  0.00     0.016 A 
ATOM     33  C   UNL A   1      43.534  23.312  24.792  1.00  0.00     0.016 A 
ATOM     34  C   UNL A   1      45.059  23.927  27.038  1.00  0.00     0.010 A 
ATOM     35  C   UNL A   1      43.740  24.635  25.100  1.00  0.00     0.010 A 
ATOM     36  C   UNL A   1      44.380  24.906  26.300  1.00  0.00    -0.014 A 
BRANCH  36  37
ATOM     37  C   UNL A   1      44.097  26.149  26.987  1.00  0.00     0.031 A 
ATOM     38  C   UNL A   1      45.106  27.206  26.882  1.00  0.00     0.074 A 
ATOM     39  C   UNL A   1      42.955  26.269  27.696  1.00  0.00     0.049 A 
ATOM     40  N   UNL A   1      45.857  27.661  27.827  1.00  0.00    -0.248 NA
ATOM     41  C   UNL A   1      45.354  27.795  25.560  1.00  0.00     0.031 C 
ATOM     42  C   UNL A   1      41.768  25.407  27.599  1.00  0.00     0.029 A 
ATOM     43  N   UNL A   1      42.574  27.230  28.589  1.00  0.00    -0.354 N 
ATOM     44  C   UNL A   1      46.522  28.743  27.274  1.00  0.00     0.074 A 
ATOM     45  C   UNL A   1      46.298  28.692  25.850  1.00  0.00     0.031 C 
ATOM     46  C   UNL A   1      40.737  25.996  28.236  1.00  0.00     0.029 A 
ATOM     47  C   UNL A   1      41.228  27.185  28.909  1.00  0.00     0.049 A 
ATOM     48  H   UNL A   1      43.197  27.890  28.969  1.00  0.00     0.167 HD
ATOM     49  C   UNL A   1      46.951  29.762  28.060  1.00  0.00     0.037 A 
ATOM     50  C   UNL A   1      40.530  28.085  29.637  1.00  0.00     0.037 A 
ATOM     51  C   UNL A   1      46.960  29.423  29.457  1.00  0.00     0.049 A 
ATOM     52  C   UNL A   1      41.468  28.832  30.504  1.00  0.00     0.074 A 
ATOM     53  C   UNL A   1      47.834  28.844  30.348  1.00  0.00     0.029 A 
ATOM     54  N   UNL A   1      45.732  29.458  30.058  1.00  0.00    -0.354 N 
ATOM     55  N   UNL A   1      42.133  28.292  31.488  1.00  0.00    -0.248 NA
ATOM     56  C   UNL A   1      41.921  30.161  30.098  1.00  0.00     0.031 C 
ATOM     57  C   UNL A   1      47.067  28.461  31.489  1.00  0.00     0.029 A 
ATOM     58  C   UNL A   1      45.741  28.810  31.266  1.00  0.00     0.049 A 
ATOM     59  H   UNL A   1      44.939  29.895  29.671  1.00  0.00     0.167 HD
ATOM     60  C   UNL A   1      43.307  29.015  31.540  1.00  0.00     0.074 A 
ATOM     61  C   UNL A   1      43.055  30.240  30.799  1.00  0.00     0.031 C 
ATOM     62  C   UNL A   1      44.487  28.421  31.866  1.00  0.00     0.037 A 
BRANCH  49  63
ATOM     63  C   UNL A   1      46.929  31.199  27.624  1.00  0.00     0.064 A 
ATOM     64  C   UNL A   1      45.699  31.839  27.395  1.00  0.00     0.173 A 
ATOM     65  C   UNL A   1      48.076  31.862  27.136  1.00  0.00     0.173 A 
ATOM     66  F   UNL A   1      44.551  31.262  27.778  1.00  0.00    -0.203 F 
ATOM     67  C   UNL A   1      45.625  33.051  26.704  1.00  0.00     0.198 A 
ATOM     68  C   UNL A   1      48.003  33.097  26.498  1.00  0.00     0.198 A 
ATOM     69  F   UNL A   1      49.286  31.285  27.160  1.00  0.00    -0.203 F 
ATOM     70  F   UNL A   1      44.429  33.583  26.421  1.00  0.00    -0.200 F 
ATOM     71  C   UNL A   1      46.777  33.681  26.262  1.00  0.00     0.200 A 
ATOM     72  F   UNL A   1      49.126  33.677  26.051  1.00  0.00    -0.200 F 
ATOM     73  F   UNL A   1      46.703  34.822  25.567  1.00  0.00    -0.200 F 
ENDBRANCH  49  63
BRANCH  50  74
ATOM     74  C   UNL A   1      39.125  28.487  29.425  1.00  0.00     0.064 A 
ATOM     75  C   UNL A   1      38.230  28.601  30.496  1.00  0.00     0.173 A 
ATOM     76  C   UNL A   1      38.703  29.010  28.186  1.00  0.00     0.173 A 
ATOM     77  F   UNL A   1      38.579  28.165  31.714  1.00  0.00    -0.203 F 
ATOM     78  C   UNL A   1      36.988  29.224  30.341  1.00  0.00     0.198 A 
ATOM     79  C   UNL A   1      37.461  29.619  28.029  1.00  0.00     0.198 A 
ATOM     80  F   UNL A   1      39.525  29.018  27.126  1.00  0.00    -0.203 F 
ATOM     81  F   UNL A   1      36.180  29.372  31.399  1.00  0.00    -0.200 F 
ATOM     82  C   UNL A   1      36.608  29.739  29.111  1.00  0.00     0.200 A 
ATOM     83  F   UNL A   1      37.121  30.141  26.842  1.00  0.00    -0.200 F 
ATOM     84  F   UNL A   1      35.443  30.387  28.977  1.00  0.00    -0.200 F 
ENDBRANCH  50  74
BRANCH  62  85
ATOM     85  C   UNL A   1      44.428  27.194  32.713  1.00  0.00     0.064 A 
ATOM     86  C   UNL A   1      44.332  27.213  34.113  1.00  0.00     0.173 A 
ATOM     87  C   UNL A   1      44.438  25.945  32.077  1.00  0.00     0.173 A 
ATOM     88  F   UNL A   1      44.243  28.374  34.777  1.00  0.00    -0.203 F 
ATOM     89  C   UNL A   1      44.298  26.028  34.845  1.00  0.00     0.198 A 
ATOM     90  C   UNL A   1      44.374  24.763  32.808  1.00  0.00     0.198 A 
ATOM     91  F   UNL A   1      44.489  25.874  30.737  1.00  0.00    -0.203 F 
ATOM     92  F   UNL A   1      44.233  26.066  36.183  1.00  0.00    -0.200 F 
ATOM     93  C   UNL A   1      44.317  24.804  34.191  1.00  0.00     0.200 A 
ATOM     94  F   UNL A   1      44.355  23.585  32.169  1.00  0.00    -0.200 F 
ATOM     95  F   UNL A   1      44.263  23.664  34.894  1.00  0.00    -0.200 F 
ENDBRANCH  62  85
ENDBRANCH  36  37
ENDBRANCH  29  31
ENDBRANCH  28  29
ENDBRANCH  27  28
ENDBRANCH  26  27
ENDBRANCH  25  26
ENDBRANCH  24  25
ENDBRANCH   1  24
TORSDOF 22
ENDMDL
MODEL 2
REMARK VINA RESULT:     -10.5      1.619      3.876
REMARK SMILES CCC[C@H](Cc1ccn(-c2ccccc2)n1)C(=O)OCCOCCOCCOC(=O)c1ccc(-c2c3nc(c(-c4c(F)c(F)c(F)c(F)c4F)c4ccc([nH]4)c(-c4c(F)c(F)c(F)c(F)c4F)c4nc(c(-c5c(F)c(F)c(F)c(F)c5F)c5ccc2[nH]5)C=C4)C=C3)cc1
REMARK SMILES IDX 23 1 22 2 21 3 20 4 19 5 17 6 18 7 4 8 3 9 2 10 1 11 5 12
REMARK SMILES IDX 6 13 7 14 16 15 8 16 9 17 10 18 11 19 15 20 12 21 14 22
REMARK SMILES IDX 13 23 24 24 25 25 26 26 27 27 28 28 29 29 30 30 31 31 32 32
REMARK SMILES IDX 93 33 33 34 92 35 34 36 35 37 36 38 86 39 37 40 91 41 85 42
REMARK SMILES IDX 87 43 38 44 90 45 84 46 83 47 39 49 71 50 51 51 70 52 52 53
REMARK SMILES IDX 55 54 69 55 88 56 53 57 54 58 68 60 89 61 56 62 40 63 41 64
REMARK SMILES IDX 49 65 42 66 43 67 47 68 50 69 44 70 45 71 48 72 46 73 72 74
REMARK SMILES IDX 73 75 81 76 74 77 75 78 79 79 82 80 76 81 77 82 80 83 78 84
REMARK SMILES IDX 57 85 58 86 66 87 59 88 60 89 64 90 67 91 61 92 62 93 65 94
REMARK SMILES IDX 63 95
REMARK H PARENT 87 48 55 59
REMARK Flexibility Score: inf
ROOT
ATOM      1  C   UNL A   1      38.064  21.220  25.445  1.00  0.00     0.188 C 
ENDROOT
BRANCH   1   2
ATOM      2  O   UNL A   1      36.664  21.397  25.238  1.00  0.00    -0.376 OA
BRANCH   2   3
ATOM      3  C   UNL A   1      36.170  22.719  25.414  1.00  0.00     0.202 C 
BRANCH   3   4
ATOM      4  C   UNL A   1      35.094  22.898  26.494  1.00  0.00     0.261 C 
BRANCH   4   5
ATOM      5  O   UNL A   1      34.121  23.932  26.223  1.00  0.00    -0.463 OA
BRANCH   5   6
ATOM      6  C   UNL A   1      32.831  23.617  26.510  1.00  0.00     0.309 C 
ATOM      7  O   UNL A   1      32.450  23.252  27.621  1.00  0.00    -0.252 OA
BRANCH   6   8
ATOM      8  C   UNL A   1      31.850  23.732  25.343  1.00  0.00     0.105 C 
BRANCH   8   9
ATOM      9  C   UNL A   1      31.187  22.360  25.117  1.00  0.00     0.015 C 
BRANCH   9  10
ATOM     10  C   UNL A   1      32.071  21.112  25.166  1.00  0.00    -0.003 C 
ATOM     11  C   UNL A   1      32.635  20.652  23.831  1.00  0.00     0.004 C 
ENDBRANCH   9  10
ENDBRANCH   8   9
BRANCH   8  12
ATOM     12  C   UNL A   1      32.329  24.454  24.076  1.00  0.00     0.073 C 
BRANCH  12  13
ATOM     13  C   UNL A   1      32.071  25.938  24.071  1.00  0.00     0.064 A 
ATOM     14  C   UNL A   1      33.044  26.955  23.970  1.00  0.00     0.046 A 
ATOM     15  N   UNL A   1      30.830  26.444  24.083  1.00  0.00    -0.173 NA
ATOM     16  C   UNL A   1      32.329  28.116  23.821  1.00  0.00     0.115 A 
ATOM     17  N   UNL A   1      30.993  27.774  23.827  1.00  0.00    -0.241 N 
BRANCH  17  18
ATOM     18  C   UNL A   1      29.890  28.642  23.583  1.00  0.00     0.065 A 
ATOM     19  C   UNL A   1      30.019  30.030  23.762  1.00  0.00     0.028 A 
ATOM     20  C   UNL A   1      28.667  28.117  23.146  1.00  0.00     0.028 A 
ATOM     21  C   UNL A   1      28.934  30.877  23.513  1.00  0.00     0.002 A 
ATOM     22  C   UNL A   1      27.579  28.968  22.926  1.00  0.00     0.002 A 
ATOM     23  C   UNL A   1      27.713  30.346  23.107  1.00  0.00     0.000 A 
ENDBRANCH  17  18
ENDBRANCH  12  13
ENDBRANCH   8  12
ENDBRANCH   6   8
ENDBRANCH   5   6
ENDBRANCH   4   5
ENDBRANCH   3   4
ENDBRANCH   2   3
ENDBRANCH   1   2
BRANCH   1  24
ATOM     24  C   UNL A   1      38.769  22.396  26.125  1.00  0.00     0.188 C 
BRANCH  24  25
ATOM     25  O   UNL A   1      40.171  22.233  26.299  1.00  0.00    -0.376 OA
BRANCH  25  26
ATOM     26  C   UNL A   1      40.713  21.325  27.258  1.00  0.00     0.202 C 
BRANCH  26  27
ATOM     27  C   UNL A   1      41.975  20.485  27.002  1.00  0.00     0.261 C 
BRANCH  27  28
ATOM     28  O   UNL A   1      42.404  20.435  25.659  1.00  0.00    -0.460 OA
BRANCH  28  29
ATOM     29  C   UNL A   1      43.740  20.480  25.475  1.00  0.00     0.338 C 
ATOM     30  O   UNL A   1      44.497  19.545  25.312  1.00  0.00    -0.246 OA
BRANCH  29  31
ATOM     31  C   UNL A   1      44.108  21.911  25.458  1.00  0.00     0.060 A 
ATOM     32  C   UNL A   1      45.150  22.316  26.287  1.00  0.00     0.016 A 
ATOM     33  C   UNL A   1      43.389  22.840  24.676  1.00  0.00     0.016 A 
ATOM     34  C   UNL A   1      45.300  23.666  26.524  1.00  0.00     0.010 A 
ATOM     35  C   UNL A   1      43.561  24.187  24.881  1.00  0.00     0.010 A 
ATOM     36  C   UNL A   1      44.416  24.561  25.907  1.00  0.00    -0.014 A 
BRANCH  36  37
ATOM     37  C   UNL A   1      44.195  25.819  26.588  1.00  0.00     0.031 A 
ATOM     38  C   UNL A   1      45.210  26.858  26.402  1.00  0.00     0.074 A 
ATOM     39  C   UNL A   1      43.101  25.969  27.365  1.00  0.00     0.049 A 
ATOM     40  N   UNL A   1      46.026  27.317  27.290  1.00  0.00    -0.248 NA
ATOM     41  C   UNL A   1      45.384  27.421  25.057  1.00  0.00     0.031 C 
ATOM     42  C   UNL A   1      41.898  25.125  27.358  1.00  0.00     0.029 A 
ATOM     43  N   UNL A   1      42.791  26.951  28.263  1.00  0.00    -0.354 N 
ATOM     44  C   UNL A   1      46.671  28.379  26.677  1.00  0.00     0.074 A 
ATOM     45  C   UNL A   1      46.357  28.308  25.271  1.00  0.00     0.031 C 
ATOM     46  C   UNL A   1      40.917  25.741  28.047  1.00  0.00     0.029 A 
ATOM     47  C   UNL A   1      41.467  26.933  28.667  1.00  0.00     0.049 A 
ATOM     48  H   UNL A   1      43.446  27.607  28.591  1.00  0.00     0.167 HD
ATOM     49  C   UNL A   1      47.163  29.404  27.417  1.00  0.00     0.037 A 
ATOM     50  C   UNL A   1      40.830  27.855  29.422  1.00  0.00     0.037 A 
ATOM     51  C   UNL A   1      47.254  29.088  28.817  1.00  0.00     0.049 A 
ATOM     52  C   UNL A   1      41.831  28.602  30.215  1.00  0.00     0.074 A 
ATOM     53  C   UNL A   1      48.175  28.511  29.661  1.00  0.00     0.029 A 
ATOM     54  N   UNL A   1      46.068  29.153  29.492  1.00  0.00    -0.354 N 
ATOM     55  N   UNL A   1      42.549  28.068  31.165  1.00  0.00    -0.248 NA
ATOM     56  C   UNL A   1      42.277  29.916  29.758  1.00  0.00     0.031 C 
ATOM     57  C   UNL A   1      47.474  28.159  30.855  1.00  0.00     0.029 A 
ATOM     58  C   UNL A   1      46.142  28.525  30.708  1.00  0.00     0.049 A 
ATOM     59  H   UNL A   1      45.258  29.596  29.148  1.00  0.00     0.167 HD
ATOM     60  C   UNL A   1      43.734  28.774  31.130  1.00  0.00     0.074 A 
ATOM     61  C   UNL A   1      43.454  29.990  30.385  1.00  0.00     0.031 C 
ATOM     62  C   UNL A   1      44.923  28.166  31.392  1.00  0.00     0.037 A 
BRANCH  49  63
ATOM     63  C   UNL A   1      47.135  30.834  26.958  1.00  0.00     0.064 A 
ATOM     64  C   UNL A   1      48.309  31.604  27.003  1.00  0.00     0.173 A 
ATOM     65  C   UNL A   1      45.931  31.546  26.768  1.00  0.00     0.173 A 
ATOM     66  F   UNL A   1      49.496  31.021  27.230  1.00  0.00    -0.203 F 
ATOM     67  C   UNL A   1      48.274  32.995  26.886  1.00  0.00     0.198 A 
ATOM     68  C   UNL A   1      45.906  32.927  26.594  1.00  0.00     0.198 A 
ATOM     69  F   UNL A   1      44.736  30.944  26.855  1.00  0.00    -0.203 F 
ATOM     70  F   UNL A   1      49.403  33.703  27.029  1.00  0.00    -0.200 F 
ATOM     71  C   UNL A   1      47.075  33.654  26.676  1.00  0.00     0.200 A 
ATOM     72  F   UNL A   1      44.731  33.550  26.422  1.00  0.00    -0.200 F 
ATOM     73  F   UNL A   1      47.037  34.990  26.601  1.00  0.00    -0.200 F 
ENDBRANCH  49  63
BRANCH  50  74
ATOM     74  C   UNL A   1      39.420  28.276  29.291  1.00  0.00     0.064 A 
ATOM     75  C   UNL A   1      38.570  28.332  30.402  1.00  0.00     0.173 A 
ATOM     76  C   UNL A   1      38.952  28.872  28.102  1.00  0.00     0.173 A 
ATOM     77  F   UNL A   1      38.965  27.825  31.578  1.00  0.00    -0.203 F 
ATOM     78  C   UNL A   1      37.328  28.970  30.334  1.00  0.00     0.198 A 
ATOM     79  C   UNL A   1      37.709  29.495  28.032  1.00  0.00     0.198 A 
ATOM     80  F   UNL A   1      39.730  28.937  27.011  1.00  0.00    -0.203 F 
ATOM     81  F   UNL A   1      36.564  29.060  31.431  1.00  0.00    -0.200 F 
ATOM     82  C   UNL A   1      36.902  29.557  29.152  1.00  0.00     0.200 A 
ATOM     83  F   UNL A   1      37.325  30.087  26.891  1.00  0.00    -0.200 F 
ATOM     84  F   UNL A   1      35.737  30.217  29.104  1.00  0.00    -0.200 F 
ENDBRANCH  50  74
BRANCH  62  85
ATOM     85  C   UNL A   1      44.899  26.955  32.263  1.00  0.00     0.064 A 
ATOM     86  C   UNL A   1      45.000  26.994  33.662  1.00  0.00     0.173 A 
ATOM     87  C   UNL A   1      44.737  25.702  31.656  1.00  0.00     0.173 A 
ATOM     88  F   UNL A   1      45.083  28.164  34.310  1.00  0.00    -0.203 F 
ATOM     89  C   UNL A   1      44.988  25.821  34.414  1.00  0.00     0.198 A 
ATOM     90  C   UNL A   1      44.694  24.534  32.411  1.00  0.00     0.198 A 
ATOM     91  F   UNL A   1      44.596  25.614  30.324  1.00  0.00    -0.203 F 
ATOM     92  F   UNL A   1      45.112  25.876  35.748  1.00  0.00    -0.200 F 
ATOM     93  C   UNL A   1      44.833  24.593  33.789  1.00  0.00     0.200 A 
ATOM     94  F   UNL A   1      44.507  23.354  31.805  1.00  0.00    -0.200 F 
ATOM     95  F   UNL A   1      44.800  23.466  34.513  1.00  0.00    -0.200 F 
ENDBRANCH  62  85
ENDBRANCH  36  37
ENDBRANCH  29  31
ENDBRANCH  28  29
ENDBRANCH  27  28
ENDBRANCH  26  27
ENDBRANCH  25  26
ENDBRANCH  24  25
ENDBRANCH   1  24
TORSDOF 22
ENDMDL
MODEL 3
REMARK VINA RESULT:     -10.5      3.233      8.323
REMARK SMILES CCC[C@H](Cc1ccn(-c2ccccc2)n1)C(=O)OCCOCCOCCOC(=O)c1ccc(-c2c3nc(c(-c4c(F)c(F)c(F)c(F)c4F)c4ccc([nH]4)c(-c4c(F)c(F)c(F)c(F)c4F)c4nc(c(-c5c(F)c(F)c(F)c(F)c5F)c5ccc2[nH]5)C=C4)C=C3)cc1
REMARK SMILES IDX 23 1 22 2 21 3 20 4 19 5 17 6 18 7 4 8 3 9 2 10 1 11 5 12
REMARK SMILES IDX 6 13 7 14 16 15 8 16 9 17 10 18 11 19 15 20 12 21 14 22
REMARK SMILES IDX 13 23 24 24 25 25 26 26 27 27 28 28 29 29 30 30 31 31 32 32
REMARK SMILES IDX 93 33 33 34 92 35 34 36 35 37 36 38 86 39 37 40 91 41 85 42
REMARK SMILES IDX 87 43 38 44 90 45 84 46 83 47 39 49 71 50 51 51 70 52 52 53
REMARK SMILES IDX 55 54 69 55 88 56 53 57 54 58 68 60 89 61 56 62 40 63 41 64
REMARK SMILES IDX 49 65 42 66 43 67 47 68 50 69 44 70 45 71 48 72 46 73 72 74
REMARK SMILES IDX 73 75 81 76 74 77 75 78 79 79 82 80 76 81 77 82 80 83 78 84
REMARK SMILES IDX 57 85 58 86 66 87 59 88 60 89 64 90 67 91 61 92 62 93 65 94
REMARK SMILES IDX 63 95
REMARK H PARENT 87 48 55 59
REMARK Flexibility Score: inf
ROOT
ATOM      1  C   UNL A   1      34.264  29.034  26.806  1.00  0.00     0.188 C 
ENDROOT
BRANCH   1   2
ATOM      2  O   UNL A   1      34.233  28.511  25.480  1.00  0.00    -0.376 OA
BRANCH   2   3
ATOM      3  C   UNL A   1      33.075  27.761  25.133  1.00  0.00     0.202 C 
BRANCH   3   4
ATOM      4  C   UNL A   1      32.453  26.923  26.259  1.00  0.00     0.261 C 
BRANCH   4   5
ATOM      5  O   UNL A   1      31.018  27.038  26.386  1.00  0.00    -0.463 OA
BRANCH   5   6
ATOM      6  C   UNL A   1      30.295  26.025  25.841  1.00  0.00     0.309 C 
ATOM      7  O   UNL A   1      29.768  25.132  26.502  1.00  0.00    -0.252 OA
BRANCH   6   8
ATOM      8  C   UNL A   1      30.176  26.046  24.316  1.00  0.00     0.105 C 
BRANCH   8   9
ATOM      9  C   UNL A   1      28.966  26.915  23.926  1.00  0.00     0.015 C 
BRANCH   9  10
ATOM     10  C   UNL A   1      29.198  28.094  22.977  1.00  0.00    -0.003 C 
ATOM     11  C   UNL A   1      30.046  29.228  23.531  1.00  0.00     0.004 C 
ENDBRANCH   9  10
ENDBRANCH   8   9
BRANCH   8  12
ATOM     12  C   UNL A   1      30.301  24.710  23.572  1.00  0.00     0.073 C 
BRANCH  12  13
ATOM     13  C   UNL A   1      31.709  24.341  23.187  1.00  0.00     0.064 A 
ATOM     14  C   UNL A   1      32.550  25.056  22.307  1.00  0.00     0.046 A 
ATOM     15  N   UNL A   1      32.345  23.295  23.734  1.00  0.00    -0.173 NA
ATOM     16  C   UNL A   1      33.775  24.448  22.415  1.00  0.00     0.115 A 
ATOM     17  N   UNL A   1      33.643  23.427  23.333  1.00  0.00    -0.241 N 
BRANCH  17  18
ATOM     18  C   UNL A   1      34.685  22.603  23.848  1.00  0.00     0.065 A 
ATOM     19  C   UNL A   1      34.384  21.481  24.639  1.00  0.00     0.028 A 
ATOM     20  C   UNL A   1      36.022  22.898  23.556  1.00  0.00     0.028 A 
ATOM     21  C   UNL A   1      35.412  20.673  25.135  1.00  0.00     0.002 A 
ATOM     22  C   UNL A   1      37.046  22.100  24.079  1.00  0.00     0.002 A 
ATOM     23  C   UNL A   1      36.740  20.988  24.865  1.00  0.00     0.000 A 
ENDBRANCH  17  18
ENDBRANCH  12  13
ENDBRANCH   8  12
ENDBRANCH   6   8
ENDBRANCH   5   6
ENDBRANCH   4   5
ENDBRANCH   3   4
ENDBRANCH   2   3
ENDBRANCH   1   2
BRANCH   1  24
ATOM     24  C   UNL A   1      33.615  30.410  26.972  1.00  0.00     0.188 C 
BRANCH  24  25
ATOM     25  O   UNL A   1      33.963  31.096  28.168  1.00  0.00    -0.376 OA
BRANCH  25  26
ATOM     26  C   UNL A   1      34.131  32.512  28.205  1.00  0.00     0.202 C 
BRANCH  26  27
ATOM     27  C   UNL A   1      34.418  33.293  29.499  1.00  0.00     0.261 C 
BRANCH  27  28
ATOM     28  O   UNL A   1      35.713  33.122  30.031  1.00  0.00    -0.460 OA
BRANCH  28  29
ATOM     29  C   UNL A   1      35.862  32.076  30.871  1.00  0.00     0.338 C 
ATOM     30  O   UNL A   1      35.285  31.882  31.921  1.00  0.00    -0.246 OA
BRANCH  29  31
ATOM     31  C   UNL A   1      36.840  31.169  30.236  1.00  0.00     0.060 A 
ATOM     32  C   UNL A   1      36.578  29.804  30.288  1.00  0.00     0.016 A 
ATOM     33  C   UNL A   1      38.026  31.667  29.654  1.00  0.00     0.016 A 
ATOM     34  C   UNL A   1      37.607  28.936  29.991  1.00  0.00     0.010 A 
ATOM     35  C   UNL A   1      39.041  30.804  29.322  1.00  0.00     0.010 A 
ATOM     36  C   UNL A   1      38.854  29.466  29.634  1.00  0.00    -0.014 A 
BRANCH  36  37
ATOM     37  C   UNL A   1      40.008  28.636  29.910  1.00  0.00     0.031 A 
ATOM     38  C   UNL A   1      40.475  28.595  31.297  1.00  0.00     0.074 A 
ATOM     39  C   UNL A   1      40.604  27.971  28.897  1.00  0.00     0.049 A 
ATOM     40  N   UNL A   1      41.579  29.076  31.762  1.00  0.00    -0.248 NA
ATOM     41  C   UNL A   1      39.591  27.998  32.306  1.00  0.00     0.031 C 
ATOM     42  C   UNL A   1      40.033  27.703  27.569  1.00  0.00     0.029 A 
ATOM     43  N   UNL A   1      41.804  27.320  28.861  1.00  0.00    -0.354 N 
ATOM     44  C   UNL A   1      41.633  28.653  33.081  1.00  0.00     0.074 A 
ATOM     45  C   UNL A   1      40.330  28.130  33.409  1.00  0.00     0.031 C 
ATOM     46  C   UNL A   1      40.787  26.780  26.939  1.00  0.00     0.029 A 
ATOM     47  C   UNL A   1      41.963  26.515  27.747  1.00  0.00     0.049 A 
ATOM     48  H   UNL A   1      42.490  27.416  29.560  1.00  0.00     0.167 HD
ATOM     49  C   UNL A   1      42.828  28.491  33.702  1.00  0.00     0.037 A 
ATOM     50  C   UNL A   1      42.965  25.641  27.506  1.00  0.00     0.037 A 
ATOM     51  C   UNL A   1      43.913  29.120  32.998  1.00  0.00     0.049 A 
ATOM     52  C   UNL A   1      44.147  26.032  28.306  1.00  0.00     0.074 A 
ATOM     53  C   UNL A   1      44.506  30.361  32.963  1.00  0.00     0.029 A 
ATOM     54  N   UNL A   1      44.366  28.422  31.914  1.00  0.00    -0.354 N 
ATOM     55  N   UNL A   1      44.825  27.130  28.109  1.00  0.00    -0.248 NA
ATOM     56  C   UNL A   1      44.428  25.342  29.562  1.00  0.00     0.031 C 
ATOM     57  C   UNL A   1      45.284  30.412  31.767  1.00  0.00     0.029 A 
ATOM     58  C   UNL A   1      45.142  29.204  31.097  1.00  0.00     0.049 A 
ATOM     59  H   UNL A   1      44.161  27.475  31.740  1.00  0.00     0.167 HD
ATOM     60  C   UNL A   1      45.291  27.469  29.362  1.00  0.00     0.074 A 
ATOM     61  C   UNL A   1      45.173  26.268  30.171  1.00  0.00     0.031 C 
ATOM     62  C   UNL A   1      45.400  28.771  29.745  1.00  0.00     0.037 A 
BRANCH  49  63
ATOM     63  C   UNL A   1      43.095  27.393  34.690  1.00  0.00     0.064 A 
ATOM     64  C   UNL A   1      43.303  27.708  36.043  1.00  0.00     0.173 A 
ATOM     65  C   UNL A   1      43.451  26.085  34.294  1.00  0.00     0.173 A 
ATOM     66  F   UNL A   1      43.042  28.940  36.502  1.00  0.00    -0.203 F 
ATOM     67  C   UNL A   1      43.852  26.780  36.932  1.00  0.00     0.198 A 
ATOM     68  C   UNL A   1      43.944  25.146  35.195  1.00  0.00     0.198 A 
ATOM     69  F   UNL A   1      43.440  25.713  33.006  1.00  0.00    -0.203 F 
ATOM     70  F   UNL A   1      44.125  27.147  38.192  1.00  0.00    -0.200 F 
ATOM     71  C   UNL A   1      44.166  25.500  36.509  1.00  0.00     0.200 A 
ATOM     72  F   UNL A   1      44.270  23.921  34.760  1.00  0.00    -0.200 F 
ATOM     73  F   UNL A   1      44.726  24.624  37.352  1.00  0.00    -0.200 F 
ENDBRANCH  49  63
BRANCH  50  74
ATOM     74  C   UNL A   1      42.852  24.345  26.807  1.00  0.00     0.064 A 
ATOM     75  C   UNL A   1      43.404  24.153  25.534  1.00  0.00     0.173 A 
ATOM     76  C   UNL A   1      42.412  23.193  27.488  1.00  0.00     0.173 A 
ATOM     77  F   UNL A   1      43.883  25.197  24.844  1.00  0.00    -0.203 F 
ATOM     78  C   UNL A   1      43.529  22.875  24.983  1.00  0.00     0.198 A 
ATOM     79  C   UNL A   1      42.525  21.921  26.932  1.00  0.00     0.198 A 
ATOM     80  F   UNL A   1      41.945  23.270  28.743  1.00  0.00    -0.203 F 
ATOM     81  F   UNL A   1      44.118  22.719  23.789  1.00  0.00    -0.200 F 
ATOM     82  C   UNL A   1      43.097  21.760  25.684  1.00  0.00     0.200 A 
ATOM     83  F   UNL A   1      42.132  20.849  27.637  1.00  0.00    -0.200 F 
ATOM     84  F   UNL A   1      43.270  20.531  25.179  1.00  0.00    -0.200 F 
ENDBRANCH  50  74
BRANCH  62  85
ATOM     85  C   UNL A   1      45.587  29.790  28.671  1.00  0.00     0.064 A 
ATOM     86  C   UNL A   1      44.530  30.436  28.012  1.00  0.00     0.173 A 
ATOM     87  C   UNL A   1      46.894  30.149  28.315  1.00  0.00     0.173 A 
ATOM     88  F   UNL A   1      43.258  30.192  28.356  1.00  0.00    -0.203 F 
ATOM     89  C   UNL A   1      44.776  31.367  27.004  1.00  0.00     0.198 A 
ATOM     90  C   UNL A   1      47.138  31.101  27.331  1.00  0.00     0.198 A 
ATOM     91  F   UNL A   1      47.940  29.589  28.944  1.00  0.00    -0.203 F 
ATOM     92  F   UNL A   1      43.753  31.955  26.368  1.00  0.00    -0.200 F 
ATOM     93  C   UNL A   1      46.079  31.700  26.667  1.00  0.00     0.200 A 
ATOM     94  F   UNL A   1      48.398  31.446  27.034  1.00  0.00    -0.200 F 
ATOM     95  F   UNL A   1      46.317  32.611  25.712  1.00  0.00    -0.200 F 
ENDBRANCH  62  85
ENDBRANCH  36  37
ENDBRANCH  29  31
ENDBRANCH  28  29
ENDBRANCH  27  28
ENDBRANCH  26  27
ENDBRANCH  25  26
ENDBRANCH  24  25
ENDBRANCH   1  24
TORSDOF 22
ENDMDL
