MODEL 1
REMARK VINA RESULT:      -9.8      0.000      0.000
REMARK SMILES CCCC[C@H](NC(=O)CC1([NH3+])CCC1)C(=O)OCCOCCOCCOC(=O)c1ccc(-c2c3nc(c(-c4c(F)c(F)c(F)c(F)c4F)c4ccc([nH]4)c(-c4c(F)c(F)c(F)c(F)c4F)c4nc(c(-c5c(F)c(F)c(F)c(F)c5F)c5ccc2[nH]5)C=C4)C=C3)cc1
REMARK SMILES IDX 21 1 20 2 19 3 18 4 17 5 15 6 16 7 5 8 4 9 3 10 2 11 1 12
REMARK SMILES IDX 6 13 7 14 8 16 9 17 10 18 12 19 14 20 13 21 11 22 22 26
REMARK SMILES IDX 23 27 24 28 25 29 26 30 27 31 28 32 29 33 30 34 91 35 31 36
REMARK SMILES IDX 90 37 32 38 33 39 34 40 84 41 35 42 89 43 83 44 85 45 36 46
REMARK SMILES IDX 88 47 82 48 81 49 37 51 69 52 49 53 68 54 50 55 53 56 67 57
REMARK SMILES IDX 86 58 51 59 52 60 66 62 87 63 54 64 38 65 39 66 47 67 40 68
REMARK SMILES IDX 41 69 45 70 48 71 42 72 43 73 46 74 44 75 70 76 71 77 79 78
REMARK SMILES IDX 72 79 73 80 77 81 80 82 74 83 75 84 78 85 76 86 55 87 56 88
REMARK SMILES IDX 64 89 57 90 58 91 62 92 65 93 59 94 60 95 63 96 61 97
REMARK H PARENT 6 15 11 23 11 24 11 25 85 50 53 61
REMARK Flexibility Score: inf
ROOT
ATOM      1  C   UNL A   1      40.104  21.399  26.503  1.00  0.00     0.188 C 
ENDROOT
BRANCH   1   2
ATOM      2  O   UNL A   1      38.969  20.989  25.747  1.00  0.00    -0.376 OA
BRANCH   2   3
ATOM      3  C   UNL A   1      38.015  22.006  25.441  1.00  0.00     0.202 C 
BRANCH   3   4
ATOM      4  C   UNL A   1      36.573  21.463  25.388  1.00  0.00     0.261 C 
BRANCH   4   5
ATOM      5  O   UNL A   1      35.893  21.996  24.226  1.00  0.00    -0.462 OA
BRANCH   5   6
ATOM      6  C   UNL A   1      34.543  21.967  24.190  1.00  0.00     0.328 C 
ATOM      7  O   UNL A   1      33.871  22.321  23.228  1.00  0.00    -0.250 OA
BRANCH   6   8
ATOM      8  C   UNL A   1      33.920  21.358  25.482  1.00  0.00     0.192 C 
BRANCH   8   9
ATOM      9  C   UNL A   1      33.210  20.036  25.166  1.00  0.00     0.037 C 
BRANCH   9  10
ATOM     10  C   UNL A   1      34.114  19.024  24.442  1.00  0.00     0.002 C 
BRANCH  10  11
ATOM     11  C   UNL A   1      33.661  17.563  24.482  1.00  0.00    -0.003 C 
ATOM     12  C   UNL A   1      34.142  16.748  23.293  1.00  0.00     0.004 C 
ENDBRANCH  10  11
ENDBRANCH   9  10
ENDBRANCH   8   9
BRANCH   8  13
ATOM     13  N   UNL A   1      33.223  22.150  26.532  1.00  0.00    -0.343 N 
ATOM     14  C   UNL A   1      32.016  22.749  26.712  1.00  0.00     0.226 C 
ATOM     15  H   UNL A   1      33.801  22.275  27.319  1.00  0.00     0.164 HD
ATOM     16  O   UNL A   1      31.738  23.083  27.869  1.00  0.00    -0.275 OA
BRANCH  14  17
ATOM     17  C   UNL A   1      31.070  23.072  25.577  1.00  0.00     0.168 C 
BRANCH  17  18
ATOM     18  C   UNL A   1      30.733  24.548  25.409  1.00  0.00     0.103 C 
ATOM     19  C   UNL A   1      31.975  25.484  25.481  1.00  0.00     0.069 C 
ATOM     20  C   UNL A   1      30.372  25.317  24.093  1.00  0.00     0.069 C 
ATOM     21  C   UNL A   1      31.187  26.521  24.658  1.00  0.00     0.013 C 
BRANCH  18  22
ATOM     22  N   UNL A   1      29.740  25.024  26.359  1.00  0.00    -0.352 N 
ATOM     23  H   UNL A   1      29.904  24.591  27.268  1.00  0.00     0.344 HD
ATOM     24  H   UNL A   1      28.807  24.779  26.028  1.00  0.00     0.344 HD
ATOM     25  H   UNL A   1      29.813  26.039  26.447  1.00  0.00     0.344 HD
ENDBRANCH  18  22
ENDBRANCH  17  18
ENDBRANCH  14  17
ENDBRANCH   8  13
ENDBRANCH   6   8
ENDBRANCH   5   6
ENDBRANCH   4   5
ENDBRANCH   3   4
ENDBRANCH   2   3
ENDBRANCH   1   2
BRANCH   1  26
ATOM     26  C   UNL A   1      41.374  20.641  26.175  1.00  0.00     0.188 C 
BRANCH  26  27
ATOM     27  O   UNL A   1      42.027  19.947  27.227  1.00  0.00    -0.376 OA
BRANCH  27  28
ATOM     28  C   UNL A   1      42.682  18.740  26.818  1.00  0.00     0.202 C 
BRANCH  28  29
ATOM     29  C   UNL A   1      43.071  18.582  25.328  1.00  0.00     0.261 C 
BRANCH  29  30
ATOM     30  O   UNL A   1      44.495  18.521  25.110  1.00  0.00    -0.460 OA
BRANCH  30  31
ATOM     31  C   UNL A   1      44.976  19.285  24.085  1.00  0.00     0.338 C 
ATOM     32  O   UNL A   1      45.118  18.952  22.933  1.00  0.00    -0.246 OA
BRANCH  31  33
ATOM     33  C   UNL A   1      45.000  20.711  24.539  1.00  0.00     0.060 A 
ATOM     34  C   UNL A   1      44.496  21.685  23.656  1.00  0.00     0.016 A 
ATOM     35  C   UNL A   1      45.332  21.069  25.847  1.00  0.00     0.016 A 
ATOM     36  C   UNL A   1      44.291  22.998  24.086  1.00  0.00     0.010 A 
ATOM     37  C   UNL A   1      45.176  22.395  26.263  1.00  0.00     0.010 A 
ATOM     38  C   UNL A   1      44.665  23.366  25.383  1.00  0.00    -0.014 A 
BRANCH  38  39
ATOM     39  C   UNL A   1      44.787  24.800  25.745  1.00  0.00     0.031 A 
ATOM     40  C   UNL A   1      46.155  25.412  25.638  1.00  0.00     0.074 A 
ATOM     41  C   UNL A   1      43.748  25.526  26.193  1.00  0.00     0.049 A 
ATOM     42  N   UNL A   1      46.581  26.581  26.035  1.00  0.00    -0.248 NA
ATOM     43  C   UNL A   1      47.189  24.576  25.003  1.00  0.00     0.031 C 
ATOM     44  C   UNL A   1      42.364  25.067  26.286  1.00  0.00     0.029 A 
ATOM     45  N   UNL A   1      43.711  26.811  26.680  1.00  0.00    -0.354 N 
ATOM     46  C   UNL A   1      47.930  26.614  25.710  1.00  0.00     0.074 A 
ATOM     47  C   UNL A   1      48.258  25.346  25.099  1.00  0.00     0.031 C 
ATOM     48  C   UNL A   1      41.618  26.045  26.831  1.00  0.00     0.029 A 
ATOM     49  C   UNL A   1      42.480  27.180  27.167  1.00  0.00     0.049 A 
ATOM     50  H   UNL A   1      44.493  27.409  26.682  1.00  0.00     0.167 HD
ATOM     51  C   UNL A   1      48.820  27.612  25.911  1.00  0.00     0.037 A 
ATOM     52  C   UNL A   1      42.111  28.287  27.844  1.00  0.00     0.037 A 
ATOM     53  C   UNL A   1      48.495  28.862  26.539  1.00  0.00     0.049 A 
ATOM     54  C   UNL A   1      43.146  29.346  28.150  1.00  0.00     0.074 A 
ATOM     55  C   UNL A   1      49.319  29.948  26.775  1.00  0.00     0.029 A 
ATOM     56  N   UNL A   1      47.245  29.184  27.048  1.00  0.00    -0.354 N 
ATOM     57  N   UNL A   1      44.415  29.388  27.818  1.00  0.00    -0.248 NA
ATOM     58  C   UNL A   1      42.700  30.506  28.938  1.00  0.00     0.031 C 
ATOM     59  C   UNL A   1      48.584  30.901  27.486  1.00  0.00     0.029 A 
ATOM     60  C   UNL A   1      47.287  30.437  27.636  1.00  0.00     0.049 A 
ATOM     61  H   UNL A   1      46.450  28.608  26.999  1.00  0.00     0.167 HD
ATOM     62  C   UNL A   1      44.910  30.580  28.334  1.00  0.00     0.074 A 
ATOM     63  C   UNL A   1      43.801  31.244  28.986  1.00  0.00     0.031 C 
ATOM     64  C   UNL A   1      46.169  31.081  28.277  1.00  0.00     0.037 A 
BRANCH  51  65
ATOM     65  C   UNL A   1      50.238  27.367  25.488  1.00  0.00     0.064 A 
ATOM     66  C   UNL A   1      50.657  27.559  24.163  1.00  0.00     0.173 A 
ATOM     67  C   UNL A   1      51.191  26.945  26.426  1.00  0.00     0.173 A 
ATOM     68  F   UNL A   1      49.779  27.938  23.224  1.00  0.00    -0.203 F 
ATOM     69  C   UNL A   1      51.977  27.315  23.790  1.00  0.00     0.198 A 
ATOM     70  C   UNL A   1      52.516  26.733  26.056  1.00  0.00     0.198 A 
ATOM     71  F   UNL A   1      50.839  26.741  27.705  1.00  0.00    -0.203 F 
ATOM     72  F   UNL A   1      52.345  27.454  22.508  1.00  0.00    -0.200 F 
ATOM     73  C   UNL A   1      52.905  26.910  24.737  1.00  0.00     0.200 A 
ATOM     74  F   UNL A   1      53.413  26.351  26.974  1.00  0.00    -0.200 F 
ATOM     75  F   UNL A   1      54.176  26.682  24.377  1.00  0.00    -0.200 F 
ENDBRANCH  51  65
BRANCH  52  76
ATOM     76  C   UNL A   1      40.710  28.443  28.327  1.00  0.00     0.064 A 
ATOM     77  C   UNL A   1      39.722  29.018  27.516  1.00  0.00     0.173 A 
ATOM     78  C   UNL A   1      40.341  28.062  29.627  1.00  0.00     0.173 A 
ATOM     79  F   UNL A   1      40.031  29.435  26.280  1.00  0.00    -0.203 F 
ATOM     80  C   UNL A   1      38.426  29.221  27.990  1.00  0.00     0.198 A 
ATOM     81  C   UNL A   1      39.037  28.236  30.089  1.00  0.00     0.198 A 
ATOM     82  F   UNL A   1      41.249  27.521  30.453  1.00  0.00    -0.203 F 
ATOM     83  F   UNL A   1      37.517  29.826  27.212  1.00  0.00    -0.200 F 
ATOM     84  C   UNL A   1      38.082  28.823  29.273  1.00  0.00     0.200 A 
ATOM     85  F   UNL A   1      38.709  27.844  31.328  1.00  0.00    -0.200 F 
ATOM     86  F   UNL A   1      36.838  29.019  29.728  1.00  0.00    -0.200 F 
ENDBRANCH  52  76
BRANCH  64  87
ATOM     87  C   UNL A   1      46.418  32.419  28.916  1.00  0.00     0.064 A 
ATOM     88  C   UNL A   1      46.220  33.616  28.214  1.00  0.00     0.173 A 
ATOM     89  C   UNL A   1      46.786  32.503  30.268  1.00  0.00     0.173 A 
ATOM     90  F   UNL A   1      45.879  33.590  26.917  1.00  0.00    -0.203 F 
ATOM     91  C   UNL A   1      46.400  34.849  28.837  1.00  0.00     0.198 A 
ATOM     92  C   UNL A   1      46.933  33.736  30.896  1.00  0.00     0.198 A 
ATOM     93  F   UNL A   1      46.977  31.388  30.988  1.00  0.00    -0.203 F 
ATOM     94  F   UNL A   1      46.244  35.981  28.136  1.00  0.00    -0.200 F 
ATOM     95  C   UNL A   1      46.745  34.908  30.178  1.00  0.00     0.200 A 
ATOM     96  F   UNL A   1      47.248  33.791  32.197  1.00  0.00    -0.200 F 
ATOM     97  F   UNL A   1      46.900  36.095  30.780  1.00  0.00    -0.200 F 
ENDBRANCH  64  87
ENDBRANCH  38  39
ENDBRANCH  31  33
ENDBRANCH  30  31
ENDBRANCH  29  30
ENDBRANCH  28  29
ENDBRANCH  27  28
ENDBRANCH  26  27
ENDBRANCH   1  26
TORSDOF 24
ENDMDL
MODEL 2
REMARK VINA RESULT:      -9.7      6.866     12.694
REMARK SMILES CCCC[C@H](NC(=O)CC1([NH3+])CCC1)C(=O)OCCOCCOCCOC(=O)c1ccc(-c2c3nc(c(-c4c(F)c(F)c(F)c(F)c4F)c4ccc([nH]4)c(-c4c(F)c(F)c(F)c(F)c4F)c4nc(c(-c5c(F)c(F)c(F)c(F)c5F)c5ccc2[nH]5)C=C4)C=C3)cc1
REMARK SMILES IDX 21 1 20 2 19 3 18 4 17 5 15 6 16 7 5 8 4 9 3 10 2 11 1 12
REMARK SMILES IDX 6 13 7 14 8 16 9 17 10 18 12 19 14 20 13 21 11 22 22 26
REMARK SMILES IDX 23 27 24 28 25 29 26 30 27 31 28 32 29 33 30 34 91 35 31 36
REMARK SMILES IDX 90 37 32 38 33 39 34 40 84 41 35 42 89 43 83 44 85 45 36 46
REMARK SMILES IDX 88 47 82 48 81 49 37 51 69 52 49 53 68 54 50 55 53 56 67 57
REMARK SMILES IDX 86 58 51 59 52 60 66 62 87 63 54 64 38 65 39 66 47 67 40 68
REMARK SMILES IDX 41 69 45 70 48 71 42 72 43 73 46 74 44 75 70 76 71 77 79 78
REMARK SMILES IDX 72 79 73 80 77 81 80 82 74 83 75 84 78 85 76 86 55 87 56 88
REMARK SMILES IDX 64 89 57 90 58 91 62 92 65 93 59 94 60 95 63 96 61 97
REMARK H PARENT 6 15 11 23 11 24 11 25 85 50 53 61
REMARK Flexibility Score: inf
ROOT
ATOM      1  C   UNL A   1      35.379  32.625  28.066  1.00  0.00     0.188 C 
ENDROOT
BRANCH   1   2
ATOM      2  O   UNL A   1      34.311  32.017  27.347  1.00  0.00    -0.376 OA
BRANCH   2   3
ATOM      3  C   UNL A   1      34.107  30.624  27.581  1.00  0.00     0.202 C 
BRANCH   3   4
ATOM      4  C   UNL A   1      32.870  30.078  26.842  1.00  0.00     0.261 C 
BRANCH   4   5
ATOM      5  O   UNL A   1      33.010  28.651  26.641  1.00  0.00    -0.462 OA
BRANCH   5   6
ATOM      6  C   UNL A   1      32.075  27.824  27.156  1.00  0.00     0.328 C 
ATOM      7  O   UNL A   1      31.236  28.163  27.983  1.00  0.00    -0.250 OA
BRANCH   6   8
ATOM      8  C   UNL A   1      32.121  26.398  26.530  1.00  0.00     0.192 C 
BRANCH   8   9
ATOM      9  C   UNL A   1      32.491  26.475  25.044  1.00  0.00     0.037 C 
BRANCH   9  10
ATOM     10  C   UNL A   1      31.270  26.650  24.126  1.00  0.00     0.002 C 
BRANCH  10  11
ATOM     11  C   UNL A   1      30.804  28.087  23.885  1.00  0.00    -0.003 C 
ATOM     12  C   UNL A   1      29.483  28.178  23.139  1.00  0.00     0.004 C 
ENDBRANCH  10  11
ENDBRANCH   9  10
ENDBRANCH   8   9
BRANCH   8  13
ATOM     13  N   UNL A   1      31.139  25.319  26.825  1.00  0.00    -0.343 N 
ATOM     14  C   UNL A   1      31.045  23.971  26.681  1.00  0.00     0.226 C 
ATOM     15  H   UNL A   1      30.327  25.688  27.242  1.00  0.00     0.164 HD
ATOM     16  O   UNL A   1      30.145  23.414  27.319  1.00  0.00    -0.275 OA
BRANCH  14  17
ATOM     17  C   UNL A   1      31.925  23.170  25.748  1.00  0.00     0.168 C 
BRANCH  17  18
ATOM     18  C   UNL A   1      33.122  22.492  26.402  1.00  0.00     0.103 C 
ATOM     19  C   UNL A   1      33.731  21.342  25.548  1.00  0.00     0.069 C 
ATOM     20  C   UNL A   1      34.590  23.025  26.525  1.00  0.00     0.069 C 
ATOM     21  C   UNL A   1      35.065  21.558  26.288  1.00  0.00     0.013 C 
BRANCH  18  22
ATOM     22  N   UNL A   1      32.838  21.980  27.733  1.00  0.00    -0.352 N 
ATOM     23  H   UNL A   1      32.205  21.183  27.662  1.00  0.00     0.344 HD
ATOM     24  H   UNL A   1      32.402  22.712  28.294  1.00  0.00     0.344 HD
ATOM     25  H   UNL A   1      33.709  21.685  28.176  1.00  0.00     0.344 HD
ENDBRANCH  18  22
ENDBRANCH  17  18
ENDBRANCH  14  17
ENDBRANCH   8  13
ENDBRANCH   6   8
ENDBRANCH   5   6
ENDBRANCH   4   5
ENDBRANCH   3   4
ENDBRANCH   2   3
ENDBRANCH   1   2
BRANCH   1  26
ATOM     26  C   UNL A   1      34.995  33.903  28.784  1.00  0.00     0.188 C 
BRANCH  26  27
ATOM     27  O   UNL A   1      33.763  34.518  28.437  1.00  0.00    -0.376 OA
BRANCH  27  28
ATOM     28  C   UNL A   1      33.652  35.886  28.849  1.00  0.00     0.202 C 
BRANCH  28  29
ATOM     29  C   UNL A   1      32.444  36.296  29.724  1.00  0.00     0.261 C 
BRANCH  29  30
ATOM     30  O   UNL A   1      32.821  36.891  30.982  1.00  0.00    -0.460 OA
BRANCH  30  31
ATOM     31  C   UNL A   1      32.541  36.156  32.099  1.00  0.00     0.338 C 
ATOM     32  O   UNL A   1      31.462  36.009  32.621  1.00  0.00    -0.246 OA
BRANCH  31  33
ATOM     33  C   UNL A   1      33.726  35.293  32.398  1.00  0.00     0.060 A 
ATOM     34  C   UNL A   1      33.481  33.965  32.796  1.00  0.00     0.016 A 
ATOM     35  C   UNL A   1      35.033  35.703  32.125  1.00  0.00     0.016 A 
ATOM     36  C   UNL A   1      34.527  33.044  32.887  1.00  0.00     0.010 A 
ATOM     37  C   UNL A   1      36.087  34.796  32.266  1.00  0.00     0.010 A 
ATOM     38  C   UNL A   1      35.841  33.467  32.657  1.00  0.00    -0.014 A 
BRANCH  38  39
ATOM     39  C   UNL A   1      36.982  32.619  33.082  1.00  0.00     0.031 A 
ATOM     40  C   UNL A   1      37.618  32.952  34.402  1.00  0.00     0.074 A 
ATOM     41  C   UNL A   1      37.471  31.626  32.319  1.00  0.00     0.049 A 
ATOM     42  N   UNL A   1      38.714  32.489  34.942  1.00  0.00    -0.248 NA
ATOM     43  C   UNL A   1      36.920  33.958  35.221  1.00  0.00     0.031 C 
ATOM     44  C   UNL A   1      36.909  31.169  31.051  1.00  0.00     0.029 A 
ATOM     45  N   UNL A   1      38.581  30.835  32.502  1.00  0.00    -0.354 N 
ATOM     46  C   UNL A   1      38.842  33.157  36.152  1.00  0.00     0.074 A 
ATOM     47  C   UNL A   1      37.725  34.067  36.263  1.00  0.00     0.031 C 
ATOM     48  C   UNL A   1      37.697  30.199  30.552  1.00  0.00     0.029 A 
ATOM     49  C   UNL A   1      38.842  30.000  31.442  1.00  0.00     0.049 A 
ATOM     50  H   UNL A   1      39.137  30.865  33.314  1.00  0.00     0.167 HD
ATOM     51  C   UNL A   1      39.811  33.028  37.086  1.00  0.00     0.037 A 
ATOM     52  C   UNL A   1      39.907  29.205  31.205  1.00  0.00     0.037 A 
ATOM     53  C   UNL A   1      40.932  32.140  36.962  1.00  0.00     0.049 A 
ATOM     54  C   UNL A   1      41.030  29.155  32.216  1.00  0.00     0.074 A 
ATOM     55  C   UNL A   1      41.962  31.920  37.858  1.00  0.00     0.029 A 
ATOM     56  N   UNL A   1      41.178  31.335  35.858  1.00  0.00    -0.354 N 
ATOM     57  N   UNL A   1      41.137  29.766  33.371  1.00  0.00    -0.248 NA
ATOM     58  C   UNL A   1      42.191  28.314  31.880  1.00  0.00     0.031 C 
ATOM     59  C   UNL A   1      42.866  31.031  37.269  1.00  0.00     0.029 A 
ATOM     60  C   UNL A   1      42.368  30.648  36.034  1.00  0.00     0.049 A 
ATOM     61  H   UNL A   1      40.595  31.265  35.069  1.00  0.00     0.167 HD
ATOM     62  C   UNL A   1      42.356  29.368  33.908  1.00  0.00     0.074 A 
ATOM     63  C   UNL A   1      42.948  28.448  32.961  1.00  0.00     0.031 C 
ATOM     64  C   UNL A   1      42.937  29.734  35.078  1.00  0.00     0.037 A 
BRANCH  51  65
ATOM     65  C   UNL A   1      39.720  33.906  38.299  1.00  0.00     0.064 A 
ATOM     66  C   UNL A   1      40.353  35.156  38.354  1.00  0.00     0.173 A 
ATOM     67  C   UNL A   1      38.978  33.493  39.414  1.00  0.00     0.173 A 
ATOM     68  F   UNL A   1      41.094  35.586  37.323  1.00  0.00    -0.203 F 
ATOM     69  C   UNL A   1      40.264  35.952  39.494  1.00  0.00     0.198 A 
ATOM     70  C   UNL A   1      38.865  34.304  40.540  1.00  0.00     0.198 A 
ATOM     71  F   UNL A   1      38.359  32.303  39.414  1.00  0.00    -0.203 F 
ATOM     72  F   UNL A   1      40.920  37.120  39.547  1.00  0.00    -0.200 F 
ATOM     73  C   UNL A   1      39.515  35.528  40.582  1.00  0.00     0.200 A 
ATOM     74  F   UNL A   1      38.133  33.898  41.586  1.00  0.00    -0.200 F 
ATOM     75  F   UNL A   1      39.425  36.298  41.676  1.00  0.00    -0.200 F 
ENDBRANCH  51  65
BRANCH  52  76
ATOM     76  C   UNL A   1      39.997  28.424  29.940  1.00  0.00     0.064 A 
ATOM     77  C   UNL A   1      40.628  28.951  28.805  1.00  0.00     0.173 A 
ATOM     78  C   UNL A   1      39.414  27.151  29.825  1.00  0.00     0.173 A 
ATOM     79  F   UNL A   1      41.167  30.178  28.848  1.00  0.00    -0.203 F 
ATOM     80  C   UNL A   1      40.659  28.246  27.602  1.00  0.00     0.198 A 
ATOM     81  C   UNL A   1      39.474  26.434  28.632  1.00  0.00     0.198 A 
ATOM     82  F   UNL A   1      38.784  26.604  30.875  1.00  0.00    -0.203 F 
ATOM     83  F   UNL A   1      41.220  28.799  26.517  1.00  0.00    -0.200 F 
ATOM     84  C   UNL A   1      40.089  26.985  27.518  1.00  0.00     0.200 A 
ATOM     85  F   UNL A   1      38.926  25.213  28.558  1.00  0.00    -0.200 F 
ATOM     86  F   UNL A   1      40.118  26.308  26.363  1.00  0.00    -0.200 F 
ENDBRANCH  52  76
BRANCH  64  87
ATOM     87  C   UNL A   1      44.270  29.126  35.415  1.00  0.00     0.064 A 
ATOM     88  C   UNL A   1      44.369  27.915  36.115  1.00  0.00     0.173 A 
ATOM     89  C   UNL A   1      45.458  29.725  34.967  1.00  0.00     0.173 A 
ATOM     90  F   UNL A   1      43.265  27.308  36.574  1.00  0.00    -0.203 F 
ATOM     91  C   UNL A   1      45.610  27.336  36.370  1.00  0.00     0.198 A 
ATOM     92  C   UNL A   1      46.694  29.127  35.195  1.00  0.00     0.198 A 
ATOM     93  F   UNL A   1      45.418  30.879  34.284  1.00  0.00    -0.203 F 
ATOM     94  F   UNL A   1      45.684  26.198  37.074  1.00  0.00    -0.200 F 
ATOM     95  C   UNL A   1      46.769  27.936  35.901  1.00  0.00     0.200 A 
ATOM     96  F   UNL A   1      47.811  29.698  34.725  1.00  0.00    -0.200 F 
ATOM     97  F   UNL A   1      47.961  27.367  36.132  1.00  0.00    -0.200 F 
ENDBRANCH  64  87
ENDBRANCH  38  39
ENDBRANCH  31  33
ENDBRANCH  30  31
ENDBRANCH  29  30
ENDBRANCH  28  29
ENDBRANCH  27  28
ENDBRANCH  26  27
ENDBRANCH   1  26
TORSDOF 24
ENDMDL
MODEL 3
REMARK VINA RESULT:      -9.7      7.141     12.749
REMARK SMILES CCCC[C@H](NC(=O)CC1([NH3+])CCC1)C(=O)OCCOCCOCCOC(=O)c1ccc(-c2c3nc(c(-c4c(F)c(F)c(F)c(F)c4F)c4ccc([nH]4)c(-c4c(F)c(F)c(F)c(F)c4F)c4nc(c(-c5c(F)c(F)c(F)c(F)c5F)c5ccc2[nH]5)C=C4)C=C3)cc1
REMARK SMILES IDX 21 1 20 2 19 3 18 4 17 5 15 6 16 7 5 8 4 9 3 10 2 11 1 12
REMARK SMILES IDX 6 13 7 14 8 16 9 17 10 18 12 19 14 20 13 21 11 22 22 26
REMARK SMILES IDX 23 27 24 28 25 29 26 30 27 31 28 32 29 33 30 34 91 35 31 36
REMARK SMILES IDX 90 37 32 38 33 39 34 40 84 41 35 42 89 43 83 44 85 45 36 46
REMARK SMILES IDX 88 47 82 48 81 49 37 51 69 52 49 53 68 54 50 55 53 56 67 57
REMARK SMILES IDX 86 58 51 59 52 60 66 62 87 63 54 64 38 65 39 66 47 67 40 68
REMARK SMILES IDX 41 69 45 70 48 71 42 72 43 73 46 74 44 75 70 76 71 77 79 78
REMARK SMILES IDX 72 79 73 80 77 81 80 82 74 83 75 84 78 85 76 86 55 87 56 88
REMARK SMILES IDX 64 89 57 90 58 91 62 92 65 93 59 94 60 95 63 96 61 97
REMARK H PARENT 6 15 11 23 11 24 11 25 85 50 53 61
REMARK Flexibility Score: inf
ROOT
ATOM      1  C   UNL A   1      35.313  32.254  28.307  1.00  0.00     0.188 C 
ENDROOT
BRANCH   1   2
ATOM      2  O   UNL A   1      34.100  31.506  28.309  1.00  0.00    -0.376 OA
BRANCH   2   3
ATOM      3  C   UNL A   1      34.022  30.431  27.373  1.00  0.00     0.202 C 
BRANCH   3   4
ATOM      4  C   UNL A   1      32.582  30.179  26.886  1.00  0.00     0.261 C 
BRANCH   4   5
ATOM      5  O   UNL A   1      32.513  28.904  26.202  1.00  0.00    -0.462 OA
BRANCH   5   6
ATOM      6  C   UNL A   1      31.678  27.954  26.674  1.00  0.00     0.328 C 
ATOM      7  O   UNL A   1      31.373  27.829  27.855  1.00  0.00    -0.250 OA
BRANCH   6   8
ATOM      8  C   UNL A   1      31.072  27.069  25.544  1.00  0.00     0.192 C 
BRANCH   8   9
ATOM      9  C   UNL A   1      30.521  25.761  26.123  1.00  0.00     0.037 C 
BRANCH   9  10
ATOM     10  C   UNL A   1      31.180  24.509  25.521  1.00  0.00     0.002 C 
BRANCH  10  11
ATOM     11  C   UNL A   1      32.214  23.800  26.397  1.00  0.00    -0.003 C 
ATOM     12  C   UNL A   1      33.645  24.223  26.107  1.00  0.00     0.004 C 
ENDBRANCH  10  11
ENDBRANCH   9  10
ENDBRANCH   8   9
BRANCH   8  13
ATOM     13  N   UNL A   1      31.682  26.893  24.198  1.00  0.00    -0.343 N 
ATOM     14  C   UNL A   1      31.442  27.287  22.919  1.00  0.00     0.226 C 
ATOM     15  H   UNL A   1      32.489  26.330  24.249  1.00  0.00     0.164 HD
ATOM     16  O   UNL A   1      32.369  27.136  22.116  1.00  0.00    -0.275 OA
BRANCH  14  17
ATOM     17  C   UNL A   1      30.106  27.817  22.449  1.00  0.00     0.168 C 
BRANCH  17  18
ATOM     18  C   UNL A   1      29.927  29.325  22.559  1.00  0.00     0.103 C 
ATOM     19  C   UNL A   1      28.462  29.799  22.330  1.00  0.00     0.069 C 
ATOM     20  C   UNL A   1      29.889  30.205  23.854  1.00  0.00     0.069 C 
ATOM     21  C   UNL A   1      28.787  31.060  23.155  1.00  0.00     0.013 C 
BRANCH  18  22
ATOM     22  N   UNL A   1      30.800  30.075  21.670  1.00  0.00    -0.352 N 
ATOM     23  H   UNL A   1      30.398  30.091  20.732  1.00  0.00     0.344 HD
ATOM     24  H   UNL A   1      31.718  29.631  21.639  1.00  0.00     0.344 HD
ATOM     25  H   UNL A   1      30.897  31.031  22.015  1.00  0.00     0.344 HD
ENDBRANCH  18  22
ENDBRANCH  17  18
ENDBRANCH  14  17
ENDBRANCH   8  13
ENDBRANCH   6   8
ENDBRANCH   5   6
ENDBRANCH   4   5
ENDBRANCH   3   4
ENDBRANCH   2   3
ENDBRANCH   1   2
BRANCH   1  26
ATOM     26  C   UNL A   1      35.184  33.644  28.896  1.00  0.00     0.188 C 
BRANCH  26  27
ATOM     27  O   UNL A   1      33.881  34.130  29.181  1.00  0.00    -0.376 OA
BRANCH  27  28
ATOM     28  C   UNL A   1      33.706  35.529  28.925  1.00  0.00     0.202 C 
BRANCH  28  29
ATOM     29  C   UNL A   1      32.656  36.304  29.758  1.00  0.00     0.261 C 
BRANCH  29  30
ATOM     30  O   UNL A   1      33.104  36.624  31.090  1.00  0.00    -0.460 OA
BRANCH  30  31
ATOM     31  C   UNL A   1      32.672  35.790  32.082  1.00  0.00     0.338 C 
ATOM     32  O   UNL A   1      31.528  35.559  32.392  1.00  0.00    -0.246 OA
BRANCH  31  33
ATOM     33  C   UNL A   1      33.830  34.951  32.522  1.00  0.00     0.060 A 
ATOM     34  C   UNL A   1      35.119  35.505  32.406  1.00  0.00     0.016 A 
ATOM     35  C   UNL A   1      33.656  33.739  33.194  1.00  0.00     0.016 A 
ATOM     36  C   UNL A   1      36.221  34.873  32.986  1.00  0.00     0.010 A 
ATOM     37  C   UNL A   1      34.766  33.079  33.730  1.00  0.00     0.010 A 
ATOM     38  C   UNL A   1      36.054  33.637  33.620  1.00  0.00    -0.014 A 
BRANCH  38  39
ATOM     39  C   UNL A   1      37.233  32.791  33.928  1.00  0.00     0.031 A 
ATOM     40  C   UNL A   1      37.950  33.073  35.218  1.00  0.00     0.074 A 
ATOM     41  C   UNL A   1      37.685  31.843  33.089  1.00  0.00     0.049 A 
ATOM     42  N   UNL A   1      39.086  32.606  35.662  1.00  0.00    -0.248 NA
ATOM     43  C   UNL A   1      37.293  34.028  36.128  1.00  0.00     0.031 C 
ATOM     44  C   UNL A   1      37.047  31.435  31.840  1.00  0.00     0.029 A 
ATOM     45  N   UNL A   1      38.816  31.065  33.161  1.00  0.00    -0.354 N 
ATOM     46  C   UNL A   1      39.284  33.219  36.892  1.00  0.00     0.074 A 
ATOM     47  C   UNL A   1      38.163  34.102  37.120  1.00  0.00     0.031 C 
ATOM     48  C   UNL A   1      37.814  30.504  31.245  1.00  0.00     0.029 A 
ATOM     49  C   UNL A   1      39.018  30.285  32.048  1.00  0.00     0.049 A 
ATOM     50  H   UNL A   1      39.424  31.067  33.935  1.00  0.00     0.167 HD
ATOM     51  C   UNL A   1      40.315  33.064  37.753  1.00  0.00     0.037 A 
ATOM     52  C   UNL A   1      40.077  29.521  31.704  1.00  0.00     0.037 A 
ATOM     53  C   UNL A   1      41.438  32.203  37.514  1.00  0.00     0.049 A 
ATOM     54  C   UNL A   1      41.266  29.445  32.634  1.00  0.00     0.074 A 
ATOM     55  C   UNL A   1      42.528  31.960  38.329  1.00  0.00     0.029 A 
ATOM     56  N   UNL A   1      41.623  31.455  36.359  1.00  0.00    -0.354 N 
ATOM     57  N   UNL A   1      41.439  30.003  33.808  1.00  0.00    -0.248 NA
ATOM     58  C   UNL A   1      42.414  28.641  32.184  1.00  0.00     0.031 C 
ATOM     59  C   UNL A   1      43.405  31.116  37.640  1.00  0.00     0.029 A 
ATOM     60  C   UNL A   1      42.831  30.782  36.423  1.00  0.00     0.049 A 
ATOM     61  H   UNL A   1      40.990  31.411  35.607  1.00  0.00     0.167 HD
ATOM     62  C   UNL A   1      42.697  29.603  34.245  1.00  0.00     0.074 A 
ATOM     63  C   UNL A   1      43.239  28.739  33.218  1.00  0.00     0.031 C 
ATOM     64  C   UNL A   1      43.350  29.924  35.390  1.00  0.00     0.037 A 
BRANCH  51  65
ATOM     65  C   UNL A   1      40.292  33.883  39.010  1.00  0.00     0.064 A 
ATOM     66  C   UNL A   1      39.597  33.462  40.153  1.00  0.00     0.173 A 
ATOM     67  C   UNL A   1      40.985  35.100  39.071  1.00  0.00     0.173 A 
ATOM     68  F   UNL A   1      38.899  32.317  40.137  1.00  0.00    -0.203 F 
ATOM     69  C   UNL A   1      39.581  34.242  41.307  1.00  0.00     0.198 A 
ATOM     70  C   UNL A   1      40.992  35.863  40.236  1.00  0.00     0.198 A 
ATOM     71  F   UNL A   1      41.660  35.551  38.002  1.00  0.00    -0.203 F 
ATOM     72  F   UNL A   1      38.868  33.847  42.371  1.00  0.00    -0.200 F 
ATOM     73  C   UNL A   1      40.284  35.437  41.349  1.00  0.00     0.200 A 
ATOM     74  F   UNL A   1      41.680  37.012  40.278  1.00  0.00    -0.200 F 
ATOM     75  F   UNL A   1      40.271  36.184  42.462  1.00  0.00    -0.200 F 
ENDBRANCH  51  65
BRANCH  52  76
ATOM     76  C   UNL A   1      40.095  28.801  30.400  1.00  0.00     0.064 A 
ATOM     77  C   UNL A   1      40.681  29.374  29.262  1.00  0.00     0.173 A 
ATOM     78  C   UNL A   1      39.486  27.544  30.252  1.00  0.00     0.173 A 
ATOM     79  F   UNL A   1      41.242  30.589  29.339  1.00  0.00    -0.203 F 
ATOM     80  C   UNL A   1      40.643  28.728  28.026  1.00  0.00     0.198 A 
ATOM     81  C   UNL A   1      39.477  26.885  29.024  1.00  0.00     0.198 A 
ATOM     82  F   UNL A   1      38.896  26.956  31.302  1.00  0.00    -0.203 F 
ATOM     83  F   UNL A   1      41.162  29.325  26.944  1.00  0.00    -0.200 F 
ATOM     84  C   UNL A   1      40.049  27.481  27.910  1.00  0.00     0.200 A 
ATOM     85  F   UNL A   1      38.906  25.678  28.918  1.00  0.00    -0.200 F 
ATOM     86  F   UNL A   1      40.012  26.861  26.723  1.00  0.00    -0.200 F 
ENDBRANCH  52  76
BRANCH  64  87
ATOM     87  C   UNL A   1      44.711  29.325  35.609  1.00  0.00     0.064 A 
ATOM     88  C   UNL A   1      44.873  28.073  36.219  1.00  0.00     0.173 A 
ATOM     89  C   UNL A   1      45.860  29.979  35.137  1.00  0.00     0.173 A 
ATOM     90  F   UNL A   1      43.808  27.412  36.698  1.00  0.00    -0.203 F 
ATOM     91  C   UNL A   1      46.137  27.506  36.364  1.00  0.00     0.198 A 
ATOM     92  C   UNL A   1      47.117  29.395  35.253  1.00  0.00     0.198 A 
ATOM     93  F   UNL A   1      45.759  31.174  34.536  1.00  0.00    -0.203 F 
ATOM     94  F   UNL A   1      46.273  26.326  36.985  1.00  0.00    -0.200 F 
ATOM     95  C   UNL A   1      47.255  28.162  35.872  1.00  0.00     0.200 A 
ATOM     96  F   UNL A   1      48.194  30.022  34.761  1.00  0.00    -0.200 F 
ATOM     97  F   UNL A   1      48.469  27.606  35.997  1.00  0.00    -0.200 F 
ENDBRANCH  64  87
ENDBRANCH  38  39
ENDBRANCH  31  33
ENDBRANCH  30  31
ENDBRANCH  29  30
ENDBRANCH  28  29
ENDBRANCH  27  28
ENDBRANCH  26  27
ENDBRANCH   1  26
TORSDOF 24
ENDMDL
