MODEL 1
REMARK VINA RESULT:     -12.4      0.000      0.000
REMARK SMILES Cc1cc(S(F)(F)(F)(F)F)cc2c1O[C@H](C(F)(F)F)C(C(=O)OCCOCCOCCOC(=O)c1ccc(-c3c4nc(c(-c5c(F)c(F)c(F)c(F)c5F)c5ccc([nH]5)c(-c5c(F)c(F)c(F)c(F)c5F)c5nc(c(-c6c(F)c(F)c(F)c(F)c6F)c6ccc3[nH]6)C=C5)C=C4)cc1)=C2
REMARK SMILES IDX 28 1 27 2 26 3 25 4 24 5 23 6 21 7 22 8 20 9 1 10 2 11 3 12
REMARK SMILES IDX 13 13 4 14 12 15 14 16 11 17 98 18 15 19 5 20 6 21 7 22 8 23
REMARK SMILES IDX 9 24 10 25 16 26 17 27 18 28 19 29 29 30 30 31 31 32 32 33
REMARK SMILES IDX 33 34 34 35 35 36 36 37 97 38 37 39 96 40 38 41 39 42 40 43
REMARK SMILES IDX 90 44 41 45 95 46 89 47 91 48 42 49 94 50 88 51 87 52 43 54
REMARK SMILES IDX 75 55 55 56 74 57 56 58 59 59 73 60 92 61 57 62 58 63 72 65
REMARK SMILES IDX 93 66 60 67 44 68 45 69 53 70 46 71 47 72 51 73 54 74 48 75
REMARK SMILES IDX 49 76 52 77 50 78 76 79 77 80 85 81 78 82 79 83 83 84 86 85
REMARK SMILES IDX 80 86 81 87 84 88 82 89 61 90 62 91 70 92 63 93 64 94 68 95
REMARK SMILES IDX 71 96 65 97 66 98 69 99 67 100
REMARK H PARENT 91 53 59 64
REMARK Flexibility Score: inf
ROOT
ATOM      1  C   UNL A   1      31.796  29.018  25.807  1.00  0.00     0.188 C 
ENDROOT
BRANCH   1   2
ATOM      2  C   UNL A   1      31.265  29.824  24.634  1.00  0.00     0.188 C 
BRANCH   2   3
ATOM      3  O   UNL A   1      30.538  28.970  23.764  1.00  0.00    -0.376 OA
BRANCH   3   4
ATOM      4  C   UNL A   1      31.062  27.652  23.848  1.00  0.00     0.202 C 
BRANCH   4   5
ATOM      5  C   UNL A   1      31.100  27.032  22.461  1.00  0.00     0.261 C 
BRANCH   5   6
ATOM      6  O   UNL A   1      31.946  25.892  22.476  1.00  0.00    -0.460 OA
BRANCH   6   7
ATOM      7  C   UNL A   1      31.516  24.698  23.114  1.00  0.00     0.338 C 
ATOM      8  O   UNL A   1      30.277  24.484  23.294  1.00  0.00    -0.246 OA
BRANCH   7   9
ATOM      9  C   UNL A   1      32.539  23.676  23.582  1.00  0.00     0.087 C 
ATOM     10  C   UNL A   1      36.760  21.322  25.367  1.00  0.00     0.048 C 
ATOM     11  C   UNL A   1      35.387  20.894  24.874  1.00  0.00    -0.007 A 
ATOM     12  C   UNL A   1      35.032  19.565  24.930  1.00  0.00     0.031 A 
ATOM     13  C   UNL A   1      34.451  21.836  24.447  1.00  0.00     0.130 A 
ATOM     14  C   UNL A   1      33.756  19.155  24.560  1.00  0.00     0.108 A 
ATOM     15  C   UNL A   1      33.154  21.415  24.077  1.00  0.00     0.019 A 
ATOM     16  O   UNL A   1      34.769  23.267  24.365  1.00  0.00    -0.475 OA
ATOM     17  C   UNL A   1      32.822  20.061  24.144  1.00  0.00     0.036 A 
ATOM     18  C   UNL A   1      32.193  22.425  23.632  1.00  0.00     0.027 C 
ATOM     19  C   UNL A   1      33.813  24.120  23.941  1.00  0.00     0.316 C 
BRANCH  14  20
ATOM     20  S   UNL A   1      33.327  17.398  24.631  1.00  0.00     0.310 S 
ATOM     21  F   UNL A   1      31.811  17.637  24.236  1.00  0.00    -0.094 F 
ATOM     22  F   UNL A   1      32.891  17.568  26.135  1.00  0.00    -0.094 F 
ATOM     23  F   UNL A   1      33.010  15.877  24.683  1.00  0.00    -0.094 F 
ATOM     24  F   UNL A   1      33.636  17.274  23.087  1.00  0.00    -0.094 F 
ATOM     25  F   UNL A   1      33.545  18.961  24.534  1.00  0.00    -0.094 F 
ENDBRANCH  14  20
BRANCH  19  26
ATOM     26  C   UNL A   1      33.529  24.935  25.193  1.00  0.00     0.430 C 
ATOM     27  F   UNL A   1      33.767  26.221  24.948  1.00  0.00    -0.167 F 
ATOM     28  F   UNL A   1      32.257  24.779  25.545  1.00  0.00    -0.167 F 
ATOM     29  F   UNL A   1      34.317  24.520  26.180  1.00  0.00    -0.167 F 
ENDBRANCH  19  26
ENDBRANCH   7   9
ENDBRANCH   6   7
ENDBRANCH   5   6
ENDBRANCH   4   5
ENDBRANCH   3   4
ENDBRANCH   2   3
ENDBRANCH   1   2
BRANCH   1  30
ATOM     30  O   UNL A   1      31.881  29.851  26.954  1.00  0.00    -0.376 OA
BRANCH  30  31
ATOM     31  C   UNL A   1      32.432  31.107  26.587  1.00  0.00     0.202 C 
BRANCH  31  32
ATOM     32  C   UNL A   1      31.610  32.222  27.212  1.00  0.00     0.261 C 
BRANCH  32  33
ATOM     33  O   UNL A   1      32.239  33.471  26.962  1.00  0.00    -0.460 OA
BRANCH  33  34
ATOM     34  C   UNL A   1      32.957  34.124  27.998  1.00  0.00     0.338 C 
ATOM     35  O   UNL A   1      32.589  35.273  28.399  1.00  0.00    -0.246 OA
BRANCH  34  36
ATOM     36  C   UNL A   1      34.164  33.450  28.629  1.00  0.00     0.060 A 
ATOM     37  C   UNL A   1      35.439  33.595  28.093  1.00  0.00     0.016 A 
ATOM     38  C   UNL A   1      34.020  32.708  29.706  1.00  0.00     0.016 A 
ATOM     39  C   UNL A   1      36.523  33.383  28.973  1.00  0.00     0.010 A 
ATOM     40  C   UNL A   1      35.122  32.072  30.290  1.00  0.00     0.010 A 
ATOM     41  C   UNL A   1      36.349  32.395  29.941  1.00  0.00    -0.014 A 
BRANCH  41  42
ATOM     42  C   UNL A   1      37.546  31.708  30.577  1.00  0.00     0.031 A 
ATOM     43  C   UNL A   1      38.227  30.742  29.835  1.00  0.00     0.074 A 
ATOM     44  C   UNL A   1      37.876  32.062  31.875  1.00  0.00     0.049 A 
ATOM     45  N   UNL A   1      39.294  30.034  30.206  1.00  0.00    -0.248 NA
ATOM     46  C   UNL A   1      37.857  30.340  28.469  1.00  0.00     0.031 C 
ATOM     47  C   UNL A   1      37.200  33.041  32.627  1.00  0.00     0.029 A 
ATOM     48  N   UNL A   1      38.885  31.550  32.659  1.00  0.00    -0.354 N 
ATOM     49  C   UNL A   1      39.674  29.222  29.218  1.00  0.00     0.074 A 
ATOM     50  C   UNL A   1      38.752  29.403  28.089  1.00  0.00     0.031 C 
ATOM     51  C   UNL A   1      37.785  33.112  33.851  1.00  0.00     0.029 A 
ATOM     52  C   UNL A   1      38.837  32.178  33.884  1.00  0.00     0.049 A 
ATOM     53  H   UNL A   1      39.530  30.856  32.391  1.00  0.00     0.167 HD
ATOM     54  C   UNL A   1      40.755  28.338  29.213  1.00  0.00     0.037 A 
ATOM     55  C   UNL A   1      39.656  31.960  34.982  1.00  0.00     0.037 A 
ATOM     56  C   UNL A   1      41.600  28.151  30.295  1.00  0.00     0.049 A 
ATOM     57  C   UNL A   1      40.701  31.033  34.997  1.00  0.00     0.074 A 
ATOM     58  C   UNL A   1      42.698  27.270  30.305  1.00  0.00     0.029 A 
ATOM     59  N   UNL A   1      41.537  28.761  31.529  1.00  0.00    -0.354 N 
ATOM     60  N   UNL A   1      41.105  30.250  33.997  1.00  0.00    -0.248 NA
ATOM     61  C   UNL A   1      41.554  30.771  36.165  1.00  0.00     0.031 C 
ATOM     62  C   UNL A   1      43.284  27.340  31.530  1.00  0.00     0.029 A 
ATOM     63  C   UNL A   1      42.561  28.265  32.306  1.00  0.00     0.049 A 
ATOM     64  H   UNL A   1      40.875  29.434  31.808  1.00  0.00     0.167 HD
ATOM     65  C   UNL A   1      42.148  29.511  34.382  1.00  0.00     0.074 A 
ATOM     66  C   UNL A   1      42.447  29.831  35.785  1.00  0.00     0.031 C 
ATOM     67  C   UNL A   1      42.864  28.588  33.620  1.00  0.00     0.037 A 
BRANCH  54  68
ATOM     68  C   UNL A   1      41.020  27.535  27.950  1.00  0.00     0.064 A 
ATOM     69  C   UNL A   1      41.788  28.042  26.921  1.00  0.00     0.173 A 
ATOM     70  C   UNL A   1      40.531  26.240  27.855  1.00  0.00     0.173 A 
ATOM     71  F   UNL A   1      42.262  29.281  27.002  1.00  0.00    -0.203 F 
ATOM     72  C   UNL A   1      42.059  27.306  25.854  1.00  0.00     0.198 A 
ATOM     73  C   UNL A   1      40.839  25.496  26.726  1.00  0.00     0.198 A 
ATOM     74  F   UNL A   1      39.783  25.723  28.826  1.00  0.00    -0.203 F 
ATOM     75  F   UNL A   1      42.797  27.827  24.877  1.00  0.00    -0.200 F 
ATOM     76  C   UNL A   1      41.614  26.066  25.734  1.00  0.00     0.200 A 
ATOM     77  F   UNL A   1      40.395  24.249  26.599  1.00  0.00    -0.200 F 
ATOM     78  F   UNL A   1      41.916  25.362  24.648  1.00  0.00    -0.200 F 
ENDBRANCH  54  68
BRANCH  55  79
ATOM     79  C   UNL A   1      39.401  32.775  36.239  1.00  0.00     0.064 A 
ATOM     80  C   UNL A   1      38.452  32.392  37.166  1.00  0.00     0.173 A 
ATOM     81  C   UNL A   1      40.093  33.962  36.430  1.00  0.00     0.173 A 
ATOM     82  F   UNL A   1      37.782  31.256  36.991  1.00  0.00    -0.203 F 
ATOM     83  C   UNL A   1      38.200  33.143  38.227  1.00  0.00     0.198 A 
ATOM     84  C   UNL A   1      39.808  34.721  37.556  1.00  0.00     0.198 A 
ATOM     85  F   UNL A   1      41.009  34.362  35.553  1.00  0.00    -0.203 F 
ATOM     86  F   UNL A   1      37.275  32.748  39.098  1.00  0.00    -0.200 F 
ATOM     87  C   UNL A   1      38.847  34.277  38.442  1.00  0.00     0.200 A 
ATOM     88  F   UNL A   1      40.454  35.862  37.779  1.00  0.00    -0.200 F 
ATOM     89  F   UNL A   1      38.567  34.998  39.524  1.00  0.00    -0.200 F 
ENDBRANCH  55  79
BRANCH  67  90
ATOM     90  C   UNL A   1      44.050  27.892  34.270  1.00  0.00     0.064 A 
ATOM     91  C   UNL A   1      45.306  28.461  34.229  1.00  0.00     0.173 A 
ATOM     92  C   UNL A   1      43.886  26.654  34.876  1.00  0.00     0.173 A 
ATOM     93  F   UNL A   1      45.474  29.647  33.650  1.00  0.00    -0.203 F 
ATOM     94  C   UNL A   1      46.348  27.840  34.761  1.00  0.00     0.198 A 
ATOM     95  C   UNL A   1      44.997  26.035  35.428  1.00  0.00     0.198 A 
ATOM     96  F   UNL A   1      42.689  26.076  34.926  1.00  0.00    -0.203 F 
ATOM     97  F   UNL A   1      47.546  28.414  34.699  1.00  0.00    -0.200 F 
ATOM     98  C   UNL A   1      46.226  26.663  35.351  1.00  0.00     0.200 A 
ATOM     99  F   UNL A   1      44.883  24.851  36.023  1.00  0.00    -0.200 F 
ATOM    100  F   UNL A   1      47.297  26.077  35.877  1.00  0.00    -0.200 F 
ENDBRANCH  67  90
ENDBRANCH  41  42
ENDBRANCH  34  36
ENDBRANCH  33  34
ENDBRANCH  32  33
ENDBRANCH  31  32
ENDBRANCH  30  31
ENDBRANCH   1  30
TORSDOF 19
ENDMDL
MODEL 2
REMARK VINA RESULT:     -12.3      3.240      9.292
REMARK SMILES Cc1cc(S(F)(F)(F)(F)F)cc2c1O[C@H](C(F)(F)F)C(C(=O)OCCOCCOCCOC(=O)c1ccc(-c3c4nc(c(-c5c(F)c(F)c(F)c(F)c5F)c5ccc([nH]5)c(-c5c(F)c(F)c(F)c(F)c5F)c5nc(c(-c6c(F)c(F)c(F)c(F)c6F)c6ccc3[nH]6)C=C5)C=C4)cc1)=C2
REMARK SMILES IDX 28 1 27 2 26 3 25 4 24 5 23 6 21 7 22 8 20 9 1 10 2 11 3 12
REMARK SMILES IDX 13 13 4 14 12 15 14 16 11 17 98 18 15 19 5 20 6 21 7 22 8 23
REMARK SMILES IDX 9 24 10 25 16 26 17 27 18 28 19 29 29 30 30 31 31 32 32 33
REMARK SMILES IDX 33 34 34 35 35 36 36 37 97 38 37 39 96 40 38 41 39 42 40 43
REMARK SMILES IDX 90 44 41 45 95 46 89 47 91 48 42 49 94 50 88 51 87 52 43 54
REMARK SMILES IDX 75 55 55 56 74 57 56 58 59 59 73 60 92 61 57 62 58 63 72 65
REMARK SMILES IDX 93 66 60 67 44 68 45 69 53 70 46 71 47 72 51 73 54 74 48 75
REMARK SMILES IDX 49 76 52 77 50 78 76 79 77 80 85 81 78 82 79 83 83 84 86 85
REMARK SMILES IDX 80 86 81 87 84 88 82 89 61 90 62 91 70 92 63 93 64 94 68 95
REMARK SMILES IDX 71 96 65 97 66 98 69 99 67 100
REMARK H PARENT 91 53 59 64
REMARK Flexibility Score: inf
ROOT
ATOM      1  C   UNL A   1      41.975  20.812  26.920  1.00  0.00     0.188 C 
ENDROOT
BRANCH   1   2
ATOM      2  C   UNL A   1      40.787  21.553  27.511  1.00  0.00     0.188 C 
BRANCH   2   3
ATOM      3  O   UNL A   1      40.297  22.492  26.566  1.00  0.00    -0.376 OA
BRANCH   3   4
ATOM      4  C   UNL A   1      39.569  23.507  27.241  1.00  0.00     0.202 C 
BRANCH   4   5
ATOM      5  C   UNL A   1      38.477  24.040  26.327  1.00  0.00     0.261 C 
BRANCH   5   6
ATOM      6  O   UNL A   1      37.378  23.142  26.331  1.00  0.00    -0.460 OA
BRANCH   6   7
ATOM      7  C   UNL A   1      36.715  22.825  25.116  1.00  0.00     0.338 C 
ATOM      8  O   UNL A   1      37.241  22.007  24.299  1.00  0.00    -0.246 OA
BRANCH   7   9
ATOM      9  C   UNL A   1      35.376  23.467  24.792  1.00  0.00     0.087 C 
ATOM     10  C   UNL A   1      30.543  24.390  23.263  1.00  0.00     0.048 C 
ATOM     11  C   UNL A   1      31.675  25.196  23.880  1.00  0.00    -0.007 A 
ATOM     12  C   UNL A   1      31.458  26.511  24.228  1.00  0.00     0.031 A 
ATOM     13  C   UNL A   1      32.902  24.602  24.176  1.00  0.00     0.130 A 
ATOM     14  C   UNL A   1      32.448  27.249  24.864  1.00  0.00     0.108 A 
ATOM     15  C   UNL A   1      33.903  25.355  24.828  1.00  0.00     0.019 A 
ATOM     16  O   UNL A   1      33.194  23.206  23.830  1.00  0.00    -0.475 OA
ATOM     17  C   UNL A   1      33.655  26.686  25.170  1.00  0.00     0.036 A 
ATOM     18  C   UNL A   1      35.182  24.708  25.126  1.00  0.00     0.027 C 
ATOM     19  C   UNL A   1      34.405  22.700  24.147  1.00  0.00     0.316 C 
BRANCH  14  20
ATOM     20  S   UNL A   1      32.135  28.979  25.295  1.00  0.00     0.310 S 
ATOM     21  F   UNL A   1      30.668  28.979  24.691  1.00  0.00    -0.094 F 
ATOM     22  F   UNL A   1      32.646  29.423  23.873  1.00  0.00    -0.094 F 
ATOM     23  F   UNL A   1      31.901  30.461  25.704  1.00  0.00    -0.094 F 
ATOM     24  F   UNL A   1      31.495  28.509  26.660  1.00  0.00    -0.094 F 
ATOM     25  F   UNL A   1      32.261  27.467  24.850  1.00  0.00    -0.094 F 
ENDBRANCH  14  20
BRANCH  19  26
ATOM     26  C   UNL A   1      34.055  21.666  25.206  1.00  0.00     0.430 C 
ATOM     27  F   UNL A   1      34.519  22.066  26.387  1.00  0.00    -0.167 F 
ATOM     28  F   UNL A   1      32.733  21.530  25.273  1.00  0.00    -0.167 F 
ATOM     29  F   UNL A   1      34.605  20.499  24.886  1.00  0.00    -0.167 F 
ENDBRANCH  19  26
ENDBRANCH   7   9
ENDBRANCH   6   7
ENDBRANCH   5   6
ENDBRANCH   4   5
ENDBRANCH   3   4
ENDBRANCH   2   3
ENDBRANCH   1   2
BRANCH   1  30
ATOM     30  O   UNL A   1      42.377  21.447  25.715  1.00  0.00    -0.376 OA
BRANCH  30  31
ATOM     31  C   UNL A   1      43.790  21.375  25.591  1.00  0.00     0.202 C 
BRANCH  31  32
ATOM     32  C   UNL A   1      44.247  22.292  24.470  1.00  0.00     0.261 C 
BRANCH  32  33
ATOM     33  O   UNL A   1      43.617  23.557  24.606  1.00  0.00    -0.460 OA
BRANCH  33  34
ATOM     34  C   UNL A   1      44.356  24.672  25.082  1.00  0.00     0.338 C 
ATOM     35  O   UNL A   1      45.450  24.996  24.520  1.00  0.00    -0.246 OA
BRANCH  34  36
ATOM     36  C   UNL A   1      43.841  25.480  26.262  1.00  0.00     0.060 A 
ATOM     37  C   UNL A   1      44.357  26.735  26.563  1.00  0.00     0.016 A 
ATOM     38  C   UNL A   1      42.887  24.995  27.029  1.00  0.00     0.016 A 
ATOM     39  C   UNL A   1      43.525  27.598  27.311  1.00  0.00     0.010 A 
ATOM     40  C   UNL A   1      42.411  25.724  28.126  1.00  0.00     0.010 A 
ATOM     41  C   UNL A   1      42.715  26.996  28.272  1.00  0.00    -0.014 A 
BRANCH  41  42
ATOM     42  C   UNL A   1      42.196  27.788  29.461  1.00  0.00     0.031 A 
ATOM     43  C   UNL A   1      42.898  27.710  30.665  1.00  0.00     0.074 A 
ATOM     44  C   UNL A   1      41.036  28.522  29.287  1.00  0.00     0.049 A 
ATOM     45  N   UNL A   1      42.614  28.326  31.814  1.00  0.00    -0.248 NA
ATOM     46  C   UNL A   1      44.112  26.904  30.862  1.00  0.00     0.031 C 
ATOM     47  C   UNL A   1      40.327  28.613  28.074  1.00  0.00     0.029 A 
ATOM     48  N   UNL A   1      40.366  29.277  30.223  1.00  0.00    -0.354 N 
ATOM     49  C   UNL A   1      43.526  28.021  32.738  1.00  0.00     0.074 A 
ATOM     50  C   UNL A   1      44.500  27.097  32.141  1.00  0.00     0.031 C 
ATOM     51  C   UNL A   1      39.240  29.402  28.277  1.00  0.00     0.029 A 
ATOM     52  C   UNL A   1      39.251  29.818  29.622  1.00  0.00     0.049 A 
ATOM     53  H   UNL A   1      40.637  29.409  31.160  1.00  0.00     0.167 HD
ATOM     54  C   UNL A   1      43.586  28.478  34.056  1.00  0.00     0.037 A 
ATOM     55  C   UNL A   1      38.285  30.630  30.197  1.00  0.00     0.037 A 
ATOM     56  C   UNL A   1      42.643  29.325  34.619  1.00  0.00     0.049 A 
ATOM     57  C   UNL A   1      38.313  31.040  31.533  1.00  0.00     0.074 A 
ATOM     58  C   UNL A   1      42.693  29.801  35.943  1.00  0.00     0.029 A 
ATOM     59  N   UNL A   1      41.515  29.845  34.024  1.00  0.00    -0.354 N 
ATOM     60  N   UNL A   1      39.246  30.768  32.445  1.00  0.00    -0.248 NA
ATOM     61  C   UNL A   1      37.279  31.873  32.161  1.00  0.00     0.031 C 
ATOM     62  C   UNL A   1      41.605  30.591  36.148  1.00  0.00     0.029 A 
ATOM     63  C   UNL A   1      40.858  30.620  34.954  1.00  0.00     0.049 A 
ATOM     64  H   UNL A   1      41.228  29.692  33.095  1.00  0.00     0.167 HD
ATOM     65  C   UNL A   1      38.940  31.350  33.605  1.00  0.00     0.074 A 
ATOM     66  C   UNL A   1      37.665  32.065  33.441  1.00  0.00     0.031 C 
ATOM     67  C   UNL A   1      39.672  31.320  34.793  1.00  0.00     0.037 A 
BRANCH  54  68
ATOM     68  C   UNL A   1      44.749  28.022  34.922  1.00  0.00     0.064 A 
ATOM     69  C   UNL A   1      44.682  26.860  35.664  1.00  0.00     0.173 A 
ATOM     70  C   UNL A   1      45.925  28.756  34.917  1.00  0.00     0.173 A 
ATOM     71  F   UNL A   1      43.559  26.149  35.675  1.00  0.00    -0.203 F 
ATOM     72  C   UNL A   1      45.726  26.446  36.366  1.00  0.00     0.198 A 
ATOM     73  C   UNL A   1      47.001  28.290  35.659  1.00  0.00     0.198 A 
ATOM     74  F   UNL A   1      46.020  29.884  34.217  1.00  0.00    -0.203 F 
ATOM     75  F   UNL A   1      45.627  25.325  37.076  1.00  0.00    -0.200 F 
ATOM     76  C   UNL A   1      46.865  27.119  36.379  1.00  0.00     0.200 A 
ATOM     77  F   UNL A   1      48.148  28.962  35.677  1.00  0.00    -0.200 F 
ATOM     78  F   UNL A   1      47.889  26.663  37.093  1.00  0.00    -0.200 F 
ENDBRANCH  54  68
BRANCH  55  79
ATOM     79  C   UNL A   1      37.132  31.098  29.326  1.00  0.00     0.064 A 
ATOM     80  C   UNL A   1      37.029  32.411  28.911  1.00  0.00     0.173 A 
ATOM     81  C   UNL A   1      36.127  30.202  28.991  1.00  0.00     0.173 A 
ATOM     82  F   UNL A   1      37.987  33.278  29.227  1.00  0.00    -0.203 F 
ATOM     83  C   UNL A   1      35.987  32.817  28.201  1.00  0.00     0.198 A 
ATOM     84  C   UNL A   1      35.053  30.660  28.242  1.00  0.00     0.198 A 
ATOM     85  F   UNL A   1      36.193  28.933  29.381  1.00  0.00    -0.203 F 
ATOM     86  F   UNL A   1      35.916  34.090  27.822  1.00  0.00    -0.200 F 
ATOM     87  C   UNL A   1      35.016  31.987  27.860  1.00  0.00     0.200 A 
ATOM     88  F   UNL A   1      34.072  29.831  27.896  1.00  0.00    -0.200 F 
ATOM     89  F   UNL A   1      33.990  32.435  27.141  1.00  0.00    -0.200 F 
ENDBRANCH  55  79
BRANCH  67  90
ATOM     90  C   UNL A   1      39.137  32.100  35.983  1.00  0.00     0.064 A 
ATOM     91  C   UNL A   1      38.249  31.516  36.864  1.00  0.00     0.173 A 
ATOM     92  C   UNL A   1      39.506  33.424  36.171  1.00  0.00     0.173 A 
ATOM     93  F   UNL A   1      37.888  30.248  36.691  1.00  0.00    -0.203 F 
ATOM     94  C   UNL A   1      37.752  32.206  37.879  1.00  0.00     0.198 A 
ATOM     95  C   UNL A   1      38.971  34.114  37.249  1.00  0.00     0.198 A 
ATOM     96  F   UNL A   1      40.356  34.018  35.337  1.00  0.00    -0.203 F 
ATOM     97  F   UNL A   1      36.893  31.615  38.706  1.00  0.00    -0.200 F 
ATOM     98  C   UNL A   1      38.087  33.467  38.091  1.00  0.00     0.200 A 
ATOM     99  F   UNL A   1      39.304  35.383  37.469  1.00  0.00    -0.200 F 
ATOM    100  F   UNL A   1      37.569  34.120  39.127  1.00  0.00    -0.200 F 
ENDBRANCH  67  90
ENDBRANCH  41  42
ENDBRANCH  34  36
ENDBRANCH  33  34
ENDBRANCH  32  33
ENDBRANCH  31  32
ENDBRANCH  30  31
ENDBRANCH   1  30
TORSDOF 19
ENDMDL
MODEL 3
REMARK VINA RESULT:     -12.3      3.244      8.788
REMARK SMILES Cc1cc(S(F)(F)(F)(F)F)cc2c1O[C@H](C(F)(F)F)C(C(=O)OCCOCCOCCOC(=O)c1ccc(-c3c4nc(c(-c5c(F)c(F)c(F)c(F)c5F)c5ccc([nH]5)c(-c5c(F)c(F)c(F)c(F)c5F)c5nc(c(-c6c(F)c(F)c(F)c(F)c6F)c6ccc3[nH]6)C=C5)C=C4)cc1)=C2
REMARK SMILES IDX 28 1 27 2 26 3 25 4 24 5 23 6 21 7 22 8 20 9 1 10 2 11 3 12
REMARK SMILES IDX 13 13 4 14 12 15 14 16 11 17 98 18 15 19 5 20 6 21 7 22 8 23
REMARK SMILES IDX 9 24 10 25 16 26 17 27 18 28 19 29 29 30 30 31 31 32 32 33
REMARK SMILES IDX 33 34 34 35 35 36 36 37 97 38 37 39 96 40 38 41 39 42 40 43
REMARK SMILES IDX 90 44 41 45 95 46 89 47 91 48 42 49 94 50 88 51 87 52 43 54
REMARK SMILES IDX 75 55 55 56 74 57 56 58 59 59 73 60 92 61 57 62 58 63 72 65
REMARK SMILES IDX 93 66 60 67 44 68 45 69 53 70 46 71 47 72 51 73 54 74 48 75
REMARK SMILES IDX 49 76 52 77 50 78 76 79 77 80 85 81 78 82 79 83 83 84 86 85
REMARK SMILES IDX 80 86 81 87 84 88 82 89 61 90 62 91 70 92 63 93 64 94 68 95
REMARK SMILES IDX 71 96 65 97 66 98 69 99 67 100
REMARK H PARENT 91 53 59 64
REMARK Flexibility Score: inf
ROOT
ATOM      1  C   UNL A   1      41.574  20.987  26.544  1.00  0.00     0.188 C 
ENDROOT
BRANCH   1   2
ATOM      2  C   UNL A   1      40.704  21.885  27.407  1.00  0.00     0.188 C 
BRANCH   2   3
ATOM      3  O   UNL A   1      40.522  23.134  26.756  1.00  0.00    -0.376 OA
BRANCH   3   4
ATOM      4  C   UNL A   1      39.289  23.706  27.166  1.00  0.00     0.202 C 
BRANCH   4   5
ATOM      5  C   UNL A   1      38.402  23.923  25.950  1.00  0.00     0.261 C 
BRANCH   5   6
ATOM      6  O   UNL A   1      37.382  22.936  25.927  1.00  0.00    -0.460 OA
BRANCH   6   7
ATOM      7  C   UNL A   1      36.659  22.691  24.731  1.00  0.00     0.338 C 
ATOM      8  O   UNL A   1      37.142  21.923  23.841  1.00  0.00    -0.246 OA
BRANCH   7   9
ATOM      9  C   UNL A   1      35.305  23.347  24.513  1.00  0.00     0.087 C 
ATOM     10  C   UNL A   1      30.395  24.341  23.311  1.00  0.00     0.048 C 
ATOM     11  C   UNL A   1      31.564  25.119  23.895  1.00  0.00    -0.007 A 
ATOM     12  C   UNL A   1      31.373  26.417  24.311  1.00  0.00     0.031 A 
ATOM     13  C   UNL A   1      32.803  24.511  24.093  1.00  0.00     0.130 A 
ATOM     14  C   UNL A   1      32.401  27.127  24.920  1.00  0.00     0.108 A 
ATOM     15  C   UNL A   1      33.844  25.234  24.717  1.00  0.00     0.019 A 
ATOM     16  O   UNL A   1      33.070  23.131  23.670  1.00  0.00    -0.475 OA
ATOM     17  C   UNL A   1      33.621  26.549  25.129  1.00  0.00     0.036 A 
ATOM     18  C   UNL A   1      35.135  24.573  24.911  1.00  0.00     0.027 C 
ATOM     19  C   UNL A   1      34.295  22.610  23.894  1.00  0.00     0.316 C 
BRANCH  14  20
ATOM     20  S   UNL A   1      32.119  28.836  25.442  1.00  0.00     0.310 S 
ATOM     21  F   UNL A   1      30.707  28.939  24.729  1.00  0.00    -0.094 F 
ATOM     22  F   UNL A   1      32.759  29.350  24.097  1.00  0.00    -0.094 F 
ATOM     23  F   UNL A   1      31.910  30.297  25.932  1.00  0.00    -0.094 F 
ATOM     24  F   UNL A   1      31.355  28.306  26.719  1.00  0.00    -0.094 F 
ATOM     25  F   UNL A   1      32.224  27.353  24.906  1.00  0.00    -0.094 F 
ENDBRANCH  14  20
BRANCH  19  26
ATOM     26  C   UNL A   1      34.004  21.532  24.926  1.00  0.00     0.430 C 
ATOM     27  F   UNL A   1      34.167  22.032  26.148  1.00  0.00    -0.167 F 
ATOM     28  F   UNL A   1      32.751  21.109  24.784  1.00  0.00    -0.167 F 
ATOM     29  F   UNL A   1      34.838  20.512  24.751  1.00  0.00    -0.167 F 
ENDBRANCH  19  26
ENDBRANCH   7   9
ENDBRANCH   6   7
ENDBRANCH   5   6
ENDBRANCH   4   5
ENDBRANCH   3   4
ENDBRANCH   2   3
ENDBRANCH   1   2
BRANCH   1  30
ATOM     30  O   UNL A   1      42.260  21.774  25.582  1.00  0.00    -0.376 OA
BRANCH  30  31
ATOM     31  C   UNL A   1      43.613  21.352  25.503  1.00  0.00     0.202 C 
BRANCH  31  32
ATOM     32  C   UNL A   1      44.377  22.272  24.565  1.00  0.00     0.261 C 
BRANCH  32  33
ATOM     33  O   UNL A   1      43.772  23.557  24.566  1.00  0.00    -0.460 OA
BRANCH  33  34
ATOM     34  C   UNL A   1      44.483  24.676  25.074  1.00  0.00     0.338 C 
ATOM     35  O   UNL A   1      45.597  25.009  24.558  1.00  0.00    -0.246 OA
BRANCH  34  36
ATOM     36  C   UNL A   1      43.914  25.477  26.233  1.00  0.00     0.060 A 
ATOM     37  C   UNL A   1      44.423  26.726  26.572  1.00  0.00     0.016 A 
ATOM     38  C   UNL A   1      42.918  24.994  26.946  1.00  0.00     0.016 A 
ATOM     39  C   UNL A   1      43.560  27.588  27.284  1.00  0.00     0.010 A 
ATOM     40  C   UNL A   1      42.392  25.716  28.023  1.00  0.00     0.010 A 
ATOM     41  C   UNL A   1      42.698  26.984  28.197  1.00  0.00    -0.014 A 
BRANCH  41  42
ATOM     42  C   UNL A   1      42.124  27.769  29.365  1.00  0.00     0.031 A 
ATOM     43  C   UNL A   1      40.960  28.512  29.156  1.00  0.00     0.074 A 
ATOM     44  C   UNL A   1      42.808  27.726  30.567  1.00  0.00     0.049 A 
ATOM     45  N   UNL A   1      40.300  29.257  30.043  1.00  0.00    -0.248 NA
ATOM     46  C   UNL A   1      40.250  28.586  27.870  1.00  0.00     0.031 C 
ATOM     47  C   UNL A   1      43.978  26.974  30.789  1.00  0.00     0.029 A 
ATOM     48  N   UNL A   1      42.501  28.382  31.738  1.00  0.00    -0.354 N 
ATOM     49  C   UNL A   1      39.220  29.799  29.477  1.00  0.00     0.074 A 
ATOM     50  C   UNL A   1      39.176  29.380  28.069  1.00  0.00     0.031 C 
ATOM     51  C   UNL A   1      44.377  27.181  32.071  1.00  0.00     0.029 A 
ATOM     52  C   UNL A   1      43.462  28.066  32.673  1.00  0.00     0.049 A 
ATOM     53  H   UNL A   1      41.728  28.973  31.883  1.00  0.00     0.167 HD
ATOM     54  C   UNL A   1      38.270  30.626  30.078  1.00  0.00     0.037 A 
ATOM     55  C   UNL A   1      43.555  28.516  33.981  1.00  0.00     0.037 A 
ATOM     56  C   UNL A   1      38.339  31.041  31.399  1.00  0.00     0.049 A 
ATOM     57  C   UNL A   1      42.635  29.390  34.567  1.00  0.00     0.074 A 
ATOM     58  C   UNL A   1      37.386  31.868  32.024  1.00  0.00     0.029 A 
ATOM     59  N   UNL A   1      39.314  30.746  32.326  1.00  0.00    -0.354 N 
ATOM     60  N   UNL A   1      41.535  29.901  34.013  1.00  0.00    -0.248 NA
ATOM     61  C   UNL A   1      42.742  29.899  35.941  1.00  0.00     0.031 C 
ATOM     62  C   UNL A   1      37.784  32.076  33.307  1.00  0.00     0.029 A 
ATOM     63  C   UNL A   1      38.994  31.383  33.505  1.00  0.00     0.049 A 
ATOM     64  H   UNL A   1      40.103  30.177  32.174  1.00  0.00     0.167 HD
ATOM     65  C   UNL A   1      40.898  30.680  34.888  1.00  0.00     0.074 A 
ATOM     66  C   UNL A   1      41.668  30.696  36.140  1.00  0.00     0.031 C 
ATOM     67  C   UNL A   1      39.703  31.375  34.696  1.00  0.00     0.037 A 
BRANCH  54  68
ATOM     68  C   UNL A   1      37.093  31.097  29.239  1.00  0.00     0.064 A 
ATOM     69  C   UNL A   1      36.025  30.266  28.965  1.00  0.00     0.173 A 
ATOM     70  C   UNL A   1      37.063  32.409  28.792  1.00  0.00     0.173 A 
ATOM     71  F   UNL A   1      36.045  29.006  29.390  1.00  0.00    -0.203 F 
ATOM     72  C   UNL A   1      34.981  30.711  28.283  1.00  0.00     0.198 A 
ATOM     73  C   UNL A   1      35.950  32.843  28.086  1.00  0.00     0.198 A 
ATOM     74  F   UNL A   1      38.078  33.234  29.035  1.00  0.00    -0.203 F 
ATOM     75  F   UNL A   1      33.971  29.882  28.030  1.00  0.00    -0.200 F 
ATOM     76  C   UNL A   1      34.917  31.958  27.847  1.00  0.00     0.200 A 
ATOM     77  F   UNL A   1      35.879  34.096  27.644  1.00  0.00    -0.200 F 
ATOM     78  F   UNL A   1      33.846  32.364  27.172  1.00  0.00    -0.200 F 
ENDBRANCH  54  68
BRANCH  55  79
ATOM     79  C   UNL A   1      44.722  28.032  34.824  1.00  0.00     0.064 A 
ATOM     80  C   UNL A   1      45.900  28.749  34.904  1.00  0.00     0.173 A 
ATOM     81  C   UNL A   1      44.627  26.813  35.481  1.00  0.00     0.173 A 
ATOM     82  F   UNL A   1      46.002  29.918  34.278  1.00  0.00    -0.203 F 
ATOM     83  C   UNL A   1      46.929  28.284  35.596  1.00  0.00     0.198 A 
ATOM     84  C   UNL A   1      45.722  26.361  36.201  1.00  0.00     0.198 A 
ATOM     85  F   UNL A   1      43.509  26.096  35.419  1.00  0.00    -0.203 F 
ATOM     86  F   UNL A   1      48.051  28.998  35.648  1.00  0.00    -0.200 F 
ATOM     87  C   UNL A   1      46.868  27.130  36.238  1.00  0.00     0.200 A 
ATOM     88  F   UNL A   1      45.668  25.200  36.849  1.00  0.00    -0.200 F 
ATOM     89  F   UNL A   1      47.924  26.704  36.927  1.00  0.00    -0.200 F 
ENDBRANCH  55  79
BRANCH  67  90
ATOM     90  C   UNL A   1      39.144  32.172  35.864  1.00  0.00     0.064 A 
ATOM     91  C   UNL A   1      39.518  33.486  36.059  1.00  0.00     0.173 A 
ATOM     92  C   UNL A   1      38.282  31.571  36.770  1.00  0.00     0.173 A 
ATOM     93  F   UNL A   1      40.344  34.071  35.197  1.00  0.00    -0.203 F 
ATOM     94  C   UNL A   1      39.063  34.172  37.097  1.00  0.00     0.198 A 
ATOM     95  C   UNL A   1      37.820  32.320  37.841  1.00  0.00     0.198 A 
ATOM     96  F   UNL A   1      37.907  30.305  36.613  1.00  0.00    -0.203 F 
ATOM     97  F   UNL A   1      39.448  35.435  37.259  1.00  0.00    -0.200 F 
ATOM     98  C   UNL A   1      38.236  33.631  37.976  1.00  0.00     0.200 A 
ATOM     99  F   UNL A   1      36.988  31.784  38.730  1.00  0.00    -0.200 F 
ATOM    100  F   UNL A   1      37.799  34.358  39.000  1.00  0.00    -0.200 F 
ENDBRANCH  67  90
ENDBRANCH  41  42
ENDBRANCH  34  36
ENDBRANCH  33  34
ENDBRANCH  32  33
ENDBRANCH  31  32
ENDBRANCH  30  31
ENDBRANCH   1  30
TORSDOF 19
ENDMDL
