MODEL 1
REMARK VINA RESULT:     -11.5      0.000      0.000
REMARK SMILES CC1(C)[C@H](C(=O)OCCOCCOCCOC(=O)c2ccc(-c3c4nc(c(-c5c(F)c(F)c(F)c(F)c5F)c5ccc([nH]5)c(-c5c(F)c(F)c(F)c(F)c5F)c5nc(c(-c6c(F)c(F)c(F)c(F)c6F)c6ccc3[nH]6)C=C5)C=C4)cc2)[C@@H]1C(=O)Nc1ccc(Cl)c(Br)c1
REMARK SMILES IDX 11 1 10 2 9 3 8 4 7 5 5 6 6 7 4 8 1 9 2 10 3 11 82 12 83 13
REMARK SMILES IDX 84 14 85 15 86 17 87 18 93 19 88 20 91 21 89 22 92 23 90 24
REMARK SMILES IDX 12 25 13 26 14 27 15 28 16 29 17 30 18 31 19 32 20 33 81 34
REMARK SMILES IDX 21 35 80 36 22 37 23 38 24 39 74 40 25 41 79 42 73 43 75 44
REMARK SMILES IDX 26 45 78 46 72 47 71 48 27 50 59 51 39 52 58 53 40 54 43 55
REMARK SMILES IDX 57 56 76 57 41 58 42 59 56 61 77 62 44 63 28 64 29 65 37 66
REMARK SMILES IDX 30 67 31 68 35 69 38 70 32 71 33 72 36 73 34 74 60 75 61 76
REMARK SMILES IDX 69 77 62 78 63 79 67 80 70 81 64 82 65 83 68 84 66 85 45 86
REMARK SMILES IDX 46 87 54 88 47 89 48 90 52 91 55 92 49 93 50 94 53 95 51 96
REMARK H PARENT 85 16 75 49 43 60
REMARK Flexibility Score: inf
ROOT
ATOM      1  C   UNL A   1      40.728  20.748  27.022  1.00  0.00     0.188 C 
ENDROOT
BRANCH   1   2
ATOM      2  O   UNL A   1      40.119  21.236  25.837  1.00  0.00    -0.376 OA
BRANCH   2   3
ATOM      3  C   UNL A   1      38.905  21.953  25.996  1.00  0.00     0.202 C 
BRANCH   3   4
ATOM      4  C   UNL A   1      37.727  21.384  25.195  1.00  0.00     0.261 C 
BRANCH   4   5
ATOM      5  O   UNL A   1      36.422  21.326  25.807  1.00  0.00    -0.463 OA
BRANCH   5   6
ATOM      6  C   UNL A   1      35.323  21.147  25.048  1.00  0.00     0.310 C 
ATOM      7  O   UNL A   1      34.586  20.174  25.081  1.00  0.00    -0.252 OA
BRANCH   6   8
ATOM      8  C   UNL A   1      34.967  22.280  24.162  1.00  0.00     0.118 C 
ATOM      9  C   UNL A   1      33.566  23.117  22.198  1.00  0.00     0.013 C 
ATOM     10  C   UNL A   1      33.602  22.690  23.651  1.00  0.00    -0.009 C 
ATOM     11  C   UNL A   1      32.329  21.986  24.066  1.00  0.00     0.013 C 
ATOM     12  C   UNL A   1      34.359  23.571  24.666  1.00  0.00     0.100 C 
BRANCH  12  13
ATOM     13  C   UNL A   1      33.789  23.785  26.025  1.00  0.00     0.228 C 
ATOM     14  O   UNL A   1      34.241  23.139  26.965  1.00  0.00    -0.274 OA
ATOM     15  N   UNL A   1      32.806  24.718  26.263  1.00  0.00    -0.326 N 
ATOM     16  H   UNL A   1      32.626  24.884  27.216  1.00  0.00     0.169 HD
BRANCH  15  17
ATOM     17  C   UNL A   1      32.018  25.469  25.383  1.00  0.00     0.042 A 
ATOM     18  C   UNL A   1      30.644  25.210  25.388  1.00  0.00     0.028 A 
ATOM     19  C   UNL A   1      32.521  26.494  24.580  1.00  0.00     0.043 A 
ATOM     20  C   UNL A   1      29.765  26.067  24.720  1.00  0.00     0.024 A 
ATOM     21  C   UNL A   1      31.642  27.345  23.893  1.00  0.00     0.038 A 
ATOM     22  C   UNL A   1      30.258  27.153  23.993  1.00  0.00     0.055 A 
ATOM     23  Br  UNL A   1      32.406  28.792  22.927  1.00  0.00    -0.049 Br
ATOM     24  Cl  UNL A   1      29.108  28.230  23.288  1.00  0.00    -0.083 Cl
ENDBRANCH  15  17
ENDBRANCH  12  13
ENDBRANCH   6   8
ENDBRANCH   5   6
ENDBRANCH   4   5
ENDBRANCH   3   4
ENDBRANCH   2   3
ENDBRANCH   1   2
BRANCH   1  25
ATOM     25  C   UNL A   1      42.020  19.942  26.797  1.00  0.00     0.188 C 
BRANCH  25  26
ATOM     26  O   UNL A   1      42.672  19.959  25.534  1.00  0.00    -0.376 OA
BRANCH  26  27
ATOM     27  C   UNL A   1      43.837  20.752  25.375  1.00  0.00     0.202 C 
BRANCH  27  28
ATOM     28  C   UNL A   1      44.170  21.760  26.481  1.00  0.00     0.261 C 
BRANCH  28  29
ATOM     29  O   UNL A   1      44.427  23.092  26.007  1.00  0.00    -0.460 OA
BRANCH  29  30
ATOM     30  C   UNL A   1      43.445  23.645  25.253  1.00  0.00     0.338 C 
ATOM     31  O   UNL A   1      43.037  23.261  24.171  1.00  0.00    -0.246 OA
BRANCH  30  32
ATOM     32  C   UNL A   1      42.767  24.708  26.032  1.00  0.00     0.060 A 
ATOM     33  C   UNL A   1      43.308  26.004  25.997  1.00  0.00     0.016 A 
ATOM     34  C   UNL A   1      41.638  24.437  26.805  1.00  0.00     0.016 A 
ATOM     35  C   UNL A   1      42.745  27.025  26.763  1.00  0.00     0.010 A 
ATOM     36  C   UNL A   1      41.097  25.449  27.604  1.00  0.00     0.010 A 
ATOM     37  C   UNL A   1      41.673  26.734  27.615  1.00  0.00    -0.014 A 
BRANCH  37  38
ATOM     38  C   UNL A   1      41.337  27.666  28.717  1.00  0.00     0.031 A 
ATOM     39  C   UNL A   1      42.154  27.571  29.977  1.00  0.00     0.074 A 
ATOM     40  C   UNL A   1      40.337  28.558  28.624  1.00  0.00     0.049 A 
ATOM     41  N   UNL A   1      41.978  28.157  31.134  1.00  0.00    -0.248 NA
ATOM     42  C   UNL A   1      43.330  26.686  29.922  1.00  0.00     0.031 C 
ATOM     43  C   UNL A   1      39.519  28.797  27.438  1.00  0.00     0.029 A 
ATOM     44  N   UNL A   1      39.828  29.417  29.567  1.00  0.00    -0.354 N 
ATOM     45  C   UNL A   1      43.006  27.696  31.945  1.00  0.00     0.074 A 
ATOM     46  C   UNL A   1      43.796  26.776  31.157  1.00  0.00     0.031 C 
ATOM     47  C   UNL A   1      38.588  29.723  27.734  1.00  0.00     0.029 A 
ATOM     48  C   UNL A   1      38.721  30.107  29.140  1.00  0.00     0.049 A 
ATOM     49  H   UNL A   1      40.220  29.528  30.464  1.00  0.00     0.167 HD
ATOM     50  C   UNL A   1      43.268  28.008  33.235  1.00  0.00     0.037 A 
ATOM     51  C   UNL A   1      37.893  30.923  29.822  1.00  0.00     0.037 A 
ATOM     52  C   UNL A   1      42.478  28.915  34.020  1.00  0.00     0.049 A 
ATOM     53  C   UNL A   1      38.151  31.192  31.285  1.00  0.00     0.074 A 
ATOM     54  C   UNL A   1      42.653  29.294  35.338  1.00  0.00     0.029 A 
ATOM     55  N   UNL A   1      41.353  29.581  33.555  1.00  0.00    -0.354 N 
ATOM     56  N   UNL A   1      39.122  30.752  32.050  1.00  0.00    -0.248 NA
ATOM     57  C   UNL A   1      37.194  32.065  31.981  1.00  0.00     0.031 C 
ATOM     58  C   UNL A   1      41.609  30.157  35.685  1.00  0.00     0.029 A 
ATOM     59  C   UNL A   1      40.815  30.356  34.567  1.00  0.00     0.049 A 
ATOM     60  H   UNL A   1      40.992  29.512  32.642  1.00  0.00     0.167 HD
ATOM     61  C   UNL A   1      38.915  31.324  33.300  1.00  0.00     0.074 A 
ATOM     62  C   UNL A   1      37.725  32.141  33.194  1.00  0.00     0.031 C 
ATOM     63  C   UNL A   1      39.646  31.187  34.433  1.00  0.00     0.037 A 
BRANCH  50  64
ATOM     64  C   UNL A   1      44.434  27.328  33.884  1.00  0.00     0.064 A 
ATOM     65  C   UNL A   1      44.310  26.070  34.491  1.00  0.00     0.173 A 
ATOM     66  C   UNL A   1      45.697  27.940  33.888  1.00  0.00     0.173 A 
ATOM     67  F   UNL A   1      43.118  25.455  34.534  1.00  0.00    -0.203 F 
ATOM     68  C   UNL A   1      45.404  25.458  35.098  1.00  0.00     0.198 A 
ATOM     69  C   UNL A   1      46.793  27.313  34.471  1.00  0.00     0.198 A 
ATOM     70  F   UNL A   1      45.866  29.145  33.324  1.00  0.00    -0.203 F 
ATOM     71  F   UNL A   1      45.252  24.278  35.714  1.00  0.00    -0.200 F 
ATOM     72  C   UNL A   1      46.645  26.077  35.081  1.00  0.00     0.200 A 
ATOM     73  F   UNL A   1      47.994  27.909  34.446  1.00  0.00    -0.200 F 
ATOM     74  F   UNL A   1      47.698  25.484  35.661  1.00  0.00    -0.200 F 
ENDBRANCH  50  64
BRANCH  51  75
ATOM     75  C   UNL A   1      36.715  31.529  29.143  1.00  0.00     0.064 A 
ATOM     76  C   UNL A   1      36.676  32.898  28.849  1.00  0.00     0.173 A 
ATOM     77  C   UNL A   1      35.592  30.758  28.808  1.00  0.00     0.173 A 
ATOM     78  F   UNL A   1      37.712  33.683  29.180  1.00  0.00    -0.203 F 
ATOM     79  C   UNL A   1      35.553  33.477  28.261  1.00  0.00     0.198 A 
ATOM     80  C   UNL A   1      34.480  31.333  28.196  1.00  0.00     0.198 A 
ATOM     81  F   UNL A   1      35.574  29.444  29.078  1.00  0.00    -0.203 F 
ATOM     82  F   UNL A   1      35.522  34.798  28.038  1.00  0.00    -0.200 F 
ATOM     83  C   UNL A   1      34.458  32.694  27.930  1.00  0.00     0.200 A 
ATOM     84  F   UNL A   1      33.426  30.570  27.875  1.00  0.00    -0.200 F 
ATOM     85  F   UNL A   1      33.377  33.251  27.368  1.00  0.00    -0.200 F 
ENDBRANCH  51  75
BRANCH  63  86
ATOM     86  C   UNL A   1      39.229  31.984  35.636  1.00  0.00     0.064 A 
ATOM     87  C   UNL A   1      39.598  33.325  35.798  1.00  0.00     0.173 A 
ATOM     88  C   UNL A   1      38.382  31.411  36.597  1.00  0.00     0.173 A 
ATOM     89  F   UNL A   1      40.416  33.913  34.911  1.00  0.00    -0.203 F 
ATOM     90  C   UNL A   1      39.147  34.062  36.890  1.00  0.00     0.198 A 
ATOM     91  C   UNL A   1      37.910  32.159  37.672  1.00  0.00     0.198 A 
ATOM     92  F   UNL A   1      37.992  30.133  36.480  1.00  0.00    -0.203 F 
ATOM     93  F   UNL A   1      39.537  35.335  37.045  1.00  0.00    -0.200 F 
ATOM     94  C   UNL A   1      38.296  33.482  37.820  1.00  0.00     0.200 A 
ATOM     95  F   UNL A   1      37.076  31.601  38.560  1.00  0.00    -0.200 F 
ATOM     96  F   UNL A   1      37.849  34.199  38.861  1.00  0.00    -0.200 F 
ENDBRANCH  63  86
ENDBRANCH  37  38
ENDBRANCH  30  32
ENDBRANCH  29  30
ENDBRANCH  28  29
ENDBRANCH  27  28
ENDBRANCH  26  27
ENDBRANCH  25  26
ENDBRANCH   1  25
TORSDOF 19
ENDMDL
MODEL 2
REMARK VINA RESULT:     -11.4      3.728      8.338
REMARK SMILES CC1(C)[C@H](C(=O)OCCOCCOCCOC(=O)c2ccc(-c3c4nc(c(-c5c(F)c(F)c(F)c(F)c5F)c5ccc([nH]5)c(-c5c(F)c(F)c(F)c(F)c5F)c5nc(c(-c6c(F)c(F)c(F)c(F)c6F)c6ccc3[nH]6)C=C5)C=C4)cc2)[C@@H]1C(=O)Nc1ccc(Cl)c(Br)c1
REMARK SMILES IDX 11 1 10 2 9 3 8 4 7 5 5 6 6 7 4 8 1 9 2 10 3 11 82 12 83 13
REMARK SMILES IDX 84 14 85 15 86 17 87 18 93 19 88 20 91 21 89 22 92 23 90 24
REMARK SMILES IDX 12 25 13 26 14 27 15 28 16 29 17 30 18 31 19 32 20 33 81 34
REMARK SMILES IDX 21 35 80 36 22 37 23 38 24 39 74 40 25 41 79 42 73 43 75 44
REMARK SMILES IDX 26 45 78 46 72 47 71 48 27 50 59 51 39 52 58 53 40 54 43 55
REMARK SMILES IDX 57 56 76 57 41 58 42 59 56 61 77 62 44 63 28 64 29 65 37 66
REMARK SMILES IDX 30 67 31 68 35 69 38 70 32 71 33 72 36 73 34 74 60 75 61 76
REMARK SMILES IDX 69 77 62 78 63 79 67 80 70 81 64 82 65 83 68 84 66 85 45 86
REMARK SMILES IDX 46 87 54 88 47 89 48 90 52 91 55 92 49 93 50 94 53 95 51 96
REMARK H PARENT 85 16 75 49 43 60
REMARK Flexibility Score: inf
ROOT
ATOM      1  C   UNL A   1      29.344  29.070  23.134  1.00  0.00     0.188 C 
ENDROOT
BRANCH   1   2
ATOM      2  O   UNL A   1      29.518  27.693  22.838  1.00  0.00    -0.376 OA
BRANCH   2   3
ATOM      3  C   UNL A   1      29.141  26.773  23.851  1.00  0.00     0.202 C 
BRANCH   3   4
ATOM      4  C   UNL A   1      30.088  25.577  24.000  1.00  0.00     0.261 C 
BRANCH   4   5
ATOM      5  O   UNL A   1      30.392  25.079  25.320  1.00  0.00    -0.463 OA
BRANCH   5   6
ATOM      6  C   UNL A   1      30.979  23.875  25.474  1.00  0.00     0.310 C 
ATOM      7  O   UNL A   1      30.637  22.842  24.921  1.00  0.00    -0.252 OA
BRANCH   6   8
ATOM      8  C   UNL A   1      32.182  23.857  26.337  1.00  0.00     0.118 C 
ATOM      9  C   UNL A   1      33.626  22.548  27.987  1.00  0.00     0.013 C 
ATOM     10  C   UNL A   1      33.175  22.734  26.553  1.00  0.00    -0.009 C 
ATOM     11  C   UNL A   1      33.098  21.420  25.808  1.00  0.00     0.013 C 
ATOM     12  C   UNL A   1      33.590  24.019  25.806  1.00  0.00     0.100 C 
BRANCH  12  13
ATOM     13  C   UNL A   1      33.986  23.941  24.372  1.00  0.00     0.228 C 
ATOM     14  O   UNL A   1      33.172  24.268  23.514  1.00  0.00    -0.274 OA
ATOM     15  N   UNL A   1      35.251  23.560  23.987  1.00  0.00    -0.326 N 
ATOM     16  H   UNL A   1      35.445  23.703  23.032  1.00  0.00     0.169 HD
BRANCH  15  17
ATOM     17  C   UNL A   1      36.307  23.004  24.717  1.00  0.00     0.042 A 
ATOM     18  C   UNL A   1      36.596  21.656  24.483  1.00  0.00     0.028 A 
ATOM     19  C   UNL A   1      37.114  23.739  25.588  1.00  0.00     0.043 A 
ATOM     20  C   UNL A   1      37.770  21.091  24.989  1.00  0.00     0.024 A 
ATOM     21  C   UNL A   1      38.284  23.168  26.113  1.00  0.00     0.038 A 
ATOM     22  C   UNL A   1      38.632  21.852  25.783  1.00  0.00     0.055 A 
ATOM     23  Br  UNL A   1      39.391  24.280  27.185  1.00  0.00    -0.049 Br
ATOM     24  Cl  UNL A   1      40.115  21.121  26.278  1.00  0.00    -0.083 Cl
ENDBRANCH  15  17
ENDBRANCH  12  13
ENDBRANCH   6   8
ENDBRANCH   5   6
ENDBRANCH   4   5
ENDBRANCH   3   4
ENDBRANCH   2   3
ENDBRANCH   1   2
BRANCH   1  25
ATOM     25  C   UNL A   1      30.535  29.729  23.852  1.00  0.00     0.188 C 
BRANCH  25  26
ATOM     26  O   UNL A   1      31.797  29.079  23.904  1.00  0.00    -0.376 OA
BRANCH  26  27
ATOM     27  C   UNL A   1      32.644  29.315  25.018  1.00  0.00     0.202 C 
BRANCH  27  28
ATOM     28  C   UNL A   1      32.156  30.299  26.088  1.00  0.00     0.261 C 
BRANCH  28  29
ATOM     29  O   UNL A   1      32.954  30.312  27.283  1.00  0.00    -0.460 OA
BRANCH  29  30
ATOM     30  C   UNL A   1      33.648  31.453  27.512  1.00  0.00     0.338 C 
ATOM     31  O   UNL A   1      33.220  32.595  27.504  1.00  0.00    -0.246 OA
BRANCH  30  32
ATOM     32  C   UNL A   1      35.010  31.114  27.986  1.00  0.00     0.060 A 
ATOM     33  C   UNL A   1      35.266  29.790  28.377  1.00  0.00     0.016 A 
ATOM     34  C   UNL A   1      36.013  32.080  28.074  1.00  0.00     0.016 A 
ATOM     35  C   UNL A   1      36.513  29.433  28.892  1.00  0.00     0.010 A 
ATOM     36  C   UNL A   1      37.250  31.733  28.626  1.00  0.00     0.010 A 
ATOM     37  C   UNL A   1      37.489  30.419  29.074  1.00  0.00    -0.014 A 
BRANCH  37  38
ATOM     38  C   UNL A   1      38.634  30.162  29.978  1.00  0.00     0.031 A 
ATOM     39  C   UNL A   1      39.713  29.237  29.481  1.00  0.00     0.074 A 
ATOM     40  C   UNL A   1      38.720  30.706  31.202  1.00  0.00     0.049 A 
ATOM     41  N   UNL A   1      40.737  28.730  30.117  1.00  0.00    -0.248 NA
ATOM     42  C   UNL A   1      39.616  28.827  28.069  1.00  0.00     0.031 C 
ATOM     43  C   UNL A   1      37.781  31.667  31.773  1.00  0.00     0.029 A 
ATOM     44  N   UNL A   1      39.644  30.501  32.198  1.00  0.00    -0.354 N 
ATOM     45  C   UNL A   1      41.391  27.928  29.190  1.00  0.00     0.074 A 
ATOM     46  C   UNL A   1      40.647  28.006  27.953  1.00  0.00     0.031 C 
ATOM     47  C   UNL A   1      38.161  31.948  33.033  1.00  0.00     0.029 A 
ATOM     48  C   UNL A   1      39.344  31.155  33.367  1.00  0.00     0.049 A 
ATOM     49  H   UNL A   1      40.446  29.940  32.084  1.00  0.00     0.167 HD
ATOM     50  C   UNL A   1      42.511  27.188  29.357  1.00  0.00     0.037 A 
ATOM     51  C   UNL A   1      39.939  31.085  34.575  1.00  0.00     0.037 A 
ATOM     52  C   UNL A   1      43.246  27.103  30.588  1.00  0.00     0.049 A 
ATOM     53  C   UNL A   1      41.137  30.186  34.764  1.00  0.00     0.074 A 
ATOM     54  C   UNL A   1      44.389  26.377  30.864  1.00  0.00     0.029 A 
ATOM     55  N   UNL A   1      42.899  27.768  31.755  1.00  0.00    -0.354 N 
ATOM     56  N   UNL A   1      41.751  29.427  33.887  1.00  0.00    -0.248 NA
ATOM     57  C   UNL A   1      41.721  30.129  36.113  1.00  0.00     0.031 C 
ATOM     58  C   UNL A   1      44.711  26.567  32.211  1.00  0.00     0.029 A 
ATOM     59  C   UNL A   1      43.798  27.454  32.759  1.00  0.00     0.049 A 
ATOM     60  H   UNL A   1      42.128  28.373  31.855  1.00  0.00     0.167 HD
ATOM     61  C   UNL A   1      42.810  28.836  34.566  1.00  0.00     0.074 A 
ATOM     62  C   UNL A   1      42.757  29.322  35.928  1.00  0.00     0.031 C 
ATOM     63  C   UNL A   1      43.746  27.972  34.103  1.00  0.00     0.037 A 
BRANCH  50  64
ATOM     64  C   UNL A   1      42.982  26.380  28.186  1.00  0.00     0.064 A 
ATOM     65  C   UNL A   1      42.772  24.996  28.114  1.00  0.00     0.173 A 
ATOM     66  C   UNL A   1      43.641  27.004  27.116  1.00  0.00     0.173 A 
ATOM     67  F   UNL A   1      42.168  24.350  29.123  1.00  0.00    -0.203 F 
ATOM     68  C   UNL A   1      43.225  24.260  27.021  1.00  0.00     0.198 A 
ATOM     69  C   UNL A   1      44.067  26.270  26.013  1.00  0.00     0.198 A 
ATOM     70  F   UNL A   1      43.868  28.326  27.140  1.00  0.00    -0.203 F 
ATOM     71  F   UNL A   1      43.057  22.931  26.994  1.00  0.00    -0.200 F 
ATOM     72  C   UNL A   1      43.866  24.899  25.969  1.00  0.00     0.200 A 
ATOM     73  F   UNL A   1      44.678  26.891  24.994  1.00  0.00    -0.200 F 
ATOM     74  F   UNL A   1      44.297  24.191  24.916  1.00  0.00    -0.200 F 
ENDBRANCH  50  64
BRANCH  51  75
ATOM     75  C   UNL A   1      39.397  31.865  35.720  1.00  0.00     0.064 A 
ATOM     76  C   UNL A   1      39.852  33.162  35.991  1.00  0.00     0.173 A 
ATOM     77  C   UNL A   1      38.440  31.316  36.587  1.00  0.00     0.173 A 
ATOM     78  F   UNL A   1      40.790  33.718  35.210  1.00  0.00    -0.203 F 
ATOM     79  C   UNL A   1      39.385  33.875  37.093  1.00  0.00     0.198 A 
ATOM     80  C   UNL A   1      37.953  32.040  37.675  1.00  0.00     0.198 A 
ATOM     81  F   UNL A   1      37.979  30.073  36.380  1.00  0.00    -0.203 F 
ATOM     82  F   UNL A   1      39.875  35.093  37.358  1.00  0.00    -0.200 F 
ATOM     83  C   UNL A   1      38.432  33.316  37.931  1.00  0.00     0.200 A 
ATOM     84  F   UNL A   1      37.030  31.496  38.479  1.00  0.00    -0.200 F 
ATOM     85  F   UNL A   1      37.985  33.999  38.993  1.00  0.00    -0.200 F 
ENDBRANCH  51  75
BRANCH  63  86
ATOM     86  C   UNL A   1      44.831  27.541  35.046  1.00  0.00     0.064 A 
ATOM     87  C   UNL A   1      46.008  28.284  35.208  1.00  0.00     0.173 A 
ATOM     88  C   UNL A   1      44.648  26.409  35.855  1.00  0.00     0.173 A 
ATOM     89  F   UNL A   1      46.233  29.367  34.450  1.00  0.00    -0.203 F 
ATOM     90  C   UNL A   1      46.972  27.899  36.136  1.00  0.00     0.198 A 
ATOM     91  C   UNL A   1      45.601  26.043  36.802  1.00  0.00     0.198 A 
ATOM     92  F   UNL A   1      43.533  25.671  35.745  1.00  0.00    -0.203 F 
ATOM     93  F   UNL A   1      48.106  28.604  36.254  1.00  0.00    -0.200 F 
ATOM     94  C   UNL A   1      46.764  26.786  36.939  1.00  0.00     0.200 A 
ATOM     95  F   UNL A   1      45.390  24.978  37.586  1.00  0.00    -0.200 F 
ATOM     96  F   UNL A   1      47.685  26.428  37.844  1.00  0.00    -0.200 F 
ENDBRANCH  63  86
ENDBRANCH  37  38
ENDBRANCH  30  32
ENDBRANCH  29  30
ENDBRANCH  28  29
ENDBRANCH  27  28
ENDBRANCH  26  27
ENDBRANCH  25  26
ENDBRANCH   1  25
TORSDOF 19
ENDMDL
MODEL 3
REMARK VINA RESULT:     -11.3      1.853      3.129
REMARK SMILES CC1(C)[C@H](C(=O)OCCOCCOCCOC(=O)c2ccc(-c3c4nc(c(-c5c(F)c(F)c(F)c(F)c5F)c5ccc([nH]5)c(-c5c(F)c(F)c(F)c(F)c5F)c5nc(c(-c6c(F)c(F)c(F)c(F)c6F)c6ccc3[nH]6)C=C5)C=C4)cc2)[C@@H]1C(=O)Nc1ccc(Cl)c(Br)c1
REMARK SMILES IDX 11 1 10 2 9 3 8 4 7 5 5 6 6 7 4 8 1 9 2 10 3 11 82 12 83 13
REMARK SMILES IDX 84 14 85 15 86 17 87 18 93 19 88 20 91 21 89 22 92 23 90 24
REMARK SMILES IDX 12 25 13 26 14 27 15 28 16 29 17 30 18 31 19 32 20 33 81 34
REMARK SMILES IDX 21 35 80 36 22 37 23 38 24 39 74 40 25 41 79 42 73 43 75 44
REMARK SMILES IDX 26 45 78 46 72 47 71 48 27 50 59 51 39 52 58 53 40 54 43 55
REMARK SMILES IDX 57 56 76 57 41 58 42 59 56 61 77 62 44 63 28 64 29 65 37 66
REMARK SMILES IDX 30 67 31 68 35 69 38 70 32 71 33 72 36 73 34 74 60 75 61 76
REMARK SMILES IDX 69 77 62 78 63 79 67 80 70 81 64 82 65 83 68 84 66 85 45 86
REMARK SMILES IDX 46 87 54 88 47 89 48 90 52 91 55 92 49 93 50 94 53 95 51 96
REMARK H PARENT 85 16 75 49 43 60
REMARK Flexibility Score: inf
ROOT
ATOM      1  C   UNL A   1      38.035  21.634  25.320  1.00  0.00     0.188 C 
ENDROOT
BRANCH   1   2
ATOM      2  O   UNL A   1      36.856  22.422  25.271  1.00  0.00    -0.376 OA
BRANCH   2   3
ATOM      3  C   UNL A   1      36.562  23.049  24.033  1.00  0.00     0.202 C 
BRANCH   3   4
ATOM      4  C   UNL A   1      35.210  23.774  23.998  1.00  0.00     0.261 C 
BRANCH   4   5
ATOM      5  O   UNL A   1      34.747  24.340  22.755  1.00  0.00    -0.463 OA
BRANCH   5   6
ATOM      6  C   UNL A   1      33.679  25.163  22.739  1.00  0.00     0.310 C 
ATOM      7  O   UNL A   1      32.832  25.212  21.862  1.00  0.00    -0.252 OA
BRANCH   6   8
ATOM      8  C   UNL A   1      33.511  26.014  23.940  1.00  0.00     0.118 C 
ATOM      9  C   UNL A   1      33.564  28.365  24.934  1.00  0.00     0.013 C 
ATOM     10  C   UNL A   1      32.840  27.366  24.054  1.00  0.00    -0.009 C 
ATOM     11  C   UNL A   1      32.146  28.037  22.889  1.00  0.00     0.013 C 
ATOM     12  C   UNL A   1      32.212  26.119  24.710  1.00  0.00     0.100 C 
BRANCH  12  13
ATOM     13  C   UNL A   1      30.887  25.629  24.239  1.00  0.00     0.228 C 
ATOM     14  O   UNL A   1      30.001  26.447  24.006  1.00  0.00    -0.274 OA
ATOM     15  N   UNL A   1      30.643  24.294  24.012  1.00  0.00    -0.326 N 
ATOM     16  H   UNL A   1      29.793  24.109  23.551  1.00  0.00     0.169 HD
BRANCH  15  17
ATOM     17  C   UNL A   1      31.394  23.155  24.326  1.00  0.00     0.042 A 
ATOM     18  C   UNL A   1      31.645  22.258  23.283  1.00  0.00     0.028 A 
ATOM     19  C   UNL A   1      31.957  22.924  25.583  1.00  0.00     0.043 A 
ATOM     20  C   UNL A   1      32.574  21.228  23.452  1.00  0.00     0.024 A 
ATOM     21  C   UNL A   1      32.876  21.878  25.760  1.00  0.00     0.038 A 
ATOM     22  C   UNL A   1      33.213  21.051  24.682  1.00  0.00     0.055 A 
ATOM     23  Br  UNL A   1      33.690  21.714  27.469  1.00  0.00    -0.049 Br
ATOM     24  Cl  UNL A   1      34.428  19.828  24.780  1.00  0.00    -0.083 Cl
ENDBRANCH  15  17
ENDBRANCH  12  13
ENDBRANCH   6   8
ENDBRANCH   5   6
ENDBRANCH   4   5
ENDBRANCH   3   4
ENDBRANCH   2   3
ENDBRANCH   1   2
BRANCH   1  25
ATOM     25  C   UNL A   1      39.133  22.174  26.253  1.00  0.00     0.188 C 
BRANCH  25  26
ATOM     26  O   UNL A   1      40.080  21.294  26.841  1.00  0.00    -0.376 OA
BRANCH  26  27
ATOM     27  C   UNL A   1      41.139  20.792  26.042  1.00  0.00     0.202 C 
BRANCH  27  28
ATOM     28  C   UNL A   1      42.413  21.638  25.936  1.00  0.00     0.261 C 
BRANCH  28  29
ATOM     29  O   UNL A   1      42.304  22.756  25.040  1.00  0.00    -0.460 OA
BRANCH  29  30
ATOM     30  C   UNL A   1      43.190  23.761  25.246  1.00  0.00     0.338 C 
ATOM     31  O   UNL A   1      44.293  23.890  24.743  1.00  0.00    -0.246 OA
BRANCH  30  32
ATOM     32  C   UNL A   1      42.546  24.830  26.044  1.00  0.00     0.060 A 
ATOM     33  C   UNL A   1      43.141  26.103  26.050  1.00  0.00     0.016 A 
ATOM     34  C   UNL A   1      41.396  24.587  26.795  1.00  0.00     0.016 A 
ATOM     35  C   UNL A   1      42.610  27.127  26.835  1.00  0.00     0.010 A 
ATOM     36  C   UNL A   1      40.887  25.600  27.613  1.00  0.00     0.010 A 
ATOM     37  C   UNL A   1      41.516  26.859  27.666  1.00  0.00    -0.014 A 
BRANCH  37  38
ATOM     38  C   UNL A   1      41.204  27.776  28.787  1.00  0.00     0.031 A 
ATOM     39  C   UNL A   1      42.034  27.649  30.036  1.00  0.00     0.074 A 
ATOM     40  C   UNL A   1      40.213  28.680  28.722  1.00  0.00     0.049 A 
ATOM     41  N   UNL A   1      41.879  28.217  31.204  1.00  0.00    -0.248 NA
ATOM     42  C   UNL A   1      43.199  26.752  29.952  1.00  0.00     0.031 C 
ATOM     43  C   UNL A   1      39.385  28.950  27.551  1.00  0.00     0.029 A 
ATOM     44  N   UNL A   1      39.725  29.529  29.686  1.00  0.00    -0.354 N 
ATOM     45  C   UNL A   1      42.911  27.730  31.995  1.00  0.00     0.074 A 
ATOM     46  C   UNL A   1      43.681  26.815  31.182  1.00  0.00     0.031 C 
ATOM     47  C   UNL A   1      38.468  29.881  27.873  1.00  0.00     0.029 A 
ATOM     48  C   UNL A   1      38.622  30.239  29.283  1.00  0.00     0.049 A 
ATOM     49  H   UNL A   1      40.130  29.620  30.580  1.00  0.00     0.167 HD
ATOM     50  C   UNL A   1      43.191  28.017  33.287  1.00  0.00     0.037 A 
ATOM     51  C   UNL A   1      37.811  31.053  29.990  1.00  0.00     0.037 A 
ATOM     52  C   UNL A   1      42.421  28.919  34.098  1.00  0.00     0.049 A 
ATOM     53  C   UNL A   1      38.090  31.293  31.454  1.00  0.00     0.074 A 
ATOM     54  C   UNL A   1      42.617  29.273  35.420  1.00  0.00     0.029 A 
ATOM     55  N   UNL A   1      41.300  29.606  33.658  1.00  0.00    -0.354 N 
ATOM     56  N   UNL A   1      39.065  30.829  32.200  1.00  0.00    -0.248 NA
ATOM     57  C   UNL A   1      37.151  32.165  32.176  1.00  0.00     0.031 C 
ATOM     58  C   UNL A   1      41.587  30.142  35.794  1.00  0.00     0.029 A 
ATOM     59  C   UNL A   1      40.782  30.370  34.689  1.00  0.00     0.049 A 
ATOM     60  H   UNL A   1      40.927  29.558  32.747  1.00  0.00     0.167 HD
ATOM     61  C   UNL A   1      38.879  31.381  33.462  1.00  0.00     0.074 A 
ATOM     62  C   UNL A   1      37.697  32.214  33.384  1.00  0.00     0.031 C 
ATOM     63  C   UNL A   1      39.621  31.217  34.583  1.00  0.00     0.037 A 
BRANCH  50  64
ATOM     64  C   UNL A   1      44.357  27.312  33.911  1.00  0.00     0.064 A 
ATOM     65  C   UNL A   1      45.638  27.880  33.929  1.00  0.00     0.173 A 
ATOM     66  C   UNL A   1      44.184  26.055  34.510  1.00  0.00     0.173 A 
ATOM     67  F   UNL A   1      45.859  29.070  33.348  1.00  0.00    -0.203 F 
ATOM     68  C   UNL A   1      46.712  27.206  34.506  1.00  0.00     0.198 A 
ATOM     69  C   UNL A   1      45.253  25.397  35.110  1.00  0.00     0.198 A 
ATOM     70  F   UNL A   1      42.978  25.468  34.516  1.00  0.00    -0.203 F 
ATOM     71  F   UNL A   1      47.938  27.745  34.469  1.00  0.00    -0.200 F 
ATOM     72  C   UNL A   1      46.516  25.968  35.102  1.00  0.00     0.200 A 
ATOM     73  F   UNL A   1      45.061  24.204  35.693  1.00  0.00    -0.200 F 
ATOM     74  F   UNL A   1      47.549  25.322  35.660  1.00  0.00    -0.200 F 
ENDBRANCH  50  64
BRANCH  51  75
ATOM     75  C   UNL A   1      36.633  31.684  29.336  1.00  0.00     0.064 A 
ATOM     76  C   UNL A   1      35.528  30.917  28.942  1.00  0.00     0.173 A 
ATOM     77  C   UNL A   1      36.604  33.059  29.060  1.00  0.00     0.173 A 
ATOM     78  F   UNL A   1      35.523  29.593  29.154  1.00  0.00    -0.203 F 
ATOM     79  C   UNL A   1      34.447  31.498  28.282  1.00  0.00     0.198 A 
ATOM     80  C   UNL A   1      35.510  33.644  28.425  1.00  0.00     0.198 A 
ATOM     81  F   UNL A   1      37.641  33.836  29.407  1.00  0.00    -0.203 F 
ATOM     82  F   UNL A   1      33.427  30.733  27.870  1.00  0.00    -0.200 F 
ATOM     83  C   UNL A   1      34.435  32.862  28.029  1.00  0.00     0.200 A 
ATOM     84  F   UNL A   1      35.503  34.962  28.186  1.00  0.00    -0.200 F 
ATOM     85  F   UNL A   1      33.397  33.419  27.392  1.00  0.00    -0.200 F 
ENDBRANCH  51  75
BRANCH  63  86
ATOM     86  C   UNL A   1      39.229  31.997  35.804  1.00  0.00     0.064 A 
ATOM     87  C   UNL A   1      39.681  33.304  36.024  1.00  0.00     0.173 A 
ATOM     88  C   UNL A   1      38.322  31.449  36.725  1.00  0.00     0.173 A 
ATOM     89  F   UNL A   1      40.557  33.867  35.178  1.00  0.00    -0.203 F 
ATOM     90  C   UNL A   1      39.252  34.031  37.131  1.00  0.00     0.198 A 
ATOM     91  C   UNL A   1      37.873  32.188  37.815  1.00  0.00     0.198 A 
ATOM     92  F   UNL A   1      37.851  30.205  36.553  1.00  0.00    -0.203 F 
ATOM     93  F   UNL A   1      39.722  35.269  37.342  1.00  0.00    -0.200 F 
ATOM     94  C   UNL A   1      38.342  33.477  38.020  1.00  0.00     0.200 A 
ATOM     95  F   UNL A   1      36.983  31.657  38.664  1.00  0.00    -0.200 F 
ATOM     96  F   UNL A   1      37.917  34.186  39.076  1.00  0.00    -0.200 F 
ENDBRANCH  63  86
ENDBRANCH  37  38
ENDBRANCH  30  32
ENDBRANCH  29  30
ENDBRANCH  28  29
ENDBRANCH  27  28
ENDBRANCH  26  27
ENDBRANCH  25  26
ENDBRANCH   1  25
TORSDOF 19
ENDMDL
