MODEL 1
REMARK VINA RESULT:      -8.8      0.000      0.000
REMARK SMILES CC[C@@H](C)[C@@H](C(=O)OCCOCCOCCOC(=O)c1ccc(-c2c3nc(c(-c4c(F)c(F)c(F)c(F)c4F)c4ccc([nH]4)c(-c4c(F)c(F)c(F)c(F)c4F)c4nc(c(-c5c(F)c(F)c(F)c(F)c5F)c5ccc2[nH]5)C=C4)C=C3)cc1)N1C(=O)/C(=C/c2ccc(O)cc2)SC1=S
REMARK SMILES IDX 12 1 11 2 10 3 9 4 8 5 6 6 7 7 5 8 3 9 4 10 2 11 1 12 83 13
REMARK SMILES IDX 84 14 96 15 85 16 86 17 95 18 97 19 87 20 88 21 89 22 94 23
REMARK SMILES IDX 90 24 93 25 91 26 92 27 13 29 14 30 15 31 16 32 17 33 18 34
REMARK SMILES IDX 19 35 20 36 21 37 82 38 22 39 81 40 23 41 24 42 25 43 75 44
REMARK SMILES IDX 26 45 80 46 74 47 76 48 27 49 79 50 73 51 72 52 28 54 60 55
REMARK SMILES IDX 40 56 59 57 41 58 44 59 58 60 77 61 42 62 43 63 57 65 78 66
REMARK SMILES IDX 45 67 29 68 30 69 38 70 31 71 32 72 36 73 39 74 33 75 34 76
REMARK SMILES IDX 37 77 35 78 61 79 62 80 70 81 63 82 64 83 68 84 71 85 65 86
REMARK SMILES IDX 66 87 69 88 67 89 46 90 47 91 55 92 48 93 49 94 53 95 56 96
REMARK SMILES IDX 50 97 51 98 54 99 52 100
REMARK H PARENT 92 28 76 53 44 64
REMARK Flexibility Score: inf
ROOT
ATOM      1  C   UNL A   1      32.608  36.526  30.688  1.00  0.00     0.188 C 
ENDROOT
BRANCH   1   2
ATOM      2  O   UNL A   1      33.324  37.019  31.810  1.00  0.00    -0.376 OA
BRANCH   2   3
ATOM      3  C   UNL A   1      34.496  36.274  32.149  1.00  0.00     0.202 C 
BRANCH   3   4
ATOM      4  C   UNL A   1      34.425  35.449  33.450  1.00  0.00     0.261 C 
BRANCH   4   5
ATOM      5  O   UNL A   1      35.720  35.065  33.979  1.00  0.00    -0.462 OA
BRANCH   5   6
ATOM      6  C   UNL A   1      36.416  34.096  33.317  1.00  0.00     0.329 C 
ATOM      7  O   UNL A   1      35.891  33.188  32.677  1.00  0.00    -0.250 OA
BRANCH   6   8
ATOM      8  C   UNL A   1      37.964  34.221  33.454  1.00  0.00     0.204 C 
BRANCH   8   9
ATOM      9  C   UNL A   1      38.854  33.821  32.214  1.00  0.00     0.020 C 
ATOM     10  C   UNL A   1      40.313  34.287  32.388  1.00  0.00     0.010 C 
BRANCH   9  11
ATOM     11  C   UNL A   1      38.301  34.436  30.891  1.00  0.00     0.002 C 
ATOM     12  C   UNL A   1      37.972  33.435  29.785  1.00  0.00     0.004 C 
ENDBRANCH   9  11
ENDBRANCH   8   9
BRANCH   8  13
ATOM     13  N   UNL A   1      38.434  33.648  34.772  1.00  0.00    -0.278 N 
ATOM     14  C   UNL A   1      38.894  34.460  35.795  1.00  0.00     0.267 C 
ATOM     15  C   UNL A   1      38.418  32.299  35.087  1.00  0.00     0.149 C 
ATOM     16  O   UNL A   1      39.050  35.672  35.758  1.00  0.00    -0.268 OA
ATOM     17  C   UNL A   1      39.232  33.678  37.016  1.00  0.00     0.081 C 
ATOM     18  S   UNL A   1      38.725  32.062  36.809  1.00  0.00    -0.054 SA
ATOM     19  S   UNL A   1      38.153  30.989  34.089  1.00  0.00    -0.052 S 
ATOM     20  C   UNL A   1      39.856  34.221  38.073  1.00  0.00     0.029 C 
BRANCH  20  21
ATOM     21  C   UNL A   1      40.196  33.544  39.332  1.00  0.00    -0.024 A 
ATOM     22  C   UNL A   1      39.253  33.516  40.366  1.00  0.00     0.012 A 
ATOM     23  C   UNL A   1      41.446  32.951  39.543  1.00  0.00     0.012 A 
ATOM     24  C   UNL A   1      39.550  32.919  41.593  1.00  0.00     0.047 A 
ATOM     25  C   UNL A   1      41.738  32.329  40.762  1.00  0.00     0.047 A 
ATOM     26  C   UNL A   1      40.787  32.321  41.777  1.00  0.00     0.115 A 
BRANCH  26  27
ATOM     27  O   UNL A   1      41.031  31.729  42.981  1.00  0.00    -0.508 OA
ATOM     28  H   UNL A   1      40.319  31.404  43.495  1.00  0.00     0.293 HD
ENDBRANCH  26  27
ENDBRANCH  20  21
ENDBRANCH   8  13
ENDBRANCH   6   8
ENDBRANCH   5   6
ENDBRANCH   4   5
ENDBRANCH   3   4
ENDBRANCH   2   3
ENDBRANCH   1   2
BRANCH   1  29
ATOM     29  C   UNL A   1      33.221  35.329  29.984  1.00  0.00     0.188 C 
BRANCH  29  30
ATOM     30  O   UNL A   1      32.757  35.122  28.662  1.00  0.00    -0.376 OA
BRANCH  30  31
ATOM     31  C   UNL A   1      33.067  33.865  28.059  1.00  0.00     0.202 C 
BRANCH  31  32
ATOM     32  C   UNL A   1      34.324  33.115  28.547  1.00  0.00     0.261 C 
BRANCH  32  33
ATOM     33  O   UNL A   1      34.903  32.142  27.645  1.00  0.00    -0.460 OA
BRANCH  33  34
ATOM     34  C   UNL A   1      34.764  30.822  27.907  1.00  0.00     0.338 C 
ATOM     35  O   UNL A   1      33.771  30.145  27.720  1.00  0.00    -0.246 OA
BRANCH  34  36
ATOM     36  C   UNL A   1      36.123  30.267  28.198  1.00  0.00     0.060 A 
ATOM     37  C   UNL A   1      36.322  29.580  29.405  1.00  0.00     0.016 A 
ATOM     38  C   UNL A   1      37.160  30.316  27.258  1.00  0.00     0.016 A 
ATOM     39  C   UNL A   1      37.546  28.953  29.675  1.00  0.00     0.010 A 
ATOM     40  C   UNL A   1      38.391  29.708  27.537  1.00  0.00     0.010 A 
ATOM     41  C   UNL A   1      38.599  29.033  28.752  1.00  0.00    -0.014 A 
BRANCH  41  42
ATOM     42  C   UNL A   1      39.962  28.561  29.114  1.00  0.00     0.031 A 
ATOM     43  C   UNL A   1      40.742  29.339  30.138  1.00  0.00     0.074 A 
ATOM     44  C   UNL A   1      40.499  27.454  28.570  1.00  0.00     0.049 A 
ATOM     45  N   UNL A   1      41.948  29.136  30.604  1.00  0.00    -0.248 NA
ATOM     46  C   UNL A   1      40.063  30.511  30.711  1.00  0.00     0.031 C 
ATOM     47  C   UNL A   1      39.822  26.561  27.634  1.00  0.00     0.029 A 
ATOM     48  N   UNL A   1      41.723  26.858  28.778  1.00  0.00    -0.354 N 
ATOM     49  C   UNL A   1      42.189  30.178  31.491  1.00  0.00     0.074 A 
ATOM     50  C   UNL A   1      40.998  30.999  31.512  1.00  0.00     0.031 C 
ATOM     51  C   UNL A   1      40.609  25.494  27.403  1.00  0.00     0.029 A 
ATOM     52  C   UNL A   1      41.868  25.649  28.135  1.00  0.00     0.049 A 
ATOM     53  H   UNL A   1      42.429  27.259  29.334  1.00  0.00     0.167 HD
ATOM     54  C   UNL A   1      43.310  30.441  32.203  1.00  0.00     0.037 A 
ATOM     55  C   UNL A   1      42.889  24.766  28.160  1.00  0.00     0.037 A 
ATOM     56  C   UNL A   1      44.499  29.630  32.182  1.00  0.00     0.049 A 
ATOM     57  C   UNL A   1      44.140  25.101  28.942  1.00  0.00     0.074 A 
ATOM     58  C   UNL A   1      45.697  29.838  32.844  1.00  0.00     0.029 A 
ATOM     59  N   UNL A   1      44.641  28.456  31.459  1.00  0.00    -0.354 N 
ATOM     60  N   UNL A   1      44.371  26.101  29.757  1.00  0.00    -0.248 NA
ATOM     61  C   UNL A   1      45.288  24.194  28.773  1.00  0.00     0.031 C 
ATOM     62  C   UNL A   1      46.584  28.823  32.473  1.00  0.00     0.029 A 
ATOM     63  C   UNL A   1      45.919  27.949  31.629  1.00  0.00     0.049 A 
ATOM     64  H   UNL A   1      43.938  28.043  30.906  1.00  0.00     0.167 HD
ATOM     65  C   UNL A   1      45.680  25.939  30.202  1.00  0.00     0.074 A 
ATOM     66  C   UNL A   1      46.181  24.723  29.598  1.00  0.00     0.031 C 
ATOM     67  C   UNL A   1      46.409  26.738  31.020  1.00  0.00     0.037 A 
BRANCH  54  68
ATOM     68  C   UNL A   1      43.331  31.711  33.005  1.00  0.00     0.064 A 
ATOM     69  C   UNL A   1      43.835  32.913  32.487  1.00  0.00     0.173 A 
ATOM     70  C   UNL A   1      42.833  31.719  34.317  1.00  0.00     0.173 A 
ATOM     71  F   UNL A   1      44.341  32.954  31.245  1.00  0.00    -0.203 F 
ATOM     72  C   UNL A   1      43.870  34.068  33.266  1.00  0.00     0.198 A 
ATOM     73  C   UNL A   1      42.839  32.883  35.081  1.00  0.00     0.198 A 
ATOM     74  F   UNL A   1      42.338  30.597  34.860  1.00  0.00    -0.203 F 
ATOM     75  F   UNL A   1      44.412  35.190  32.773  1.00  0.00    -0.200 F 
ATOM     76  C   UNL A   1      43.368  34.053  34.558  1.00  0.00     0.200 A 
ATOM     77  F   UNL A   1      42.342  32.869  36.325  1.00  0.00    -0.200 F 
ATOM     78  F   UNL A   1      43.404  35.164  35.306  1.00  0.00    -0.200 F 
ENDBRANCH  54  68
BRANCH  55  79
ATOM     79  C   UNL A   1      42.785  23.460  27.446  1.00  0.00     0.064 A 
ATOM     80  C   UNL A   1      43.345  23.295  26.168  1.00  0.00     0.173 A 
ATOM     81  C   UNL A   1      42.100  22.366  27.993  1.00  0.00     0.173 A 
ATOM     82  F   UNL A   1      43.961  24.322  25.566  1.00  0.00    -0.203 F 
ATOM     83  C   UNL A   1      43.223  22.095  25.470  1.00  0.00     0.198 A 
ATOM     84  C   UNL A   1      42.007  21.154  27.307  1.00  0.00     0.198 A 
ATOM     85  F   UNL A   1      41.520  22.469  29.197  1.00  0.00    -0.203 F 
ATOM     86  F   UNL A   1      43.724  21.988  24.231  1.00  0.00    -0.200 F 
ATOM     87  C   UNL A   1      42.562  21.022  26.045  1.00  0.00     0.200 A 
ATOM     88  F   UNL A   1      41.369  20.117  27.869  1.00  0.00    -0.200 F 
ATOM     89  F   UNL A   1      42.446  19.867  25.376  1.00  0.00    -0.200 F 
ENDBRANCH  55  79
BRANCH  67  90
ATOM     90  C   UNL A   1      47.834  26.344  31.301  1.00  0.00     0.064 A 
ATOM     91  C   UNL A   1      48.888  26.791  30.490  1.00  0.00     0.173 A 
ATOM     92  C   UNL A   1      48.158  25.584  32.436  1.00  0.00     0.173 A 
ATOM     93  F   UNL A   1      48.634  27.514  29.389  1.00  0.00    -0.203 F 
ATOM     94  C   UNL A   1      50.211  26.476  30.794  1.00  0.00     0.198 A 
ATOM     95  C   UNL A   1      49.485  25.298  32.753  1.00  0.00     0.198 A 
ATOM     96  F   UNL A   1      47.192  25.143  33.255  1.00  0.00    -0.203 F 
ATOM     97  F   UNL A   1      51.198  26.886  29.984  1.00  0.00    -0.200 F 
ATOM     98  C   UNL A   1      50.509  25.739  31.930  1.00  0.00     0.200 A 
ATOM     99  F   UNL A   1      49.773  24.601  33.861  1.00  0.00    -0.200 F 
ATOM    100  F   UNL A   1      51.783  25.454  32.230  1.00  0.00    -0.200 F 
ENDBRANCH  67  90
ENDBRANCH  41  42
ENDBRANCH  34  36
ENDBRANCH  33  34
ENDBRANCH  32  33
ENDBRANCH  31  32
ENDBRANCH  30  31
ENDBRANCH  29  30
ENDBRANCH   1  29
TORSDOF 22
ENDMDL
MODEL 2
REMARK VINA RESULT:      -8.6      3.629      8.596
REMARK SMILES CC[C@@H](C)[C@@H](C(=O)OCCOCCOCCOC(=O)c1ccc(-c2c3nc(c(-c4c(F)c(F)c(F)c(F)c4F)c4ccc([nH]4)c(-c4c(F)c(F)c(F)c(F)c4F)c4nc(c(-c5c(F)c(F)c(F)c(F)c5F)c5ccc2[nH]5)C=C4)C=C3)cc1)N1C(=O)/C(=C/c2ccc(O)cc2)SC1=S
REMARK SMILES IDX 12 1 11 2 10 3 9 4 8 5 6 6 7 7 5 8 3 9 4 10 2 11 1 12 83 13
REMARK SMILES IDX 84 14 96 15 85 16 86 17 95 18 97 19 87 20 88 21 89 22 94 23
REMARK SMILES IDX 90 24 93 25 91 26 92 27 13 29 14 30 15 31 16 32 17 33 18 34
REMARK SMILES IDX 19 35 20 36 21 37 82 38 22 39 81 40 23 41 24 42 25 43 75 44
REMARK SMILES IDX 26 45 80 46 74 47 76 48 27 49 79 50 73 51 72 52 28 54 60 55
REMARK SMILES IDX 40 56 59 57 41 58 44 59 58 60 77 61 42 62 43 63 57 65 78 66
REMARK SMILES IDX 45 67 29 68 30 69 38 70 31 71 32 72 36 73 39 74 33 75 34 76
REMARK SMILES IDX 37 77 35 78 61 79 62 80 70 81 63 82 64 83 68 84 71 85 65 86
REMARK SMILES IDX 66 87 69 88 67 89 46 90 47 91 55 92 48 93 49 94 53 95 56 96
REMARK SMILES IDX 50 97 51 98 54 99 52 100
REMARK H PARENT 92 28 76 53 44 64
REMARK Flexibility Score: inf
ROOT
ATOM      1  C   UNL A   1      37.860  32.480  37.137  1.00  0.00     0.188 C 
ENDROOT
BRANCH   1   2
ATOM      2  O   UNL A   1      38.883  32.090  36.235  1.00  0.00    -0.376 OA
BRANCH   2   3
ATOM      3  C   UNL A   1      38.815  30.728  35.803  1.00  0.00     0.202 C 
BRANCH   3   4
ATOM      4  C   UNL A   1      38.169  30.484  34.423  1.00  0.00     0.261 C 
BRANCH   4   5
ATOM      5  O   UNL A   1      39.041  30.778  33.302  1.00  0.00    -0.462 OA
BRANCH   5   6
ATOM      6  C   UNL A   1      39.167  29.831  32.328  1.00  0.00     0.329 C 
ATOM      7  O   UNL A   1      39.787  28.780  32.467  1.00  0.00    -0.250 OA
BRANCH   6   8
ATOM      8  C   UNL A   1      38.465  30.203  30.987  1.00  0.00     0.204 C 
BRANCH   8   9
ATOM      9  C   UNL A   1      39.255  29.957  29.643  1.00  0.00     0.020 C 
ATOM     10  C   UNL A   1      38.305  29.886  28.431  1.00  0.00     0.010 C 
BRANCH   9  11
ATOM     11  C   UNL A   1      40.077  28.632  29.695  1.00  0.00     0.002 C 
ATOM     12  C   UNL A   1      39.532  27.485  28.847  1.00  0.00     0.004 C 
ENDBRANCH   9  11
ENDBRANCH   8   9
BRANCH   8  13
ATOM     13  N   UNL A   1      37.803  31.558  31.085  1.00  0.00    -0.278 N 
ATOM     14  C   UNL A   1      36.477  31.695  31.460  1.00  0.00     0.267 C 
ATOM     15  C   UNL A   1      38.448  32.762  30.849  1.00  0.00     0.149 C 
ATOM     16  O   UNL A   1      35.678  30.795  31.677  1.00  0.00    -0.268 OA
ATOM     17  C   UNL A   1      36.070  33.124  31.554  1.00  0.00     0.081 C 
ATOM     18  S   UNL A   1      37.448  34.115  31.381  1.00  0.00    -0.054 SA
ATOM     19  S   UNL A   1      39.951  33.035  30.179  1.00  0.00    -0.052 S 
ATOM     20  C   UNL A   1      34.794  33.502  31.732  1.00  0.00     0.029 C 
BRANCH  20  21
ATOM     21  C   UNL A   1      34.302  34.880  31.876  1.00  0.00    -0.024 A 
ATOM     22  C   UNL A   1      33.656  35.487  30.793  1.00  0.00     0.012 A 
ATOM     23  C   UNL A   1      34.487  35.615  33.052  1.00  0.00     0.012 A 
ATOM     24  C   UNL A   1      33.210  36.808  30.874  1.00  0.00     0.047 A 
ATOM     25  C   UNL A   1      34.018  36.931  33.145  1.00  0.00     0.047 A 
ATOM     26  C   UNL A   1      33.385  37.516  32.052  1.00  0.00     0.115 A 
BRANCH  26  27
ATOM     27  O   UNL A   1      32.916  38.795  32.098  1.00  0.00    -0.508 OA
ATOM     28  H   UNL A   1      33.063  39.374  31.377  1.00  0.00     0.293 HD
ENDBRANCH  26  27
ENDBRANCH  20  21
ENDBRANCH   8  13
ENDBRANCH   6   8
ENDBRANCH   5   6
ENDBRANCH   4   5
ENDBRANCH   3   4
ENDBRANCH   2   3
ENDBRANCH   1   2
BRANCH   1  29
ATOM     29  C   UNL A   1      38.116  33.757  37.919  1.00  0.00     0.188 C 
BRANCH  29  30
ATOM     30  O   UNL A   1      38.945  33.595  39.056  1.00  0.00    -0.376 OA
BRANCH  30  31
ATOM     31  C   UNL A   1      38.864  34.605  40.062  1.00  0.00     0.202 C 
BRANCH  31  32
ATOM     32  C   UNL A   1      39.980  35.668  40.116  1.00  0.00     0.261 C 
BRANCH  32  33
ATOM     33  O   UNL A   1      40.010  36.646  39.050  1.00  0.00    -0.460 OA
BRANCH  33  34
ATOM     34  C   UNL A   1      41.200  37.065  38.560  1.00  0.00     0.338 C 
ATOM     35  O   UNL A   1      41.954  37.870  39.073  1.00  0.00    -0.246 OA
BRANCH  34  36
ATOM     36  C   UNL A   1      41.572  36.164  37.425  1.00  0.00     0.060 A 
ATOM     37  C   UNL A   1      40.594  35.859  36.465  1.00  0.00     0.016 A 
ATOM     38  C   UNL A   1      42.883  35.713  37.236  1.00  0.00     0.016 A 
ATOM     39  C   UNL A   1      40.923  35.105  35.329  1.00  0.00     0.010 A 
ATOM     40  C   UNL A   1      43.207  34.941  36.111  1.00  0.00     0.010 A 
ATOM     41  C   UNL A   1      42.228  34.620  35.156  1.00  0.00    -0.014 A 
BRANCH  41  42
ATOM     42  C   UNL A   1      42.537  33.646  34.076  1.00  0.00     0.031 A 
ATOM     43  C   UNL A   1      42.910  34.175  32.718  1.00  0.00     0.074 A 
ATOM     44  C   UNL A   1      42.514  32.317  34.287  1.00  0.00     0.049 A 
ATOM     45  N   UNL A   1      43.204  33.528  31.619  1.00  0.00    -0.248 NA
ATOM     46  C   UNL A   1      42.950  35.640  32.585  1.00  0.00     0.031 C 
ATOM     47  C   UNL A   1      42.254  31.674  35.572  1.00  0.00     0.029 A 
ATOM     48  N   UNL A   1      42.773  31.270  33.432  1.00  0.00    -0.354 N 
ATOM     49  C   UNL A   1      43.423  34.504  30.655  1.00  0.00     0.074 A 
ATOM     50  C   UNL A   1      43.245  35.786  31.303  1.00  0.00     0.031 C 
ATOM     51  C   UNL A   1      42.438  30.347  35.439  1.00  0.00     0.029 A 
ATOM     52  C   UNL A   1      42.780  30.040  34.049  1.00  0.00     0.049 A 
ATOM     53  H   UNL A   1      42.938  31.390  32.470  1.00  0.00     0.167 HD
ATOM     54  C   UNL A   1      43.719  34.348  29.342  1.00  0.00     0.037 A 
ATOM     55  C   UNL A   1      43.055  28.816  33.548  1.00  0.00     0.037 A 
ATOM     56  C   UNL A   1      43.892  33.075  28.692  1.00  0.00     0.049 A 
ATOM     57  C   UNL A   1      43.354  28.668  32.073  1.00  0.00     0.074 A 
ATOM     58  C   UNL A   1      44.158  32.817  27.358  1.00  0.00     0.029 A 
ATOM     59  N   UNL A   1      43.813  31.846  29.328  1.00  0.00    -0.354 N 
ATOM     60  N   UNL A   1      43.533  29.594  31.162  1.00  0.00    -0.248 NA
ATOM     61  C   UNL A   1      43.454  27.294  31.553  1.00  0.00     0.031 C 
ATOM     62  C   UNL A   1      44.179  31.431  27.176  1.00  0.00     0.029 A 
ATOM     63  C   UNL A   1      43.988  30.826  28.407  1.00  0.00     0.049 A 
ATOM     64  H   UNL A   1      43.656  31.717  30.292  1.00  0.00     0.167 HD
ATOM     65  C   UNL A   1      43.773  28.917  29.970  1.00  0.00     0.074 A 
ATOM     66  C   UNL A   1      43.756  27.504  30.279  1.00  0.00     0.031 C 
ATOM     67  C   UNL A   1      43.967  29.421  28.725  1.00  0.00     0.037 A 
BRANCH  54  68
ATOM     68  C   UNL A   1      43.790  35.590  28.502  1.00  0.00     0.064 A 
ATOM     69  C   UNL A   1      45.001  36.245  28.238  1.00  0.00     0.173 A 
ATOM     70  C   UNL A   1      42.617  36.130  27.950  1.00  0.00     0.173 A 
ATOM     71  F   UNL A   1      46.148  35.780  28.758  1.00  0.00    -0.203 F 
ATOM     72  C   UNL A   1      45.032  37.414  27.480  1.00  0.00     0.198 A 
ATOM     73  C   UNL A   1      42.656  37.280  27.166  1.00  0.00     0.198 A 
ATOM     74  F   UNL A   1      41.432  35.542  28.171  1.00  0.00    -0.203 F 
ATOM     75  F   UNL A   1      46.192  38.057  27.291  1.00  0.00    -0.200 F 
ATOM     76  C   UNL A   1      43.861  37.927  26.941  1.00  0.00     0.200 A 
ATOM     77  F   UNL A   1      41.525  37.766  26.636  1.00  0.00    -0.200 F 
ATOM     78  F   UNL A   1      43.892  39.051  26.215  1.00  0.00    -0.200 F 
ENDBRANCH  54  68
BRANCH  55  79
ATOM     79  C   UNL A   1      43.090  27.619  34.439  1.00  0.00     0.064 A 
ATOM     80  C   UNL A   1      41.939  26.836  34.633  1.00  0.00     0.173 A 
ATOM     81  C   UNL A   1      44.245  27.246  35.141  1.00  0.00     0.173 A 
ATOM     82  F   UNL A   1      40.788  27.175  34.036  1.00  0.00    -0.203 F 
ATOM     83  C   UNL A   1      41.942  25.738  35.491  1.00  0.00     0.198 A 
ATOM     84  C   UNL A   1      44.256  26.128  35.974  1.00  0.00     0.198 A 
ATOM     85  F   UNL A   1      45.368  27.969  35.019  1.00  0.00    -0.203 F 
ATOM     86  F   UNL A   1      40.813  25.045  35.694  1.00  0.00    -0.200 F 
ATOM     87  C   UNL A   1      43.104  25.379  36.153  1.00  0.00     0.200 A 
ATOM     88  F   UNL A   1      45.384  25.782  36.612  1.00  0.00    -0.200 F 
ATOM     89  F   UNL A   1      43.110  24.322  36.977  1.00  0.00    -0.200 F 
ENDBRANCH  55  79
BRANCH  67  90
ATOM     90  C   UNL A   1      44.158  28.448  27.594  1.00  0.00     0.064 A 
ATOM     91  C   UNL A   1      45.392  27.815  27.377  1.00  0.00     0.173 A 
ATOM     92  C   UNL A   1      43.082  28.081  26.771  1.00  0.00     0.173 A 
ATOM     93  F   UNL A   1      46.456  28.134  28.130  1.00  0.00    -0.203 F 
ATOM     94  C   UNL A   1      45.546  26.866  26.369  1.00  0.00     0.198 A 
ATOM     95  C   UNL A   1      43.232  27.109  25.784  1.00  0.00     0.198 A 
ATOM     96  F   UNL A   1      41.877  28.643  26.942  1.00  0.00    -0.203 F 
ATOM     97  F   UNL A   1      46.743  26.300  26.160  1.00  0.00    -0.200 F 
ATOM     98  C   UNL A   1      44.463  26.506  25.580  1.00  0.00     0.200 A 
ATOM     99  F   UNL A   1      42.181  26.749  25.034  1.00  0.00    -0.200 F 
ATOM    100  F   UNL A   1      44.608  25.579  24.623  1.00  0.00    -0.200 F 
ENDBRANCH  67  90
ENDBRANCH  41  42
ENDBRANCH  34  36
ENDBRANCH  33  34
ENDBRANCH  32  33
ENDBRANCH  31  32
ENDBRANCH  30  31
ENDBRANCH  29  30
ENDBRANCH   1  29
TORSDOF 22
ENDMDL
MODEL 3
REMARK VINA RESULT:      -8.5      3.859     10.015
REMARK SMILES CC[C@@H](C)[C@@H](C(=O)OCCOCCOCCOC(=O)c1ccc(-c2c3nc(c(-c4c(F)c(F)c(F)c(F)c4F)c4ccc([nH]4)c(-c4c(F)c(F)c(F)c(F)c4F)c4nc(c(-c5c(F)c(F)c(F)c(F)c5F)c5ccc2[nH]5)C=C4)C=C3)cc1)N1C(=O)/C(=C/c2ccc(O)cc2)SC1=S
REMARK SMILES IDX 12 1 11 2 10 3 9 4 8 5 6 6 7 7 5 8 3 9 4 10 2 11 1 12 83 13
REMARK SMILES IDX 84 14 96 15 85 16 86 17 95 18 97 19 87 20 88 21 89 22 94 23
REMARK SMILES IDX 90 24 93 25 91 26 92 27 13 29 14 30 15 31 16 32 17 33 18 34
REMARK SMILES IDX 19 35 20 36 21 37 82 38 22 39 81 40 23 41 24 42 25 43 75 44
REMARK SMILES IDX 26 45 80 46 74 47 76 48 27 49 79 50 73 51 72 52 28 54 60 55
REMARK SMILES IDX 40 56 59 57 41 58 44 59 58 60 77 61 42 62 43 63 57 65 78 66
REMARK SMILES IDX 45 67 29 68 30 69 38 70 31 71 32 72 36 73 39 74 33 75 34 76
REMARK SMILES IDX 37 77 35 78 61 79 62 80 70 81 63 82 64 83 68 84 71 85 65 86
REMARK SMILES IDX 66 87 69 88 67 89 46 90 47 91 55 92 48 93 49 94 53 95 56 96
REMARK SMILES IDX 50 97 51 98 54 99 52 100
REMARK H PARENT 92 28 76 53 44 64
REMARK Flexibility Score: inf
ROOT
ATOM      1  C   UNL A   1      37.434  32.204  38.975  1.00  0.00     0.188 C 
ENDROOT
BRANCH   1   2
ATOM      2  O   UNL A   1      37.599  31.436  37.794  1.00  0.00    -0.376 OA
BRANCH   2   3
ATOM      3  C   UNL A   1      38.563  31.952  36.871  1.00  0.00     0.202 C 
BRANCH   3   4
ATOM      4  C   UNL A   1      38.014  32.434  35.513  1.00  0.00     0.261 C 
BRANCH   4   5
ATOM      5  O   UNL A   1      38.742  31.927  34.366  1.00  0.00    -0.462 OA
BRANCH   5   6
ATOM      6  C   UNL A   1      38.235  30.838  33.721  1.00  0.00     0.329 C 
ATOM      7  O   UNL A   1      38.156  29.718  34.219  1.00  0.00    -0.250 OA
BRANCH   6   8
ATOM      8  C   UNL A   1      37.772  31.125  32.260  1.00  0.00     0.204 C 
BRANCH   8   9
ATOM      9  C   UNL A   1      36.222  31.186  31.971  1.00  0.00     0.020 C 
ATOM     10  C   UNL A   1      35.932  31.458  30.482  1.00  0.00     0.010 C 
BRANCH   9  11
ATOM     11  C   UNL A   1      35.526  32.300  32.813  1.00  0.00     0.002 C 
ATOM     12  C   UNL A   1      34.633  33.259  32.029  1.00  0.00     0.004 C 
ENDBRANCH   9  11
ENDBRANCH   8   9
BRANCH   8  13
ATOM     13  N   UNL A   1      38.560  30.294  31.273  1.00  0.00    -0.278 N 
ATOM     14  C   UNL A   1      38.263  28.962  31.043  1.00  0.00     0.267 C 
ATOM     15  C   UNL A   1      39.602  30.780  30.500  1.00  0.00     0.149 C 
ATOM     16  O   UNL A   1      37.426  28.285  31.623  1.00  0.00    -0.268 OA
ATOM     17  C   UNL A   1      39.125  28.375  29.981  1.00  0.00     0.081 C 
ATOM     18  S   UNL A   1      40.042  29.614  29.250  1.00  0.00    -0.054 SA
ATOM     19  S   UNL A   1      40.408  32.236  30.616  1.00  0.00    -0.052 S 
ATOM     20  C   UNL A   1      39.140  27.061  29.706  1.00  0.00     0.029 C 
BRANCH  20  21
ATOM     21  C   UNL A   1      39.924  26.396  28.655  1.00  0.00    -0.024 A 
ATOM     22  C   UNL A   1      39.259  25.856  27.549  1.00  0.00     0.012 A 
ATOM     23  C   UNL A   1      41.314  26.257  28.742  1.00  0.00     0.012 A 
ATOM     24  C   UNL A   1      39.961  25.180  26.549  1.00  0.00     0.047 A 
ATOM     25  C   UNL A   1      42.024  25.602  27.729  1.00  0.00     0.047 A 
ATOM     26  C   UNL A   1      41.339  25.067  26.642  1.00  0.00     0.115 A 
BRANCH  26  27
ATOM     27  O   UNL A   1      41.991  24.419  25.634  1.00  0.00    -0.508 OA
ATOM     28  H   UNL A   1      42.674  24.854  25.164  1.00  0.00     0.293 HD
ENDBRANCH  26  27
ENDBRANCH  20  21
ENDBRANCH   8  13
ENDBRANCH   6   8
ENDBRANCH   5   6
ENDBRANCH   4   5
ENDBRANCH   3   4
ENDBRANCH   2   3
ENDBRANCH   1   2
BRANCH   1  29
ATOM     29  C   UNL A   1      38.205  33.511  39.029  1.00  0.00     0.188 C 
BRANCH  29  30
ATOM     30  O   UNL A   1      39.176  33.580  40.057  1.00  0.00    -0.376 OA
BRANCH  30  31
ATOM     31  C   UNL A   1      39.023  34.622  41.021  1.00  0.00     0.202 C 
BRANCH  31  32
ATOM     32  C   UNL A   1      39.682  35.986  40.728  1.00  0.00     0.261 C 
BRANCH  32  33
ATOM     33  O   UNL A   1      40.979  35.967  40.087  1.00  0.00    -0.460 OA
BRANCH  33  34
ATOM     34  C   UNL A   1      41.236  36.824  39.072  1.00  0.00     0.338 C 
ATOM     35  O   UNL A   1      41.415  38.024  39.162  1.00  0.00    -0.246 OA
BRANCH  34  36
ATOM     36  C   UNL A   1      41.547  36.013  37.853  1.00  0.00     0.060 A 
ATOM     37  C   UNL A   1      42.869  35.590  37.650  1.00  0.00     0.016 A 
ATOM     38  C   UNL A   1      40.544  35.576  36.979  1.00  0.00     0.016 A 
ATOM     39  C   UNL A   1      43.188  34.742  36.580  1.00  0.00     0.010 A 
ATOM     40  C   UNL A   1      40.868  34.745  35.897  1.00  0.00     0.010 A 
ATOM     41  C   UNL A   1      42.192  34.332  35.682  1.00  0.00    -0.014 A 
BRANCH  41  42
ATOM     42  C   UNL A   1      42.551  33.614  34.429  1.00  0.00     0.031 A 
ATOM     43  C   UNL A   1      42.551  32.111  34.439  1.00  0.00     0.074 A 
ATOM     44  C   UNL A   1      42.850  34.272  33.293  1.00  0.00     0.049 A 
ATOM     45  N   UNL A   1      42.842  31.267  33.482  1.00  0.00    -0.248 NA
ATOM     46  C   UNL A   1      42.173  31.474  35.710  1.00  0.00     0.031 C 
ATOM     47  C   UNL A   1      42.804  35.721  33.122  1.00  0.00     0.029 A 
ATOM     48  N   UNL A   1      43.193  33.796  32.048  1.00  0.00    -0.354 N 
ATOM     49  C   UNL A   1      42.724  30.003  34.045  1.00  0.00     0.074 A 
ATOM     50  C   UNL A   1      42.318  30.190  35.422  1.00  0.00     0.031 C 
ATOM     51  C   UNL A   1      43.036  36.013  31.829  1.00  0.00     0.029 A 
ATOM     52  C   UNL A   1      43.297  34.777  31.089  1.00  0.00     0.049 A 
ATOM     53  H   UNL A   1      43.350  32.843  31.861  1.00  0.00     0.167 HD
ATOM     54  C   UNL A   1      42.959  28.796  33.477  1.00  0.00     0.037 A 
ATOM     55  C   UNL A   1      43.549  34.679  29.765  1.00  0.00     0.037 A 
ATOM     56  C   UNL A   1      43.368  28.605  32.110  1.00  0.00     0.049 A 
ATOM     57  C   UNL A   1      43.836  33.321  29.164  1.00  0.00     0.074 A 
ATOM     58  C   UNL A   1      43.664  27.421  31.456  1.00  0.00     0.029 A 
ATOM     59  N   UNL A   1      43.542  29.625  31.188  1.00  0.00    -0.354 N 
ATOM     60  N   UNL A   1      43.749  32.133  29.710  1.00  0.00    -0.248 NA
ATOM     61  C   UNL A   1      44.292  33.301  27.764  1.00  0.00     0.031 C 
ATOM     62  C   UNL A   1      44.076  27.731  30.156  1.00  0.00     0.029 A 
ATOM     63  C   UNL A   1      43.977  29.101  29.981  1.00  0.00     0.049 A 
ATOM     64  H   UNL A   1      43.380  30.581  31.364  1.00  0.00     0.167 HD
ATOM     65  C   UNL A   1      44.130  31.228  28.722  1.00  0.00     0.074 A 
ATOM     66  C   UNL A   1      44.411  32.001  27.532  1.00  0.00     0.031 C 
ATOM     67  C   UNL A   1      44.258  29.880  28.802  1.00  0.00     0.037 A 
BRANCH  54  68
ATOM     68  C   UNL A   1      42.860  27.588  34.364  1.00  0.00     0.064 A 
ATOM     69  C   UNL A   1      41.657  26.891  34.544  1.00  0.00     0.173 A 
ATOM     70  C   UNL A   1      43.997  27.124  35.043  1.00  0.00     0.173 A 
ATOM     71  F   UNL A   1      40.537  27.306  33.933  1.00  0.00    -0.203 F 
ATOM     72  C   UNL A   1      41.590  25.792  35.398  1.00  0.00     0.198 A 
ATOM     73  C   UNL A   1      43.933  26.006  35.870  1.00  0.00     0.198 A 
ATOM     74  F   UNL A   1      45.173  27.754  34.905  1.00  0.00    -0.203 F 
ATOM     75  F   UNL A   1      40.417  25.177  35.604  1.00  0.00    -0.200 F 
ATOM     76  C   UNL A   1      42.727  25.348  36.055  1.00  0.00     0.200 A 
ATOM     77  F   UNL A   1      45.037  25.571  36.494  1.00  0.00    -0.200 F 
ATOM     78  F   UNL A   1      42.660  24.293  36.878  1.00  0.00    -0.200 F 
ENDBRANCH  54  68
BRANCH  55  79
ATOM     79  C   UNL A   1      43.524  35.889  28.893  1.00  0.00     0.064 A 
ATOM     80  C   UNL A   1      44.689  36.647  28.684  1.00  0.00     0.173 A 
ATOM     81  C   UNL A   1      42.346  36.342  28.282  1.00  0.00     0.173 A 
ATOM     82  F   UNL A   1      45.833  36.300  29.288  1.00  0.00    -0.203 F 
ATOM     83  C   UNL A   1      44.675  37.802  27.904  1.00  0.00     0.198 A 
ATOM     84  C   UNL A   1      42.340  37.479  27.475  1.00  0.00     0.198 A 
ATOM     85  F   UNL A   1      41.196  35.678  28.465  1.00  0.00    -0.203 F 
ATOM     86  F   UNL A   1      45.792  38.530  27.768  1.00  0.00    -0.200 F 
ATOM     87  C   UNL A   1      43.502  38.212  27.292  1.00  0.00     0.200 A 
ATOM     88  F   UNL A   1      41.203  37.871  26.882  1.00  0.00    -0.200 F 
ATOM     89  F   UNL A   1      43.488  39.321  26.540  1.00  0.00    -0.200 F 
ENDBRANCH  55  79
BRANCH  67  90
ATOM     90  C   UNL A   1      44.739  29.146  27.580  1.00  0.00     0.064 A 
ATOM     91  C   UNL A   1      46.107  28.944  27.342  1.00  0.00     0.173 A 
ATOM     92  C   UNL A   1      43.827  28.568  26.683  1.00  0.00     0.173 A 
ATOM     93  F   UNL A   1      47.022  29.481  28.163  1.00  0.00    -0.203 F 
ATOM     94  C   UNL A   1      46.544  28.207  26.244  1.00  0.00     0.198 A 
ATOM     95  C   UNL A   1      44.268  27.806  25.603  1.00  0.00     0.198 A 
ATOM     96  F   UNL A   1      42.507  28.717  26.869  1.00  0.00    -0.203 F 
ATOM     97  F   UNL A   1      47.857  28.057  26.019  1.00  0.00    -0.200 F 
ATOM     98  C   UNL A   1      45.624  27.630  25.381  1.00  0.00     0.200 A 
ATOM     99  F   UNL A   1      43.377  27.233  24.780  1.00  0.00    -0.200 F 
ATOM    100  F   UNL A   1      46.046  26.905  24.336  1.00  0.00    -0.200 F 
ENDBRANCH  67  90
ENDBRANCH  41  42
ENDBRANCH  34  36
ENDBRANCH  33  34
ENDBRANCH  32  33
ENDBRANCH  31  32
ENDBRANCH  30  31
ENDBRANCH  29  30
ENDBRANCH   1  29
TORSDOF 22
ENDMDL
