MODEL 1
REMARK VINA RESULT:     -12.0      0.000      0.000
REMARK SMILES CCCC1CN(c2cc(C(=O)OCCOCCOCCOC(=O)c3ccc(-c4c5nc(c(-c6c(F)c(F)c(F)c(F)c6F)c6ccc([nH]6)c(-c6c(F)c(F)c(F)c(F)c6F)c6nc(c(-c7c(F)c(F)c(F)c(F)c7F)c7ccc4[nH]7)C=C6)C=C5)cc3)ccc2C)C1
REMARK SMILES IDX 16 1 15 2 14 3 13 4 12 5 10 6 11 7 9 8 7 9 8 10 89 11 88 12
REMARK SMILES IDX 90 13 87 14 6 15 4 16 5 17 91 18 3 19 2 20 1 21 17 22 18 23
REMARK SMILES IDX 19 24 20 25 21 26 22 27 23 28 24 29 25 30 86 31 26 32 85 33
REMARK SMILES IDX 27 34 28 35 29 36 79 37 30 38 84 39 78 40 80 41 31 42 83 43
REMARK SMILES IDX 77 44 76 45 32 47 64 48 44 49 63 50 45 51 48 52 62 53 81 54
REMARK SMILES IDX 46 55 47 56 61 58 82 59 49 60 33 61 34 62 42 63 35 64 36 65
REMARK SMILES IDX 40 66 43 67 37 68 38 69 41 70 39 71 65 72 66 73 74 74 67 75
REMARK SMILES IDX 68 76 72 77 75 78 69 79 70 80 73 81 71 82 50 83 51 84 59 85
REMARK SMILES IDX 52 86 53 87 57 88 60 89 54 90 55 91 58 92 56 93
REMARK H PARENT 80 46 48 57
REMARK Flexibility Score: inf
ROOT
ATOM      1  C   UNL A   1      34.367  35.965  28.319  1.00  0.00     0.188 C 
ENDROOT
BRANCH   1   2
ATOM      2  O   UNL A   1      34.047  34.596  28.017  1.00  0.00    -0.376 OA
BRANCH   2   3
ATOM      3  C   UNL A   1      34.952  33.504  27.788  1.00  0.00     0.202 C 
BRANCH   3   4
ATOM      4  C   UNL A   1      34.432  31.885  28.214  1.00  0.00     0.261 C 
BRANCH   4   5
ATOM      5  O   UNL A   1      34.098  30.453  27.124  1.00  0.00    -0.460 OA
BRANCH   5   6
ATOM      6  C   UNL A   1      33.579  29.088  26.783  1.00  0.00     0.338 C 
ATOM      7  O   UNL A   1      32.957  28.426  27.631  1.00  0.00    -0.246 OA
BRANCH   6   8
ATOM      8  C   UNL A   1      33.652  28.098  25.563  1.00  0.00     0.062 A 
ATOM      9  C   UNL A   1      33.647  25.825  24.477  1.00  0.00     0.040 A 
ATOM     10  C   UNL A   1      33.572  26.683  25.609  1.00  0.00     0.041 A 
ATOM     11  C   UNL A   1      33.493  26.412  23.217  1.00  0.00    -0.028 A 
ATOM     12  C   UNL A   1      33.411  27.818  23.135  1.00  0.00     0.006 A 
ATOM     13  C   UNL A   1      33.278  25.617  21.954  1.00  0.00     0.046 C 
ATOM     14  C   UNL A   1      33.510  28.641  24.278  1.00  0.00     0.016 A 
BRANCH   9  15
ATOM     15  N   UNL A   1      33.846  24.436  24.663  1.00  0.00    -0.371 N 
ATOM     16  C   UNL A   1      33.976  22.424  24.161  1.00  0.00     0.028 C 
ATOM     17  C   UNL A   1      32.924  23.348  24.815  1.00  0.00     0.122 C 
ATOM     18  C   UNL A   1      34.947  23.603  24.318  1.00  0.00     0.122 C 
BRANCH  16  19
ATOM     19  C   UNL A   1      34.323  21.116  24.870  1.00  0.00     0.007 C 
BRANCH  19  20
ATOM     20  C   UNL A   1      33.317  19.996  24.570  1.00  0.00    -0.003 C 
ATOM     21  C   UNL A   1      33.951  18.633  24.325  1.00  0.00     0.004 C 
ENDBRANCH  19  20
ENDBRANCH  16  19
ENDBRANCH   9  15
ENDBRANCH   6   8
ENDBRANCH   5   6
ENDBRANCH   4   5
ENDBRANCH   3   4
ENDBRANCH   2   3
ENDBRANCH   1   2
BRANCH   1  22
ATOM     22  C   UNL A   1      33.362  37.056  28.752  1.00  0.00     0.188 C 
BRANCH  22  23
ATOM     23  O   UNL A   1      33.213  37.174  30.162  1.00  0.00    -0.376 OA
BRANCH  23  24
ATOM     24  C   UNL A   1      32.530  36.085  30.806  1.00  0.00     0.202 C 
BRANCH  24  25
ATOM     25  C   UNL A   1      32.549  36.046  32.357  1.00  0.00     0.261 C 
BRANCH  25  26
ATOM     26  O   UNL A   1      32.861  34.728  32.837  1.00  0.00    -0.460 OA
BRANCH  26  27
ATOM     27  C   UNL A   1      34.182  34.492  33.116  1.00  0.00     0.338 C 
ATOM     28  O   UNL A   1      34.841  35.043  33.959  1.00  0.00    -0.246 OA
BRANCH  27  29
ATOM     29  C   UNL A   1      34.750  33.729  31.957  1.00  0.00     0.060 A 
ATOM     30  C   UNL A   1      34.783  32.331  32.050  1.00  0.00     0.016 A 
ATOM     31  C   UNL A   1      35.670  34.395  31.164  1.00  0.00     0.016 A 
ATOM     32  C   UNL A   1      35.916  31.643  31.600  1.00  0.00     0.010 A 
ATOM     33  C   UNL A   1      36.850  33.738  30.906  1.00  0.00     0.010 A 
ATOM     34  C   UNL A   1      37.023  32.373  31.162  1.00  0.00    -0.014 A 
BRANCH  34  35
ATOM     35  C   UNL A   1      38.435  31.891  31.168  1.00  0.00     0.031 A 
ATOM     36  C   UNL A   1      38.655  30.653  29.902  1.00  0.00     0.074 A 
ATOM     37  C   UNL A   1      39.341  32.512  32.125  1.00  0.00     0.049 A 
ATOM     38  N   UNL A   1      39.432  29.609  30.068  1.00  0.00    -0.248 NA
ATOM     39  C   UNL A   1      38.063  30.429  28.562  1.00  0.00     0.031 C 
ATOM     40  C   UNL A   1      40.873  32.618  32.242  1.00  0.00     0.029 A 
ATOM     41  N   UNL A   1      39.093  33.282  33.291  1.00  0.00    -0.354 N 
ATOM     42  C   UNL A   1      39.781  28.905  28.981  1.00  0.00     0.074 A 
ATOM     43  C   UNL A   1      38.759  29.370  28.060  1.00  0.00     0.031 C 
ATOM     44  C   UNL A   1      41.375  33.432  33.151  1.00  0.00     0.029 A 
ATOM     45  C   UNL A   1      40.306  33.508  34.039  1.00  0.00     0.049 A 
ATOM     46  H   UNL A   1      38.206  33.618  33.556  1.00  0.00     0.167 HD
ATOM     47  C   UNL A   1      40.929  28.127  29.021  1.00  0.00     0.037 A 
ATOM     48  C   UNL A   1      40.589  32.961  35.253  1.00  0.00     0.037 A 
ATOM     49  C   UNL A   1      41.956  28.451  30.112  1.00  0.00     0.049 A 
ATOM     50  C   UNL A   1      41.370  31.605  35.281  1.00  0.00     0.074 A 
ATOM     51  C   UNL A   1      43.154  29.173  30.072  1.00  0.00     0.029 A 
ATOM     52  N   UNL A   1      41.833  28.148  31.477  1.00  0.00    -0.354 N 
ATOM     53  N   UNL A   1      42.022  31.018  34.284  1.00  0.00    -0.248 NA
ATOM     54  C   UNL A   1      41.397  30.787  36.488  1.00  0.00     0.031 C 
ATOM     55  C   UNL A   1      43.656  29.402  31.399  1.00  0.00     0.029 A 
ATOM     56  C   UNL A   1      42.811  28.791  32.305  1.00  0.00     0.049 A 
ATOM     57  H   UNL A   1      41.138  27.548  31.834  1.00  0.00     0.167 HD
ATOM     58  C   UNL A   1      42.369  29.707  34.634  1.00  0.00     0.074 A 
ATOM     59  C   UNL A   1      41.983  29.660  36.052  1.00  0.00     0.031 C 
ATOM     60  C   UNL A   1      42.789  28.658  33.802  1.00  0.00     0.037 A 
BRANCH  47  61
ATOM     61  C   UNL A   1      41.323  27.251  27.845  1.00  0.00     0.064 A 
ATOM     62  C   UNL A   1      41.023  25.869  27.801  1.00  0.00     0.173 A 
ATOM     63  C   UNL A   1      41.959  27.752  26.694  1.00  0.00     0.173 A 
ATOM     64  F   UNL A   1      40.304  25.267  28.754  1.00  0.00    -0.203 F 
ATOM     65  C   UNL A   1      41.439  25.044  26.754  1.00  0.00     0.198 A 
ATOM     66  C   UNL A   1      42.403  26.920  25.662  1.00  0.00     0.198 A 
ATOM     67  F   UNL A   1      42.124  29.071  26.514  1.00  0.00    -0.203 F 
ATOM     68  F   UNL A   1      41.138  23.736  26.779  1.00  0.00    -0.200 F 
ATOM     69  C   UNL A   1      42.158  25.563  25.700  1.00  0.00     0.200 A 
ATOM     70  F   UNL A   1      43.071  27.449  24.626  1.00  0.00    -0.200 F 
ATOM     71  F   UNL A   1      42.587  24.765  24.713  1.00  0.00    -0.200 F 
ENDBRANCH  47  61
BRANCH  48  72
ATOM     72  C   UNL A   1      39.727  33.732  36.197  1.00  0.00     0.064 A 
ATOM     73  C   UNL A   1      38.619  32.954  36.665  1.00  0.00     0.173 A 
ATOM     74  C   UNL A   1      40.424  34.489  37.148  1.00  0.00     0.173 A 
ATOM     75  F   UNL A   1      37.932  32.189  35.796  1.00  0.00    -0.203 F 
ATOM     76  C   UNL A   1      38.491  32.657  38.024  1.00  0.00     0.198 A 
ATOM     77  C   UNL A   1      40.260  34.212  38.510  1.00  0.00     0.198 A 
ATOM     78  F   UNL A   1      41.464  35.239  36.758  1.00  0.00    -0.203 F 
ATOM     79  F   UNL A   1      37.681  31.662  38.421  1.00  0.00    -0.200 F 
ATOM     80  C   UNL A   1      39.346  33.253  38.937  1.00  0.00     0.200 A 
ATOM     81  F   UNL A   1      41.117  34.740  39.395  1.00  0.00    -0.200 F 
ATOM     82  F   UNL A   1      39.366  32.825  40.208  1.00  0.00    -0.200 F 
ENDBRANCH  48  72
BRANCH  60  83
ATOM     83  C   UNL A   1      43.126  27.274  34.386  1.00  0.00     0.064 A 
ATOM     84  C   UNL A   1      44.447  26.815  34.557  1.00  0.00     0.173 A 
ATOM     85  C   UNL A   1      42.132  26.326  34.733  1.00  0.00     0.173 A 
ATOM     86  F   UNL A   1      45.490  27.522  34.095  1.00  0.00    -0.203 F 
ATOM     87  C   UNL A   1      44.744  25.599  35.185  1.00  0.00     0.198 A 
ATOM     88  C   UNL A   1      42.431  25.084  35.298  1.00  0.00     0.198 A 
ATOM     89  F   UNL A   1      40.827  26.550  34.547  1.00  0.00    -0.203 F 
ATOM     90  F   UNL A   1      46.021  25.265  35.420  1.00  0.00    -0.200 F 
ATOM     91  C   UNL A   1      43.735  24.736  35.563  1.00  0.00     0.200 A 
ATOM     92  F   UNL A   1      41.437  24.230  35.585  1.00  0.00    -0.200 F 
ATOM     93  F   UNL A   1      44.018  23.569  36.158  1.00  0.00    -0.200 F 
ENDBRANCH  60  83
ENDBRANCH  34  35
ENDBRANCH  27  29
ENDBRANCH  26  27
ENDBRANCH  25  26
ENDBRANCH  24  25
ENDBRANCH  23  24
ENDBRANCH  22  23
ENDBRANCH   1  22
TORSDOF 20
ENDMDL
MODEL 2
REMARK VINA RESULT:     -11.6      4.653     10.737
REMARK SMILES CCCC1CN(c2cc(C(=O)OCCOCCOCCOC(=O)c3ccc(-c4c5nc(c(-c6c(F)c(F)c(F)c(F)c6F)c6ccc([nH]6)c(-c6c(F)c(F)c(F)c(F)c6F)c6nc(c(-c7c(F)c(F)c(F)c(F)c7F)c7ccc4[nH]7)C=C6)C=C5)cc3)ccc2C)C1
REMARK SMILES IDX 16 1 15 2 14 3 13 4 12 5 10 6 11 7 9 8 7 9 8 10 89 11 88 12
REMARK SMILES IDX 90 13 87 14 6 15 4 16 5 17 91 18 3 19 2 20 1 21 17 22 18 23
REMARK SMILES IDX 19 24 20 25 21 26 22 27 23 28 24 29 25 30 86 31 26 32 85 33
REMARK SMILES IDX 27 34 28 35 29 36 79 37 30 38 84 39 78 40 80 41 31 42 83 43
REMARK SMILES IDX 77 44 76 45 32 47 64 48 44 49 63 50 45 51 48 52 62 53 81 54
REMARK SMILES IDX 46 55 47 56 61 58 82 59 49 60 33 61 34 62 42 63 35 64 36 65
REMARK SMILES IDX 40 66 43 67 37 68 38 69 41 70 39 71 65 72 66 73 74 74 67 75
REMARK SMILES IDX 68 76 72 77 75 78 69 79 70 80 73 81 71 82 50 83 51 84 59 85
REMARK SMILES IDX 52 86 53 87 57 88 60 89 54 90 55 91 58 92 56 93
REMARK H PARENT 80 46 48 57
REMARK Flexibility Score: inf
ROOT
ATOM      1  C   UNL A   1      36.346  20.663  25.376  1.00  0.00     0.188 C 
ENDROOT
BRANCH   1   2
ATOM      2  O   UNL A   1      35.100  20.263  24.780  1.00  0.00    -0.376 OA
BRANCH   2   3
ATOM      3  C   UNL A   1      33.924  19.763  25.435  1.00  0.00     0.202 C 
BRANCH   3   4
ATOM      4  C   UNL A   1      32.401  20.588  25.163  1.00  0.00     0.261 C 
BRANCH   4   5
ATOM      5  O   UNL A   1      31.781  22.143  25.905  1.00  0.00    -0.460 OA
BRANCH   5   6
ATOM      6  C   UNL A   1      31.613  23.629  26.020  1.00  0.00     0.338 C 
ATOM      7  O   UNL A   1      30.982  24.114  26.973  1.00  0.00    -0.246 OA
BRANCH   6   8
ATOM      8  C   UNL A   1      31.974  24.899  25.166  1.00  0.00     0.062 A 
ATOM      9  C   UNL A   1      31.579  27.218  24.262  1.00  0.00     0.040 A 
ATOM     10  C   UNL A   1      31.216  26.092  25.052  1.00  0.00     0.041 A 
ATOM     11  C   UNL A   1      32.899  27.279  23.804  1.00  0.00    -0.028 A 
ATOM     12  C   UNL A   1      33.743  26.171  24.032  1.00  0.00     0.006 A 
ATOM     13  C   UNL A   1      33.507  28.516  23.196  1.00  0.00     0.046 C 
ATOM     14  C   UNL A   1      33.285  25.002  24.678  1.00  0.00     0.016 A 
BRANCH   9  15
ATOM     15  N   UNL A   1      30.621  28.224  23.995  1.00  0.00    -0.371 N 
ATOM     16  C   UNL A   1      29.777  29.886  23.075  1.00  0.00     0.028 C 
ATOM     17  C   UNL A   1      30.544  29.603  24.386  1.00  0.00     0.122 C 
ATOM     18  C   UNL A   1      29.692  28.360  22.926  1.00  0.00     0.122 C 
BRANCH  16  19
ATOM     19  C   UNL A   1      28.467  30.666  23.164  1.00  0.00     0.007 C 
BRANCH  19  20
ATOM     20  C   UNL A   1      28.671  32.182  23.030  1.00  0.00    -0.003 C 
ATOM     21  C   UNL A   1      28.101  32.780  21.751  1.00  0.00     0.004 C 
ENDBRANCH  19  20
ENDBRANCH  16  19
ENDBRANCH   9  15
ENDBRANCH   6   8
ENDBRANCH   5   6
ENDBRANCH   4   5
ENDBRANCH   3   4
ENDBRANCH   2   3
ENDBRANCH   1   2
BRANCH   1  22
ATOM     22  C   UNL A   1      37.404  21.587  24.732  1.00  0.00     0.188 C 
BRANCH  22  23
ATOM     23  O   UNL A   1      38.405  22.034  25.639  1.00  0.00    -0.376 OA
BRANCH  23  24
ATOM     24  C   UNL A   1      39.545  21.169  25.778  1.00  0.00     0.202 C 
BRANCH  24  25
ATOM     25  C   UNL A   1      40.672  21.621  26.744  1.00  0.00     0.261 C 
BRANCH  25  26
ATOM     26  O   UNL A   1      40.365  22.891  27.339  1.00  0.00    -0.460 OA
BRANCH  26  27
ATOM     27  C   UNL A   1      41.173  23.935  26.970  1.00  0.00     0.338 C 
ATOM     28  O   UNL A   1      42.374  23.960  27.031  1.00  0.00    -0.246 OA
BRANCH  27  29
ATOM     29  C   UNL A   1      40.302  25.149  26.850  1.00  0.00     0.060 A 
ATOM     30  C   UNL A   1      40.815  26.255  26.160  1.00  0.00     0.016 A 
ATOM     31  C   UNL A   1      39.344  25.327  27.835  1.00  0.00     0.016 A 
ATOM     32  C   UNL A   1      40.598  27.540  26.669  1.00  0.00     0.010 A 
ATOM     33  C   UNL A   1      39.301  26.565  28.433  1.00  0.00     0.010 A 
ATOM     34  C   UNL A   1      39.960  27.680  27.903  1.00  0.00    -0.014 A 
BRANCH  34  35
ATOM     35  C   UNL A   1      40.114  28.840  28.830  1.00  0.00     0.031 A 
ATOM     36  C   UNL A   1      38.588  29.762  28.900  1.00  0.00     0.074 A 
ATOM     37  C   UNL A   1      41.397  28.981  29.505  1.00  0.00     0.049 A 
ATOM     38  N   UNL A   1      38.561  31.070  28.997  1.00  0.00    -0.248 NA
ATOM     39  C   UNL A   1      37.155  29.397  28.801  1.00  0.00     0.031 C 
ATOM     40  C   UNL A   1      41.876  29.738  30.757  1.00  0.00     0.029 A 
ATOM     41  N   UNL A   1      42.669  28.412  29.233  1.00  0.00    -0.354 N 
ATOM     42  C   UNL A   1      37.406  31.652  29.351  1.00  0.00     0.074 A 
ATOM     43  C   UNL A   1      36.493  30.560  29.065  1.00  0.00     0.031 C 
ATOM     44  C   UNL A   1      43.091  29.494  31.209  1.00  0.00     0.029 A 
ATOM     45  C   UNL A   1      43.696  29.007  30.054  1.00  0.00     0.049 A 
ATOM     46  H   UNL A   1      42.830  27.702  28.570  1.00  0.00     0.167 HD
ATOM     47  C   UNL A   1      37.434  32.919  29.916  1.00  0.00     0.037 A 
ATOM     48  C   UNL A   1      44.688  29.820  29.596  1.00  0.00     0.037 A 
ATOM     49  C   UNL A   1      38.768  33.392  30.506  1.00  0.00     0.049 A 
ATOM     50  C   UNL A   1      44.432  31.364  29.603  1.00  0.00     0.074 A 
ATOM     51  C   UNL A   1      39.235  33.436  31.824  1.00  0.00     0.029 A 
ATOM     52  N   UNL A   1      39.891  33.810  29.774  1.00  0.00    -0.354 N 
ATOM     53  N   UNL A   1      43.465  32.028  30.225  1.00  0.00    -0.248 NA
ATOM     54  C   UNL A   1      45.271  32.260  28.816  1.00  0.00     0.031 C 
ATOM     55  C   UNL A   1      40.638  33.746  31.858  1.00  0.00     0.029 A 
ATOM     56  C   UNL A   1      41.079  33.950  30.565  1.00  0.00     0.049 A 
ATOM     57  H   UNL A   1      39.865  33.992  28.807  1.00  0.00     0.167 HD
ATOM     58  C   UNL A   1      43.423  33.357  29.783  1.00  0.00     0.074 A 
ATOM     59  C   UNL A   1      44.623  33.431  28.935  1.00  0.00     0.031 C 
ATOM     60  C   UNL A   1      42.402  34.305  29.946  1.00  0.00     0.037 A 
BRANCH  47  61
ATOM     61  C   UNL A   1      36.150  33.652  30.261  1.00  0.00     0.064 A 
ATOM     62  C   UNL A   1      35.316  34.219  29.269  1.00  0.00     0.173 A 
ATOM     63  C   UNL A   1      35.666  33.772  31.577  1.00  0.00     0.173 A 
ATOM     64  F   UNL A   1      35.565  34.074  27.963  1.00  0.00    -0.203 F 
ATOM     65  C   UNL A   1      34.168  34.950  29.582  1.00  0.00     0.198 A 
ATOM     66  C   UNL A   1      34.535  34.532  31.892  1.00  0.00     0.198 A 
ATOM     67  F   UNL A   1      36.247  33.116  32.591  1.00  0.00    -0.203 F 
ATOM     68  F   UNL A   1      33.427  35.478  28.595  1.00  0.00    -0.200 F 
ATOM     69  C   UNL A   1      33.795  35.135  30.895  1.00  0.00     0.200 A 
ATOM     70  F   UNL A   1      34.166  34.672  33.173  1.00  0.00    -0.200 F 
ATOM     71  F   UNL A   1      32.713  35.866  31.196  1.00  0.00    -0.200 F 
ENDBRANCH  47  61
BRANCH  48  72
ATOM     72  C   UNL A   1      45.622  28.881  28.906  1.00  0.00     0.064 A 
ATOM     73  C   UNL A   1      45.596  29.051  27.485  1.00  0.00     0.173 A 
ATOM     74  C   UNL A   1      46.879  28.750  29.511  1.00  0.00     0.173 A 
ATOM     75  F   UNL A   1      44.415  29.209  26.858  1.00  0.00    -0.203 F 
ATOM     76  C   UNL A   1      46.745  29.456  26.801  1.00  0.00     0.198 A 
ATOM     77  C   UNL A   1      48.029  29.120  28.806  1.00  0.00     0.198 A 
ATOM     78  F   UNL A   1      46.955  28.582  30.838  1.00  0.00    -0.203 F 
ATOM     79  F   UNL A   1      46.648  29.950  25.557  1.00  0.00    -0.200 F 
ATOM     80  C   UNL A   1      47.950  29.535  27.480  1.00  0.00     0.200 A 
ATOM     81  F   UNL A   1      49.189  29.253  29.466  1.00  0.00    -0.200 F 
ATOM     82  F   UNL A   1      49.009  30.112  26.893  1.00  0.00    -0.200 F 
ENDBRANCH  48  72
BRANCH  60  83
ATOM     83  C   UNL A   1      42.549  35.728  29.378  1.00  0.00     0.064 A 
ATOM     84  C   UNL A   1      42.008  36.118  28.137  1.00  0.00     0.173 A 
ATOM     85  C   UNL A   1      43.303  36.738  30.027  1.00  0.00     0.173 A 
ATOM     86  F   UNL A   1      41.435  35.220  27.320  1.00  0.00    -0.203 F 
ATOM     87  C   UNL A   1      42.059  37.440  27.678  1.00  0.00     0.198 A 
ATOM     88  C   UNL A   1      43.410  38.040  29.533  1.00  0.00     0.198 A 
ATOM     89  F   UNL A   1      43.970  36.520  31.165  1.00  0.00    -0.203 F 
ATOM     90  F   UNL A   1      41.429  37.776  26.543  1.00  0.00    -0.200 F 
ATOM     91  C   UNL A   1      42.753  38.404  28.381  1.00  0.00     0.200 A 
ATOM     92  F   UNL A   1      44.156  38.940  30.193  1.00  0.00    -0.200 F 
ATOM     93  F   UNL A   1      42.809  39.667  27.939  1.00  0.00    -0.200 F 
ENDBRANCH  60  83
ENDBRANCH  34  35
ENDBRANCH  27  29
ENDBRANCH  26  27
ENDBRANCH  25  26
ENDBRANCH  24  25
ENDBRANCH  23  24
ENDBRANCH  22  23
ENDBRANCH   1  22
TORSDOF 20
ENDMDL
MODEL 3
REMARK VINA RESULT:     -11.3      3.197      5.095
REMARK SMILES CCCC1CN(c2cc(C(=O)OCCOCCOCCOC(=O)c3ccc(-c4c5nc(c(-c6c(F)c(F)c(F)c(F)c6F)c6ccc([nH]6)c(-c6c(F)c(F)c(F)c(F)c6F)c6nc(c(-c7c(F)c(F)c(F)c(F)c7F)c7ccc4[nH]7)C=C6)C=C5)cc3)ccc2C)C1
REMARK SMILES IDX 16 1 15 2 14 3 13 4 12 5 10 6 11 7 9 8 7 9 8 10 89 11 88 12
REMARK SMILES IDX 90 13 87 14 6 15 4 16 5 17 91 18 3 19 2 20 1 21 17 22 18 23
REMARK SMILES IDX 19 24 20 25 21 26 22 27 23 28 24 29 25 30 86 31 26 32 85 33
REMARK SMILES IDX 27 34 28 35 29 36 79 37 30 38 84 39 78 40 80 41 31 42 83 43
REMARK SMILES IDX 77 44 76 45 32 47 64 48 44 49 63 50 45 51 48 52 62 53 81 54
REMARK SMILES IDX 46 55 47 56 61 58 82 59 49 60 33 61 34 62 42 63 35 64 36 65
REMARK SMILES IDX 40 66 43 67 37 68 38 69 41 70 39 71 65 72 66 73 74 74 67 75
REMARK SMILES IDX 68 76 72 77 75 78 69 79 70 80 73 81 71 82 50 83 51 84 59 85
REMARK SMILES IDX 52 86 53 87 57 88 60 89 54 90 55 91 58 92 56 93
REMARK H PARENT 80 46 48 57
REMARK Flexibility Score: inf
ROOT
ATOM      1  C   UNL A   1      34.126  29.026  26.861  1.00  0.00     0.188 C 
ENDROOT
BRANCH   1   2
ATOM      2  O   UNL A   1      33.883  28.571  25.519  1.00  0.00    -0.376 OA
BRANCH   2   3
ATOM      3  C   UNL A   1      33.521  29.352  24.370  1.00  0.00     0.202 C 
BRANCH   3   4
ATOM      4  C   UNL A   1      32.221  28.777  23.343  1.00  0.00     0.261 C 
BRANCH   4   5
ATOM      5  O   UNL A   1      31.175  27.286  23.529  1.00  0.00    -0.460 OA
BRANCH   5   6
ATOM      6  C   UNL A   1      30.712  26.015  24.177  1.00  0.00     0.338 C 
ATOM      7  O   UNL A   1      29.509  25.709  24.163  1.00  0.00    -0.246 OA
BRANCH   6   8
ATOM      8  C   UNL A   1      31.350  24.855  25.026  1.00  0.00     0.062 A 
ATOM      9  C   UNL A   1      33.238  23.374  25.795  1.00  0.00     0.040 A 
ATOM     10  C   UNL A   1      32.704  24.434  25.011  1.00  0.00     0.041 A 
ATOM     11  C   UNL A   1      32.459  22.911  26.861  1.00  0.00    -0.028 A 
ATOM     12  C   UNL A   1      31.151  23.420  27.009  1.00  0.00     0.006 A 
ATOM     13  C   UNL A   1      32.988  21.996  27.935  1.00  0.00     0.046 C 
ATOM     14  C   UNL A   1      30.604  24.352  26.102  1.00  0.00     0.016 A 
BRANCH   9  15
ATOM     15  N   UNL A   1      34.518  22.855  25.491  1.00  0.00    -0.371 N 
ATOM     16  C   UNL A   1      36.308  21.841  25.792  1.00  0.00     0.028 C 
ATOM     17  C   UNL A   1      35.840  23.314  25.811  1.00  0.00     0.122 C 
ATOM     18  C   UNL A   1      34.933  21.527  25.187  1.00  0.00     0.122 C 
BRANCH  16  19
ATOM     19  C   UNL A   1      37.546  21.492  24.968  1.00  0.00     0.007 C 
BRANCH  19  20
ATOM     20  C   UNL A   1      37.713  19.979  24.765  1.00  0.00    -0.003 C 
ATOM     21  C   UNL A   1      38.914  19.380  25.483  1.00  0.00     0.004 C 
ENDBRANCH  19  20
ENDBRANCH  16  19
ENDBRANCH   9  15
ENDBRANCH   6   8
ENDBRANCH   5   6
ENDBRANCH   4   5
ENDBRANCH   3   4
ENDBRANCH   2   3
ENDBRANCH   1   2
BRANCH   1  22
ATOM     22  C   UNL A   1      33.552  30.310  27.501  1.00  0.00     0.188 C 
BRANCH  22  23
ATOM     23  O   UNL A   1      34.283  31.488  27.181  1.00  0.00    -0.376 OA
BRANCH  23  24
ATOM     24  C   UNL A   1      34.241  32.531  28.169  1.00  0.00     0.202 C 
BRANCH  24  25
ATOM     25  C   UNL A   1      35.553  33.314  28.440  1.00  0.00     0.261 C 
BRANCH  25  26
ATOM     26  O   UNL A   1      36.643  32.418  28.714  1.00  0.00    -0.460 OA
BRANCH  26  27
ATOM     27  C   UNL A   1      36.480  31.592  29.795  1.00  0.00     0.338 C 
ATOM     28  O   UNL A   1      36.384  31.936  30.944  1.00  0.00    -0.246 OA
BRANCH  27  29
ATOM     29  C   UNL A   1      36.827  30.204  29.349  1.00  0.00     0.060 A 
ATOM     30  C   UNL A   1      37.005  29.226  30.337  1.00  0.00     0.016 A 
ATOM     31  C   UNL A   1      37.474  30.086  28.129  1.00  0.00     0.016 A 
ATOM     32  C   UNL A   1      38.058  28.313  30.213  1.00  0.00     0.010 A 
ATOM     33  C   UNL A   1      38.615  29.319  28.110  1.00  0.00     0.010 A 
ATOM     34  C   UNL A   1      38.963  28.461  29.160  1.00  0.00    -0.014 A 
BRANCH  34  35
ATOM     35  C   UNL A   1      40.375  27.978  29.157  1.00  0.00     0.031 A 
ATOM     36  C   UNL A   1      40.473  26.407  28.316  1.00  0.00     0.074 A 
ATOM     37  C   UNL A   1      41.371  28.845  29.773  1.00  0.00     0.049 A 
ATOM     38  N   UNL A   1      41.280  25.450  28.706  1.00  0.00    -0.248 NA
ATOM     39  C   UNL A   1      39.740  25.796  27.182  1.00  0.00     0.031 C 
ATOM     40  C   UNL A   1      42.905  28.953  29.682  1.00  0.00     0.029 A 
ATOM     41  N   UNL A   1      41.241  29.939  30.667  1.00  0.00    -0.354 N 
ATOM     42  C   UNL A   1      41.518  24.441  27.856  1.00  0.00     0.074 A 
ATOM     43  C   UNL A   1      40.394  24.620  26.955  1.00  0.00     0.031 C 
ATOM     44  C   UNL A   1      43.491  29.996  30.237  1.00  0.00     0.029 A 
ATOM     45  C   UNL A   1      42.525  30.361  31.171  1.00  0.00     0.049 A 
ATOM     46  H   UNL A   1      40.383  30.356  30.912  1.00  0.00     0.167 HD
ATOM     47  C   UNL A   1      42.675  23.691  28.005  1.00  0.00     0.037 A 
ATOM     48  C   UNL A   1      42.950  30.206  32.456  1.00  0.00     0.037 A 
ATOM     49  C   UNL A   1      43.812  24.314  28.825  1.00  0.00     0.049 A 
ATOM     50  C   UNL A   1      43.751  28.909  32.811  1.00  0.00     0.074 A 
ATOM     51  C   UNL A   1      44.987  24.966  28.434  1.00  0.00     0.029 A 
ATOM     52  N   UNL A   1      43.845  24.446  30.222  1.00  0.00    -0.354 N 
ATOM     53  N   UNL A   1      44.297  28.033  31.977  1.00  0.00    -0.248 NA
ATOM     54  C   UNL A   1      43.923  28.500  34.200  1.00  0.00     0.031 C 
ATOM     55  C   UNL A   1      45.628  25.581  29.564  1.00  0.00     0.029 A 
ATOM     56  C   UNL A   1      44.898  25.292  30.700  1.00  0.00     0.049 A 
ATOM     57  H   UNL A   1      43.203  23.997  30.819  1.00  0.00     0.167 HD
ATOM     58  C   UNL A   1      44.702  26.885  32.670  1.00  0.00     0.074 A 
ATOM     59  C   UNL A   1      44.476  27.282  34.069  1.00  0.00     0.031 C 
ATOM     60  C   UNL A   1      45.044  25.624  32.158  1.00  0.00     0.037 A 
BRANCH  47  61
ATOM     61  C   UNL A   1      42.951  22.490  27.119  1.00  0.00     0.064 A 
ATOM     62  C   UNL A   1      42.280  21.256  27.290  1.00  0.00     0.173 A 
ATOM     63  C   UNL A   1      43.843  22.528  26.031  1.00  0.00     0.173 A 
ATOM     64  F   UNL A   1      41.306  21.097  28.192  1.00  0.00    -0.203 F 
ATOM     65  C   UNL A   1      42.575  20.128  26.522  1.00  0.00     0.198 A 
ATOM     66  C   UNL A   1      44.161  21.390  25.283  1.00  0.00     0.198 A 
ATOM     67  F   UNL A   1      44.397  23.681  25.630  1.00  0.00    -0.203 F 
ATOM     68  F   UNL A   1      41.915  18.981  26.746  1.00  0.00    -0.200 F 
ATOM     69  C   UNL A   1      43.539  20.185  25.539  1.00  0.00     0.200 A 
ATOM     70  F   UNL A   1      45.077  21.473  24.306  1.00  0.00    -0.200 F 
ATOM     71  F   UNL A   1      43.846  19.094  24.825  1.00  0.00    -0.200 F 
ENDBRANCH  47  61
BRANCH  48  72
ATOM     72  C   UNL A   1      42.185  31.245  33.207  1.00  0.00     0.064 A 
ATOM     73  C   UNL A   1      42.415  32.559  32.685  1.00  0.00     0.173 A 
ATOM     74  C   UNL A   1      40.862  30.900  33.509  1.00  0.00     0.173 A 
ATOM     75  F   UNL A   1      43.666  32.930  32.355  1.00  0.00    -0.203 F 
ATOM     76  C   UNL A   1      41.361  33.296  32.142  1.00  0.00     0.198 A 
ATOM     77  C   UNL A   1      39.811  31.667  32.994  1.00  0.00     0.198 A 
ATOM     78  F   UNL A   1      40.596  29.684  34.006  1.00  0.00    -0.203 F 
ATOM     79  F   UNL A   1      41.615  34.350  31.350  1.00  0.00    -0.200 F 
ATOM     80  C   UNL A   1      40.064  32.821  32.258  1.00  0.00     0.200 A 
ATOM     81  F   UNL A   1      38.560  31.189  33.052  1.00  0.00    -0.200 F 
ATOM     82  F   UNL A   1      39.075  33.410  31.571  1.00  0.00    -0.200 F 
ENDBRANCH  48  72
BRANCH  60  83
ATOM     83  C   UNL A   1      45.466  24.480  33.098  1.00  0.00     0.064 A 
ATOM     84  C   UNL A   1      46.754  24.384  33.659  1.00  0.00     0.173 A 
ATOM     85  C   UNL A   1      44.611  23.395  33.415  1.00  0.00     0.173 A 
ATOM     86  F   UNL A   1      47.730  25.231  33.298  1.00  0.00    -0.203 F 
ATOM     87  C   UNL A   1      47.095  23.398  34.594  1.00  0.00     0.198 A 
ATOM     88  C   UNL A   1      44.976  22.374  34.295  1.00  0.00     0.198 A 
ATOM     89  F   UNL A   1      43.386  23.267  32.895  1.00  0.00    -0.203 F 
ATOM     90  F   UNL A   1      48.301  23.423  35.179  1.00  0.00    -0.200 F 
ATOM     91  C   UNL A   1      46.202  22.396  34.918  1.00  0.00     0.200 A 
ATOM     92  F   UNL A   1      44.120  21.368  34.535  1.00  0.00    -0.200 F 
ATOM     93  F   UNL A   1      46.529  21.448  35.806  1.00  0.00    -0.200 F 
ENDBRANCH  60  83
ENDBRANCH  34  35
ENDBRANCH  27  29
ENDBRANCH  26  27
ENDBRANCH  25  26
ENDBRANCH  24  25
ENDBRANCH  23  24
ENDBRANCH  22  23
ENDBRANCH   1  22
TORSDOF 20
ENDMDL
