MODEL 1
REMARK VINA RESULT:     -11.3      0.000      0.000
REMARK SMILES CC(C)CCc1cc2c(cc1Cl)C=C(C(=O)OCCOCCOCCOC(=O)c1ccc(-c3c4nc(c(-c5c(F)c(F)c(F)c(F)c5F)c5ccc([nH]5)c(-c5c(F)c(F)c(F)c(F)c5F)c5nc(c(-c6c(F)c(F)c(F)c(F)c6F)c6ccc3[nH]6)C=C5)C=C4)cc1)[C@@H](C(F)(F)F)O2
REMARK SMILES IDX 21 1 20 2 19 3 18 4 17 5 15 6 16 7 14 8 6 9 7 10 11 11 8 12
REMARK SMILES IDX 10 13 12 14 9 15 97 16 13 17 92 18 5 19 4 20 2 21 1 22 3 23
REMARK SMILES IDX 93 24 94 25 95 26 96 27 22 28 23 29 24 30 25 31 26 32 27 33
REMARK SMILES IDX 28 34 29 35 30 36 91 37 31 38 90 39 32 40 33 41 34 42 84 43
REMARK SMILES IDX 35 44 89 45 83 46 85 47 36 48 88 49 82 50 81 51 37 53 69 54
REMARK SMILES IDX 49 55 68 56 50 57 53 58 67 59 86 60 51 61 52 62 66 64 87 65
REMARK SMILES IDX 54 66 38 67 39 68 47 69 40 70 41 71 45 72 48 73 42 74 43 75
REMARK SMILES IDX 46 76 44 77 70 78 71 79 79 80 72 81 73 82 77 83 80 84 74 85
REMARK SMILES IDX 75 86 78 87 76 88 55 89 56 90 64 91 57 92 58 93 62 94 65 95
REMARK SMILES IDX 59 96 60 97 63 98 61 99
REMARK H PARENT 85 52 53 63
REMARK Flexibility Score: inf
ROOT
ATOM      1  C   UNL A   1      40.784  21.659  27.303  1.00  0.00     0.188 C 
ENDROOT
BRANCH   1   2
ATOM      2  O   UNL A   1      39.560  21.369  26.650  1.00  0.00    -0.376 OA
BRANCH   2   3
ATOM      3  C   UNL A   1      38.939  22.333  25.812  1.00  0.00     0.202 C 
BRANCH   3   4
ATOM      4  C   UNL A   1      37.444  22.216  25.529  1.00  0.00     0.261 C 
BRANCH   4   5
ATOM      5  O   UNL A   1      36.714  23.358  25.997  1.00  0.00    -0.460 OA
BRANCH   5   6
ATOM      6  C   UNL A   1      35.373  23.199  26.049  1.00  0.00     0.338 C 
ATOM      7  O   UNL A   1      34.749  22.455  26.791  1.00  0.00    -0.246 OA
BRANCH   6   8
ATOM      8  C   UNL A   1      34.728  24.184  25.165  1.00  0.00     0.087 C 
ATOM      9  C   UNL A   1      32.088  28.049  23.367  1.00  0.00    -0.026 A 
ATOM     10  C   UNL A   1      32.697  26.920  22.795  1.00  0.00     0.052 A 
ATOM     11  C   UNL A   1      32.413  28.358  24.702  1.00  0.00     0.045 A 
ATOM     12  C   UNL A   1      33.463  26.044  23.565  1.00  0.00     0.128 A 
ATOM     13  C   UNL A   1      33.218  27.505  25.463  1.00  0.00     0.032 A 
ATOM     14  Cl  UNL A   1      31.831  29.790  25.478  1.00  0.00    -0.084 Cl
ATOM     15  C   UNL A   1      33.705  26.321  24.907  1.00  0.00     0.019 A 
ATOM     16  O   UNL A   1      33.933  24.931  22.925  1.00  0.00    -0.475 OA
ATOM     17  C   UNL A   1      34.422  25.362  25.723  1.00  0.00     0.027 C 
ATOM     18  C   UNL A   1      34.442  23.833  23.729  1.00  0.00     0.316 C 
BRANCH   9  19
ATOM     19  C   UNL A   1      31.103  28.911  22.599  1.00  0.00     0.037 C 
BRANCH  19  20
ATOM     20  C   UNL A   1      29.613  28.528  22.623  1.00  0.00     0.008 C 
BRANCH  20  21
ATOM     21  C   UNL A   1      28.603  29.697  22.627  1.00  0.00    -0.017 C 
ATOM     22  C   UNL A   1      27.215  29.285  23.116  1.00  0.00     0.007 C 
ATOM     23  C   UNL A   1      29.147  30.836  23.494  1.00  0.00     0.007 C 
ENDBRANCH  20  21
ENDBRANCH  19  20
ENDBRANCH   9  19
BRANCH  18  24
ATOM     24  C   UNL A   1      33.501  22.626  23.608  1.00  0.00     0.430 C 
ATOM     25  F   UNL A   1      34.149  21.465  23.869  1.00  0.00    -0.167 F 
ATOM     26  F   UNL A   1      32.478  22.707  24.491  1.00  0.00    -0.167 F 
ATOM     27  F   UNL A   1      32.962  22.523  22.372  1.00  0.00    -0.167 F 
ENDBRANCH  18  24
ENDBRANCH   6   8
ENDBRANCH   5   6
ENDBRANCH   4   5
ENDBRANCH   3   4
ENDBRANCH   2   3
ENDBRANCH   1   2
BRANCH   1  28
ATOM     28  C   UNL A   1      42.101  20.964  26.899  1.00  0.00     0.188 C 
BRANCH  28  29
ATOM     29  O   UNL A   1      42.626  21.110  25.592  1.00  0.00    -0.376 OA
BRANCH  29  30
ATOM     30  C   UNL A   1      43.994  21.467  25.435  1.00  0.00     0.202 C 
BRANCH  30  31
ATOM     31  C   UNL A   1      44.360  22.489  24.359  1.00  0.00     0.261 C 
BRANCH  31  32
ATOM     32  O   UNL A   1      43.700  23.748  24.571  1.00  0.00    -0.460 OA
BRANCH  32  33
ATOM     33  C   UNL A   1      44.493  24.747  25.027  1.00  0.00     0.338 C 
ATOM     34  O   UNL A   1      45.561  25.114  24.573  1.00  0.00    -0.246 OA
BRANCH  33  35
ATOM     35  C   UNL A   1      43.766  25.493  26.072  1.00  0.00     0.060 A 
ATOM     36  C   UNL A   1      42.759  24.891  26.827  1.00  0.00     0.016 A 
ATOM     37  C   UNL A   1      44.130  26.827  26.300  1.00  0.00     0.016 A 
ATOM     38  C   UNL A   1      42.140  25.619  27.847  1.00  0.00     0.010 A 
ATOM     39  C   UNL A   1      43.502  27.557  27.308  1.00  0.00     0.010 A 
ATOM     40  C   UNL A   1      42.521  26.949  28.104  1.00  0.00    -0.014 A 
BRANCH  40  41
ATOM     41  C   UNL A   1      42.008  27.648  29.304  1.00  0.00     0.031 A 
ATOM     42  C   UNL A   1      42.692  27.545  30.631  1.00  0.00     0.074 A 
ATOM     43  C   UNL A   1      40.885  28.379  29.176  1.00  0.00     0.049 A 
ATOM     44  N   UNL A   1      42.403  28.156  31.751  1.00  0.00    -0.248 NA
ATOM     45  C   UNL A   1      43.842  26.635  30.714  1.00  0.00     0.031 C 
ATOM     46  C   UNL A   1      40.118  28.524  27.938  1.00  0.00     0.029 A 
ATOM     47  N   UNL A   1      40.196  29.136  30.089  1.00  0.00    -0.354 N 
ATOM     48  C   UNL A   1      43.353  27.732  32.669  1.00  0.00     0.074 A 
ATOM     49  C   UNL A   1      44.197  26.771  31.987  1.00  0.00     0.031 C 
ATOM     50  C   UNL A   1      39.072  29.332  28.165  1.00  0.00     0.029 A 
ATOM     51  C   UNL A   1      39.089  29.752  29.564  1.00  0.00     0.049 A 
ATOM     52  H   UNL A   1      40.470  29.227  31.030  1.00  0.00     0.167 HD
ATOM     53  C   UNL A   1      43.511  28.129  33.955  1.00  0.00     0.037 A 
ATOM     54  C   UNL A   1      38.192  30.572  30.141  1.00  0.00     0.037 A 
ATOM     55  C   UNL A   1      42.654  29.071  34.632  1.00  0.00     0.049 A 
ATOM     56  C   UNL A   1      38.365  30.956  31.582  1.00  0.00     0.074 A 
ATOM     57  C   UNL A   1      42.766  29.567  35.920  1.00  0.00     0.029 A 
ATOM     58  N   UNL A   1      41.517  29.646  34.082  1.00  0.00    -0.354 N 
ATOM     59  N   UNL A   1      39.314  30.615  32.419  1.00  0.00    -0.248 NA
ATOM     60  C   UNL A   1      37.348  31.847  32.156  1.00  0.00     0.031 C 
ATOM     61  C   UNL A   1      41.672  30.404  36.166  1.00  0.00     0.029 A 
ATOM     62  C   UNL A   1      40.903  30.469  35.016  1.00  0.00     0.049 A 
ATOM     63  H   UNL A   1      41.195  29.494  33.166  1.00  0.00     0.167 HD
ATOM     64  C   UNL A   1      39.021  31.261  33.611  1.00  0.00     0.074 A 
ATOM     65  C   UNL A   1      37.814  32.029  33.384  1.00  0.00     0.031 C 
ATOM     66  C   UNL A   1      39.695  31.219  34.787  1.00  0.00     0.037 A 
BRANCH  53  67
ATOM     67  C   UNL A   1      44.667  27.562  34.724  1.00  0.00     0.064 A 
ATOM     68  C   UNL A   1      45.905  28.221  34.764  1.00  0.00     0.173 A 
ATOM     69  C   UNL A   1      44.513  26.405  35.503  1.00  0.00     0.173 A 
ATOM     70  F   UNL A   1      46.103  29.329  34.035  1.00  0.00    -0.203 F 
ATOM     71  C   UNL A   1      46.949  27.737  35.547  1.00  0.00     0.198 A 
ATOM     72  C   UNL A   1      45.553  25.936  36.302  1.00  0.00     0.198 A 
ATOM     73  F   UNL A   1      43.346  25.744  35.508  1.00  0.00    -0.203 F 
ATOM     74  F   UNL A   1      48.130  28.371  35.554  1.00  0.00    -0.200 F 
ATOM     75  C   UNL A   1      46.770  26.601  36.322  1.00  0.00     0.200 A 
ATOM     76  F   UNL A   1      45.373  24.847  37.062  1.00  0.00    -0.200 F 
ATOM     77  F   UNL A   1      47.770  26.147  37.090  1.00  0.00    -0.200 F 
ENDBRANCH  53  67
BRANCH  54  78
ATOM     78  C   UNL A   1      37.078  31.118  29.329  1.00  0.00     0.064 A 
ATOM     79  C   UNL A   1      35.979  30.318  28.990  1.00  0.00     0.173 A 
ATOM     80  C   UNL A   1      37.072  32.456  28.908  1.00  0.00     0.173 A 
ATOM     81  F   UNL A   1      35.952  29.028  29.357  1.00  0.00    -0.203 F 
ATOM     82  C   UNL A   1      34.916  30.834  28.255  1.00  0.00     0.198 A 
ATOM     83  C   UNL A   1      35.997  32.976  28.192  1.00  0.00     0.198 A 
ATOM     84  F   UNL A   1      38.099  33.261  29.213  1.00  0.00    -0.203 F 
ATOM     85  F   UNL A   1      33.888  30.042  27.921  1.00  0.00    -0.200 F 
ATOM     86  C   UNL A   1      34.922  32.165  27.863  1.00  0.00     0.200 A 
ATOM     87  F   UNL A   1      35.999  34.266  27.828  1.00  0.00    -0.200 F 
ATOM     88  F   UNL A   1      33.891  32.664  27.167  1.00  0.00    -0.200 F 
ENDBRANCH  54  78
BRANCH  66  89
ATOM     89  C   UNL A   1      39.144  32.029  35.924  1.00  0.00     0.064 A 
ATOM     90  C   UNL A   1      38.254  31.470  36.855  1.00  0.00     0.173 A 
ATOM     91  C   UNL A   1      39.541  33.361  36.112  1.00  0.00     0.173 A 
ATOM     92  F   UNL A   1      37.830  30.206  36.709  1.00  0.00    -0.203 F 
ATOM     93  C   UNL A   1      37.770  32.222  37.922  1.00  0.00     0.198 A 
ATOM     94  C   UNL A   1      39.076  34.101  37.196  1.00  0.00     0.198 A 
ATOM     95  F   UNL A   1      40.393  33.940  35.253  1.00  0.00    -0.203 F 
ATOM     96  F   UNL A   1      36.890  31.681  38.776  1.00  0.00    -0.200 F 
ATOM     97  C   UNL A   1      38.187  33.534  38.095  1.00  0.00     0.200 A 
ATOM     98  F   UNL A   1      39.488  35.364  37.369  1.00  0.00    -0.200 F 
ATOM     99  F   UNL A   1      37.727  34.254  39.128  1.00  0.00    -0.200 F 
ENDBRANCH  66  89
ENDBRANCH  40  41
ENDBRANCH  33  35
ENDBRANCH  32  33
ENDBRANCH  31  32
ENDBRANCH  30  31
ENDBRANCH  29  30
ENDBRANCH  28  29
ENDBRANCH   1  28
TORSDOF 21
ENDMDL
MODEL 2
REMARK VINA RESULT:     -11.3      0.665      7.186
REMARK SMILES CC(C)CCc1cc2c(cc1Cl)C=C(C(=O)OCCOCCOCCOC(=O)c1ccc(-c3c4nc(c(-c5c(F)c(F)c(F)c(F)c5F)c5ccc([nH]5)c(-c5c(F)c(F)c(F)c(F)c5F)c5nc(c(-c6c(F)c(F)c(F)c(F)c6F)c6ccc3[nH]6)C=C5)C=C4)cc1)[C@@H](C(F)(F)F)O2
REMARK SMILES IDX 21 1 20 2 19 3 18 4 17 5 15 6 16 7 14 8 6 9 7 10 11 11 8 12
REMARK SMILES IDX 10 13 12 14 9 15 97 16 13 17 92 18 5 19 4 20 2 21 1 22 3 23
REMARK SMILES IDX 93 24 94 25 95 26 96 27 22 28 23 29 24 30 25 31 26 32 27 33
REMARK SMILES IDX 28 34 29 35 30 36 91 37 31 38 90 39 32 40 33 41 34 42 84 43
REMARK SMILES IDX 35 44 89 45 83 46 85 47 36 48 88 49 82 50 81 51 37 53 69 54
REMARK SMILES IDX 49 55 68 56 50 57 53 58 67 59 86 60 51 61 52 62 66 64 87 65
REMARK SMILES IDX 54 66 38 67 39 68 47 69 40 70 41 71 45 72 48 73 42 74 43 75
REMARK SMILES IDX 46 76 44 77 70 78 71 79 79 80 72 81 73 82 77 83 80 84 74 85
REMARK SMILES IDX 75 86 78 87 76 88 55 89 56 90 64 91 57 92 58 93 62 94 65 95
REMARK SMILES IDX 59 96 60 97 63 98 61 99
REMARK H PARENT 85 52 53 63
REMARK Flexibility Score: inf
ROOT
ATOM      1  C   UNL A   1      40.045  21.405  26.792  1.00  0.00     0.188 C 
ENDROOT
BRANCH   1   2
ATOM      2  O   UNL A   1      38.949  21.967  26.090  1.00  0.00    -0.376 OA
BRANCH   2   3
ATOM      3  C   UNL A   1      38.450  23.253  26.432  1.00  0.00     0.202 C 
BRANCH   3   4
ATOM      4  C   UNL A   1      37.328  23.860  25.595  1.00  0.00     0.261 C 
BRANCH   4   5
ATOM      5  O   UNL A   1      36.242  22.943  25.400  1.00  0.00    -0.460 OA
BRANCH   5   6
ATOM      6  C   UNL A   1      35.066  23.325  25.946  1.00  0.00     0.338 C 
ATOM      7  O   UNL A   1      34.628  23.013  27.042  1.00  0.00    -0.246 OA
BRANCH   6   8
ATOM      8  C   UNL A   1      34.425  24.325  25.075  1.00  0.00     0.087 C 
ATOM      9  C   UNL A   1      31.755  28.191  23.324  1.00  0.00    -0.026 A 
ATOM     10  C   UNL A   1      32.402  27.093  22.735  1.00  0.00     0.052 A 
ATOM     11  C   UNL A   1      32.036  28.464  24.677  1.00  0.00     0.045 A 
ATOM     12  C   UNL A   1      33.165  26.208  23.498  1.00  0.00     0.128 A 
ATOM     13  C   UNL A   1      32.838  27.604  25.433  1.00  0.00     0.032 A 
ATOM     14  Cl  UNL A   1      31.403  29.859  25.480  1.00  0.00    -0.084 Cl
ATOM     15  C   UNL A   1      33.364  26.448  24.855  1.00  0.00     0.019 A 
ATOM     16  O   UNL A   1      33.676  25.126  22.837  1.00  0.00    -0.475 OA
ATOM     17  C   UNL A   1      34.079  25.479  25.661  1.00  0.00     0.027 C 
ATOM     18  C   UNL A   1      34.186  24.013  23.621  1.00  0.00     0.316 C 
BRANCH   9  19
ATOM     19  C   UNL A   1      30.773  29.056  22.556  1.00  0.00     0.037 C 
BRANCH  19  20
ATOM     20  C   UNL A   1      29.551  29.623  23.299  1.00  0.00     0.008 C 
BRANCH  20  21
ATOM     21  C   UNL A   1      28.814  30.797  22.616  1.00  0.00    -0.017 C 
ATOM     22  C   UNL A   1      28.254  30.432  21.242  1.00  0.00     0.007 C 
ATOM     23  C   UNL A   1      27.687  31.289  23.529  1.00  0.00     0.007 C 
ENDBRANCH  20  21
ENDBRANCH  19  20
ENDBRANCH   9  19
BRANCH  18  24
ATOM     24  C   UNL A   1      33.274  22.792  23.436  1.00  0.00     0.430 C 
ATOM     25  F   UNL A   1      33.935  21.638  23.692  1.00  0.00    -0.167 F 
ATOM     26  F   UNL A   1      32.218  22.831  24.284  1.00  0.00    -0.167 F 
ATOM     27  F   UNL A   1      32.781  22.710  22.180  1.00  0.00    -0.167 F 
ENDBRANCH  18  24
ENDBRANCH   6   8
ENDBRANCH   5   6
ENDBRANCH   4   5
ENDBRANCH   3   4
ENDBRANCH   2   3
ENDBRANCH   1   2
BRANCH   1  28
ATOM     28  C   UNL A   1      40.806  20.176  26.253  1.00  0.00     0.188 C 
BRANCH  28  29
ATOM     29  O   UNL A   1      42.178  19.988  26.546  1.00  0.00    -0.376 OA
BRANCH  29  30
ATOM     30  C   UNL A   1      43.146  20.326  25.560  1.00  0.00     0.202 C 
BRANCH  30  31
ATOM     31  C   UNL A   1      43.876  21.662  25.686  1.00  0.00     0.261 C 
BRANCH  31  32
ATOM     32  O   UNL A   1      43.052  22.764  25.270  1.00  0.00    -0.460 OA
BRANCH  32  33
ATOM     33  C   UNL A   1      43.675  23.965  25.217  1.00  0.00     0.338 C 
ATOM     34  O   UNL A   1      44.512  24.334  24.414  1.00  0.00    -0.246 OA
BRANCH  33  35
ATOM     35  C   UNL A   1      43.034  24.877  26.184  1.00  0.00     0.060 A 
ATOM     36  C   UNL A   1      41.987  24.450  27.001  1.00  0.00     0.016 A 
ATOM     37  C   UNL A   1      43.523  26.187  26.273  1.00  0.00     0.016 A 
ATOM     38  C   UNL A   1      41.452  25.332  27.945  1.00  0.00     0.010 A 
ATOM     39  C   UNL A   1      42.978  27.071  27.205  1.00  0.00     0.010 A 
ATOM     40  C   UNL A   1      41.957  26.640  28.063  1.00  0.00    -0.014 A 
BRANCH  40  41
ATOM     41  C   UNL A   1      41.527  27.501  29.187  1.00  0.00     0.031 A 
ATOM     42  C   UNL A   1      40.341  28.406  29.081  1.00  0.00     0.074 A 
ATOM     43  C   UNL A   1      42.250  27.464  30.322  1.00  0.00     0.049 A 
ATOM     44  N   UNL A   1      39.801  29.163  30.001  1.00  0.00    -0.248 NA
ATOM     45  C   UNL A   1      39.677  28.477  27.772  1.00  0.00     0.031 C 
ATOM     46  C   UNL A   1      43.444  26.643  30.526  1.00  0.00     0.029 A 
ATOM     47  N   UNL A   1      42.088  28.124  31.513  1.00  0.00    -0.354 N 
ATOM     48  C   UNL A   1      38.715  29.780  29.398  1.00  0.00     0.074 A 
ATOM     49  C   UNL A   1      38.702  29.347  28.014  1.00  0.00     0.031 C 
ATOM     50  C   UNL A   1      43.899  26.837  31.773  1.00  0.00     0.029 A 
ATOM     51  C   UNL A   1      43.037  27.802  32.450  1.00  0.00     0.049 A 
ATOM     52  H   UNL A   1      41.361  28.767  31.679  1.00  0.00     0.167 HD
ATOM     53  C   UNL A   1      37.806  30.613  29.959  1.00  0.00     0.037 A 
ATOM     54  C   UNL A   1      43.192  28.230  33.716  1.00  0.00     0.037 A 
ATOM     55  C   UNL A   1      37.838  31.055  31.332  1.00  0.00     0.049 A 
ATOM     56  C   UNL A   1      42.195  29.191  34.297  1.00  0.00     0.074 A 
ATOM     57  C   UNL A   1      36.932  31.861  31.998  1.00  0.00     0.029 A 
ATOM     58  N   UNL A   1      38.836  30.741  32.242  1.00  0.00    -0.354 N 
ATOM     59  N   UNL A   1      41.124  29.704  33.743  1.00  0.00    -0.248 NA
ATOM     60  C   UNL A   1      42.424  29.626  35.681  1.00  0.00     0.031 C 
ATOM     61  C   UNL A   1      37.406  32.076  33.298  1.00  0.00     0.029 A 
ATOM     62  C   UNL A   1      38.584  31.364  33.457  1.00  0.00     0.049 A 
ATOM     63  H   UNL A   1      39.610  30.163  32.056  1.00  0.00     0.167 HD
ATOM     64  C   UNL A   1      40.541  30.506  34.712  1.00  0.00     0.074 A 
ATOM     65  C   UNL A   1      41.368  30.399  35.896  1.00  0.00     0.031 C 
ATOM     66  C   UNL A   1      39.419  31.263  34.626  1.00  0.00     0.037 A 
BRANCH  53  67
ATOM     67  C   UNL A   1      36.677  31.097  29.097  1.00  0.00     0.064 A 
ATOM     68  C   UNL A   1      35.619  30.247  28.743  1.00  0.00     0.173 A 
ATOM     69  C   UNL A   1      36.601  32.442  28.702  1.00  0.00     0.173 A 
ATOM     70  F   UNL A   1      35.646  28.953  29.095  1.00  0.00    -0.203 F 
ATOM     71  C   UNL A   1      34.532  30.723  28.015  1.00  0.00     0.198 A 
ATOM     72  C   UNL A   1      35.502  32.918  27.993  1.00  0.00     0.198 A 
ATOM     73  F   UNL A   1      37.583  33.297  29.026  1.00  0.00    -0.203 F 
ATOM     74  F   UNL A   1      33.542  29.888  27.669  1.00  0.00    -0.200 F 
ATOM     75  C   UNL A   1      34.470  32.059  27.648  1.00  0.00     0.200 A 
ATOM     76  F   UNL A   1      35.436  34.213  27.654  1.00  0.00    -0.200 F 
ATOM     77  F   UNL A   1      33.413  32.519  26.965  1.00  0.00    -0.200 F 
ENDBRANCH  53  67
BRANCH  54  78
ATOM     78  C   UNL A   1      44.315  27.704  34.529  1.00  0.00     0.064 A 
ATOM     79  C   UNL A   1      45.535  28.390  34.594  1.00  0.00     0.173 A 
ATOM     80  C   UNL A   1      44.181  26.529  35.283  1.00  0.00     0.173 A 
ATOM     81  F   UNL A   1      45.712  29.509  33.876  1.00  0.00    -0.203 F 
ATOM     82  C   UNL A   1      46.582  27.918  35.380  1.00  0.00     0.198 A 
ATOM     83  C   UNL A   1      45.222  26.070  36.086  1.00  0.00     0.198 A 
ATOM     84  F   UNL A   1      43.031  25.841  35.256  1.00  0.00    -0.203 F 
ATOM     85  F   UNL A   1      47.747  28.579  35.406  1.00  0.00    -0.200 F 
ATOM     86  C   UNL A   1      46.422  26.763  36.132  1.00  0.00     0.200 A 
ATOM     87  F   UNL A   1      45.059  24.962  36.822  1.00  0.00    -0.200 F 
ATOM     88  F   UNL A   1      47.426  26.318  36.899  1.00  0.00    -0.200 F 
ENDBRANCH  54  78
BRANCH  66  89
ATOM     89  C   UNL A   1      39.016  32.037  35.846  1.00  0.00     0.064 A 
ATOM     90  C   UNL A   1      39.414  33.370  36.030  1.00  0.00     0.173 A 
ATOM     91  C   UNL A   1      38.189  31.458  36.821  1.00  0.00     0.173 A 
ATOM     92  F   UNL A   1      40.218  33.964  35.136  1.00  0.00    -0.203 F 
ATOM     93  C   UNL A   1      39.012  34.089  37.153  1.00  0.00     0.198 A 
ATOM     94  C   UNL A   1      37.768  32.187  37.929  1.00  0.00     0.198 A 
ATOM     95  F   UNL A   1      37.778  30.188  36.690  1.00  0.00    -0.203 F 
ATOM     96  F   UNL A   1      39.437  35.348  37.328  1.00  0.00    -0.200 F 
ATOM     97  C   UNL A   1      38.184  33.499  38.097  1.00  0.00     0.200 A 
ATOM     98  F   UNL A   1      36.958  31.621  38.834  1.00  0.00    -0.200 F 
ATOM     99  F   UNL A   1      37.791  34.195  39.173  1.00  0.00    -0.200 F 
ENDBRANCH  66  89
ENDBRANCH  40  41
ENDBRANCH  33  35
ENDBRANCH  32  33
ENDBRANCH  31  32
ENDBRANCH  30  31
ENDBRANCH  29  30
ENDBRANCH  28  29
ENDBRANCH   1  28
TORSDOF 21
ENDMDL
MODEL 3
REMARK VINA RESULT:     -10.8      4.506      7.006
REMARK SMILES CC(C)CCc1cc2c(cc1Cl)C=C(C(=O)OCCOCCOCCOC(=O)c1ccc(-c3c4nc(c(-c5c(F)c(F)c(F)c(F)c5F)c5ccc([nH]5)c(-c5c(F)c(F)c(F)c(F)c5F)c5nc(c(-c6c(F)c(F)c(F)c(F)c6F)c6ccc3[nH]6)C=C5)C=C4)cc1)[C@@H](C(F)(F)F)O2
REMARK SMILES IDX 21 1 20 2 19 3 18 4 17 5 15 6 16 7 14 8 6 9 7 10 11 11 8 12
REMARK SMILES IDX 10 13 12 14 9 15 97 16 13 17 92 18 5 19 4 20 2 21 1 22 3 23
REMARK SMILES IDX 93 24 94 25 95 26 96 27 22 28 23 29 24 30 25 31 26 32 27 33
REMARK SMILES IDX 28 34 29 35 30 36 91 37 31 38 90 39 32 40 33 41 34 42 84 43
REMARK SMILES IDX 35 44 89 45 83 46 85 47 36 48 88 49 82 50 81 51 37 53 69 54
REMARK SMILES IDX 49 55 68 56 50 57 53 58 67 59 86 60 51 61 52 62 66 64 87 65
REMARK SMILES IDX 54 66 38 67 39 68 47 69 40 70 41 71 45 72 48 73 42 74 43 75
REMARK SMILES IDX 46 76 44 77 70 78 71 79 79 80 72 81 73 82 77 83 80 84 74 85
REMARK SMILES IDX 75 86 78 87 76 88 55 89 56 90 64 91 57 92 58 93 62 94 65 95
REMARK SMILES IDX 59 96 60 97 63 98 61 99
REMARK H PARENT 85 52 53 63
REMARK Flexibility Score: inf
ROOT
ATOM      1  C   UNL A   1      35.566  21.137  24.748  1.00  0.00     0.188 C 
ENDROOT
BRANCH   1   2
ATOM      2  O   UNL A   1      34.459  20.281  24.975  1.00  0.00    -0.376 OA
BRANCH   2   3
ATOM      3  C   UNL A   1      33.200  20.549  24.373  1.00  0.00     0.202 C 
BRANCH   3   4
ATOM      4  C   UNL A   1      32.152  21.329  25.161  1.00  0.00     0.261 C 
BRANCH   4   5
ATOM      5  O   UNL A   1      31.921  22.633  24.609  1.00  0.00    -0.460 OA
BRANCH   5   6
ATOM      6  C   UNL A   1      32.395  23.660  25.349  1.00  0.00     0.338 C 
ATOM      7  O   UNL A   1      33.180  23.593  26.282  1.00  0.00    -0.246 OA
BRANCH   6   8
ATOM      8  C   UNL A   1      31.941  24.933  24.765  1.00  0.00     0.087 C 
ATOM      9  C   UNL A   1      29.169  28.615  22.789  1.00  0.00    -0.026 A 
ATOM     10  C   UNL A   1      30.547  28.391  22.939  1.00  0.00     0.052 A 
ATOM     11  C   UNL A   1      28.291  27.776  23.502  1.00  0.00     0.045 A 
ATOM     12  C   UNL A   1      31.027  27.280  23.635  1.00  0.00     0.128 A 
ATOM     13  C   UNL A   1      28.772  26.688  24.237  1.00  0.00     0.032 A 
ATOM     14  Cl  UNL A   1      26.580  28.029  23.501  1.00  0.00    -0.084 Cl
ATOM     15  C   UNL A   1      30.140  26.413  24.265  1.00  0.00     0.019 A 
ATOM     16  O   UNL A   1      32.384  27.114  23.643  1.00  0.00    -0.475 OA
ATOM     17  C   UNL A   1      30.638  25.213  24.905  1.00  0.00     0.027 C 
ATOM     18  C   UNL A   1      32.922  25.827  24.052  1.00  0.00     0.316 C 
BRANCH   9  19
ATOM     19  C   UNL A   1      28.623  29.704  21.885  1.00  0.00     0.037 C 
BRANCH  19  20
ATOM     20  C   UNL A   1      29.140  31.142  22.066  1.00  0.00     0.008 C 
BRANCH  20  21
ATOM     21  C   UNL A   1      28.154  32.153  22.692  1.00  0.00    -0.017 C 
ATOM     22  C   UNL A   1      27.380  31.577  23.877  1.00  0.00     0.007 C 
ATOM     23  C   UNL A   1      28.920  33.406  23.126  1.00  0.00     0.007 C 
ENDBRANCH  20  21
ENDBRANCH  19  20
ENDBRANCH   9  19
BRANCH  18  24
ATOM     24  C   UNL A   1      33.564  25.129  22.845  1.00  0.00     0.430 C 
ATOM     25  F   UNL A   1      34.035  26.028  21.948  1.00  0.00    -0.167 F 
ATOM     26  F   UNL A   1      34.617  24.364  23.219  1.00  0.00    -0.167 F 
ATOM     27  F   UNL A   1      32.690  24.326  22.197  1.00  0.00    -0.167 F 
ENDBRANCH  18  24
ENDBRANCH   6   8
ENDBRANCH   5   6
ENDBRANCH   4   5
ENDBRANCH   3   4
ENDBRANCH   2   3
ENDBRANCH   1   2
BRANCH   1  28
ATOM     28  C   UNL A   1      37.010  20.692  25.060  1.00  0.00     0.188 C 
BRANCH  28  29
ATOM     29  O   UNL A   1      38.073  21.626  25.056  1.00  0.00    -0.376 OA
BRANCH  29  30
ATOM     30  C   UNL A   1      39.223  21.364  25.853  1.00  0.00     0.202 C 
BRANCH  30  31
ATOM     31  C   UNL A   1      39.614  19.909  26.108  1.00  0.00     0.261 C 
BRANCH  31  32
ATOM     32  O   UNL A   1      40.795  19.537  25.377  1.00  0.00    -0.460 OA
BRANCH  32  33
ATOM     33  C   UNL A   1      41.911  19.371  26.126  1.00  0.00     0.338 C 
ATOM     34  O   UNL A   1      42.467  18.325  26.408  1.00  0.00    -0.246 OA
BRANCH  33  35
ATOM     35  C   UNL A   1      42.500  20.694  26.405  1.00  0.00     0.060 A 
ATOM     36  C   UNL A   1      42.970  21.512  25.376  1.00  0.00     0.016 A 
ATOM     37  C   UNL A   1      42.558  21.120  27.739  1.00  0.00     0.016 A 
ATOM     38  C   UNL A   1      43.464  22.782  25.684  1.00  0.00     0.010 A 
ATOM     39  C   UNL A   1      43.065  22.381  28.045  1.00  0.00     0.010 A 
ATOM     40  C   UNL A   1      43.498  23.229  27.016  1.00  0.00    -0.014 A 
BRANCH  40  41
ATOM     41  C   UNL A   1      43.835  24.640  27.317  1.00  0.00     0.031 A 
ATOM     42  C   UNL A   1      45.226  25.169  27.166  1.00  0.00     0.074 A 
ATOM     43  C   UNL A   1      42.848  25.445  27.752  1.00  0.00     0.049 A 
ATOM     44  N   UNL A   1      45.658  26.394  27.321  1.00  0.00    -0.248 NA
ATOM     45  C   UNL A   1      46.268  24.200  26.800  1.00  0.00     0.031 C 
ATOM     46  C   UNL A   1      41.461  25.027  27.967  1.00  0.00     0.029 A 
ATOM     47  N   UNL A   1      42.854  26.775  28.087  1.00  0.00    -0.354 N 
ATOM     48  C   UNL A   1      47.016  26.355  27.043  1.00  0.00     0.074 A 
ATOM     49  C   UNL A   1      47.347  24.973  26.758  1.00  0.00     0.031 C 
ATOM     50  C   UNL A   1      40.747  26.083  28.384  1.00  0.00     0.029 A 
ATOM     51  C   UNL A   1      41.626  27.246  28.477  1.00  0.00     0.049 A 
ATOM     52  H   UNL A   1      43.662  27.335  28.052  1.00  0.00     0.167 HD
ATOM     53  C   UNL A   1      47.895  27.386  27.009  1.00  0.00     0.037 A 
ATOM     54  C   UNL A   1      41.247  28.479  28.857  1.00  0.00     0.037 A 
ATOM     55  C   UNL A   1      47.561  28.756  27.314  1.00  0.00     0.049 A 
ATOM     56  C   UNL A   1      42.254  29.593  28.858  1.00  0.00     0.074 A 
ATOM     57  C   UNL A   1      48.377  29.874  27.261  1.00  0.00     0.029 A 
ATOM     58  N   UNL A   1      46.316  29.193  27.743  1.00  0.00    -0.354 N 
ATOM     59  N   UNL A   1      43.518  29.563  28.512  1.00  0.00    -0.248 NA
ATOM     60  C   UNL A   1      41.780  30.914  29.290  1.00  0.00     0.031 C 
ATOM     61  C   UNL A   1      47.640  30.978  27.705  1.00  0.00     0.029 A 
ATOM     62  C   UNL A   1      46.351  30.558  27.988  1.00  0.00     0.049 A 
ATOM     63  H   UNL A   1      45.526  28.619  27.857  1.00  0.00     0.167 HD
ATOM     64  C   UNL A   1      43.987  30.858  28.669  1.00  0.00     0.074 A 
ATOM     65  C   UNL A   1      42.867  31.656  29.124  1.00  0.00     0.031 C 
ATOM     66  C   UNL A   1      45.235  31.341  28.454  1.00  0.00     0.037 A 
BRANCH  53  67
ATOM     67  C   UNL A   1      49.311  27.085  26.614  1.00  0.00     0.064 A 
ATOM     68  C   UNL A   1      50.262  26.691  27.567  1.00  0.00     0.173 A 
ATOM     69  C   UNL A   1      49.697  27.098  25.265  1.00  0.00     0.173 A 
ATOM     70  F   UNL A   1      49.942  26.665  28.869  1.00  0.00    -0.203 F 
ATOM     71  C   UNL A   1      51.551  26.331  27.185  1.00  0.00     0.198 A 
ATOM     72  C   UNL A   1      50.981  26.716  24.885  1.00  0.00     0.198 A 
ATOM     73  F   UNL A   1      48.822  27.457  24.314  1.00  0.00    -0.203 F 
ATOM     74  F   UNL A   1      52.450  25.977  28.115  1.00  0.00    -0.200 F 
ATOM     75  C   UNL A   1      51.907  26.335  25.845  1.00  0.00     0.200 A 
ATOM     76  F   UNL A   1      51.319  26.705  23.588  1.00  0.00    -0.200 F 
ATOM     77  F   UNL A   1      53.143  25.969  25.477  1.00  0.00    -0.200 F 
ENDBRANCH  53  67
BRANCH  54  78
ATOM     78  C   UNL A   1      39.830  28.724  29.221  1.00  0.00     0.064 A 
ATOM     79  C   UNL A   1      39.392  28.567  30.542  1.00  0.00     0.173 A 
ATOM     80  C   UNL A   1      38.898  29.156  28.266  1.00  0.00     0.173 A 
ATOM     81  F   UNL A   1      40.247  28.139  31.483  1.00  0.00    -0.203 F 
ATOM     82  C   UNL A   1      38.072  28.826  30.896  1.00  0.00     0.198 A 
ATOM     83  C   UNL A   1      37.582  29.436  28.626  1.00  0.00     0.198 A 
ATOM     84  F   UNL A   1      39.272  29.326  26.990  1.00  0.00    -0.203 F 
ATOM     85  F   UNL A   1      37.671  28.643  32.161  1.00  0.00    -0.200 F 
ATOM     86  C   UNL A   1      37.169  29.269  29.939  1.00  0.00     0.200 A 
ATOM     87  F   UNL A   1      36.717  29.878  27.702  1.00  0.00    -0.200 F 
ATOM     88  F   UNL A   1      35.901  29.531  30.283  1.00  0.00    -0.200 F 
ENDBRANCH  54  78
BRANCH  66  89
ATOM     89  C   UNL A   1      45.460  32.804  28.706  1.00  0.00     0.064 A 
ATOM     90  C   UNL A   1      45.928  33.268  29.945  1.00  0.00     0.173 A 
ATOM     91  C   UNL A   1      45.249  33.746  27.688  1.00  0.00     0.173 A 
ATOM     92  F   UNL A   1      46.129  32.409  30.955  1.00  0.00    -0.203 F 
ATOM     93  C   UNL A   1      46.159  34.624  30.160  1.00  0.00     0.198 A 
ATOM     94  C   UNL A   1      45.507  35.098  27.899  1.00  0.00     0.198 A 
ATOM     95  F   UNL A   1      44.806  33.354  26.484  1.00  0.00    -0.203 F 
ATOM     96  F   UNL A   1      46.567  35.049  31.364  1.00  0.00    -0.200 F 
ATOM     97  C   UNL A   1      45.955  35.536  29.135  1.00  0.00     0.200 A 
ATOM     98  F   UNL A   1      45.321  35.977  26.905  1.00  0.00    -0.200 F 
ATOM     99  F   UNL A   1      46.187  36.840  29.341  1.00  0.00    -0.200 F 
ENDBRANCH  66  89
ENDBRANCH  40  41
ENDBRANCH  33  35
ENDBRANCH  32  33
ENDBRANCH  31  32
ENDBRANCH  30  31
ENDBRANCH  29  30
ENDBRANCH  28  29
ENDBRANCH   1  28
TORSDOF 21
ENDMDL
