MODEL 1
REMARK VINA RESULT:     -10.2      0.000      0.000
REMARK SMILES O=C(OCCOCCOCCOC(=O)[C@]1([NH2+]C2CC2)CCC[C@H](SC[C@H](O)CO)C1)c1ccc(-c2c3nc(c(-c4c(F)c(F)c(F)c(F)c4F)c4ccc([nH]4)c(-c4c(F)c(F)c(F)c(F)c4F)c4nc(c(-c5c(F)c(F)c(F)c(F)c5F)c5ccc2[nH]5)C=C4)C=C3)cc1
REMARK SMILES IDX 9 1 8 2 7 3 6 4 5 5 4 6 3 7 2 8 1 9 31 10 32 11 93 12 33 13
REMARK SMILES IDX 92 14 34 15 35 16 36 17 86 18 37 19 91 20 85 21 87 22 38 23
REMARK SMILES IDX 90 24 84 25 83 26 39 28 71 29 51 30 70 31 52 32 55 33 69 34
REMARK SMILES IDX 88 35 53 36 54 37 68 39 89 40 56 41 40 42 41 43 49 44 42 45
REMARK SMILES IDX 43 46 47 47 50 48 44 49 45 50 48 51 46 52 72 53 73 54 81 55
REMARK SMILES IDX 74 56 75 57 79 58 82 59 76 60 77 61 80 62 78 63 57 64 58 65
REMARK SMILES IDX 66 66 59 67 60 68 64 69 67 70 61 71 62 72 65 73 63 74 10 75
REMARK SMILES IDX 11 76 12 77 13 78 14 79 15 80 20 81 30 82 21 83 23 84 22 85
REMARK SMILES IDX 16 86 17 89 18 90 19 91 24 92 25 93 26 94 28 95 29 96 27 98
REMARK H PARENT 87 27 55 38 16 87 16 88 29 97 27 99
REMARK Flexibility Score: inf
ROOT
ATOM      1  O   UNL A   1      34.195  31.065  27.409  1.00  0.00    -0.376 OA
ENDROOT
BRANCH   1   2
ATOM      2  C   UNL A   1      35.032  32.065  27.999  1.00  0.00     0.188 C 
BRANCH   2   3
ATOM      3  C   UNL A   1      34.464  32.709  29.289  1.00  0.00     0.188 C 
BRANCH   3   4
ATOM      4  O   UNL A   1      34.484  34.133  29.184  1.00  0.00    -0.376 OA
BRANCH   4   5
ATOM      5  C   UNL A   1      33.266  34.814  28.899  1.00  0.00     0.202 C 
BRANCH   5   6
ATOM      6  C   UNL A   1      32.901  35.929  29.884  1.00  0.00     0.261 C 
BRANCH   6   7
ATOM      7  O   UNL A   1      32.231  35.371  31.028  1.00  0.00    -0.460 OA
BRANCH   7   8
ATOM      8  C   UNL A   1      32.672  35.756  32.249  1.00  0.00     0.338 C 
ATOM      9  O   UNL A   1      32.174  36.620  32.963  1.00  0.00    -0.246 OA
BRANCH   8  10
ATOM     10  C   UNL A   1      33.945  35.041  32.551  1.00  0.00     0.060 A 
ATOM     11  C   UNL A   1      33.926  33.667  32.832  1.00  0.00     0.016 A 
ATOM     12  C   UNL A   1      35.179  35.685  32.359  1.00  0.00     0.016 A 
ATOM     13  C   UNL A   1      35.110  32.934  32.847  1.00  0.00     0.010 A 
ATOM     14  C   UNL A   1      36.378  34.954  32.419  1.00  0.00     0.010 A 
ATOM     15  C   UNL A   1      36.346  33.571  32.651  1.00  0.00    -0.014 A 
BRANCH  15  16
ATOM     16  C   UNL A   1      37.564  32.786  32.969  1.00  0.00     0.031 A 
ATOM     17  C   UNL A   1      38.103  32.962  34.354  1.00  0.00     0.074 A 
ATOM     18  C   UNL A   1      38.148  31.925  32.115  1.00  0.00     0.049 A 
ATOM     19  N   UNL A   1      39.092  32.352  34.944  1.00  0.00    -0.248 NA
ATOM     20  C   UNL A   1      37.445  33.994  35.178  1.00  0.00     0.031 C 
ATOM     21  C   UNL A   1      37.756  31.737  30.727  1.00  0.00     0.029 A 
ATOM     22  N   UNL A   1      39.184  31.031  32.285  1.00  0.00    -0.354 N 
ATOM     23  C   UNL A   1      39.204  32.961  36.183  1.00  0.00     0.074 A 
ATOM     24  C   UNL A   1      38.150  33.940  36.292  1.00  0.00     0.031 C 
ATOM     25  C   UNL A   1      38.485  30.740  30.196  1.00  0.00     0.029 A 
ATOM     26  C   UNL A   1      39.415  30.225  31.189  1.00  0.00     0.049 A 
ATOM     27  H   UNL A   1      39.710  30.972  33.115  1.00  0.00     0.167 HD
ATOM     28  C   UNL A   1      40.158  32.770  37.118  1.00  0.00     0.037 A 
ATOM     29  C   UNL A   1      40.279  29.200  31.013  1.00  0.00     0.037 A 
ATOM     30  C   UNL A   1      41.248  31.855  36.962  1.00  0.00     0.049 A 
ATOM     31  C   UNL A   1      41.290  28.959  32.112  1.00  0.00     0.074 A 
ATOM     32  C   UNL A   1      42.303  31.626  37.820  1.00  0.00     0.029 A 
ATOM     33  N   UNL A   1      41.435  31.040  35.854  1.00  0.00    -0.354 N 
ATOM     34  N   UNL A   1      41.373  29.520  33.295  1.00  0.00    -0.248 NA
ATOM     35  C   UNL A   1      42.377  28.009  31.826  1.00  0.00     0.031 C 
ATOM     36  C   UNL A   1      43.166  30.716  37.204  1.00  0.00     0.029 A 
ATOM     37  C   UNL A   1      42.611  30.326  35.993  1.00  0.00     0.049 A 
ATOM     38  H   UNL A   1      40.822  30.978  35.086  1.00  0.00     0.167 HD
ATOM     39  C   UNL A   1      42.532  29.027  33.873  1.00  0.00     0.074 A 
ATOM     40  C   UNL A   1      43.082  28.060  32.947  1.00  0.00     0.031 C 
ATOM     41  C   UNL A   1      43.122  29.374  35.042  1.00  0.00     0.037 A 
BRANCH  28  42
ATOM     42  C   UNL A   1      40.117  33.684  38.301  1.00  0.00     0.064 A 
ATOM     43  C   UNL A   1      39.302  33.429  39.412  1.00  0.00     0.173 A 
ATOM     44  C   UNL A   1      40.858  34.875  38.282  1.00  0.00     0.173 A 
ATOM     45  F   UNL A   1      38.535  32.327  39.449  1.00  0.00    -0.203 F 
ATOM     46  C   UNL A   1      39.213  34.347  40.454  1.00  0.00     0.198 A 
ATOM     47  C   UNL A   1      40.789  35.776  39.338  1.00  0.00     0.198 A 
ATOM     48  F   UNL A   1      41.628  35.175  37.225  1.00  0.00    -0.203 F 
ATOM     49  F   UNL A   1      38.375  34.119  41.475  1.00  0.00    -0.200 F 
ATOM     50  C   UNL A   1      39.961  35.515  40.419  1.00  0.00     0.200 A 
ATOM     51  F   UNL A   1      41.508  36.905  39.299  1.00  0.00    -0.200 F 
ATOM     52  F   UNL A   1      39.868  36.402  41.419  1.00  0.00    -0.200 F 
ENDBRANCH  28  42
BRANCH  29  53
ATOM     53  C   UNL A   1      40.308  28.362  29.767  1.00  0.00     0.064 A 
ATOM     54  C   UNL A   1      41.021  28.781  28.627  1.00  0.00     0.173 A 
ATOM     55  C   UNL A   1      39.578  27.170  29.644  1.00  0.00     0.173 A 
ATOM     56  F   UNL A   1      41.717  29.927  28.655  1.00  0.00    -0.203 F 
ATOM     57  C   UNL A   1      40.974  28.068  27.426  1.00  0.00     0.198 A 
ATOM     58  C   UNL A   1      39.578  26.426  28.462  1.00  0.00     0.198 A 
ATOM     59  F   UNL A   1      38.851  26.714  30.675  1.00  0.00    -0.203 F 
ATOM     60  F   UNL A   1      41.596  28.543  26.338  1.00  0.00    -0.200 F 
ATOM     61  C   UNL A   1      40.260  26.884  27.348  1.00  0.00     0.200 A 
ATOM     62  F   UNL A   1      38.904  25.269  28.404  1.00  0.00    -0.200 F 
ATOM     63  F   UNL A   1      40.216  26.194  26.199  1.00  0.00    -0.200 F 
ENDBRANCH  29  53
BRANCH  41  64
ATOM     64  C   UNL A   1      44.433  28.726  35.369  1.00  0.00     0.064 A 
ATOM     65  C   UNL A   1      44.489  27.509  36.063  1.00  0.00     0.173 A 
ATOM     66  C   UNL A   1      45.633  29.279  34.900  1.00  0.00     0.173 A 
ATOM     67  F   UNL A   1      43.367  26.952  36.543  1.00  0.00    -0.203 F 
ATOM     68  C   UNL A   1      45.705  26.871  36.284  1.00  0.00     0.198 A 
ATOM     69  C   UNL A   1      46.842  28.621  35.093  1.00  0.00     0.198 A 
ATOM     70  F   UNL A   1      45.625  30.436  34.222  1.00  0.00    -0.203 F 
ATOM     71  F   UNL A   1      45.742  25.724  36.975  1.00  0.00    -0.200 F 
ATOM     72  C   UNL A   1      46.878  27.421  35.787  1.00  0.00     0.200 A 
ATOM     73  F   UNL A   1      47.973  29.142  34.596  1.00  0.00    -0.200 F 
ATOM     74  F   UNL A   1      48.046  26.791  35.978  1.00  0.00    -0.200 F 
ENDBRANCH  41  64
ENDBRANCH  15  16
ENDBRANCH   8  10
ENDBRANCH   7   8
ENDBRANCH   6   7
ENDBRANCH   5   6
ENDBRANCH   4   5
ENDBRANCH   3   4
ENDBRANCH   2   3
ENDBRANCH   1   2
BRANCH   1  75
ATOM     75  C   UNL A   1      32.819  31.403  27.251  1.00  0.00     0.202 C 
BRANCH  75  76
ATOM     76  C   UNL A   1      31.948  30.396  26.464  1.00  0.00     0.261 C 
BRANCH  76  77
ATOM     77  O   UNL A   1      32.510  29.072  26.234  1.00  0.00    -0.459 OA
BRANCH  77  78
ATOM     78  C   UNL A   1      31.752  28.033  26.669  1.00  0.00     0.368 C 
ATOM     79  O   UNL A   1      31.243  28.020  27.793  1.00  0.00    -0.245 OA
BRANCH  78  80
ATOM     80  C   UNL A   1      31.550  26.812  25.685  1.00  0.00     0.195 C 
ATOM     81  C   UNL A   1      32.815  26.782  24.789  1.00  0.00     0.081 C 
ATOM     82  C   UNL A   1      30.397  26.655  24.668  1.00  0.00     0.095 C 
ATOM     83  C   UNL A   1      32.784  27.931  23.764  1.00  0.00     0.008 C 
ATOM     84  C   UNL A   1      30.254  27.557  23.436  1.00  0.00     0.053 C 
ATOM     85  C   UNL A   1      31.601  27.887  22.796  1.00  0.00     0.015 C 
BRANCH  80  86
ATOM     86  N   UNL A   1      31.386  25.549  26.491  1.00  0.00    -0.330 N 
ATOM     87  H   UNL A   1      31.037  25.824  27.408  1.00  0.00     0.347 HD
ATOM     88  H   UNL A   1      32.312  25.120  26.462  1.00  0.00     0.347 HD
BRANCH  86  89
ATOM     89  C   UNL A   1      30.501  24.499  25.994  1.00  0.00     0.183 C 
ATOM     90  C   UNL A   1      31.090  23.165  25.626  1.00  0.00     0.071 C 
ATOM     91  C   UNL A   1      30.278  23.295  26.876  1.00  0.00     0.071 C 
ENDBRANCH  86  89
ENDBRANCH  80  86
BRANCH  84  92
ATOM     92  S   UNL A   1      28.918  28.790  23.095  1.00  0.00    -0.156 SA
BRANCH  92  93
ATOM     93  C   UNL A   1      29.535  30.387  23.672  1.00  0.00     0.104 C 
BRANCH  93  94
ATOM     94  C   UNL A   1      28.586  31.575  23.493  1.00  0.00     0.149 C 
BRANCH  94  95
ATOM     95  C   UNL A   1      28.643  32.194  22.106  1.00  0.00     0.188 C 
BRANCH  95  96
ATOM     96  O   UNL A   1      28.028  33.453  21.961  1.00  0.00    -0.394 OA
ATOM     97  H   UNL A   1      28.015  33.701  21.023  1.00  0.00     0.210 HD
ENDBRANCH  95  96
ENDBRANCH  94  95
BRANCH  94  98
ATOM     98  O   UNL A   1      27.277  31.088  23.727  1.00  0.00    -0.390 OA
ATOM     99  H   UNL A   1      27.294  30.457  24.464  1.00  0.00     0.211 HD
ENDBRANCH  94  98
ENDBRANCH  93  94
ENDBRANCH  92  93
ENDBRANCH  84  92
ENDBRANCH  78  80
ENDBRANCH  77  78
ENDBRANCH  76  77
ENDBRANCH  75  76
ENDBRANCH   1  75
TORSDOF 25
ENDMDL
MODEL 2
REMARK VINA RESULT:     -10.1      4.325      9.268
REMARK SMILES O=C(OCCOCCOCCOC(=O)[C@]1([NH2+]C2CC2)CCC[C@H](SC[C@H](O)CO)C1)c1ccc(-c2c3nc(c(-c4c(F)c(F)c(F)c(F)c4F)c4ccc([nH]4)c(-c4c(F)c(F)c(F)c(F)c4F)c4nc(c(-c5c(F)c(F)c(F)c(F)c5F)c5ccc2[nH]5)C=C4)C=C3)cc1
REMARK SMILES IDX 9 1 8 2 7 3 6 4 5 5 4 6 3 7 2 8 1 9 31 10 32 11 93 12 33 13
REMARK SMILES IDX 92 14 34 15 35 16 36 17 86 18 37 19 91 20 85 21 87 22 38 23
REMARK SMILES IDX 90 24 84 25 83 26 39 28 71 29 51 30 70 31 52 32 55 33 69 34
REMARK SMILES IDX 88 35 53 36 54 37 68 39 89 40 56 41 40 42 41 43 49 44 42 45
REMARK SMILES IDX 43 46 47 47 50 48 44 49 45 50 48 51 46 52 72 53 73 54 81 55
REMARK SMILES IDX 74 56 75 57 79 58 82 59 76 60 77 61 80 62 78 63 57 64 58 65
REMARK SMILES IDX 66 66 59 67 60 68 64 69 67 70 61 71 62 72 65 73 63 74 10 75
REMARK SMILES IDX 11 76 12 77 13 78 14 79 15 80 20 81 30 82 21 83 23 84 22 85
REMARK SMILES IDX 16 86 17 89 18 90 19 91 24 92 25 93 26 94 28 95 29 96 27 98
REMARK H PARENT 87 27 55 38 16 87 16 88 29 97 27 99
REMARK Flexibility Score: inf
ROOT
ATOM      1  O   UNL A   1      33.336  24.240  21.606  1.00  0.00    -0.376 OA
ENDROOT
BRANCH   1   2
ATOM      2  C   UNL A   1      33.275  23.120  22.494  1.00  0.00     0.188 C 
BRANCH   2   3
ATOM      3  C   UNL A   1      34.479  22.992  23.462  1.00  0.00     0.188 C 
BRANCH   3   4
ATOM      4  O   UNL A   1      35.706  23.177  22.757  1.00  0.00    -0.376 OA
BRANCH   4   5
ATOM      5  C   UNL A   1      36.931  22.945  23.446  1.00  0.00     0.202 C 
BRANCH   5   6
ATOM      6  C   UNL A   1      36.790  22.245  24.802  1.00  0.00     0.261 C 
BRANCH   6   7
ATOM      7  O   UNL A   1      37.298  23.093  25.846  1.00  0.00    -0.460 OA
BRANCH   7   8
ATOM      8  C   UNL A   1      38.626  23.031  26.100  1.00  0.00     0.338 C 
ATOM      9  O   UNL A   1      39.356  22.060  25.930  1.00  0.00    -0.246 OA
BRANCH   8  10
ATOM     10  C   UNL A   1      39.057  24.309  26.737  1.00  0.00     0.060 A 
ATOM     11  C   UNL A   1      38.825  24.522  28.104  1.00  0.00     0.016 A 
ATOM     12  C   UNL A   1      39.870  25.212  26.031  1.00  0.00     0.016 A 
ATOM     13  C   UNL A   1      39.452  25.572  28.771  1.00  0.00     0.010 A 
ATOM     14  C   UNL A   1      40.466  26.299  26.694  1.00  0.00     0.010 A 
ATOM     15  C   UNL A   1      40.269  26.474  28.071  1.00  0.00    -0.014 A 
BRANCH  15  16
ATOM     16  C   UNL A   1      40.657  27.718  28.782  1.00  0.00     0.031 A 
ATOM     17  C   UNL A   1      42.125  27.899  29.011  1.00  0.00     0.074 A 
ATOM     18  C   UNL A   1      39.785  28.667  29.168  1.00  0.00     0.049 A 
ATOM     19  N   UNL A   1      42.767  28.911  29.523  1.00  0.00    -0.248 NA
ATOM     20  C   UNL A   1      42.985  26.761  28.631  1.00  0.00     0.031 C 
ATOM     21  C   UNL A   1      38.338  28.558  29.066  1.00  0.00     0.029 A 
ATOM     22  N   UNL A   1      39.980  29.921  29.707  1.00  0.00    -0.354 N 
ATOM     23  C   UNL A   1      44.092  28.511  29.571  1.00  0.00     0.074 A 
ATOM     24  C   UNL A   1      44.179  27.197  28.983  1.00  0.00     0.031 C 
ATOM     25  C   UNL A   1      37.781  29.718  29.454  1.00  0.00     0.029 A 
ATOM     26  C   UNL A   1      38.820  30.654  29.856  1.00  0.00     0.049 A 
ATOM     27  H   UNL A   1      40.866  30.262  29.963  1.00  0.00     0.167 HD
ATOM     28  C   UNL A   1      45.134  29.158  30.133  1.00  0.00     0.037 A 
ATOM     29  C   UNL A   1      38.626  31.925  30.272  1.00  0.00     0.037 A 
ATOM     30  C   UNL A   1      45.019  30.426  30.789  1.00  0.00     0.049 A 
ATOM     31  C   UNL A   1      39.829  32.656  30.828  1.00  0.00     0.074 A 
ATOM     32  C   UNL A   1      45.997  31.144  31.444  1.00  0.00     0.029 A 
ATOM     33  N   UNL A   1      43.838  31.148  30.896  1.00  0.00    -0.354 N 
ATOM     34  N   UNL A   1      41.086  32.282  30.845  1.00  0.00    -0.248 NA
ATOM     35  C   UNL A   1      39.580  33.942  31.497  1.00  0.00     0.031 C 
ATOM     36  C   UNL A   1      45.396  32.273  32.006  1.00  0.00     0.029 A 
ATOM     37  C   UNL A   1      44.058  32.294  31.638  1.00  0.00     0.049 A 
ATOM     38  H   UNL A   1      42.975  30.885  30.503  1.00  0.00     0.167 HD
ATOM     39  C   UNL A   1      41.766  33.259  31.555  1.00  0.00     0.074 A 
ATOM     40  C   UNL A   1      40.800  34.284  31.887  1.00  0.00     0.031 C 
ATOM     41  C   UNL A   1      43.063  33.288  31.947  1.00  0.00     0.037 A 
BRANCH  28  42
ATOM     42  C   UNL A   1      46.430  28.414  30.176  1.00  0.00     0.064 A 
ATOM     43  C   UNL A   1      47.396  28.539  29.168  1.00  0.00     0.173 A 
ATOM     44  C   UNL A   1      46.671  27.504  31.217  1.00  0.00     0.173 A 
ATOM     45  F   UNL A   1      47.182  29.358  28.127  1.00  0.00    -0.203 F 
ATOM     46  C   UNL A   1      48.549  27.759  29.188  1.00  0.00     0.198 A 
ATOM     47  C   UNL A   1      47.838  26.749  31.249  1.00  0.00     0.198 A 
ATOM     48  F   UNL A   1      45.762  27.329  32.187  1.00  0.00    -0.203 F 
ATOM     49  F   UNL A   1      49.427  27.841  28.178  1.00  0.00    -0.200 F 
ATOM     50  C   UNL A   1      48.771  26.871  30.230  1.00  0.00     0.200 A 
ATOM     51  F   UNL A   1      48.048  25.888  32.253  1.00  0.00    -0.200 F 
ATOM     52  F   UNL A   1      49.878  26.116  30.244  1.00  0.00    -0.200 F 
ENDBRANCH  28  42
BRANCH  29  53
ATOM     53  C   UNL A   1      37.280  32.591  30.261  1.00  0.00     0.064 A 
ATOM     54  C   UNL A   1      36.369  32.403  31.319  1.00  0.00     0.173 A 
ATOM     55  C   UNL A   1      36.831  33.366  29.181  1.00  0.00     0.173 A 
ATOM     56  F   UNL A   1      36.712  31.647  32.373  1.00  0.00    -0.203 F 
ATOM     57  C   UNL A   1      35.074  32.928  31.278  1.00  0.00     0.198 A 
ATOM     58  C   UNL A   1      35.558  33.939  29.166  1.00  0.00     0.198 A 
ATOM     59  F   UNL A   1      37.627  33.573  28.122  1.00  0.00    -0.203 F 
ATOM     60  F   UNL A   1      34.208  32.656  32.264  1.00  0.00    -0.200 F 
ATOM     61  C   UNL A   1      34.673  33.706  30.205  1.00  0.00     0.200 A 
ATOM     62  F   UNL A   1      35.187  34.711  28.135  1.00  0.00    -0.200 F 
ATOM     63  F   UNL A   1      33.434  34.215  30.164  1.00  0.00    -0.200 F 
ENDBRANCH  29  53
BRANCH  41  64
ATOM     64  C   UNL A   1      43.500  34.445  32.791  1.00  0.00     0.064 A 
ATOM     65  C   UNL A   1      43.846  35.676  32.215  1.00  0.00     0.173 A 
ATOM     66  C   UNL A   1      43.478  34.350  34.190  1.00  0.00     0.173 A 
ATOM     67  F   UNL A   1      43.894  35.808  30.880  1.00  0.00    -0.203 F 
ATOM     68  C   UNL A   1      44.164  36.771  33.012  1.00  0.00     0.198 A 
ATOM     69  C   UNL A   1      43.765  35.456  34.982  1.00  0.00     0.198 A 
ATOM     70  F   UNL A   1      43.144  33.195  34.785  1.00  0.00    -0.203 F 
ATOM     71  F   UNL A   1      44.521  37.930  32.442  1.00  0.00    -0.200 F 
ATOM     72  C   UNL A   1      44.111  36.663  34.394  1.00  0.00     0.200 A 
ATOM     73  F   UNL A   1      43.694  35.357  36.317  1.00  0.00    -0.200 F 
ATOM     74  F   UNL A   1      44.392  37.727  35.159  1.00  0.00    -0.200 F 
ENDBRANCH  41  64
ENDBRANCH  15  16
ENDBRANCH   8  10
ENDBRANCH   7   8
ENDBRANCH   6   7
ENDBRANCH   5   6
ENDBRANCH   4   5
ENDBRANCH   3   4
ENDBRANCH   2   3
ENDBRANCH   1   2
BRANCH   1  75
ATOM     75  C   UNL A   1      32.583  25.390  21.985  1.00  0.00     0.202 C 
BRANCH  75  76
ATOM     76  C   UNL A   1      33.261  26.762  21.765  1.00  0.00     0.261 C 
BRANCH  76  77
ATOM     77  O   UNL A   1      32.764  27.881  22.553  1.00  0.00    -0.459 OA
BRANCH  77  78
ATOM     78  C   UNL A   1      33.601  28.328  23.524  1.00  0.00     0.368 C 
ATOM     79  O   UNL A   1      34.771  28.642  23.286  1.00  0.00    -0.245 OA
BRANCH  78  80
ATOM     80  C   UNL A   1      33.032  28.420  24.996  1.00  0.00     0.195 C 
ATOM     81  C   UNL A   1      33.737  27.291  25.790  1.00  0.00     0.081 C 
ATOM     82  C   UNL A   1      31.548  28.258  25.400  1.00  0.00     0.095 C 
ATOM     83  C   UNL A   1      33.174  25.913  25.394  1.00  0.00     0.008 C 
ATOM     84  C   UNL A   1      30.805  26.922  25.290  1.00  0.00     0.053 C 
ATOM     85  C   UNL A   1      31.682  25.732  25.673  1.00  0.00     0.015 C 
BRANCH  80  86
ATOM     86  N   UNL A   1      33.326  29.788  25.557  1.00  0.00    -0.330 N 
ATOM     87  H   UNL A   1      32.513  30.371  25.360  1.00  0.00     0.347 HD
ATOM     88  H   UNL A   1      34.201  30.053  25.105  1.00  0.00     0.347 HD
BRANCH  86  89
ATOM     89  C   UNL A   1      33.615  29.924  26.982  1.00  0.00     0.183 C 
ATOM     90  C   UNL A   1      34.867  30.644  27.404  1.00  0.00     0.071 C 
ATOM     91  C   UNL A   1      33.538  31.306  27.583  1.00  0.00     0.071 C 
ENDBRANCH  86  89
ENDBRANCH  80  86
BRANCH  84  92
ATOM     92  S   UNL A   1      29.400  26.508  24.160  1.00  0.00    -0.156 SA
BRANCH  92  93
ATOM     93  C   UNL A   1      29.503  27.657  22.771  1.00  0.00     0.104 C 
BRANCH  93  94
ATOM     94  C   UNL A   1      28.890  29.042  23.001  1.00  0.00     0.149 C 
BRANCH  94  95
ATOM     95  C   UNL A   1      29.593  30.152  22.237  1.00  0.00     0.188 C 
BRANCH  95  96
ATOM     96  O   UNL A   1      30.753  29.782  21.529  1.00  0.00    -0.394 OA
ATOM     97  H   UNL A   1      31.433  29.483  22.154  1.00  0.00     0.210 HD
ENDBRANCH  95  96
ENDBRANCH  94  95
BRANCH  94  98
ATOM     98  O   UNL A   1      27.544  28.966  22.569  1.00  0.00    -0.390 OA
ATOM     99  H   UNL A   1      27.213  28.063  22.700  1.00  0.00     0.211 HD
ENDBRANCH  94  98
ENDBRANCH  93  94
ENDBRANCH  92  93
ENDBRANCH  84  92
ENDBRANCH  78  80
ENDBRANCH  77  78
ENDBRANCH  76  77
ENDBRANCH  75  76
ENDBRANCH   1  75
TORSDOF 25
ENDMDL
MODEL 3
REMARK VINA RESULT:      -9.8      3.759      6.289
REMARK SMILES O=C(OCCOCCOCCOC(=O)[C@]1([NH2+]C2CC2)CCC[C@H](SC[C@H](O)CO)C1)c1ccc(-c2c3nc(c(-c4c(F)c(F)c(F)c(F)c4F)c4ccc([nH]4)c(-c4c(F)c(F)c(F)c(F)c4F)c4nc(c(-c5c(F)c(F)c(F)c(F)c5F)c5ccc2[nH]5)C=C4)C=C3)cc1
REMARK SMILES IDX 9 1 8 2 7 3 6 4 5 5 4 6 3 7 2 8 1 9 31 10 32 11 93 12 33 13
REMARK SMILES IDX 92 14 34 15 35 16 36 17 86 18 37 19 91 20 85 21 87 22 38 23
REMARK SMILES IDX 90 24 84 25 83 26 39 28 71 29 51 30 70 31 52 32 55 33 69 34
REMARK SMILES IDX 88 35 53 36 54 37 68 39 89 40 56 41 40 42 41 43 49 44 42 45
REMARK SMILES IDX 43 46 47 47 50 48 44 49 45 50 48 51 46 52 72 53 73 54 81 55
REMARK SMILES IDX 74 56 75 57 79 58 82 59 76 60 77 61 80 62 78 63 57 64 58 65
REMARK SMILES IDX 66 66 59 67 60 68 64 69 67 70 61 71 62 72 65 73 63 74 10 75
REMARK SMILES IDX 11 76 12 77 13 78 14 79 15 80 20 81 30 82 21 83 23 84 22 85
REMARK SMILES IDX 16 86 17 89 18 90 19 91 24 92 25 93 26 94 28 95 29 96 27 98
REMARK H PARENT 87 27 55 38 16 87 16 88 29 97 27 99
REMARK Flexibility Score: inf
ROOT
ATOM      1  O   UNL A   1      32.833  24.669  26.412  1.00  0.00    -0.376 OA
ENDROOT
BRANCH   1   2
ATOM      2  C   UNL A   1      31.976  25.793  26.195  1.00  0.00     0.188 C 
BRANCH   2   3
ATOM      3  C   UNL A   1      32.711  27.124  25.890  1.00  0.00     0.188 C 
BRANCH   3   4
ATOM      4  O   UNL A   1      31.789  28.214  25.899  1.00  0.00    -0.376 OA
BRANCH   4   5
ATOM      5  C   UNL A   1      31.775  29.087  27.024  1.00  0.00     0.202 C 
BRANCH   5   6
ATOM      6  C   UNL A   1      31.839  30.581  26.686  1.00  0.00     0.261 C 
BRANCH   6   7
ATOM      7  O   UNL A   1      33.211  31.005  26.604  1.00  0.00    -0.460 OA
BRANCH   7   8
ATOM      8  C   UNL A   1      33.607  31.979  27.456  1.00  0.00     0.338 C 
ATOM      9  O   UNL A   1      33.087  33.081  27.596  1.00  0.00    -0.246 OA
BRANCH   8  10
ATOM     10  C   UNL A   1      34.865  31.548  28.130  1.00  0.00     0.060 A 
ATOM     11  C   UNL A   1      35.077  30.192  28.417  1.00  0.00     0.016 A 
ATOM     12  C   UNL A   1      35.925  32.457  28.297  1.00  0.00     0.016 A 
ATOM     13  C   UNL A   1      36.340  29.738  28.790  1.00  0.00     0.010 A 
ATOM     14  C   UNL A   1      37.188  32.006  28.718  1.00  0.00     0.010 A 
ATOM     15  C   UNL A   1      37.403  30.641  28.954  1.00  0.00    -0.014 A 
BRANCH  15  16
ATOM     16  C   UNL A   1      38.621  30.128  29.628  1.00  0.00     0.031 A 
ATOM     17  C   UNL A   1      38.764  30.497  31.071  1.00  0.00     0.074 A 
ATOM     18  C   UNL A   1      39.537  29.342  29.031  1.00  0.00     0.049 A 
ATOM     19  N   UNL A   1      39.667  30.130  31.936  1.00  0.00    -0.248 NA
ATOM     20  C   UNL A   1      37.756  31.434  31.603  1.00  0.00     0.031 C 
ATOM     21  C   UNL A   1      39.537  28.991  27.620  1.00  0.00     0.029 A 
ATOM     22  N   UNL A   1      40.636  28.678  29.532  1.00  0.00    -0.354 N 
ATOM     23  C   UNL A   1      39.365  30.829  33.093  1.00  0.00     0.074 A 
ATOM     24  C   UNL A   1      38.164  31.591  32.848  1.00  0.00     0.031 C 
ATOM     25  C   UNL A   1      40.533  28.120  27.384  1.00  0.00     0.029 A 
ATOM     26  C   UNL A   1      41.265  27.862  28.615  1.00  0.00     0.049 A 
ATOM     27  H   UNL A   1      40.944  28.778  30.462  1.00  0.00     0.167 HD
ATOM     28  C   UNL A   1      40.077  30.889  34.237  1.00  0.00     0.037 A 
ATOM     29  C   UNL A   1      42.308  27.014  28.756  1.00  0.00     0.037 A 
ATOM     30  C   UNL A   1      41.313  30.193  34.438  1.00  0.00     0.049 A 
ATOM     31  C   UNL A   1      43.043  27.046  30.078  1.00  0.00     0.074 A 
ATOM     32  C   UNL A   1      42.147  30.230  35.535  1.00  0.00     0.029 A 
ATOM     33  N   UNL A   1      41.903  29.358  33.500  1.00  0.00    -0.354 N 
ATOM     34  N   UNL A   1      42.735  27.689  31.178  1.00  0.00    -0.248 NA
ATOM     35  C   UNL A   1      44.314  26.307  30.155  1.00  0.00     0.031 C 
ATOM     36  C   UNL A   1      43.278  29.465  35.238  1.00  0.00     0.029 A 
ATOM     37  C   UNL A   1      43.113  28.896  33.982  1.00  0.00     0.049 A 
ATOM     38  H   UNL A   1      41.519  29.128  32.623  1.00  0.00     0.167 HD
ATOM     39  C   UNL A   1      43.783  27.469  32.058  1.00  0.00     0.074 A 
ATOM     40  C   UNL A   1      44.702  26.567  31.396  1.00  0.00     0.031 C 
ATOM     41  C   UNL A   1      43.999  28.000  33.286  1.00  0.00     0.037 A 
BRANCH  28  42
ATOM     42  C   UNL A   1      39.590  31.853  35.271  1.00  0.00     0.064 A 
ATOM     43  C   UNL A   1      40.038  33.180  35.323  1.00  0.00     0.173 A 
ATOM     44  C   UNL A   1      38.710  31.410  36.270  1.00  0.00     0.173 A 
ATOM     45  F   UNL A   1      40.921  33.630  34.418  1.00  0.00    -0.203 F 
ATOM     46  C   UNL A   1      39.640  34.024  36.356  1.00  0.00     0.198 A 
ATOM     47  C   UNL A   1      38.292  32.265  37.283  1.00  0.00     0.198 A 
ATOM     48  F   UNL A   1      38.279  30.140  36.278  1.00  0.00    -0.203 F 
ATOM     49  F   UNL A   1      40.134  35.268  36.428  1.00  0.00    -0.200 F 
ATOM     50  C   UNL A   1      38.763  33.568  37.329  1.00  0.00     0.200 A 
ATOM     51  F   UNL A   1      37.449  31.822  38.225  1.00  0.00    -0.200 F 
ATOM     52  F   UNL A   1      38.387  34.381  38.327  1.00  0.00    -0.200 F 
ENDBRANCH  28  42
BRANCH  29  53
ATOM     53  C   UNL A   1      42.786  26.116  27.651  1.00  0.00     0.064 A 
ATOM     54  C   UNL A   1      43.779  26.544  26.747  1.00  0.00     0.173 A 
ATOM     55  C   UNL A   1      42.228  24.851  27.413  1.00  0.00     0.173 A 
ATOM     56  F   UNL A   1      44.337  27.755  26.889  1.00  0.00    -0.203 F 
ATOM     57  C   UNL A   1      44.161  25.765  25.652  1.00  0.00     0.198 A 
ATOM     58  C   UNL A   1      42.652  24.048  26.352  1.00  0.00     0.198 A 
ATOM     59  F   UNL A   1      41.259  24.380  28.212  1.00  0.00    -0.203 F 
ATOM     60  F   UNL A   1      45.047  26.242  24.766  1.00  0.00    -0.200 F 
ATOM     61  C   UNL A   1      43.604  24.512  25.461  1.00  0.00     0.200 A 
ATOM     62  F   UNL A   1      42.124  22.827  26.190  1.00  0.00    -0.200 F 
ATOM     63  F   UNL A   1      43.971  23.760  24.413  1.00  0.00    -0.200 F 
ENDBRANCH  29  53
BRANCH  41  64
ATOM     64  C   UNL A   1      45.280  27.641  33.974  1.00  0.00     0.064 A 
ATOM     65  C   UNL A   1      45.374  26.503  34.788  1.00  0.00     0.173 A 
ATOM     66  C   UNL A   1      46.443  28.387  33.740  1.00  0.00     0.173 A 
ATOM     67  F   UNL A   1      44.283  25.767  35.050  1.00  0.00    -0.203 F 
ATOM     68  C   UNL A   1      46.589  26.128  35.350  1.00  0.00     0.198 A 
ATOM     69  C   UNL A   1      47.663  27.990  34.278  1.00  0.00     0.198 A 
ATOM     70  F   UNL A   1      46.402  29.478  32.961  1.00  0.00    -0.203 F 
ATOM     71  F   UNL A   1      46.653  25.053  36.148  1.00  0.00    -0.200 F 
ATOM     72  C   UNL A   1      47.734  26.864  35.084  1.00  0.00     0.200 A 
ATOM     73  F   UNL A   1      48.772  28.691  34.004  1.00  0.00    -0.200 F 
ATOM     74  F   UNL A   1      48.910  26.487  35.606  1.00  0.00    -0.200 F 
ENDBRANCH  41  64
ENDBRANCH  15  16
ENDBRANCH   8  10
ENDBRANCH   7   8
ENDBRANCH   6   7
ENDBRANCH   5   6
ENDBRANCH   4   5
ENDBRANCH   3   4
ENDBRANCH   2   3
ENDBRANCH   1   2
BRANCH   1  75
ATOM     75  C   UNL A   1      32.329  23.643  27.264  1.00  0.00     0.202 C 
BRANCH  75  76
ATOM     76  C   UNL A   1      31.047  22.921  26.789  1.00  0.00     0.261 C 
BRANCH  76  77
ATOM     77  O   UNL A   1      31.195  21.943  25.720  1.00  0.00    -0.459 OA
BRANCH  77  78
ATOM     78  C   UNL A   1      31.572  22.445  24.517  1.00  0.00     0.368 C 
ATOM     79  O   UNL A   1      30.875  23.255  23.899  1.00  0.00    -0.245 OA
BRANCH  78  80
ATOM     80  C   UNL A   1      32.942  21.942  23.910  1.00  0.00     0.195 C 
ATOM     81  C   UNL A   1      32.625  21.514  22.454  1.00  0.00     0.081 C 
ATOM     82  C   UNL A   1      33.786  20.763  24.445  1.00  0.00     0.095 C 
ATOM     83  C   UNL A   1      31.845  20.186  22.435  1.00  0.00     0.008 C 
ATOM     84  C   UNL A   1      33.315  19.306  24.360  1.00  0.00     0.053 C 
ATOM     85  C   UNL A   1      32.591  19.002  23.051  1.00  0.00     0.015 C 
BRANCH  80  86
ATOM     86  N   UNL A   1      33.952  23.059  23.973  1.00  0.00    -0.330 N 
ATOM     87  H   UNL A   1      33.574  23.767  24.603  1.00  0.00     0.347 HD
ATOM     88  H   UNL A   1      34.074  23.332  22.998  1.00  0.00     0.347 HD
BRANCH  86  89
ATOM     89  C   UNL A   1      35.309  22.766  24.425  1.00  0.00     0.183 C 
ATOM     90  C   UNL A   1      36.460  23.506  23.799  1.00  0.00     0.071 C 
ATOM     91  C   UNL A   1      36.038  23.839  25.196  1.00  0.00     0.071 C 
ENDBRANCH  86  89
ENDBRANCH  80  86
BRANCH  84  92
ATOM     92  S   UNL A   1      32.868  18.187  25.764  1.00  0.00    -0.156 SA
BRANCH  92  93
ATOM     93  C   UNL A   1      32.269  16.651  25.025  1.00  0.00     0.104 C 
BRANCH  93  94
ATOM     94  C   UNL A   1      33.338  15.606  24.694  1.00  0.00     0.149 C 
BRANCH  94  95
ATOM     95  C   UNL A   1      34.760  16.125  24.831  1.00  0.00     0.188 C 
BRANCH  95  96
ATOM     96  O   UNL A   1      35.699  15.231  25.380  1.00  0.00    -0.394 OA
ATOM     97  H   UNL A   1      35.236  14.550  25.894  1.00  0.00     0.210 HD
ENDBRANCH  95  96
ENDBRANCH  94  95
BRANCH  94  98
ATOM     98  O   UNL A   1      33.149  14.534  25.601  1.00  0.00    -0.390 OA
ATOM     99  H   UNL A   1      33.574  13.735  25.250  1.00  0.00     0.211 HD
ENDBRANCH  94  98
ENDBRANCH  93  94
ENDBRANCH  92  93
ENDBRANCH  84  92
ENDBRANCH  78  80
ENDBRANCH  77  78
ENDBRANCH  76  77
ENDBRANCH  75  76
ENDBRANCH   1  75
TORSDOF 25
ENDMDL
