MODEL 1
REMARK VINA RESULT:     -13.4      0.000      0.000
REMARK SMILES Cc1ccc(-c2nc(NC(=O)[C@H]3[C@@H](C(=O)OCCOCCOCCOC(=O)c4ccc(-c5c6nc(c(-c7c(F)c(F)c(F)c(F)c7F)c7ccc([nH]7)c(-c7c(F)c(F)c(F)c(F)c7F)c7nc(c(-c8c(F)c(F)c(F)c(F)c8F)c8ccc5[nH]8)C=C7)C=C6)cc4)[C@@H]4CC[C@H]3O4)sc2C)cc1
REMARK SMILES IDX 20 1 19 2 18 3 17 4 16 5 14 6 15 7 13 8 12 9 94 10 91 11
REMARK SMILES IDX 93 12 95 13 92 14 10 15 9 16 11 18 8 19 6 20 7 21 97 22
REMARK SMILES IDX 96 23 98 24 5 25 1 26 2 27 3 28 100 29 4 30 99 31 21 32
REMARK SMILES IDX 22 33 23 34 24 35 25 36 26 37 27 38 28 39 29 40 90 41 30 42
REMARK SMILES IDX 89 43 31 44 32 45 33 46 83 47 34 48 88 49 82 50 84 51 35 52
REMARK SMILES IDX 87 53 81 54 80 55 36 57 68 58 48 59 67 60 49 61 52 62 66 63
REMARK SMILES IDX 85 64 50 65 51 66 65 68 86 69 53 70 37 71 38 72 46 73 39 74
REMARK SMILES IDX 40 75 44 76 47 77 41 78 42 79 45 80 43 81 69 82 70 83 78 84
REMARK SMILES IDX 71 85 72 86 76 87 79 88 73 89 74 90 77 91 75 92 54 93 55 94
REMARK SMILES IDX 63 95 56 96 57 97 61 98 64 99 58 100 59 101 62 102 60 103
REMARK H PARENT 9 17 84 56 52 67
REMARK Flexibility Score: inf
ROOT
ATOM      1  C   UNL A   1      38.611  22.105  26.145  1.00  0.00     0.188 C 
ENDROOT
BRANCH   1   2
ATOM      2  O   UNL A   1      37.641  23.143  26.304  1.00  0.00    -0.376 OA
BRANCH   2   3
ATOM      3  C   UNL A   1      36.978  23.711  25.176  1.00  0.00     0.202 C 
BRANCH   3   4
ATOM      4  C   UNL A   1      35.552  24.307  25.386  1.00  0.00     0.261 C 
BRANCH   4   5
ATOM      5  O   UNL A   1      34.736  25.056  24.367  1.00  0.00    -0.463 OA
BRANCH   5   6
ATOM      6  C   UNL A   1      33.963  26.175  24.338  1.00  0.00     0.312 C 
ATOM      7  O   UNL A   1      33.570  26.934  23.459  1.00  0.00    -0.252 OA
BRANCH   6   8
ATOM      8  C   UNL A   1      33.660  26.706  25.641  1.00  0.00     0.143 C 
ATOM      9  C   UNL A   1      32.336  26.284  26.267  1.00  0.00     0.124 C 
ATOM     10  C   UNL A   1      31.891  27.812  26.397  1.00  0.00     0.132 C 
ATOM     11  C   UNL A   1      33.696  28.191  25.277  1.00  0.00     0.133 C 
ATOM     12  C   UNL A   1      32.838  28.687  27.335  1.00  0.00     0.035 C 
ATOM     13  O   UNL A   1      32.291  28.423  25.136  1.00  0.00    -0.373 OA
ATOM     14  C   UNL A   1      34.094  28.961  26.501  1.00  0.00     0.036 C 
BRANCH   9  15
ATOM     15  C   UNL A   1      31.311  25.124  25.487  1.00  0.00     0.232 C 
ATOM     16  N   UNL A   1      31.092  23.726  25.852  1.00  0.00    -0.302 N 
ATOM     17  H   UNL A   1      30.508  23.608  26.637  1.00  0.00     0.172 HD
ATOM     18  O   UNL A   1      30.518  25.570  24.641  1.00  0.00    -0.274 OA
BRANCH  16  19
ATOM     19  C   UNL A   1      31.581  22.436  25.265  1.00  0.00     0.190 A 
ATOM     20  C   UNL A   1      32.265  20.258  24.576  1.00  0.00     0.086 A 
ATOM     21  N   UNL A   1      31.791  21.146  25.690  1.00  0.00    -0.220 NA
ATOM     22  C   UNL A   1      32.144  20.976  23.413  1.00  0.00     0.031 A 
ATOM     23  S   UNL A   1      32.324  22.626  23.764  1.00  0.00    -0.101 S 
ATOM     24  C   UNL A   1      31.941  20.447  22.057  1.00  0.00     0.059 C 
BRANCH  20  25
ATOM     25  C   UNL A   1      32.628  18.758  24.315  1.00  0.00     0.001 A 
ATOM     26  C   UNL A   1      35.094  15.110  25.019  1.00  0.00     0.044 C 
ATOM     27  C   UNL A   1      34.153  16.256  24.708  1.00  0.00    -0.051 A 
ATOM     28  C   UNL A   1      34.235  17.023  23.530  1.00  0.00     0.004 A 
ATOM     29  C   UNL A   1      33.209  16.667  25.637  1.00  0.00     0.004 A 
ATOM     30  C   UNL A   1      33.517  18.269  23.348  1.00  0.00     0.010 A 
ATOM     31  C   UNL A   1      32.413  17.827  25.400  1.00  0.00     0.010 A 
ENDBRANCH  20  25
ENDBRANCH  16  19
ENDBRANCH   9  15
ENDBRANCH   6   8
ENDBRANCH   5   6
ENDBRANCH   4   5
ENDBRANCH   3   4
ENDBRANCH   2   3
ENDBRANCH   1   2
BRANCH   1  32
ATOM     32  C   UNL A   1      40.017  22.313  26.715  1.00  0.00     0.188 C 
BRANCH  32  33
ATOM     33  O   UNL A   1      40.497  21.050  27.143  1.00  0.00    -0.376 OA
BRANCH  33  34
ATOM     34  C   UNL A   1      40.573  20.028  26.167  1.00  0.00     0.202 C 
BRANCH  34  35
ATOM     35  C   UNL A   1      41.899  19.263  26.300  1.00  0.00     0.261 C 
BRANCH  35  36
ATOM     36  O   UNL A   1      42.570  19.198  25.007  1.00  0.00    -0.460 OA
BRANCH  36  37
ATOM     37  C   UNL A   1      43.951  19.241  24.971  1.00  0.00     0.338 C 
ATOM     38  O   UNL A   1      44.673  18.273  25.080  1.00  0.00    -0.246 OA
BRANCH  37  39
ATOM     39  C   UNL A   1      44.451  20.679  25.046  1.00  0.00     0.060 A 
ATOM     40  C   UNL A   1      45.608  21.177  25.690  1.00  0.00     0.016 A 
ATOM     41  C   UNL A   1      43.504  21.612  24.823  1.00  0.00     0.016 A 
ATOM     42  C   UNL A   1      45.729  22.581  26.173  1.00  0.00     0.010 A 
ATOM     43  C   UNL A   1      43.577  22.730  25.658  1.00  0.00     0.010 A 
ATOM     44  C   UNL A   1      44.647  23.460  26.220  1.00  0.00    -0.014 A 
BRANCH  44  45
ATOM     45  C   UNL A   1      44.437  24.943  27.062  1.00  0.00     0.031 A 
ATOM     46  C   UNL A   1      43.093  26.149  27.247  1.00  0.00     0.074 A 
ATOM     47  C   UNL A   1      45.406  24.870  28.006  1.00  0.00     0.049 A 
ATOM     48  N   UNL A   1      43.065  27.489  27.472  1.00  0.00    -0.248 NA
ATOM     49  C   UNL A   1      41.646  25.850  27.178  1.00  0.00     0.031 C 
ATOM     50  C   UNL A   1      45.456  25.256  29.392  1.00  0.00     0.029 A 
ATOM     51  N   UNL A   1      46.765  24.763  27.708  1.00  0.00    -0.354 N 
ATOM     52  C   UNL A   1      41.653  27.925  27.676  1.00  0.00     0.074 A 
ATOM     53  C   UNL A   1      40.939  26.951  26.946  1.00  0.00     0.031 C 
ATOM     54  C   UNL A   1      46.609  25.867  29.669  1.00  0.00     0.029 A 
ATOM     55  C   UNL A   1      47.380  25.786  28.480  1.00  0.00     0.049 A 
ATOM     56  H   UNL A   1      47.200  24.122  27.100  1.00  0.00     0.167 HD
ATOM     57  C   UNL A   1      41.082  28.788  28.642  1.00  0.00     0.037 A 
ATOM     58  C   UNL A   1      48.099  26.762  27.892  1.00  0.00     0.037 A 
ATOM     59  C   UNL A   1      42.086  29.592  29.333  1.00  0.00     0.049 A 
ATOM     60  C   UNL A   1      47.495  28.172  27.929  1.00  0.00     0.074 A 
ATOM     61  C   UNL A   1      42.344  30.060  30.626  1.00  0.00     0.029 A 
ATOM     62  N   UNL A   1      43.228  29.859  28.624  1.00  0.00    -0.354 N 
ATOM     63  N   UNL A   1      46.518  28.677  28.662  1.00  0.00    -0.248 NA
ATOM     64  C   UNL A   1      48.017  29.132  26.959  1.00  0.00     0.031 C 
ATOM     65  C   UNL A   1      43.692  30.553  30.670  1.00  0.00     0.029 A 
ATOM     66  C   UNL A   1      44.215  30.400  29.404  1.00  0.00     0.049 A 
ATOM     67  H   UNL A   1      43.328  29.684  27.660  1.00  0.00     0.167 HD
ATOM     68  C   UNL A   1      46.284  29.998  28.229  1.00  0.00     0.074 A 
ATOM     69  C   UNL A   1      47.235  30.194  27.155  1.00  0.00     0.031 C 
ATOM     70  C   UNL A   1      45.314  30.891  28.636  1.00  0.00     0.037 A 
BRANCH  57  71
ATOM     71  C   UNL A   1      39.548  28.779  29.272  1.00  0.00     0.064 A 
ATOM     72  C   UNL A   1      38.476  29.432  28.582  1.00  0.00     0.173 A 
ATOM     73  C   UNL A   1      39.140  28.406  30.587  1.00  0.00     0.173 A 
ATOM     74  F   UNL A   1      38.555  29.710  27.276  1.00  0.00    -0.203 F 
ATOM     75  C   UNL A   1      37.249  29.818  29.181  1.00  0.00     0.198 A 
ATOM     76  C   UNL A   1      37.879  28.720  31.157  1.00  0.00     0.198 A 
ATOM     77  F   UNL A   1      39.947  27.800  31.458  1.00  0.00    -0.203 F 
ATOM     78  F   UNL A   1      36.364  30.553  28.488  1.00  0.00    -0.200 F 
ATOM     79  C   UNL A   1      36.953  29.467  30.475  1.00  0.00     0.200 A 
ATOM     80  F   UNL A   1      37.609  28.331  32.414  1.00  0.00    -0.200 F 
ATOM     81  F   UNL A   1      35.799  29.832  31.051  1.00  0.00    -0.200 F 
ENDBRANCH  57  71
BRANCH  58  82
ATOM     82  C   UNL A   1      48.945  26.078  26.849  1.00  0.00     0.064 A 
ATOM     83  C   UNL A   1      48.500  26.274  25.509  1.00  0.00     0.173 A 
ATOM     84  C   UNL A   1      50.319  25.898  27.044  1.00  0.00     0.173 A 
ATOM     85  F   UNL A   1      47.194  26.480  25.264  1.00  0.00    -0.203 F 
ATOM     86  C   UNL A   1      49.403  26.544  24.481  1.00  0.00     0.198 A 
ATOM     87  C   UNL A   1      51.215  26.093  25.985  1.00  0.00     0.198 A 
ATOM     88  F   UNL A   1      50.810  25.732  28.279  1.00  0.00    -0.203 F 
ATOM     89  F   UNL A   1      48.956  27.001  23.302  1.00  0.00    -0.200 F 
ATOM     90  C   UNL A   1      50.761  26.489  24.732  1.00  0.00     0.200 A 
ATOM     91  F   UNL A   1      52.534  26.059  26.220  1.00  0.00    -0.200 F 
ATOM     92  F   UNL A   1      51.631  26.898  23.797  1.00  0.00    -0.200 F 
ENDBRANCH  58  82
BRANCH  70  93
ATOM     93  C   UNL A   1      45.080  32.305  28.084  1.00  0.00     0.064 A 
ATOM     94  C   UNL A   1      45.462  33.461  28.764  1.00  0.00     0.173 A 
ATOM     95  C   UNL A   1      44.407  32.541  26.842  1.00  0.00     0.173 A 
ATOM     96  F   UNL A   1      45.917  33.394  30.022  1.00  0.00    -0.203 F 
ATOM     97  C   UNL A   1      45.365  34.726  28.174  1.00  0.00     0.198 A 
ATOM     98  C   UNL A   1      44.283  33.801  26.272  1.00  0.00     0.198 A 
ATOM     99  F   UNL A   1      43.831  31.569  26.125  1.00  0.00    -0.203 F 
ATOM    100  F   UNL A   1      45.833  35.794  28.832  1.00  0.00    -0.200 F 
ATOM    101  C   UNL A   1      44.800  34.893  26.921  1.00  0.00     0.200 A 
ATOM    102  F   UNL A   1      43.667  33.937  25.087  1.00  0.00    -0.200 F 
ATOM    103  F   UNL A   1      44.734  36.102  26.353  1.00  0.00    -0.200 F 
ENDBRANCH  70  93
ENDBRANCH  44  45
ENDBRANCH  37  39
ENDBRANCH  36  37
ENDBRANCH  35  36
ENDBRANCH  34  35
ENDBRANCH  33  34
ENDBRANCH  32  33
ENDBRANCH   1  32
TORSDOF 20
ENDMDL
MODEL 2
REMARK VINA RESULT:     -13.2      1.960      2.848
REMARK SMILES Cc1ccc(-c2nc(NC(=O)[C@H]3[C@@H](C(=O)OCCOCCOCCOC(=O)c4ccc(-c5c6nc(c(-c7c(F)c(F)c(F)c(F)c7F)c7ccc([nH]7)c(-c7c(F)c(F)c(F)c(F)c7F)c7nc(c(-c8c(F)c(F)c(F)c(F)c8F)c8ccc5[nH]8)C=C7)C=C6)cc4)[C@@H]4CC[C@H]3O4)sc2C)cc1
REMARK SMILES IDX 20 1 19 2 18 3 17 4 16 5 14 6 15 7 13 8 12 9 94 10 91 11
REMARK SMILES IDX 93 12 95 13 92 14 10 15 9 16 11 18 8 19 6 20 7 21 97 22
REMARK SMILES IDX 96 23 98 24 5 25 1 26 2 27 3 28 100 29 4 30 99 31 21 32
REMARK SMILES IDX 22 33 23 34 24 35 25 36 26 37 27 38 28 39 29 40 90 41 30 42
REMARK SMILES IDX 89 43 31 44 32 45 33 46 83 47 34 48 88 49 82 50 84 51 35 52
REMARK SMILES IDX 87 53 81 54 80 55 36 57 68 58 48 59 67 60 49 61 52 62 66 63
REMARK SMILES IDX 85 64 50 65 51 66 65 68 86 69 53 70 37 71 38 72 46 73 39 74
REMARK SMILES IDX 40 75 44 76 47 77 41 78 42 79 45 80 43 81 69 82 70 83 78 84
REMARK SMILES IDX 71 85 72 86 76 87 79 88 73 89 74 90 77 91 75 92 54 93 55 94
REMARK SMILES IDX 63 95 56 96 57 97 61 98 64 99 58 100 59 101 62 102 60 103
REMARK H PARENT 9 17 84 56 52 67
REMARK Flexibility Score: inf
ROOT
ATOM      1  C   UNL A   1      35.561  23.745  24.909  1.00  0.00     0.188 C 
ENDROOT
BRANCH   1   2
ATOM      2  O   UNL A   1      34.602  24.778  24.667  1.00  0.00    -0.376 OA
BRANCH   2   3
ATOM      3  C   UNL A   1      33.985  25.478  25.745  1.00  0.00     0.202 C 
BRANCH   3   4
ATOM      4  C   UNL A   1      33.670  26.993  25.552  1.00  0.00     0.261 C 
BRANCH   4   5
ATOM      5  O   UNL A   1      32.387  27.581  25.028  1.00  0.00    -0.463 OA
BRANCH   5   6
ATOM      6  C   UNL A   1      31.083  27.202  24.936  1.00  0.00     0.312 C 
ATOM      7  O   UNL A   1      30.379  26.375  25.505  1.00  0.00    -0.252 OA
BRANCH   6   8
ATOM      8  C   UNL A   1      30.392  27.768  23.808  1.00  0.00     0.143 C 
ATOM      9  C   UNL A   1      30.878  27.357  22.424  1.00  0.00     0.124 C 
ATOM     10  C   UNL A   1      31.139  28.886  22.042  1.00  0.00     0.132 C 
ATOM     11  C   UNL A   1      30.659  29.243  24.115  1.00  0.00     0.133 C 
ATOM     12  C   UNL A   1      29.828  29.792  22.060  1.00  0.00     0.035 C 
ATOM     13  O   UNL A   1      31.760  29.462  23.228  1.00  0.00    -0.373 OA
ATOM     14  C   UNL A   1      29.533  30.050  23.542  1.00  0.00     0.036 C 
BRANCH   9  15
ATOM     15  C   UNL A   1      32.126  26.169  22.233  1.00  0.00     0.232 C 
ATOM     16  N   UNL A   1      31.977  24.737  21.982  1.00  0.00    -0.302 N 
ATOM     17  H   UNL A   1      31.729  24.522  21.054  1.00  0.00     0.172 HD
ATOM     18  O   UNL A   1      33.283  26.602  22.098  1.00  0.00    -0.274 OA
BRANCH  16  19
ATOM     19  C   UNL A   1      32.128  23.532  22.861  1.00  0.00     0.190 A 
ATOM     20  C   UNL A   1      32.572  21.526  24.072  1.00  0.00     0.086 A 
ATOM     21  N   UNL A   1      32.756  22.311  22.805  1.00  0.00    -0.220 NA
ATOM     22  C   UNL A   1      31.995  22.372  24.986  1.00  0.00     0.031 A 
ATOM     23  S   UNL A   1      31.053  23.516  24.160  1.00  0.00    -0.101 S 
ATOM     24  C   UNL A   1      32.107  22.308  26.450  1.00  0.00     0.059 C 
BRANCH  20  25
ATOM     25  C   UNL A   1      33.018  20.170  24.713  1.00  0.00     0.001 A 
ATOM     26  C   UNL A   1      34.693  16.044  24.465  1.00  0.00     0.044 C 
ATOM     27  C   UNL A   1      34.146  17.437  24.704  1.00  0.00    -0.051 A 
ATOM     28  C   UNL A   1      32.783  17.700  24.940  1.00  0.00     0.004 A 
ATOM     29  C   UNL A   1      34.971  18.547  24.604  1.00  0.00     0.004 A 
ATOM     30  C   UNL A   1      32.220  19.035  24.909  1.00  0.00     0.010 A 
ATOM     31  C   UNL A   1      34.431  19.865  24.699  1.00  0.00     0.010 A 
ENDBRANCH  20  25
ENDBRANCH  16  19
ENDBRANCH   9  15
ENDBRANCH   6   8
ENDBRANCH   5   6
ENDBRANCH   4   5
ENDBRANCH   3   4
ENDBRANCH   2   3
ENDBRANCH   1   2
BRANCH   1  32
ATOM     32  C   UNL A   1      36.324  23.151  23.722  1.00  0.00     0.188 C 
BRANCH  32  33
ATOM     33  O   UNL A   1      37.200  22.158  24.228  1.00  0.00    -0.376 OA
BRANCH  33  34
ATOM     34  C   UNL A   1      37.195  21.952  25.628  1.00  0.00     0.202 C 
BRANCH  34  35
ATOM     35  C   UNL A   1      38.615  22.115  26.195  1.00  0.00     0.261 C 
BRANCH  35  36
ATOM     36  O   UNL A   1      39.566  21.369  25.379  1.00  0.00    -0.460 OA
BRANCH  36  37
ATOM     37  C   UNL A   1      40.564  20.651  26.011  1.00  0.00     0.338 C 
ATOM     38  O   UNL A   1      40.568  19.445  26.139  1.00  0.00    -0.246 OA
BRANCH  37  39
ATOM     39  C   UNL A   1      41.514  21.583  26.755  1.00  0.00     0.060 A 
ATOM     40  C   UNL A   1      41.734  21.687  28.149  1.00  0.00     0.016 A 
ATOM     41  C   UNL A   1      41.884  22.675  26.059  1.00  0.00     0.016 A 
ATOM     42  C   UNL A   1      42.230  22.931  28.802  1.00  0.00     0.010 A 
ATOM     43  C   UNL A   1      41.940  23.854  26.807  1.00  0.00     0.010 A 
ATOM     44  C   UNL A   1      42.323  24.150  28.132  1.00  0.00    -0.014 A 
BRANCH  44  45
ATOM     45  C   UNL A   1      42.484  25.753  28.731  1.00  0.00     0.031 A 
ATOM     46  C   UNL A   1      41.423  27.225  28.797  1.00  0.00     0.074 A 
ATOM     47  C   UNL A   1      43.504  25.622  29.613  1.00  0.00     0.049 A 
ATOM     48  N   UNL A   1      41.677  28.560  28.800  1.00  0.00    -0.248 NA
ATOM     49  C   UNL A   1      39.945  27.223  28.867  1.00  0.00     0.031 C 
ATOM     50  C   UNL A   1      43.757  26.192  30.912  1.00  0.00     0.029 A 
ATOM     51  N   UNL A   1      44.783  25.194  29.255  1.00  0.00    -0.354 N 
ATOM     52  C   UNL A   1      40.402  29.303  29.015  1.00  0.00     0.074 A 
ATOM     53  C   UNL A   1      39.448  28.400  28.501  1.00  0.00     0.031 C 
ATOM     54  C   UNL A   1      45.027  26.586  31.013  1.00  0.00     0.029 A 
ATOM     55  C   UNL A   1      45.654  26.172  29.809  1.00  0.00     0.049 A 
ATOM     56  H   UNL A   1      45.027  24.395  28.734  1.00  0.00     0.167 HD
ATOM     57  C   UNL A   1      40.101  30.398  29.860  1.00  0.00     0.037 A 
ATOM     58  C   UNL A   1      46.490  26.880  29.025  1.00  0.00     0.037 A 
ATOM     59  C   UNL A   1      41.302  31.071  30.347  1.00  0.00     0.049 A 
ATOM     60  C   UNL A   1      46.178  28.374  28.868  1.00  0.00     0.074 A 
ATOM     61  C   UNL A   1      41.765  31.663  31.527  1.00  0.00     0.029 A 
ATOM     62  N   UNL A   1      42.403  30.989  29.535  1.00  0.00    -0.354 N 
ATOM     63  N   UNL A   1      45.390  29.173  29.566  1.00  0.00    -0.248 NA
ATOM     64  C   UNL A   1      46.784  29.051  27.723  1.00  0.00     0.031 C 
ATOM     65  C   UNL A   1      43.181  31.868  31.408  1.00  0.00     0.029 A 
ATOM     66  C   UNL A   1      43.544  31.424  30.154  1.00  0.00     0.049 A 
ATOM     67  H   UNL A   1      42.377  30.656  28.609  1.00  0.00     0.167 HD
ATOM     68  C   UNL A   1      45.378  30.434  28.937  1.00  0.00     0.074 A 
ATOM     69  C   UNL A   1      46.244  30.268  27.789  1.00  0.00     0.031 C 
ATOM     70  C   UNL A   1      44.641  31.559  29.251  1.00  0.00     0.037 A 
BRANCH  57  71
ATOM     71  C   UNL A   1      38.660  30.801  30.575  1.00  0.00     0.064 A 
ATOM     72  C   UNL A   1      37.648  31.492  29.833  1.00  0.00     0.173 A 
ATOM     73  C   UNL A   1      38.331  30.777  31.963  1.00  0.00     0.173 A 
ATOM     74  F   UNL A   1      37.640  31.488  28.496  1.00  0.00    -0.203 F 
ATOM     75  C   UNL A   1      36.572  32.210  30.414  1.00  0.00     0.198 A 
ATOM     76  C   UNL A   1      37.206  31.426  32.534  1.00  0.00     0.198 A 
ATOM     77  F   UNL A   1      39.108  30.214  32.889  1.00  0.00    -0.203 F 
ATOM     78  F   UNL A   1      35.758  32.946  29.640  1.00  0.00    -0.200 F 
ATOM     79  C   UNL A   1      36.354  32.183  31.770  1.00  0.00     0.200 A 
ATOM     80  F   UNL A   1      37.003  31.350  33.860  1.00  0.00    -0.200 F 
ATOM     81  F   UNL A   1      35.343  32.863  32.329  1.00  0.00    -0.200 F 
ENDBRANCH  57  71
BRANCH  58  82
ATOM     82  C   UNL A   1      47.087  25.889  28.059  1.00  0.00     0.064 A 
ATOM     83  C   UNL A   1      46.599  26.001  26.724  1.00  0.00     0.173 A 
ATOM     84  C   UNL A   1      48.398  25.428  28.222  1.00  0.00     0.173 A 
ATOM     85  F   UNL A   1      45.356  26.465  26.507  1.00  0.00    -0.203 F 
ATOM     86  C   UNL A   1      47.462  25.920  25.632  1.00  0.00     0.198 A 
ATOM     87  C   UNL A   1      49.235  25.272  27.110  1.00  0.00     0.198 A 
ATOM     88  F   UNL A   1      48.930  25.320  29.447  1.00  0.00    -0.203 F 
ATOM     89  F   UNL A   1      47.042  26.307  24.419  1.00  0.00    -0.200 F 
ATOM     90  C   UNL A   1      48.789  25.590  25.832  1.00  0.00     0.200 A 
ATOM     91  F   UNL A   1      50.529  24.969  27.292  1.00  0.00    -0.200 F 
ATOM     92  F   UNL A   1      49.658  25.663  24.813  1.00  0.00    -0.200 F 
ENDBRANCH  58  82
BRANCH  70  93
ATOM     93  C   UNL A   1      44.637  32.892  28.489  1.00  0.00     0.064 A 
ATOM     94  C   UNL A   1      45.009  34.103  29.071  1.00  0.00     0.173 A 
ATOM     95  C   UNL A   1      44.203  32.996  27.128  1.00  0.00     0.173 A 
ATOM     96  F   UNL A   1      45.241  34.185  30.388  1.00  0.00    -0.203 F 
ATOM     97  C   UNL A   1      45.130  35.274  28.316  1.00  0.00     0.198 A 
ATOM     98  C   UNL A   1      44.293  34.167  26.388  1.00  0.00     0.198 A 
ATOM     99  F   UNL A   1      43.663  31.974  26.451  1.00  0.00    -0.203 F 
ATOM    100  F   UNL A   1      45.581  36.390  28.903  1.00  0.00    -0.200 F 
ATOM    101  C   UNL A   1      44.797  35.301  26.972  1.00  0.00     0.200 A 
ATOM    102  F   UNL A   1      43.897  34.176  25.106  1.00  0.00    -0.200 F 
ATOM    103  F   UNL A   1      44.940  36.419  26.251  1.00  0.00    -0.200 F 
ENDBRANCH  70  93
ENDBRANCH  44  45
ENDBRANCH  37  39
ENDBRANCH  36  37
ENDBRANCH  35  36
ENDBRANCH  34  35
ENDBRANCH  33  34
ENDBRANCH  32  33
ENDBRANCH   1  32
TORSDOF 20
ENDMDL
MODEL 3
REMARK VINA RESULT:     -12.5      1.815      2.382
REMARK SMILES Cc1ccc(-c2nc(NC(=O)[C@H]3[C@@H](C(=O)OCCOCCOCCOC(=O)c4ccc(-c5c6nc(c(-c7c(F)c(F)c(F)c(F)c7F)c7ccc([nH]7)c(-c7c(F)c(F)c(F)c(F)c7F)c7nc(c(-c8c(F)c(F)c(F)c(F)c8F)c8ccc5[nH]8)C=C7)C=C6)cc4)[C@@H]4CC[C@H]3O4)sc2C)cc1
REMARK SMILES IDX 20 1 19 2 18 3 17 4 16 5 14 6 15 7 13 8 12 9 94 10 91 11
REMARK SMILES IDX 93 12 95 13 92 14 10 15 9 16 11 18 8 19 6 20 7 21 97 22
REMARK SMILES IDX 96 23 98 24 5 25 1 26 2 27 3 28 100 29 4 30 99 31 21 32
REMARK SMILES IDX 22 33 23 34 24 35 25 36 26 37 27 38 28 39 29 40 90 41 30 42
REMARK SMILES IDX 89 43 31 44 32 45 33 46 83 47 34 48 88 49 82 50 84 51 35 52
REMARK SMILES IDX 87 53 81 54 80 55 36 57 68 58 48 59 67 60 49 61 52 62 66 63
REMARK SMILES IDX 85 64 50 65 51 66 65 68 86 69 53 70 37 71 38 72 46 73 39 74
REMARK SMILES IDX 40 75 44 76 47 77 41 78 42 79 45 80 43 81 69 82 70 83 78 84
REMARK SMILES IDX 71 85 72 86 76 87 79 88 73 89 74 90 77 91 75 92 54 93 55 94
REMARK SMILES IDX 63 95 56 96 57 97 61 98 64 99 58 100 59 101 62 102 60 103
REMARK H PARENT 9 17 84 56 52 67
REMARK Flexibility Score: inf
ROOT
ATOM      1  C   UNL A   1      37.730  21.439  24.880  1.00  0.00     0.188 C 
ENDROOT
BRANCH   1   2
ATOM      2  O   UNL A   1      36.560  22.127  24.430  1.00  0.00    -0.376 OA
BRANCH   2   3
ATOM      3  C   UNL A   1      35.872  23.043  25.279  1.00  0.00     0.202 C 
BRANCH   3   4
ATOM      4  C   UNL A   1      35.170  24.271  24.620  1.00  0.00     0.261 C 
BRANCH   4   5
ATOM      5  O   UNL A   1      34.497  25.409  25.337  1.00  0.00    -0.463 OA
BRANCH   5   6
ATOM      6  C   UNL A   1      33.916  26.593  25.002  1.00  0.00     0.312 C 
ATOM      7  O   UNL A   1      33.873  27.280  23.987  1.00  0.00    -0.252 OA
BRANCH   6   8
ATOM      8  C   UNL A   1      33.356  27.303  26.121  1.00  0.00     0.143 C 
ATOM      9  C   UNL A   1      31.907  26.997  26.477  1.00  0.00     0.124 C 
ATOM     10  C   UNL A   1      31.521  28.538  26.304  1.00  0.00     0.132 C 
ATOM     11  C   UNL A   1      33.547  28.724  25.587  1.00  0.00     0.133 C 
ATOM     12  C   UNL A   1      32.277  29.514  27.312  1.00  0.00     0.035 C 
ATOM     13  O   UNL A   1      32.223  28.962  25.099  1.00  0.00    -0.373 OA
ATOM     14  C   UNL A   1      33.699  29.647  26.759  1.00  0.00     0.036 C 
BRANCH   9  15
ATOM     15  C   UNL A   1      31.025  25.762  25.641  1.00  0.00     0.232 C 
ATOM     16  N   UNL A   1      30.978  24.332  25.936  1.00  0.00    -0.302 N 
ATOM     17  H   UNL A   1      30.416  24.106  26.713  1.00  0.00     0.172 HD
ATOM     18  O   UNL A   1      30.180  26.150  24.816  1.00  0.00    -0.274 OA
BRANCH  16  19
ATOM     19  C   UNL A   1      31.616  23.140  25.287  1.00  0.00     0.190 A 
ATOM     20  C   UNL A   1      32.604  21.113  24.513  1.00  0.00     0.086 A 
ATOM     21  N   UNL A   1      32.142  21.934  25.682  1.00  0.00    -0.220 NA
ATOM     22  C   UNL A   1      32.161  21.747  23.379  1.00  0.00     0.031 A 
ATOM     23  S   UNL A   1      32.061  23.413  23.684  1.00  0.00    -0.101 S 
ATOM     24  C   UNL A   1      31.858  21.135  22.078  1.00  0.00     0.059 C 
BRANCH  20  25
ATOM     25  C   UNL A   1      33.213  19.704  24.208  1.00  0.00     0.001 A 
ATOM     26  C   UNL A   1      34.416  15.577  25.397  1.00  0.00     0.044 C 
ATOM     27  C   UNL A   1      34.025  16.933  24.844  1.00  0.00    -0.051 A 
ATOM     28  C   UNL A   1      34.953  17.964  24.603  1.00  0.00     0.004 A 
ATOM     29  C   UNL A   1      32.691  17.254  24.637  1.00  0.00     0.004 A 
ATOM     30  C   UNL A   1      34.559  19.331  24.326  1.00  0.00     0.010 A 
ATOM     31  C   UNL A   1      32.314  18.572  24.243  1.00  0.00     0.010 A 
ENDBRANCH  20  25
ENDBRANCH  16  19
ENDBRANCH   9  15
ENDBRANCH   6   8
ENDBRANCH   5   6
ENDBRANCH   4   5
ENDBRANCH   3   4
ENDBRANCH   2   3
ENDBRANCH   1   2
BRANCH   1  32
ATOM     32  C   UNL A   1      38.487  21.985  26.094  1.00  0.00     0.188 C 
BRANCH  32  33
ATOM     33  O   UNL A   1      39.784  21.414  26.083  1.00  0.00    -0.376 OA
BRANCH  33  34
ATOM     34  C   UNL A   1      39.863  20.002  26.023  1.00  0.00     0.202 C 
BRANCH  34  35
ATOM     35  C   UNL A   1      41.331  19.554  25.947  1.00  0.00     0.261 C 
BRANCH  35  36
ATOM     36  O   UNL A   1      42.156  20.401  26.802  1.00  0.00    -0.460 OA
BRANCH  36  37
ATOM     37  C   UNL A   1      42.930  21.384  26.215  1.00  0.00     0.338 C 
ATOM     38  O   UNL A   1      43.354  21.340  25.079  1.00  0.00    -0.246 OA
BRANCH  37  39
ATOM     39  C   UNL A   1      43.402  22.395  27.253  1.00  0.00     0.060 A 
ATOM     40  C   UNL A   1      42.991  22.531  28.600  1.00  0.00     0.016 A 
ATOM     41  C   UNL A   1      43.963  23.505  26.737  1.00  0.00     0.016 A 
ATOM     42  C   UNL A   1      43.073  23.816  29.349  1.00  0.00     0.010 A 
ATOM     43  C   UNL A   1      43.612  24.693  27.385  1.00  0.00     0.010 A 
ATOM     44  C   UNL A   1      43.365  25.033  28.732  1.00  0.00    -0.014 A 
BRANCH  44  45
ATOM     45  C   UNL A   1      43.145  26.649  29.272  1.00  0.00     0.031 A 
ATOM     46  C   UNL A   1      41.833  27.896  29.129  1.00  0.00     0.074 A 
ATOM     47  C   UNL A   1      44.039  26.731  30.286  1.00  0.00     0.049 A 
ATOM     48  N   UNL A   1      41.835  29.255  29.104  1.00  0.00    -0.248 NA
ATOM     49  C   UNL A   1      40.386  27.619  29.002  1.00  0.00     0.031 C 
ATOM     50  C   UNL A   1      44.001  27.364  31.579  1.00  0.00     0.029 A 
ATOM     51  N   UNL A   1      45.412  26.543  30.120  1.00  0.00    -0.354 N 
ATOM     52  C   UNL A   1      40.428  29.749  29.113  1.00  0.00     0.074 A 
ATOM     53  C   UNL A   1      39.736  28.673  28.519  1.00  0.00     0.031 C 
ATOM     54  C   UNL A   1      45.151  27.992  31.829  1.00  0.00     0.029 A 
ATOM     55  C   UNL A   1      46.004  27.678  30.739  1.00  0.00     0.049 A 
ATOM     56  H   UNL A   1      45.868  25.793  29.674  1.00  0.00     0.167 HD
ATOM     57  C   UNL A   1      39.818  30.787  29.860  1.00  0.00     0.037 A 
ATOM     58  C   UNL A   1      46.797  28.515  30.041  1.00  0.00     0.037 A 
ATOM     59  C   UNL A   1      40.796  31.683  30.469  1.00  0.00     0.049 A 
ATOM     60  C   UNL A   1      46.241  29.919  29.775  1.00  0.00     0.074 A 
ATOM     61  C   UNL A   1      40.975  32.376  31.672  1.00  0.00     0.029 A 
ATOM     62  N   UNL A   1      41.995  31.792  29.814  1.00  0.00    -0.354 N 
ATOM     63  N   UNL A   1      45.231  30.570  30.324  1.00  0.00    -0.248 NA
ATOM     64  C   UNL A   1      46.865  30.674  28.690  1.00  0.00     0.031 C 
ATOM     65  C   UNL A   1      42.332  32.841  31.731  1.00  0.00     0.029 A 
ATOM     66  C   UNL A   1      42.940  32.447  30.558  1.00  0.00     0.049 A 
ATOM     67  H   UNL A   1      42.159  31.441  28.909  1.00  0.00     0.167 HD
ATOM     68  C   UNL A   1      45.075  31.793  29.642  1.00  0.00     0.074 A 
ATOM     69  C   UNL A   1      46.108  31.770  28.628  1.00  0.00     0.031 C 
ATOM     70  C   UNL A   1      44.108  32.766  29.803  1.00  0.00     0.037 A 
BRANCH  57  71
ATOM     71  C   UNL A   1      38.242  30.926  30.358  1.00  0.00     0.064 A 
ATOM     72  C   UNL A   1      37.208  31.240  29.418  1.00  0.00     0.173 A 
ATOM     73  C   UNL A   1      37.748  31.020  31.693  1.00  0.00     0.173 A 
ATOM     74  F   UNL A   1      37.376  31.044  28.106  1.00  0.00    -0.203 F 
ATOM     75  C   UNL A   1      35.932  31.752  29.767  1.00  0.00     0.198 A 
ATOM     76  C   UNL A   1      36.442  31.453  32.038  1.00  0.00     0.198 A 
ATOM     77  F   UNL A   1      38.504  30.800  32.770  1.00  0.00    -0.203 F 
ATOM     78  F   UNL A   1      35.082  32.152  28.807  1.00  0.00    -0.200 F 
ATOM     79  C   UNL A   1      35.550  31.865  31.081  1.00  0.00     0.200 A 
ATOM     80  F   UNL A   1      36.090  31.518  33.333  1.00  0.00    -0.200 F 
ATOM     81  F   UNL A   1      34.348  32.353  31.420  1.00  0.00    -0.200 F 
ENDBRANCH  57  71
BRANCH  58  82
ATOM     82  C   UNL A   1      47.693  27.634  29.209  1.00  0.00     0.064 A 
ATOM     83  C   UNL A   1      47.353  27.586  27.826  1.00  0.00     0.173 A 
ATOM     84  C   UNL A   1      49.042  27.466  29.540  1.00  0.00     0.173 A 
ATOM     85  F   UNL A   1      46.075  27.769  27.448  1.00  0.00    -0.203 F 
ATOM     86  C   UNL A   1      48.336  27.645  26.839  1.00  0.00     0.198 A 
ATOM     87  C   UNL A   1      50.018  27.445  28.535  1.00  0.00     0.198 A 
ATOM     88  F   UNL A   1      49.437  27.522  30.819  1.00  0.00    -0.203 F 
ATOM     89  F   UNL A   1      47.991  27.885  25.565  1.00  0.00    -0.200 F 
ATOM     90  C   UNL A   1      49.670  27.610  27.200  1.00  0.00     0.200 A 
ATOM     91  F   UNL A   1      51.316  27.429  28.873  1.00  0.00    -0.200 F 
ATOM     92  F   UNL A   1      50.619  27.823  26.276  1.00  0.00    -0.200 F 
ENDBRANCH  58  82
BRANCH  70  93
ATOM     93  C   UNL A   1      43.965  34.059  28.986  1.00  0.00     0.064 A 
ATOM     94  C   UNL A   1      44.005  35.330  29.559  1.00  0.00     0.173 A 
ATOM     95  C   UNL A   1      43.733  34.051  27.573  1.00  0.00     0.173 A 
ATOM     96  F   UNL A   1      44.012  35.479  30.890  1.00  0.00    -0.203 F 
ATOM     97  C   UNL A   1      44.013  36.488  28.775  1.00  0.00     0.198 A 
ATOM     98  C   UNL A   1      43.710  35.203  26.799  1.00  0.00     0.198 A 
ATOM     99  F   UNL A   1      43.510  32.931  26.874  1.00  0.00    -0.203 F 
ATOM    100  F   UNL A   1      44.147  37.681  29.368  1.00  0.00    -0.200 F 
ATOM    101  C   UNL A   1      43.892  36.425  27.397  1.00  0.00     0.200 A 
ATOM    102  F   UNL A   1      43.520  35.112  25.474  1.00  0.00    -0.200 F 
ATOM    103  F   UNL A   1      43.926  37.535  26.652  1.00  0.00    -0.200 F 
ENDBRANCH  70  93
ENDBRANCH  44  45
ENDBRANCH  37  39
ENDBRANCH  36  37
ENDBRANCH  35  36
ENDBRANCH  34  35
ENDBRANCH  33  34
ENDBRANCH  32  33
ENDBRANCH   1  32
TORSDOF 20
ENDMDL
