MODEL 1
REMARK VINA RESULT:     -10.2      0.000      0.000
REMARK SMILES CC[C@H]1CC(=O)N(CCn2cc(C(=O)OCCOCCOCCOC(=O)c3ccc(-c4c5nc(c(-c6c(F)c(F)c(F)c(F)c6F)c6ccc([nH]6)c(-c6c(F)c(F)c(F)c(F)c6F)c6nc(c(-c7c(F)c(F)c(F)c(F)c7F)c7ccc4[nH]7)C=C6)C=C5)cc3)nn2)C1
REMARK SMILES IDX 19 1 18 2 17 3 16 4 15 5 13 6 14 7 12 8 10 9 11 10 91 11
REMARK SMILES IDX 90 12 9 13 8 14 7 15 3 16 4 17 92 18 5 19 6 20 2 21 1 22
REMARK SMILES IDX 20 23 21 24 22 25 23 26 24 27 25 28 26 29 27 30 28 31 89 32
REMARK SMILES IDX 29 33 88 34 30 35 31 36 32 37 82 38 33 39 87 40 81 41 83 42
REMARK SMILES IDX 34 43 86 44 80 45 79 46 35 48 67 49 47 50 66 51 48 52 51 53
REMARK SMILES IDX 65 54 84 55 49 56 50 57 64 59 85 60 52 61 36 62 37 63 45 64
REMARK SMILES IDX 38 65 39 66 43 67 46 68 40 69 41 70 44 71 42 72 68 73 69 74
REMARK SMILES IDX 77 75 70 76 71 77 75 78 78 79 72 80 73 81 76 82 74 83 53 84
REMARK SMILES IDX 54 85 62 86 55 87 56 88 60 89 63 90 57 91 58 92 61 93 59 94
REMARK H PARENT 83 47 51 58
REMARK Flexibility Score: inf
ROOT
ATOM      1  C   UNL A   1      33.720  35.189  32.756  1.00  0.00     0.188 C 
ENDROOT
BRANCH   1   2
ATOM      2  O   UNL A   1      32.887  35.023  31.637  1.00  0.00    -0.376 OA
BRANCH   2   3
ATOM      3  C   UNL A   1      32.651  36.083  30.725  1.00  0.00     0.202 C 
BRANCH   3   4
ATOM      4  C   UNL A   1      33.207  36.177  29.292  1.00  0.00     0.261 C 
BRANCH   4   5
ATOM      5  O   UNL A   1      33.978  35.069  28.825  1.00  0.00    -0.458 OA
BRANCH   5   6
ATOM      6  C   UNL A   1      33.300  34.073  28.158  1.00  0.00     0.360 C 
ATOM      7  O   UNL A   1      32.153  34.186  27.738  1.00  0.00    -0.244 OA
BRANCH   6   8
ATOM      8  C   UNL A   1      34.127  32.887  27.983  1.00  0.00     0.190 A 
ATOM      9  N   UNL A   1      34.749  30.837  27.576  1.00  0.00    -0.250 N 
ATOM     10  C   UNL A   1      33.677  31.588  27.912  1.00  0.00     0.147 A 
ATOM     11  N   UNL A   1      35.864  31.598  27.639  1.00  0.00    -0.066 NA
ATOM     12  N   UNL A   1      35.491  32.858  27.869  1.00  0.00    -0.123 NA
BRANCH   9  13
ATOM     13  C   UNL A   1      34.819  29.504  27.005  1.00  0.00     0.167 C 
BRANCH  13  14
ATOM     14  C   UNL A   1      33.673  28.500  27.252  1.00  0.00     0.143 C 
BRANCH  14  15
ATOM     15  N   UNL A   1      32.641  28.402  26.211  1.00  0.00    -0.341 N 
ATOM     16  C   UNL A   1      31.458  28.959  24.246  1.00  0.00     0.017 C 
ATOM     17  C   UNL A   1      30.743  27.806  24.955  1.00  0.00     0.105 C 
ATOM     18  C   UNL A   1      32.819  28.944  24.903  1.00  0.00     0.123 C 
ATOM     19  C   UNL A   1      31.439  27.717  26.305  1.00  0.00     0.222 C 
ATOM     20  O   UNL A   1      31.033  27.098  27.273  1.00  0.00    -0.275 OA
BRANCH  16  21
ATOM     21  C   UNL A   1      31.593  28.785  22.726  1.00  0.00     0.002 C 
ATOM     22  C   UNL A   1      31.557  27.321  22.304  1.00  0.00     0.004 C 
ENDBRANCH  16  21
ENDBRANCH  14  15
ENDBRANCH  13  14
ENDBRANCH   9  13
ENDBRANCH   6   8
ENDBRANCH   5   6
ENDBRANCH   4   5
ENDBRANCH   3   4
ENDBRANCH   2   3
ENDBRANCH   1   2
BRANCH   1  23
ATOM     23  C   UNL A   1      35.240  35.302  32.526  1.00  0.00     0.188 C 
BRANCH  23  24
ATOM     24  O   UNL A   1      36.220  34.950  33.489  1.00  0.00    -0.376 OA
BRANCH  24  25
ATOM     25  C   UNL A   1      36.162  33.755  34.257  1.00  0.00     0.202 C 
BRANCH  25  26
ATOM     26  C   UNL A   1      36.744  32.432  33.785  1.00  0.00     0.261 C 
BRANCH  26  27
ATOM     27  O   UNL A   1      37.134  32.468  32.437  1.00  0.00    -0.460 OA
BRANCH  27  28
ATOM     28  C   UNL A   1      36.264  31.842  31.623  1.00  0.00     0.338 C 
ATOM     29  O   UNL A   1      35.047  31.838  31.684  1.00  0.00    -0.246 OA
BRANCH  28  30
ATOM     30  C   UNL A   1      37.037  31.098  30.631  1.00  0.00     0.060 A 
ATOM     31  C   UNL A   1      36.817  29.719  30.608  1.00  0.00     0.016 A 
ATOM     32  C   UNL A   1      38.200  31.701  30.143  1.00  0.00     0.016 A 
ATOM     33  C   UNL A   1      37.910  28.918  30.422  1.00  0.00     0.010 A 
ATOM     34  C   UNL A   1      39.299  30.907  30.022  1.00  0.00     0.010 A 
ATOM     35  C   UNL A   1      39.148  29.543  30.269  1.00  0.00    -0.014 A 
BRANCH  35  36
ATOM     36  C   UNL A   1      40.334  28.736  30.356  1.00  0.00     0.031 A 
ATOM     37  C   UNL A   1      40.820  28.625  31.740  1.00  0.00     0.074 A 
ATOM     38  C   UNL A   1      40.791  28.077  29.276  1.00  0.00     0.049 A 
ATOM     39  N   UNL A   1      41.897  29.126  32.243  1.00  0.00    -0.248 NA
ATOM     40  C   UNL A   1      39.885  28.076  32.739  1.00  0.00     0.031 C 
ATOM     41  C   UNL A   1      40.136  27.940  27.969  1.00  0.00     0.029 A 
ATOM     42  N   UNL A   1      41.886  27.283  29.157  1.00  0.00    -0.354 N 
ATOM     43  C   UNL A   1      41.868  28.749  33.580  1.00  0.00     0.074 A 
ATOM     44  C   UNL A   1      40.518  28.367  33.873  1.00  0.00     0.031 C 
ATOM     45  C   UNL A   1      40.729  26.940  27.280  1.00  0.00     0.029 A 
ATOM     46  C   UNL A   1      41.864  26.453  28.046  1.00  0.00     0.049 A 
ATOM     47  H   UNL A   1      42.629  27.296  29.802  1.00  0.00     0.167 HD
ATOM     48  C   UNL A   1      43.021  28.418  34.218  1.00  0.00     0.037 A 
ATOM     49  C   UNL A   1      42.676  25.388  27.841  1.00  0.00     0.037 A 
ATOM     50  C   UNL A   1      44.162  28.922  33.495  1.00  0.00     0.049 A 
ATOM     51  C   UNL A   1      43.830  25.531  28.764  1.00  0.00     0.074 A 
ATOM     52  C   UNL A   1      44.677  30.167  33.202  1.00  0.00     0.029 A 
ATOM     53  N   UNL A   1      44.733  28.033  32.621  1.00  0.00    -0.354 N 
ATOM     54  N   UNL A   1      44.747  26.451  28.646  1.00  0.00    -0.248 NA
ATOM     55  C   UNL A   1      43.775  24.876  30.066  1.00  0.00     0.031 C 
ATOM     56  C   UNL A   1      45.362  30.022  31.958  1.00  0.00     0.029 A 
ATOM     57  C   UNL A   1      45.265  28.692  31.548  1.00  0.00     0.049 A 
ATOM     58  H   UNL A   1      44.758  27.057  32.749  1.00  0.00     0.167 HD
ATOM     59  C   UNL A   1      45.085  26.781  29.949  1.00  0.00     0.074 A 
ATOM     60  C   UNL A   1      44.592  25.675  30.760  1.00  0.00     0.031 C 
ATOM     61  C   UNL A   1      45.448  28.058  30.261  1.00  0.00     0.037 A 
BRANCH  48  62
ATOM     62  C   UNL A   1      43.144  27.239  35.166  1.00  0.00     0.064 A 
ATOM     63  C   UNL A   1      43.510  27.502  36.501  1.00  0.00     0.173 A 
ATOM     64  C   UNL A   1      43.238  25.883  34.773  1.00  0.00     0.173 A 
ATOM     65  F   UNL A   1      43.468  28.752  36.985  1.00  0.00    -0.203 F 
ATOM     66  C   UNL A   1      44.022  26.507  37.337  1.00  0.00     0.198 A 
ATOM     67  C   UNL A   1      43.699  24.885  35.628  1.00  0.00     0.198 A 
ATOM     68  F   UNL A   1      43.005  25.466  33.525  1.00  0.00    -0.203 F 
ATOM     69  F   UNL A   1      44.484  26.835  38.551  1.00  0.00    -0.200 F 
ATOM     70  C   UNL A   1      44.125  25.201  36.897  1.00  0.00     0.200 A 
ATOM     71  F   UNL A   1      43.807  23.629  35.172  1.00  0.00    -0.200 F 
ATOM     72  F   UNL A   1      44.679  24.260  37.671  1.00  0.00    -0.200 F 
ENDBRANCH  48  62
BRANCH  49  73
ATOM     73  C   UNL A   1      42.397  24.126  27.120  1.00  0.00     0.064 A 
ATOM     74  C   UNL A   1      43.277  23.652  26.133  1.00  0.00     0.173 A 
ATOM     75  C   UNL A   1      41.413  23.223  27.568  1.00  0.00     0.173 A 
ATOM     76  F   UNL A   1      44.266  24.435  25.681  1.00  0.00    -0.203 F 
ATOM     77  C   UNL A   1      43.199  22.342  25.650  1.00  0.00     0.198 A 
ATOM     78  C   UNL A   1      41.330  21.920  27.076  1.00  0.00     0.198 A 
ATOM     79  F   UNL A   1      40.575  23.554  28.560  1.00  0.00    -0.203 F 
ATOM     80  F   UNL A   1      44.101  21.905  24.759  1.00  0.00    -0.200 F 
ATOM     81  C   UNL A   1      42.233  21.474  26.130  1.00  0.00     0.200 A 
ATOM     82  F   UNL A   1      40.412  21.080  27.575  1.00  0.00    -0.200 F 
ATOM     83  F   UNL A   1      42.199  20.200  25.715  1.00  0.00    -0.200 F 
ENDBRANCH  49  73
BRANCH  61  84
ATOM     84  C   UNL A   1      45.896  28.926  29.122  1.00  0.00     0.064 A 
ATOM     85  C   UNL A   1      45.033  29.717  28.344  1.00  0.00     0.173 A 
ATOM     86  C   UNL A   1      47.269  29.021  28.868  1.00  0.00     0.173 A 
ATOM     87  F   UNL A   1      43.717  29.745  28.590  1.00  0.00    -0.203 F 
ATOM     88  C   UNL A   1      45.527  30.526  27.323  1.00  0.00     0.198 A 
ATOM     89  C   UNL A   1      47.763  29.859  27.875  1.00  0.00     0.198 A 
ATOM     90  F   UNL A   1      48.140  28.325  29.616  1.00  0.00    -0.203 F 
ATOM     91  F   UNL A   1      44.683  31.252  26.574  1.00  0.00    -0.200 F 
ATOM     92  C   UNL A   1      46.890  30.600  27.093  1.00  0.00     0.200 A 
ATOM     93  F   UNL A   1      49.085  29.964  27.689  1.00  0.00    -0.200 F 
ATOM     94  F   UNL A   1      47.369  31.405  26.134  1.00  0.00    -0.200 F 
ENDBRANCH  61  84
ENDBRANCH  35  36
ENDBRANCH  28  30
ENDBRANCH  27  28
ENDBRANCH  26  27
ENDBRANCH  25  26
ENDBRANCH  24  25
ENDBRANCH  23  24
ENDBRANCH   1  23
TORSDOF 21
ENDMDL
MODEL 2
REMARK VINA RESULT:     -10.1      4.752     10.248
REMARK SMILES CC[C@H]1CC(=O)N(CCn2cc(C(=O)OCCOCCOCCOC(=O)c3ccc(-c4c5nc(c(-c6c(F)c(F)c(F)c(F)c6F)c6ccc([nH]6)c(-c6c(F)c(F)c(F)c(F)c6F)c6nc(c(-c7c(F)c(F)c(F)c(F)c7F)c7ccc4[nH]7)C=C6)C=C5)cc3)nn2)C1
REMARK SMILES IDX 19 1 18 2 17 3 16 4 15 5 13 6 14 7 12 8 10 9 11 10 91 11
REMARK SMILES IDX 90 12 9 13 8 14 7 15 3 16 4 17 92 18 5 19 6 20 2 21 1 22
REMARK SMILES IDX 20 23 21 24 22 25 23 26 24 27 25 28 26 29 27 30 28 31 89 32
REMARK SMILES IDX 29 33 88 34 30 35 31 36 32 37 82 38 33 39 87 40 81 41 83 42
REMARK SMILES IDX 34 43 86 44 80 45 79 46 35 48 67 49 47 50 66 51 48 52 51 53
REMARK SMILES IDX 65 54 84 55 49 56 50 57 64 59 85 60 52 61 36 62 37 63 45 64
REMARK SMILES IDX 38 65 39 66 43 67 46 68 40 69 41 70 44 71 42 72 68 73 69 74
REMARK SMILES IDX 77 75 70 76 71 77 75 78 78 79 72 80 73 81 76 82 74 83 53 84
REMARK SMILES IDX 54 85 62 86 55 87 56 88 60 89 63 90 57 91 58 92 61 93 59 94
REMARK H PARENT 83 47 51 58
REMARK Flexibility Score: inf
ROOT
ATOM      1  C   UNL A   1      41.602  19.801  26.269  1.00  0.00     0.188 C 
ENDROOT
BRANCH   1   2
ATOM      2  O   UNL A   1      41.445  20.457  27.501  1.00  0.00    -0.376 OA
BRANCH   2   3
ATOM      3  C   UNL A   1      40.732  21.680  27.604  1.00  0.00     0.202 C 
BRANCH   3   4
ATOM      4  C   UNL A   1      39.981  22.383  26.460  1.00  0.00     0.261 C 
BRANCH   4   5
ATOM      5  O   UNL A   1      38.776  21.766  26.004  1.00  0.00    -0.458 OA
BRANCH   5   6
ATOM      6  C   UNL A   1      37.687  22.587  25.814  1.00  0.00     0.360 C 
ATOM      7  O   UNL A   1      37.755  23.809  25.733  1.00  0.00    -0.244 OA
BRANCH   6   8
ATOM      8  C   UNL A   1      36.454  21.821  25.686  1.00  0.00     0.190 A 
ATOM      9  N   UNL A   1      34.347  21.263  25.741  1.00  0.00    -0.250 N 
ATOM     10  C   UNL A   1      35.242  22.134  26.257  1.00  0.00     0.147 A 
ATOM     11  N   UNL A   1      35.004  20.313  25.040  1.00  0.00    -0.066 NA
ATOM     12  N   UNL A   1      36.292  20.657  24.985  1.00  0.00    -0.123 NA
BRANCH   9  13
ATOM     13  C   UNL A   1      32.899  21.334  25.675  1.00  0.00     0.167 C 
BRANCH  13  14
ATOM     14  C   UNL A   1      32.220  22.456  24.858  1.00  0.00     0.143 C 
BRANCH  14  15
ATOM     15  N   UNL A   1      32.471  23.836  25.291  1.00  0.00    -0.341 N 
ATOM     16  C   UNL A   1      33.577  25.916  25.431  1.00  0.00     0.017 C 
ATOM     17  C   UNL A   1      32.385  25.914  26.392  1.00  0.00     0.105 C 
ATOM     18  C   UNL A   1      33.265  24.745  24.529  1.00  0.00     0.123 C 
ATOM     19  C   UNL A   1      31.924  24.464  26.399  1.00  0.00     0.222 C 
ATOM     20  O   UNL A   1      31.156  23.968  27.206  1.00  0.00    -0.275 OA
BRANCH  16  21
ATOM     21  C   UNL A   1      33.729  27.204  24.608  1.00  0.00     0.002 C 
ATOM     22  C   UNL A   1      32.799  27.233  23.400  1.00  0.00     0.004 C 
ENDBRANCH  16  21
ENDBRANCH  14  15
ENDBRANCH  13  14
ENDBRANCH   9  13
ENDBRANCH   6   8
ENDBRANCH   5   6
ENDBRANCH   4   5
ENDBRANCH   3   4
ENDBRANCH   2   3
ENDBRANCH   1   2
BRANCH   1  23
ATOM     23  C   UNL A   1      43.031  19.544  25.753  1.00  0.00     0.188 C 
BRANCH  23  24
ATOM     24  O   UNL A   1      44.049  20.531  25.701  1.00  0.00    -0.376 OA
BRANCH  24  25
ATOM     25  C   UNL A   1      44.577  21.040  24.483  1.00  0.00     0.202 C 
BRANCH  25  26
ATOM     26  C   UNL A   1      44.503  22.508  24.093  1.00  0.00     0.261 C 
BRANCH  26  27
ATOM     27  O   UNL A   1      43.437  23.176  24.717  1.00  0.00    -0.460 OA
BRANCH  27  28
ATOM     28  C   UNL A   1      43.739  24.444  25.052  1.00  0.00     0.338 C 
ATOM     29  O   UNL A   1      44.673  25.123  24.663  1.00  0.00    -0.246 OA
BRANCH  28  30
ATOM     30  C   UNL A   1      42.751  24.894  26.031  1.00  0.00     0.060 A 
ATOM     31  C   UNL A   1      41.789  25.783  25.550  1.00  0.00     0.016 A 
ATOM     32  C   UNL A   1      43.097  24.787  27.382  1.00  0.00     0.016 A 
ATOM     33  C   UNL A   1      41.428  26.815  26.373  1.00  0.00     0.010 A 
ATOM     34  C   UNL A   1      42.788  25.847  28.179  1.00  0.00     0.010 A 
ATOM     35  C   UNL A   1      42.048  26.888  27.621  1.00  0.00    -0.014 A 
BRANCH  35  36
ATOM     36  C   UNL A   1      41.904  28.099  28.382  1.00  0.00     0.031 A 
ATOM     37  C   UNL A   1      43.026  29.023  28.158  1.00  0.00     0.074 A 
ATOM     38  C   UNL A   1      40.775  28.340  29.073  1.00  0.00     0.049 A 
ATOM     39  N   UNL A   1      43.948  29.365  28.992  1.00  0.00    -0.248 NA
ATOM     40  C   UNL A   1      43.280  29.447  26.769  1.00  0.00     0.031 C 
ATOM     41  C   UNL A   1      39.530  27.561  29.052  1.00  0.00     0.029 A 
ATOM     42  N   UNL A   1      40.458  29.407  29.850  1.00  0.00    -0.354 N 
ATOM     43  C   UNL A   1      44.766  30.231  28.277  1.00  0.00     0.074 A 
ATOM     44  C   UNL A   1      44.475  30.022  26.888  1.00  0.00     0.031 C 
ATOM     45  C   UNL A   1      38.537  28.299  29.596  1.00  0.00     0.029 A 
ATOM     46  C   UNL A   1      39.100  29.541  30.099  1.00  0.00     0.049 A 
ATOM     47  H   UNL A   1      41.132  30.030  30.206  1.00  0.00     0.167 HD
ATOM     48  C   UNL A   1      45.323  31.306  28.893  1.00  0.00     0.037 A 
ATOM     49  C   UNL A   1      38.496  30.645  30.600  1.00  0.00     0.037 A 
ATOM     50  C   UNL A   1      45.304  31.134  30.325  1.00  0.00     0.049 A 
ATOM     51  C   UNL A   1      39.553  31.483  31.218  1.00  0.00     0.074 A 
ATOM     52  C   UNL A   1      45.915  30.292  31.229  1.00  0.00     0.029 A 
ATOM     53  N   UNL A   1      44.226  31.695  30.961  1.00  0.00    -0.354 N 
ATOM     54  N   UNL A   1      40.200  31.155  32.303  1.00  0.00    -0.248 NA
ATOM     55  C   UNL A   1      40.175  32.535  30.422  1.00  0.00     0.031 C 
ATOM     56  C   UNL A   1      45.010  30.173  32.325  1.00  0.00     0.029 A 
ATOM     57  C   UNL A   1      43.890  30.964  32.067  1.00  0.00     0.049 A 
ATOM     58  H   UNL A   1      43.761  32.510  30.664  1.00  0.00     0.167 HD
ATOM     59  C   UNL A   1      41.484  31.637  32.106  1.00  0.00     0.074 A 
ATOM     60  C   UNL A   1      41.363  32.611  31.029  1.00  0.00     0.031 C 
ATOM     61  C   UNL A   1      42.554  30.966  32.621  1.00  0.00     0.037 A 
BRANCH  48  62
ATOM     62  C   UNL A   1      45.401  32.685  28.264  1.00  0.00     0.064 A 
ATOM     63  C   UNL A   1      46.672  33.278  28.132  1.00  0.00     0.173 A 
ATOM     64  C   UNL A   1      44.306  33.564  28.088  1.00  0.00     0.173 A 
ATOM     65  F   UNL A   1      47.785  32.545  28.285  1.00  0.00    -0.203 F 
ATOM     66  C   UNL A   1      46.831  34.653  27.940  1.00  0.00     0.198 A 
ATOM     67  C   UNL A   1      44.469  34.925  27.844  1.00  0.00     0.198 A 
ATOM     68  F   UNL A   1      43.035  33.189  28.254  1.00  0.00    -0.203 F 
ATOM     69  F   UNL A   1      48.059  35.187  27.958  1.00  0.00    -0.200 F 
ATOM     70  C   UNL A   1      45.729  35.477  27.806  1.00  0.00     0.200 A 
ATOM     71  F   UNL A   1      43.385  35.707  27.735  1.00  0.00    -0.200 F 
ATOM     72  F   UNL A   1      45.876  36.802  27.692  1.00  0.00    -0.200 F 
ENDBRANCH  48  62
BRANCH  49  73
ATOM     73  C   UNL A   1      37.133  31.162  30.341  1.00  0.00     0.064 A 
ATOM     74  C   UNL A   1      36.291  31.534  31.402  1.00  0.00     0.173 A 
ATOM     75  C   UNL A   1      36.728  31.558  29.051  1.00  0.00     0.173 A 
ATOM     76  F   UNL A   1      36.624  31.230  32.664  1.00  0.00    -0.203 F 
ATOM     77  C   UNL A   1      35.132  32.287  31.188  1.00  0.00     0.198 A 
ATOM     78  C   UNL A   1      35.565  32.300  28.839  1.00  0.00     0.198 A 
ATOM     79  F   UNL A   1      37.500  31.318  27.982  1.00  0.00    -0.203 F 
ATOM     80  F   UNL A   1      34.392  32.683  32.234  1.00  0.00    -0.200 F 
ATOM     81  C   UNL A   1      34.776  32.679  29.908  1.00  0.00     0.200 A 
ATOM     82  F   UNL A   1      35.251  32.703  27.600  1.00  0.00    -0.200 F 
ATOM     83  F   UNL A   1      33.702  33.455  29.711  1.00  0.00    -0.200 F 
ENDBRANCH  49  73
BRANCH  61  84
ATOM     84  C   UNL A   1      42.271  30.008  33.740  1.00  0.00     0.064 A 
ATOM     85  C   UNL A   1      41.857  28.678  33.556  1.00  0.00     0.173 A 
ATOM     86  C   UNL A   1      42.512  30.437  35.051  1.00  0.00     0.173 A 
ATOM     87  F   UNL A   1      41.694  28.172  32.326  1.00  0.00    -0.203 F 
ATOM     88  C   UNL A   1      41.646  27.834  34.644  1.00  0.00     0.198 A 
ATOM     89  C   UNL A   1      42.339  29.582  36.133  1.00  0.00     0.198 A 
ATOM     90  F   UNL A   1      42.957  31.683  35.278  1.00  0.00    -0.203 F 
ATOM     91  F   UNL A   1      41.225  26.576  34.447  1.00  0.00    -0.200 F 
ATOM     92  C   UNL A   1      41.892  28.285  35.930  1.00  0.00     0.200 A 
ATOM     93  F   UNL A   1      42.624  30.008  37.370  1.00  0.00    -0.200 F 
ATOM     94  F   UNL A   1      41.723  27.464  36.976  1.00  0.00    -0.200 F 
ENDBRANCH  61  84
ENDBRANCH  35  36
ENDBRANCH  28  30
ENDBRANCH  27  28
ENDBRANCH  26  27
ENDBRANCH  25  26
ENDBRANCH  24  25
ENDBRANCH  23  24
ENDBRANCH   1  23
TORSDOF 21
ENDMDL
MODEL 3
REMARK VINA RESULT:     -10.1      4.418     10.187
REMARK SMILES CC[C@H]1CC(=O)N(CCn2cc(C(=O)OCCOCCOCCOC(=O)c3ccc(-c4c5nc(c(-c6c(F)c(F)c(F)c(F)c6F)c6ccc([nH]6)c(-c6c(F)c(F)c(F)c(F)c6F)c6nc(c(-c7c(F)c(F)c(F)c(F)c7F)c7ccc4[nH]7)C=C6)C=C5)cc3)nn2)C1
REMARK SMILES IDX 19 1 18 2 17 3 16 4 15 5 13 6 14 7 12 8 10 9 11 10 91 11
REMARK SMILES IDX 90 12 9 13 8 14 7 15 3 16 4 17 92 18 5 19 6 20 2 21 1 22
REMARK SMILES IDX 20 23 21 24 22 25 23 26 24 27 25 28 26 29 27 30 28 31 89 32
REMARK SMILES IDX 29 33 88 34 30 35 31 36 32 37 82 38 33 39 87 40 81 41 83 42
REMARK SMILES IDX 34 43 86 44 80 45 79 46 35 48 67 49 47 50 66 51 48 52 51 53
REMARK SMILES IDX 65 54 84 55 49 56 50 57 64 59 85 60 52 61 36 62 37 63 45 64
REMARK SMILES IDX 38 65 39 66 43 67 46 68 40 69 41 70 44 71 42 72 68 73 69 74
REMARK SMILES IDX 77 75 70 76 71 77 75 78 78 79 72 80 73 81 76 82 74 83 53 84
REMARK SMILES IDX 54 85 62 86 55 87 56 88 60 89 63 90 57 91 58 92 61 93 59 94
REMARK H PARENT 83 47 51 58
REMARK Flexibility Score: inf
ROOT
ATOM      1  C   UNL A   1      40.400  21.058  26.712  1.00  0.00     0.188 C 
ENDROOT
BRANCH   1   2
ATOM      2  O   UNL A   1      39.475  21.761  25.922  1.00  0.00    -0.376 OA
BRANCH   2   3
ATOM      3  C   UNL A   1      38.318  21.130  25.398  1.00  0.00     0.202 C 
BRANCH   3   4
ATOM      4  C   UNL A   1      37.045  21.847  24.911  1.00  0.00     0.261 C 
BRANCH   4   5
ATOM      5  O   UNL A   1      35.876  21.706  25.719  1.00  0.00    -0.458 OA
BRANCH   5   6
ATOM      6  C   UNL A   1      34.943  20.779  25.311  1.00  0.00     0.360 C 
ATOM      7  O   UNL A   1      35.224  19.696  24.809  1.00  0.00    -0.244 OA
BRANCH   6   8
ATOM      8  C   UNL A   1      33.585  21.231  25.583  1.00  0.00     0.190 A 
ATOM      9  N   UNL A   1      31.901  22.425  26.285  1.00  0.00    -0.250 N 
ATOM     10  C   UNL A   1      33.220  22.209  26.479  1.00  0.00     0.147 A 
ATOM     11  N   UNL A   1      31.413  21.479  25.452  1.00  0.00    -0.066 NA
ATOM     12  N   UNL A   1      32.440  20.755  25.003  1.00  0.00    -0.123 NA
BRANCH   9  13
ATOM     13  C   UNL A   1      31.070  23.558  26.651  1.00  0.00     0.167 C 
BRANCH  13  14
ATOM     14  C   UNL A   1      30.843  24.704  25.641  1.00  0.00     0.143 C 
BRANCH  14  15
ATOM     15  N   UNL A   1      31.669  25.906  25.805  1.00  0.00    -0.341 N 
ATOM     16  C   UNL A   1      32.167  28.186  26.159  1.00  0.00     0.017 C 
ATOM     17  C   UNL A   1      33.466  27.424  25.884  1.00  0.00     0.105 C 
ATOM     18  C   UNL A   1      31.204  27.070  26.487  1.00  0.00     0.123 C 
ATOM     19  C   UNL A   1      32.996  26.052  25.426  1.00  0.00     0.222 C 
ATOM     20  O   UNL A   1      33.688  25.210  24.880  1.00  0.00    -0.275 OA
BRANCH  16  21
ATOM     21  C   UNL A   1      32.249  29.185  27.323  1.00  0.00     0.002 C 
ATOM     22  C   UNL A   1      33.347  30.224  27.119  1.00  0.00     0.004 C 
ENDBRANCH  16  21
ENDBRANCH  14  15
ENDBRANCH  13  14
ENDBRANCH   9  13
ENDBRANCH   6   8
ENDBRANCH   5   6
ENDBRANCH   4   5
ENDBRANCH   3   4
ENDBRANCH   2   3
ENDBRANCH   1   2
BRANCH   1  23
ATOM     23  C   UNL A   1      40.929  19.707  26.192  1.00  0.00     0.188 C 
BRANCH  23  24
ATOM     24  O   UNL A   1      42.028  19.569  25.307  1.00  0.00    -0.376 OA
BRANCH  24  25
ATOM     25  C   UNL A   1      43.361  19.913  25.663  1.00  0.00     0.202 C 
BRANCH  25  26
ATOM     26  C   UNL A   1      44.014  21.229  25.270  1.00  0.00     0.261 C 
BRANCH  26  27
ATOM     27  O   UNL A   1      43.790  22.243  26.215  1.00  0.00    -0.460 OA
BRANCH  27  28
ATOM     28  C   UNL A   1      43.397  23.402  25.657  1.00  0.00     0.338 C 
ATOM     29  O   UNL A   1      43.771  23.896  24.607  1.00  0.00    -0.246 OA
BRANCH  28  30
ATOM     30  C   UNL A   1      42.437  24.031  26.562  1.00  0.00     0.060 A 
ATOM     31  C   UNL A   1      41.583  24.967  25.976  1.00  0.00     0.016 A 
ATOM     32  C   UNL A   1      42.737  24.008  27.927  1.00  0.00     0.016 A 
ATOM     33  C   UNL A   1      41.309  26.097  26.698  1.00  0.00     0.010 A 
ATOM     34  C   UNL A   1      42.519  25.158  28.622  1.00  0.00     0.010 A 
ATOM     35  C   UNL A   1      41.902  26.216  27.955  1.00  0.00    -0.014 A 
BRANCH  35  36
ATOM     36  C   UNL A   1      41.865  27.496  28.607  1.00  0.00     0.031 A 
ATOM     37  C   UNL A   1      43.023  28.328  28.246  1.00  0.00     0.074 A 
ATOM     38  C   UNL A   1      40.788  27.864  29.325  1.00  0.00     0.049 A 
ATOM     39  N   UNL A   1      44.004  28.689  29.001  1.00  0.00    -0.248 NA
ATOM     40  C   UNL A   1      43.227  28.611  26.814  1.00  0.00     0.031 C 
ATOM     41  C   UNL A   1      39.504  27.161  29.434  1.00  0.00     0.029 A 
ATOM     42  N   UNL A   1      40.570  29.013  30.015  1.00  0.00    -0.354 N 
ATOM     43  C   UNL A   1      44.830  29.438  28.172  1.00  0.00     0.074 A 
ATOM     44  C   UNL A   1      44.455  29.123  26.824  1.00  0.00     0.031 C 
ATOM     45  C   UNL A   1      38.582  28.002  29.954  1.00  0.00     0.029 A 
ATOM     46  C   UNL A   1      39.236  29.249  30.313  1.00  0.00     0.049 A 
ATOM     47  H   UNL A   1      41.295  29.624  30.279  1.00  0.00     0.167 HD
ATOM     48  C   UNL A   1      45.476  30.529  28.660  1.00  0.00     0.037 A 
ATOM     49  C   UNL A   1      38.720  30.427  30.738  1.00  0.00     0.037 A 
ATOM     50  C   UNL A   1      45.521  30.487  30.101  1.00  0.00     0.049 A 
ATOM     51  C   UNL A   1      39.853  31.253  31.227  1.00  0.00     0.074 A 
ATOM     52  C   UNL A   1      46.132  29.694  31.049  1.00  0.00     0.029 A 
ATOM     53  N   UNL A   1      44.511  31.165  30.732  1.00  0.00    -0.354 N 
ATOM     54  N   UNL A   1      40.536  30.986  32.305  1.00  0.00    -0.248 NA
ATOM     55  C   UNL A   1      40.488  32.191  30.308  1.00  0.00     0.031 C 
ATOM     56  C   UNL A   1      45.280  29.728  32.193  1.00  0.00     0.029 A 
ATOM     57  C   UNL A   1      44.193  30.557  31.915  1.00  0.00     0.049 A 
ATOM     58  H   UNL A   1      44.076  31.977  30.383  1.00  0.00     0.167 HD
ATOM     59  C   UNL A   1      41.832  31.371  32.004  1.00  0.00     0.074 A 
ATOM     60  C   UNL A   1      41.709  32.251  30.849  1.00  0.00     0.031 C 
ATOM     61  C   UNL A   1      42.890  30.688  32.529  1.00  0.00     0.037 A 
BRANCH  48  62
ATOM     62  C   UNL A   1      45.596  31.839  27.904  1.00  0.00     0.064 A 
ATOM     63  C   UNL A   1      44.410  32.447  27.446  1.00  0.00     0.173 A 
ATOM     64  C   UNL A   1      46.789  32.349  27.339  1.00  0.00     0.173 A 
ATOM     65  F   UNL A   1      43.216  32.042  27.904  1.00  0.00    -0.203 F 
ATOM     66  C   UNL A   1      44.416  33.411  26.435  1.00  0.00     0.198 A 
ATOM     67  C   UNL A   1      46.793  33.348  26.370  1.00  0.00     0.198 A 
ATOM     68  F   UNL A   1      47.996  31.839  27.600  1.00  0.00    -0.203 F 
ATOM     69  F   UNL A   1      43.255  33.858  25.939  1.00  0.00    -0.200 F 
ATOM     70  C   UNL A   1      45.606  33.854  25.891  1.00  0.00     0.200 A 
ATOM     71  F   UNL A   1      47.960  33.749  25.845  1.00  0.00    -0.200 F 
ATOM     72  F   UNL A   1      45.613  34.726  24.875  1.00  0.00    -0.200 F 
ENDBRANCH  48  62
BRANCH  49  73
ATOM     73  C   UNL A   1      37.376  30.998  30.496  1.00  0.00     0.064 A 
ATOM     74  C   UNL A   1      36.540  31.348  31.570  1.00  0.00     0.173 A 
ATOM     75  C   UNL A   1      36.992  31.466  29.225  1.00  0.00     0.173 A 
ATOM     76  F   UNL A   1      36.855  30.975  32.818  1.00  0.00    -0.203 F 
ATOM     77  C   UNL A   1      35.407  32.146  31.386  1.00  0.00     0.198 A 
ATOM     78  C   UNL A   1      35.854  32.253  29.042  1.00  0.00     0.198 A 
ATOM     79  F   UNL A   1      37.762  31.250  28.149  1.00  0.00    -0.203 F 
ATOM     80  F   UNL A   1      34.672  32.516  32.445  1.00  0.00    -0.200 F 
ATOM     81  C   UNL A   1      35.071  32.607  30.124  1.00  0.00     0.200 A 
ATOM     82  F   UNL A   1      35.561  32.722  27.820  1.00  0.00    -0.200 F 
ATOM     83  F   UNL A   1      34.023  33.425  29.957  1.00  0.00    -0.200 F 
ENDBRANCH  49  73
BRANCH  61  84
ATOM     84  C   UNL A   1      42.614  29.852  33.744  1.00  0.00     0.064 A 
ATOM     85  C   UNL A   1      42.660  30.335  35.062  1.00  0.00     0.173 A 
ATOM     86  C   UNL A   1      42.203  28.527  33.551  1.00  0.00     0.173 A 
ATOM     87  F   UNL A   1      42.957  31.616  35.316  1.00  0.00    -0.203 F 
ATOM     88  C   UNL A   1      42.357  29.507  36.141  1.00  0.00     0.198 A 
ATOM     89  C   UNL A   1      41.862  27.715  34.627  1.00  0.00     0.198 A 
ATOM     90  F   UNL A   1      42.094  28.032  32.308  1.00  0.00    -0.203 F 
ATOM     91  F   UNL A   1      42.432  29.981  37.394  1.00  0.00    -0.200 F 
ATOM     92  C   UNL A   1      41.953  28.201  35.922  1.00  0.00     0.200 A 
ATOM     93  F   UNL A   1      41.428  26.468  34.407  1.00  0.00    -0.200 F 
ATOM     94  F   UNL A   1      41.627  27.414  36.957  1.00  0.00    -0.200 F 
ENDBRANCH  61  84
ENDBRANCH  35  36
ENDBRANCH  28  30
ENDBRANCH  27  28
ENDBRANCH  26  27
ENDBRANCH  25  26
ENDBRANCH  24  25
ENDBRANCH  23  24
ENDBRANCH   1  23
TORSDOF 21
ENDMDL
