MODEL 1
REMARK VINA RESULT:     -11.2      0.000      0.000
REMARK SMILES O=C(CC1(CN2CC3(CCCCC3)CC2=O)CCCCC1)OCCOCCOCCOC(=O)c1ccc(-c2c3nc(c(-c4c(F)c(F)c(F)c(F)c4F)c4ccc([nH]4)c(-c4c(F)c(F)c(F)c(F)c4F)c4nc(c(-c5c(F)c(F)c(F)c(F)c5F)c5ccc2[nH]5)C=C4)C=C3)cc1
REMARK SMILES IDX 26 1 25 2 24 3 23 4 22 5 2 6 1 7 3 8 4 9 17 10 21 11 18 12
REMARK SMILES IDX 20 13 19 14 5 15 6 16 7 17 15 18 8 19 14 20 16 21 9 22 13 23
REMARK SMILES IDX 10 24 12 25 11 26 27 27 28 28 29 29 30 30 31 31 32 32 33 33
REMARK SMILES IDX 34 34 35 35 96 36 36 37 95 38 37 39 38 40 39 41 89 42 40 43
REMARK SMILES IDX 94 44 88 45 90 46 41 47 93 48 87 49 86 50 42 52 74 53 54 54
REMARK SMILES IDX 73 55 55 56 58 57 72 58 91 59 56 60 57 61 71 63 92 64 59 65
REMARK SMILES IDX 43 66 44 67 52 68 45 69 46 70 50 71 53 72 47 73 48 74 51 75
REMARK SMILES IDX 49 76 75 77 76 78 84 79 77 80 78 81 82 82 85 83 79 84 80 85
REMARK SMILES IDX 83 86 81 87 60 88 61 89 69 90 62 91 63 92 67 93 70 94 64 95
REMARK SMILES IDX 65 96 68 97 66 98
REMARK H PARENT 90 51 58 62
REMARK Flexibility Score: inf
ROOT
ATOM      1  C   UNL A   1      35.639  23.583  24.339  1.00  0.00     0.188 C 
ENDROOT
BRANCH   1   2
ATOM      2  O   UNL A   1      34.429  23.257  24.993  1.00  0.00    -0.376 OA
BRANCH   2   3
ATOM      3  C   UNL A   1      33.452  22.466  24.332  1.00  0.00     0.202 C 
BRANCH   3   4
ATOM      4  C   UNL A   1      31.976  22.659  24.655  1.00  0.00     0.261 C 
BRANCH   4   5
ATOM      5  O   UNL A   1      31.411  23.997  24.804  1.00  0.00    -0.463 OA
BRANCH   5   6
ATOM      6  C   UNL A   1      31.379  24.949  25.753  1.00  0.00     0.306 C 
ATOM      7  O   UNL A   1      30.504  24.899  26.616  1.00  0.00    -0.252 OA
BRANCH   6   8
ATOM      8  C   UNL A   1      32.379  26.080  25.755  1.00  0.00     0.131 C 
BRANCH   8   9
ATOM      9  C   UNL A   1      32.281  27.073  24.569  1.00  0.00    -0.002 C 
ATOM     10  C   UNL A   1      33.031  28.410  24.893  1.00  0.00     0.009 C 
ATOM     11  C   UNL A   1      33.013  26.400  23.350  1.00  0.00     0.009 C 
ATOM     12  C   UNL A   1      33.369  29.267  23.675  1.00  0.00     0.001 C 
ATOM     13  C   UNL A   1      33.628  27.265  22.246  1.00  0.00     0.001 C 
ATOM     14  C   UNL A   1      34.317  28.506  22.766  1.00  0.00     0.000 C 
BRANCH   9  15
ATOM     15  C   UNL A   1      30.761  27.470  24.481  1.00  0.00     0.127 C 
BRANCH  15  16
ATOM     16  N   UNL A   1      29.957  27.517  23.252  1.00  0.00    -0.342 N 
ATOM     17  C   UNL A   1      30.097  28.445  22.163  1.00  0.00     0.127 C 
ATOM     18  C   UNL A   1      28.553  27.396  23.490  1.00  0.00     0.223 C 
ATOM     19  C   UNL A   1      29.044  29.513  22.469  1.00  0.00    -0.003 C 
ATOM     20  C   UNL A   1      27.865  28.568  22.777  1.00  0.00     0.109 C 
ATOM     21  O   UNL A   1      28.006  26.613  24.230  1.00  0.00    -0.275 OA
ATOM     22  C   UNL A   1      29.488  30.305  23.720  1.00  0.00     0.009 C 
ATOM     23  C   UNL A   1      28.847  30.447  21.266  1.00  0.00     0.009 C 
ATOM     24  C   UNL A   1      28.780  31.609  24.002  1.00  0.00     0.001 C 
ATOM     25  C   UNL A   1      28.174  31.781  21.604  1.00  0.00     0.001 C 
ATOM     26  C   UNL A   1      28.843  32.490  22.776  1.00  0.00     0.000 C 
ENDBRANCH  15  16
ENDBRANCH   9  15
ENDBRANCH   8   9
ENDBRANCH   6   8
ENDBRANCH   5   6
ENDBRANCH   4   5
ENDBRANCH   3   4
ENDBRANCH   2   3
ENDBRANCH   1   2
BRANCH   1  27
ATOM     27  C   UNL A   1      36.565  22.428  23.949  1.00  0.00     0.188 C 
BRANCH  27  28
ATOM     28  O   UNL A   1      36.553  21.250  24.731  1.00  0.00    -0.376 OA
BRANCH  28  29
ATOM     29  C   UNL A   1      37.770  20.533  24.914  1.00  0.00     0.202 C 
BRANCH  29  30
ATOM     30  C   UNL A   1      38.929  21.187  25.680  1.00  0.00     0.261 C 
BRANCH  30  31
ATOM     31  O   UNL A   1      39.622  20.311  26.595  1.00  0.00    -0.460 OA
BRANCH  31  32
ATOM     32  C   UNL A   1      40.881  19.967  26.235  1.00  0.00     0.338 C 
ATOM     33  O   UNL A   1      41.222  18.975  25.612  1.00  0.00    -0.246 OA
BRANCH  32  34
ATOM     34  C   UNL A   1      41.852  21.023  26.588  1.00  0.00     0.060 A 
ATOM     35  C   UNL A   1      42.050  21.316  27.944  1.00  0.00     0.016 A 
ATOM     36  C   UNL A   1      42.430  21.826  25.603  1.00  0.00     0.016 A 
ATOM     37  C   UNL A   1      42.785  22.441  28.323  1.00  0.00     0.010 A 
ATOM     38  C   UNL A   1      43.145  22.969  25.983  1.00  0.00     0.010 A 
ATOM     39  C   UNL A   1      43.287  23.307  27.343  1.00  0.00    -0.014 A 
BRANCH  39  40
ATOM     40  C   UNL A   1      43.753  24.665  27.729  1.00  0.00     0.031 A 
ATOM     41  C   UNL A   1      42.719  25.709  28.059  1.00  0.00     0.074 A 
ATOM     42  C   UNL A   1      45.059  24.974  27.805  1.00  0.00     0.049 A 
ATOM     43  N   UNL A   1      42.875  26.976  28.355  1.00  0.00    -0.248 NA
ATOM     44  C   UNL A   1      41.316  25.262  28.055  1.00  0.00     0.031 C 
ATOM     45  C   UNL A   1      46.163  24.049  27.570  1.00  0.00     0.029 A 
ATOM     46  N   UNL A   1      45.673  26.169  28.095  1.00  0.00    -0.354 N 
ATOM     47  C   UNL A   1      41.596  27.475  28.564  1.00  0.00     0.074 A 
ATOM     48  C   UNL A   1      40.672  26.385  28.337  1.00  0.00     0.031 C 
ATOM     49  C   UNL A   1      47.323  24.715  27.707  1.00  0.00     0.029 A 
ATOM     50  C   UNL A   1      47.042  26.120  28.006  1.00  0.00     0.049 A 
ATOM     51  H   UNL A   1      45.178  26.983  28.345  1.00  0.00     0.167 HD
ATOM     52  C   UNL A   1      41.220  28.727  28.920  1.00  0.00     0.037 A 
ATOM     53  C   UNL A   1      47.959  27.102  28.127  1.00  0.00     0.037 A 
ATOM     54  C   UNL A   1      42.131  29.817  29.149  1.00  0.00     0.049 A 
ATOM     55  C   UNL A   1      47.512  28.509  28.439  1.00  0.00     0.074 A 
ATOM     56  C   UNL A   1      41.845  31.117  29.529  1.00  0.00     0.029 A 
ATOM     57  N   UNL A   1      43.508  29.735  29.011  1.00  0.00    -0.354 N 
ATOM     58  N   UNL A   1      46.303  28.968  28.654  1.00  0.00    -0.248 NA
ATOM     59  C   UNL A   1      48.562  29.536  28.528  1.00  0.00     0.031 C 
ATOM     60  C   UNL A   1      43.044  31.836  29.571  1.00  0.00     0.029 A 
ATOM     61  C   UNL A   1      44.082  30.969  29.270  1.00  0.00     0.049 A 
ATOM     62  H   UNL A   1      44.005  28.921  28.766  1.00  0.00     0.167 HD
ATOM     63  C   UNL A   1      46.450  30.323  28.931  1.00  0.00     0.074 A 
ATOM     64  C   UNL A   1      47.866  30.612  28.869  1.00  0.00     0.031 C 
ATOM     65  C   UNL A   1      45.495  31.244  29.215  1.00  0.00     0.037 A 
BRANCH  52  66
ATOM     66  C   UNL A   1      39.751  28.994  29.059  1.00  0.00     0.064 A 
ATOM     67  C   UNL A   1      38.961  29.360  27.960  1.00  0.00     0.173 A 
ATOM     68  C   UNL A   1      39.119  28.852  30.304  1.00  0.00     0.173 A 
ATOM     69  F   UNL A   1      39.520  29.524  26.751  1.00  0.00    -0.203 F 
ATOM     70  C   UNL A   1      37.596  29.597  28.107  1.00  0.00     0.198 A 
ATOM     71  C   UNL A   1      37.751  29.061  30.441  1.00  0.00     0.198 A 
ATOM     72  F   UNL A   1      39.830  28.499  31.387  1.00  0.00    -0.203 F 
ATOM     73  F   UNL A   1      36.868  29.988  27.051  1.00  0.00    -0.200 F 
ATOM     74  C   UNL A   1      36.991  29.440  29.345  1.00  0.00     0.200 A 
ATOM     75  F   UNL A   1      37.166  28.899  31.637  1.00  0.00    -0.200 F 
ATOM     76  F   UNL A   1      35.677  29.662  29.484  1.00  0.00    -0.200 F 
ENDBRANCH  52  66
BRANCH  53  77
ATOM     77  C   UNL A   1      49.402  26.799  27.933  1.00  0.00     0.064 A 
ATOM     78  C   UNL A   1      49.964  26.738  26.650  1.00  0.00     0.173 A 
ATOM     79  C   UNL A   1      50.242  26.533  29.025  1.00  0.00     0.173 A 
ATOM     80  F   UNL A   1      49.196  26.955  25.572  1.00  0.00    -0.203 F 
ATOM     81  C   UNL A   1      51.305  26.405  26.467  1.00  0.00     0.198 A 
ATOM     82  C   UNL A   1      51.589  26.232  28.842  1.00  0.00     0.198 A 
ATOM     83  F   UNL A   1      49.754  26.574  30.274  1.00  0.00    -0.203 F 
ATOM     84  F   UNL A   1      51.805  26.305  25.227  1.00  0.00    -0.200 F 
ATOM     85  C   UNL A   1      52.118  26.159  27.563  1.00  0.00     0.200 A 
ATOM     86  F   UNL A   1      52.375  26.011  29.906  1.00  0.00    -0.200 F 
ATOM     87  F   UNL A   1      53.408  25.845  27.387  1.00  0.00    -0.200 F 
ENDBRANCH  53  77
BRANCH  65  88
ATOM     88  C   UNL A   1      45.947  32.645  29.519  1.00  0.00     0.064 A 
ATOM     89  C   UNL A   1      46.298  33.042  30.818  1.00  0.00     0.173 A 
ATOM     90  C   UNL A   1      46.078  33.588  28.487  1.00  0.00     0.173 A 
ATOM     91  F   UNL A   1      46.179  32.182  31.841  1.00  0.00    -0.203 F 
ATOM     92  C   UNL A   1      46.741  34.337  31.076  1.00  0.00     0.198 A 
ATOM     93  C   UNL A   1      46.549  34.873  28.744  1.00  0.00     0.198 A 
ATOM     94  F   UNL A   1      45.764  33.258  27.225  1.00  0.00    -0.203 F 
ATOM     95  F   UNL A   1      47.030  34.707  32.331  1.00  0.00    -0.200 F 
ATOM     96  C   UNL A   1      46.874  35.248  30.038  1.00  0.00     0.200 A 
ATOM     97  F   UNL A   1      46.690  35.748  27.739  1.00  0.00    -0.200 F 
ATOM     98  F   UNL A   1      47.308  36.491  30.288  1.00  0.00    -0.200 F 
ENDBRANCH  65  88
ENDBRANCH  39  40
ENDBRANCH  32  34
ENDBRANCH  31  32
ENDBRANCH  30  31
ENDBRANCH  29  30
ENDBRANCH  28  29
ENDBRANCH  27  28
ENDBRANCH   1  27
TORSDOF 20
ENDMDL
MODEL 2
REMARK VINA RESULT:     -11.0      5.509     10.873
REMARK SMILES O=C(CC1(CN2CC3(CCCCC3)CC2=O)CCCCC1)OCCOCCOCCOC(=O)c1ccc(-c2c3nc(c(-c4c(F)c(F)c(F)c(F)c4F)c4ccc([nH]4)c(-c4c(F)c(F)c(F)c(F)c4F)c4nc(c(-c5c(F)c(F)c(F)c(F)c5F)c5ccc2[nH]5)C=C4)C=C3)cc1
REMARK SMILES IDX 26 1 25 2 24 3 23 4 22 5 2 6 1 7 3 8 4 9 17 10 21 11 18 12
REMARK SMILES IDX 20 13 19 14 5 15 6 16 7 17 15 18 8 19 14 20 16 21 9 22 13 23
REMARK SMILES IDX 10 24 12 25 11 26 27 27 28 28 29 29 30 30 31 31 32 32 33 33
REMARK SMILES IDX 34 34 35 35 96 36 36 37 95 38 37 39 38 40 39 41 89 42 40 43
REMARK SMILES IDX 94 44 88 45 90 46 41 47 93 48 87 49 86 50 42 52 74 53 54 54
REMARK SMILES IDX 73 55 55 56 58 57 72 58 91 59 56 60 57 61 71 63 92 64 59 65
REMARK SMILES IDX 43 66 44 67 52 68 45 69 46 70 50 71 53 72 47 73 48 74 51 75
REMARK SMILES IDX 49 76 75 77 76 78 84 79 77 80 78 81 82 82 85 83 79 84 80 85
REMARK SMILES IDX 83 86 81 87 60 88 61 89 69 90 62 91 63 92 67 93 70 94 64 95
REMARK SMILES IDX 65 96 68 97 66 98
REMARK H PARENT 90 51 58 62
REMARK Flexibility Score: inf
ROOT
ATOM      1  C   UNL A   1      32.916  29.335  24.200  1.00  0.00     0.188 C 
ENDROOT
BRANCH   1   2
ATOM      2  O   UNL A   1      32.412  28.422  23.246  1.00  0.00    -0.376 OA
BRANCH   2   3
ATOM      3  C   UNL A   1      31.198  27.728  23.495  1.00  0.00     0.202 C 
BRANCH   3   4
ATOM      4  C   UNL A   1      31.208  26.211  23.637  1.00  0.00     0.261 C 
BRANCH   4   5
ATOM      5  O   UNL A   1      32.465  25.479  23.761  1.00  0.00    -0.463 OA
BRANCH   5   6
ATOM      6  C   UNL A   1      33.352  24.903  22.930  1.00  0.00     0.306 C 
ATOM      7  O   UNL A   1      34.027  25.618  22.191  1.00  0.00    -0.252 OA
BRANCH   6   8
ATOM      8  C   UNL A   1      33.508  23.403  22.877  1.00  0.00     0.131 C 
BRANCH   8   9
ATOM      9  C   UNL A   1      34.515  22.791  23.885  1.00  0.00    -0.002 C 
ATOM     10  C   UNL A   1      35.987  22.952  23.375  1.00  0.00     0.009 C 
ATOM     11  C   UNL A   1      34.380  23.614  25.219  1.00  0.00     0.009 C 
ATOM     12  C   UNL A   1      37.059  22.788  24.450  1.00  0.00     0.001 C 
ATOM     13  C   UNL A   1      35.562  23.709  26.189  1.00  0.00     0.001 C 
ATOM     14  C   UNL A   1      36.897  23.873  25.499  1.00  0.00     0.000 C 
BRANCH   9  15
ATOM     15  C   UNL A   1      34.242  21.241  23.859  1.00  0.00     0.127 C 
BRANCH  15  16
ATOM     16  N   UNL A   1      33.008  20.582  24.305  1.00  0.00    -0.342 N 
ATOM     17  C   UNL A   1      32.863  19.679  25.414  1.00  0.00     0.127 C 
ATOM     18  C   UNL A   1      32.251  20.014  23.234  1.00  0.00     0.223 C 
ATOM     19  C   UNL A   1      32.946  18.297  24.761  1.00  0.00    -0.003 C 
ATOM     20  C   UNL A   1      31.964  18.551  23.599  1.00  0.00     0.109 C 
ATOM     21  O   UNL A   1      32.002  20.527  22.168  1.00  0.00    -0.275 OA
ATOM     22  C   UNL A   1      34.388  18.070  24.256  1.00  0.00     0.009 C 
ATOM     23  C   UNL A   1      32.528  17.199  25.752  1.00  0.00     0.009 C 
ATOM     24  C   UNL A   1      34.779  16.660  23.884  1.00  0.00     0.001 C 
ATOM     25  C   UNL A   1      32.991  15.790  25.365  1.00  0.00     0.001 C 
ATOM     26  C   UNL A   1      34.479  15.734  25.040  1.00  0.00     0.000 C 
ENDBRANCH  15  16
ENDBRANCH   9  15
ENDBRANCH   8   9
ENDBRANCH   6   8
ENDBRANCH   5   6
ENDBRANCH   4   5
ENDBRANCH   3   4
ENDBRANCH   2   3
ENDBRANCH   1   2
BRANCH   1  27
ATOM     27  C   UNL A   1      32.146  29.478  25.515  1.00  0.00     0.188 C 
BRANCH  27  28
ATOM     28  O   UNL A   1      31.162  30.488  25.624  1.00  0.00    -0.376 OA
BRANCH  28  29
ATOM     29  C   UNL A   1      31.408  31.600  26.478  1.00  0.00     0.202 C 
BRANCH  29  30
ATOM     30  C   UNL A   1      32.729  31.681  27.258  1.00  0.00     0.261 C 
BRANCH  30  31
ATOM     31  O   UNL A   1      33.465  32.910  27.077  1.00  0.00    -0.460 OA
BRANCH  31  32
ATOM     32  C   UNL A   1      33.302  33.837  28.051  1.00  0.00     0.338 C 
ATOM     33  O   UNL A   1      32.373  34.618  28.175  1.00  0.00    -0.246 OA
BRANCH  32  34
ATOM     34  C   UNL A   1      34.362  33.735  29.077  1.00  0.00     0.060 A 
ATOM     35  C   UNL A   1      35.666  34.108  28.722  1.00  0.00     0.016 A 
ATOM     36  C   UNL A   1      34.114  33.127  30.308  1.00  0.00     0.016 A 
ATOM     37  C   UNL A   1      36.736  33.830  29.576  1.00  0.00     0.010 A 
ATOM     38  C   UNL A   1      35.190  32.824  31.151  1.00  0.00     0.010 A 
ATOM     39  C   UNL A   1      36.510  33.133  30.769  1.00  0.00    -0.014 A 
BRANCH  39  40
ATOM     40  C   UNL A   1      37.657  32.529  31.498  1.00  0.00     0.031 A 
ATOM     41  C   UNL A   1      38.350  31.341  30.883  1.00  0.00     0.074 A 
ATOM     42  C   UNL A   1      38.095  33.023  32.668  1.00  0.00     0.049 A 
ATOM     43  N   UNL A   1      39.325  30.605  31.357  1.00  0.00    -0.248 NA
ATOM     44  C   UNL A   1      37.879  30.928  29.552  1.00  0.00     0.031 C 
ATOM     45  C   UNL A   1      37.557  34.199  33.346  1.00  0.00     0.029 A 
ATOM     46  N   UNL A   1      39.097  32.581  33.500  1.00  0.00    -0.354 N 
ATOM     47  C   UNL A   1      39.576  29.642  30.388  1.00  0.00     0.074 A 
ATOM     48  C   UNL A   1      38.637  29.869  29.311  1.00  0.00     0.031 C 
ATOM     49  C   UNL A   1      38.222  34.376  34.501  1.00  0.00     0.029 A 
ATOM     50  C   UNL A   1      39.209  33.306  34.660  1.00  0.00     0.049 A 
ATOM     51  H   UNL A   1      39.678  31.817  33.284  1.00  0.00     0.167 HD
ATOM     52  C   UNL A   1      40.509  28.660  30.388  1.00  0.00     0.037 A 
ATOM     53  C   UNL A   1      40.000  33.113  35.735  1.00  0.00     0.037 A 
ATOM     54  C   UNL A   1      41.447  28.427  31.454  1.00  0.00     0.049 A 
ATOM     55  C   UNL A   1      40.973  31.959  35.751  1.00  0.00     0.074 A 
ATOM     56  C   UNL A   1      42.439  27.466  31.537  1.00  0.00     0.029 A 
ATOM     57  N   UNL A   1      41.503  29.161  32.629  1.00  0.00    -0.354 N 
ATOM     58  N   UNL A   1      41.217  31.066  34.824  1.00  0.00    -0.248 NA
ATOM     59  C   UNL A   1      41.784  31.790  36.968  1.00  0.00     0.031 C 
ATOM     60  C   UNL A   1      43.063  27.586  32.783  1.00  0.00     0.029 A 
ATOM     61  C   UNL A   1      42.494  28.656  33.454  1.00  0.00     0.049 A 
ATOM     62  H   UNL A   1      40.925  29.928  32.845  1.00  0.00     0.167 HD
ATOM     63  C   UNL A   1      42.225  30.251  35.330  1.00  0.00     0.074 A 
ATOM     64  C   UNL A   1      42.556  30.762  36.642  1.00  0.00     0.031 C 
ATOM     65  C   UNL A   1      42.823  29.178  34.756  1.00  0.00     0.037 A 
BRANCH  52  66
ATOM     66  C   UNL A   1      40.543  27.739  29.205  1.00  0.00     0.064 A 
ATOM     67  C   UNL A   1      39.707  26.616  29.119  1.00  0.00     0.173 A 
ATOM     68  C   UNL A   1      41.403  28.003  28.127  1.00  0.00     0.173 A 
ATOM     69  F   UNL A   1      38.878  26.313  30.129  1.00  0.00    -0.203 F 
ATOM     70  C   UNL A   1      39.748  25.777  28.008  1.00  0.00     0.198 A 
ATOM     71  C   UNL A   1      41.419  27.179  27.006  1.00  0.00     0.198 A 
ATOM     72  F   UNL A   1      42.219  29.067  28.158  1.00  0.00    -0.203 F 
ATOM     73  F   UNL A   1      38.972  24.685  27.966  1.00  0.00    -0.200 F 
ATOM     74  C   UNL A   1      40.598  26.063  26.950  1.00  0.00     0.200 A 
ATOM     75  F   UNL A   1      42.234  27.462  25.980  1.00  0.00    -0.200 F 
ATOM     76  F   UNL A   1      40.632  25.258  25.879  1.00  0.00    -0.200 F 
ENDBRANCH  52  66
BRANCH  53  77
ATOM     77  C   UNL A   1      39.897  34.024  36.907  1.00  0.00     0.064 A 
ATOM     78  C   UNL A   1      40.657  35.199  36.980  1.00  0.00     0.173 A 
ATOM     79  C   UNL A   1      39.058  33.721  37.990  1.00  0.00     0.173 A 
ATOM     80  F   UNL A   1      41.496  35.517  35.983  1.00  0.00    -0.203 F 
ATOM     81  C   UNL A   1      40.597  36.026  38.101  1.00  0.00     0.198 A 
ATOM     82  C   UNL A   1      38.975  34.565  39.095  1.00  0.00     0.198 A 
ATOM     83  F   UNL A   1      38.312  32.607  37.973  1.00  0.00    -0.203 F 
ATOM     84  F   UNL A   1      41.372  37.118  38.167  1.00  0.00    -0.200 F 
ATOM     85  C   UNL A   1      39.751  35.712  39.153  1.00  0.00     0.200 A 
ATOM     86  F   UNL A   1      38.144  34.266  40.103  1.00  0.00    -0.200 F 
ATOM     87  F   UNL A   1      39.689  36.511  40.228  1.00  0.00    -0.200 F 
ENDBRANCH  53  77
BRANCH  65  88
ATOM     88  C   UNL A   1      43.925  28.503  35.522  1.00  0.00     0.064 A 
ATOM     89  C   UNL A   1      43.664  27.472  36.437  1.00  0.00     0.173 A 
ATOM     90  C   UNL A   1      45.266  28.859  35.301  1.00  0.00     0.173 A 
ATOM     91  F   UNL A   1      42.400  27.103  36.694  1.00  0.00    -0.203 F 
ATOM     92  C   UNL A   1      44.701  26.839  37.118  1.00  0.00     0.198 A 
ATOM     93  C   UNL A   1      46.302  28.203  35.961  1.00  0.00     0.198 A 
ATOM     94  F   UNL A   1      45.572  29.832  34.430  1.00  0.00    -0.203 F 
ATOM     95  F   UNL A   1      44.425  25.886  38.019  1.00  0.00    -0.200 F 
ATOM     96  C   UNL A   1      46.018  27.199  36.874  1.00  0.00     0.200 A 
ATOM     97  F   UNL A   1      47.574  28.543  35.714  1.00  0.00    -0.200 F 
ATOM     98  F   UNL A   1      47.015  26.583  37.524  1.00  0.00    -0.200 F 
ENDBRANCH  65  88
ENDBRANCH  39  40
ENDBRANCH  32  34
ENDBRANCH  31  32
ENDBRANCH  30  31
ENDBRANCH  29  30
ENDBRANCH  28  29
ENDBRANCH  27  28
ENDBRANCH   1  27
TORSDOF 20
ENDMDL
MODEL 3
REMARK VINA RESULT:     -10.9      1.106      7.006
REMARK SMILES O=C(CC1(CN2CC3(CCCCC3)CC2=O)CCCCC1)OCCOCCOCCOC(=O)c1ccc(-c2c3nc(c(-c4c(F)c(F)c(F)c(F)c4F)c4ccc([nH]4)c(-c4c(F)c(F)c(F)c(F)c4F)c4nc(c(-c5c(F)c(F)c(F)c(F)c5F)c5ccc2[nH]5)C=C4)C=C3)cc1
REMARK SMILES IDX 26 1 25 2 24 3 23 4 22 5 2 6 1 7 3 8 4 9 17 10 21 11 18 12
REMARK SMILES IDX 20 13 19 14 5 15 6 16 7 17 15 18 8 19 14 20 16 21 9 22 13 23
REMARK SMILES IDX 10 24 12 25 11 26 27 27 28 28 29 29 30 30 31 31 32 32 33 33
REMARK SMILES IDX 34 34 35 35 96 36 36 37 95 38 37 39 38 40 39 41 89 42 40 43
REMARK SMILES IDX 94 44 88 45 90 46 41 47 93 48 87 49 86 50 42 52 74 53 54 54
REMARK SMILES IDX 73 55 55 56 58 57 72 58 91 59 56 60 57 61 71 63 92 64 59 65
REMARK SMILES IDX 43 66 44 67 52 68 45 69 46 70 50 71 53 72 47 73 48 74 51 75
REMARK SMILES IDX 49 76 75 77 76 78 84 79 77 80 78 81 82 82 85 83 79 84 80 85
REMARK SMILES IDX 83 86 81 87 60 88 61 89 69 90 62 91 63 92 67 93 70 94 64 95
REMARK SMILES IDX 65 96 68 97 66 98
REMARK H PARENT 90 51 58 62
REMARK Flexibility Score: inf
ROOT
ATOM      1  C   UNL A   1      35.582  22.434  25.712  1.00  0.00     0.188 C 
ENDROOT
BRANCH   1   2
ATOM      2  O   UNL A   1      34.224  22.039  25.723  1.00  0.00    -0.376 OA
BRANCH   2   3
ATOM      3  C   UNL A   1      33.424  22.205  24.561  1.00  0.00     0.202 C 
BRANCH   3   4
ATOM      4  C   UNL A   1      31.981  22.674  24.694  1.00  0.00     0.261 C 
BRANCH   4   5
ATOM      5  O   UNL A   1      31.665  24.091  24.840  1.00  0.00    -0.463 OA
BRANCH   5   6
ATOM      6  C   UNL A   1      31.564  24.976  25.847  1.00  0.00     0.306 C 
ATOM      7  O   UNL A   1      30.758  24.761  26.751  1.00  0.00    -0.252 OA
BRANCH   6   8
ATOM      8  C   UNL A   1      32.404  26.230  25.868  1.00  0.00     0.131 C 
BRANCH   8   9
ATOM      9  C   UNL A   1      32.273  27.154  24.629  1.00  0.00    -0.002 C 
ATOM     10  C   UNL A   1      32.981  28.529  24.878  1.00  0.00     0.009 C 
ATOM     11  C   UNL A   1      33.025  26.437  23.448  1.00  0.00     0.009 C 
ATOM     12  C   UNL A   1      33.290  29.328  23.613  1.00  0.00     0.001 C 
ATOM     13  C   UNL A   1      33.611  27.260  22.295  1.00  0.00     0.001 C 
ATOM     14  C   UNL A   1      34.261  28.549  22.745  1.00  0.00     0.000 C 
BRANCH   9  15
ATOM     15  C   UNL A   1      30.741  27.497  24.524  1.00  0.00     0.127 C 
BRANCH  15  16
ATOM     16  N   UNL A   1      29.956  27.535  23.283  1.00  0.00    -0.342 N 
ATOM     17  C   UNL A   1      30.115  28.451  22.187  1.00  0.00     0.127 C 
ATOM     18  C   UNL A   1      28.548  27.424  23.502  1.00  0.00     0.223 C 
ATOM     19  C   UNL A   1      29.065  29.528  22.467  1.00  0.00    -0.003 C 
ATOM     20  C   UNL A   1      27.876  28.593  22.768  1.00  0.00     0.109 C 
ATOM     21  O   UNL A   1      27.986  26.651  24.241  1.00  0.00    -0.275 OA
ATOM     22  C   UNL A   1      29.494  30.331  23.716  1.00  0.00     0.009 C 
ATOM     23  C   UNL A   1      28.890  30.451  21.252  1.00  0.00     0.009 C 
ATOM     24  C   UNL A   1      28.789  31.641  23.975  1.00  0.00     0.001 C 
ATOM     25  C   UNL A   1      28.219  31.792  21.567  1.00  0.00     0.001 C 
ATOM     26  C   UNL A   1      28.875  32.509  22.742  1.00  0.00     0.000 C 
ENDBRANCH  15  16
ENDBRANCH   9  15
ENDBRANCH   8   9
ENDBRANCH   6   8
ENDBRANCH   5   6
ENDBRANCH   4   5
ENDBRANCH   3   4
ENDBRANCH   2   3
ENDBRANCH   1   2
BRANCH   1  27
ATOM     27  C   UNL A   1      36.530  21.671  24.783  1.00  0.00     0.188 C 
BRANCH  27  28
ATOM     28  O   UNL A   1      36.733  20.289  24.999  1.00  0.00    -0.376 OA
BRANCH  28  29
ATOM     29  C   UNL A   1      38.065  19.784  25.024  1.00  0.00     0.202 C 
BRANCH  29  30
ATOM     30  C   UNL A   1      39.163  20.574  25.751  1.00  0.00     0.261 C 
BRANCH  30  31
ATOM     31  O   UNL A   1      39.980  19.792  26.648  1.00  0.00    -0.460 OA
BRANCH  31  32
ATOM     32  C   UNL A   1      41.270  19.626  26.269  1.00  0.00     0.338 C 
ATOM     33  O   UNL A   1      41.761  18.642  25.743  1.00  0.00    -0.246 OA
BRANCH  32  34
ATOM     34  C   UNL A   1      42.052  20.865  26.462  1.00  0.00     0.060 A 
ATOM     35  C   UNL A   1      42.285  21.305  27.772  1.00  0.00     0.016 A 
ATOM     36  C   UNL A   1      42.404  21.668  25.376  1.00  0.00     0.016 A 
ATOM     37  C   UNL A   1      42.826  22.571  28.005  1.00  0.00     0.010 A 
ATOM     38  C   UNL A   1      42.922  22.949  25.611  1.00  0.00     0.010 A 
ATOM     39  C   UNL A   1      43.092  23.423  26.926  1.00  0.00    -0.014 A 
BRANCH  39  40
ATOM     40  C   UNL A   1      43.326  24.872  27.170  1.00  0.00     0.031 A 
ATOM     41  C   UNL A   1      44.675  25.447  26.826  1.00  0.00     0.074 A 
ATOM     42  C   UNL A   1      42.368  25.672  27.667  1.00  0.00     0.049 A 
ATOM     43  N   UNL A   1      45.138  26.659  27.010  1.00  0.00    -0.248 NA
ATOM     44  C   UNL A   1      45.632  24.528  26.188  1.00  0.00     0.031 C 
ATOM     45  C   UNL A   1      41.004  25.262  27.989  1.00  0.00     0.029 A 
ATOM     46  N   UNL A   1      42.409  27.006  27.998  1.00  0.00    -0.354 N 
ATOM     47  C   UNL A   1      46.437  26.644  26.517  1.00  0.00     0.074 A 
ATOM     48  C   UNL A   1      46.700  25.300  26.051  1.00  0.00     0.031 C 
ATOM     49  C   UNL A   1      40.341  26.319  28.489  1.00  0.00     0.029 A 
ATOM     50  C   UNL A   1      41.243  27.471  28.555  1.00  0.00     0.049 A 
ATOM     51  H   UNL A   1      43.199  27.574  27.849  1.00  0.00     0.167 HD
ATOM     52  C   UNL A   1      47.331  27.659  26.451  1.00  0.00     0.037 A 
ATOM     53  C   UNL A   1      40.948  28.678  29.079  1.00  0.00     0.037 A 
ATOM     54  C   UNL A   1      47.078  28.999  26.912  1.00  0.00     0.049 A 
ATOM     55  C   UNL A   1      41.990  29.771  29.073  1.00  0.00     0.074 A 
ATOM     56  C   UNL A   1      47.918  30.099  26.872  1.00  0.00     0.029 A 
ATOM     57  N   UNL A   1      45.898  29.420  27.504  1.00  0.00    -0.354 N 
ATOM     58  N   UNL A   1      43.208  29.755  28.590  1.00  0.00    -0.248 NA
ATOM     59  C   UNL A   1      41.611  31.053  29.688  1.00  0.00     0.031 C 
ATOM     60  C   UNL A   1      47.264  31.172  27.486  1.00  0.00     0.029 A 
ATOM     61  C   UNL A   1      45.998  30.755  27.860  1.00  0.00     0.049 A 
ATOM     62  H   UNL A   1      45.105  28.854  27.649  1.00  0.00     0.167 HD
ATOM     63  C   UNL A   1      43.727  31.026  28.812  1.00  0.00     0.074 A 
ATOM     64  C   UNL A   1      42.688  31.793  29.465  1.00  0.00     0.031 C 
ATOM     65  C   UNL A   1      44.954  31.513  28.501  1.00  0.00     0.037 A 
BRANCH  52  66
ATOM     66  C   UNL A   1      48.685  27.352  25.882  1.00  0.00     0.064 A 
ATOM     67  C   UNL A   1      48.933  27.398  24.503  1.00  0.00     0.173 A 
ATOM     68  C   UNL A   1      49.756  27.039  26.734  1.00  0.00     0.173 A 
ATOM     69  F   UNL A   1      47.938  27.678  23.647  1.00  0.00    -0.203 F 
ATOM     70  C   UNL A   1      50.199  27.117  23.994  1.00  0.00     0.198 A 
ATOM     71  C   UNL A   1      51.026  26.788  26.223  1.00  0.00     0.198 A 
ATOM     72  F   UNL A   1      49.571  26.986  28.062  1.00  0.00    -0.203 F 
ATOM     73  F   UNL A   1      50.403  27.124  22.670  1.00  0.00    -0.200 F 
ATOM     74  C   UNL A   1      51.245  26.820  24.855  1.00  0.00     0.200 A 
ATOM     75  F   UNL A   1      52.039  26.510  27.057  1.00  0.00    -0.200 F 
ATOM     76  F   UNL A   1      52.464  26.556  24.364  1.00  0.00    -0.200 F 
ENDBRANCH  52  66
BRANCH  53  77
ATOM     77  C   UNL A   1      39.608  28.922  29.676  1.00  0.00     0.064 A 
ATOM     78  C   UNL A   1      38.553  29.429  28.906  1.00  0.00     0.173 A 
ATOM     79  C   UNL A   1      39.365  28.681  31.037  1.00  0.00     0.173 A 
ATOM     80  F   UNL A   1      38.743  29.702  27.607  1.00  0.00    -0.203 F 
ATOM     81  C   UNL A   1      37.312  29.703  29.478  1.00  0.00     0.198 A 
ATOM     82  C   UNL A   1      38.115  28.927  31.600  1.00  0.00     0.198 A 
ATOM     83  F   UNL A   1      40.341  28.201  31.820  1.00  0.00    -0.203 F 
ATOM     84  F   UNL A   1      36.334  30.234  28.729  1.00  0.00    -0.200 F 
ATOM     85  C   UNL A   1      37.092  29.446  30.822  1.00  0.00     0.200 A 
ATOM     86  F   UNL A   1      37.902  28.661  32.896  1.00  0.00    -0.200 F 
ATOM     87  F   UNL A   1      35.897  29.704  31.370  1.00  0.00    -0.200 F 
ENDBRANCH  53  77
BRANCH  65  88
ATOM     88  C   UNL A   1      45.234  32.953  28.824  1.00  0.00     0.064 A 
ATOM     89  C   UNL A   1      44.815  33.994  27.983  1.00  0.00     0.173 A 
ATOM     90  C   UNL A   1      45.888  33.299  30.019  1.00  0.00     0.173 A 
ATOM     91  F   UNL A   1      44.198  33.717  26.824  1.00  0.00    -0.203 F 
ATOM     92  C   UNL A   1      45.059  35.325  28.312  1.00  0.00     0.198 A 
ATOM     93  C   UNL A   1      46.105  34.631  30.359  1.00  0.00     0.198 A 
ATOM     94  F   UNL A   1      46.302  32.343  30.863  1.00  0.00    -0.203 F 
ATOM     95  F   UNL A   1      44.688  36.301  27.473  1.00  0.00    -0.200 F 
ATOM     96  C   UNL A   1      45.697  35.642  29.503  1.00  0.00     0.200 A 
ATOM     97  F   UNL A   1      46.707  34.937  31.516  1.00  0.00    -0.200 F 
ATOM     98  F   UNL A   1      45.924  36.924  29.823  1.00  0.00    -0.200 F 
ENDBRANCH  65  88
ENDBRANCH  39  40
ENDBRANCH  32  34
ENDBRANCH  31  32
ENDBRANCH  30  31
ENDBRANCH  29  30
ENDBRANCH  28  29
ENDBRANCH  27  28
ENDBRANCH   1  27
TORSDOF 20
ENDMDL
