MODEL 1
REMARK VINA RESULT:     -12.5      0.000      0.000
REMARK SMILES CO[C@H]1C[C@@H](C(=O)OCCOCCOCCOC(=O)c2ccc(-c3c4nc(c(-c5c(F)c(F)c(F)c(F)c5F)c5ccc([nH]5)c(-c5c(F)c(F)c(F)c(F)c5F)c5nc(c(-c6c(F)c(F)c(F)c(F)c6F)c6ccc3[nH]6)C=C5)C=C4)cc2)N(C(=O)Nc2cc(C)cc(F)c2)C1
REMARK SMILES IDX 12 1 11 2 10 3 9 4 8 5 6 6 7 7 5 8 3 9 4 10 95 11 83 12 2 13
REMARK SMILES IDX 1 14 84 15 85 16 86 17 87 19 88 20 94 21 89 22 92 23 90 24
REMARK SMILES IDX 91 25 93 26 13 27 14 28 15 29 16 30 17 31 18 32 19 33 20 34
REMARK SMILES IDX 21 35 82 36 22 37 81 38 23 39 24 40 25 41 75 42 26 43 80 44
REMARK SMILES IDX 74 45 76 46 27 47 79 48 73 49 72 50 28 52 60 53 40 54 59 55
REMARK SMILES IDX 41 56 44 57 58 58 77 59 42 60 43 61 57 63 78 64 45 65 29 66
REMARK SMILES IDX 30 67 38 68 31 69 32 70 36 71 39 72 33 73 34 74 37 75 35 76
REMARK SMILES IDX 61 77 62 78 70 79 63 80 64 81 68 82 71 83 65 84 66 85 69 86
REMARK SMILES IDX 67 87 46 88 47 89 55 90 48 91 49 92 53 93 56 94 50 95 51 96
REMARK SMILES IDX 54 97 52 98
REMARK H PARENT 86 18 76 51 44 62
REMARK Flexibility Score: inf
ROOT
ATOM      1  C   UNL A   1      40.419  22.116  27.460  1.00  0.00     0.188 C 
ENDROOT
BRANCH   1   2
ATOM      2  O   UNL A   1      39.119  23.326  26.532  1.00  0.00    -0.376 OA
BRANCH   2   3
ATOM      3  C   UNL A   1      37.591  23.662  26.256  1.00  0.00     0.202 C 
BRANCH   3   4
ATOM      4  C   UNL A   1      36.665  22.933  25.171  1.00  0.00     0.261 C 
BRANCH   4   5
ATOM      5  O   UNL A   1      35.229  23.169  25.235  1.00  0.00    -0.462 OA
BRANCH   5   6
ATOM      6  C   UNL A   1      34.488  22.471  26.162  1.00  0.00     0.329 C 
ATOM      7  O   UNL A   1      34.738  22.482  27.363  1.00  0.00    -0.250 OA
BRANCH   6   8
ATOM      8  C   UNL A   1      33.095  22.050  25.577  1.00  0.00     0.199 C 
ATOM      9  C   UNL A   1      32.420  21.949  23.296  1.00  0.00     0.140 C 
ATOM     10  C   UNL A   1      33.057  21.111  24.391  1.00  0.00     0.071 C 
ATOM     11  C   UNL A   1      31.547  22.974  24.067  1.00  0.00     0.154 C 
ATOM     12  N   UNL A   1      32.104  23.039  25.417  1.00  0.00    -0.308 N 
BRANCH   9  13
ATOM     13  O   UNL A   1      33.374  22.631  22.485  1.00  0.00    -0.380 OA
ATOM     14  C   UNL A   1      32.861  23.757  21.784  1.00  0.00     0.195 C 
ENDBRANCH   9  13
BRANCH  12  15
ATOM     15  C   UNL A   1      31.502  23.663  26.459  1.00  0.00     0.322 C 
ATOM     16  O   UNL A   1      31.046  22.999  27.396  1.00  0.00    -0.248 OA
ATOM     17  N   UNL A   1      31.403  25.023  26.560  1.00  0.00    -0.308 N 
ATOM     18  H   UNL A   1      30.704  25.244  27.217  1.00  0.00     0.171 HD
BRANCH  17  19
ATOM     19  C   UNL A   1      31.964  26.251  26.042  1.00  0.00     0.046 A 
ATOM     20  C   UNL A   1      30.801  27.141  24.906  1.00  0.00     0.029 A 
ATOM     21  C   UNL A   1      33.523  27.121  26.481  1.00  0.00     0.065 A 
ATOM     22  C   UNL A   1      31.199  28.802  24.326  1.00  0.00    -0.046 A 
ATOM     23  C   UNL A   1      33.877  28.749  25.839  1.00  0.00     0.125 A 
ATOM     24  C   UNL A   1      30.162  29.744  23.792  1.00  0.00     0.044 C 
ATOM     25  C   UNL A   1      32.730  29.582  24.812  1.00  0.00     0.042 A 
ATOM     26  F   UNL A   1      35.021  29.348  26.196  1.00  0.00    -0.207 F 
ENDBRANCH  17  19
ENDBRANCH  12  15
ENDBRANCH   6   8
ENDBRANCH   5   6
ENDBRANCH   4   5
ENDBRANCH   3   4
ENDBRANCH   2   3
ENDBRANCH   1   2
BRANCH   1  27
ATOM     27  C   UNL A   1      41.533  20.936  26.853  1.00  0.00     0.188 C 
BRANCH  27  28
ATOM     28  O   UNL A   1      42.285  21.168  25.666  1.00  0.00    -0.376 OA
BRANCH  28  29
ATOM     29  C   UNL A   1      43.605  21.669  25.592  1.00  0.00     0.202 C 
BRANCH  29  30
ATOM     30  C   UNL A   1      43.954  22.751  24.569  1.00  0.00     0.261 C 
BRANCH  30  31
ATOM     31  O   UNL A   1      43.253  23.980  24.751  1.00  0.00    -0.460 OA
BRANCH  31  32
ATOM     32  C   UNL A   1      44.013  25.027  25.149  1.00  0.00     0.338 C 
ATOM     33  O   UNL A   1      45.084  25.382  24.703  1.00  0.00    -0.246 OA
BRANCH  32  34
ATOM     34  C   UNL A   1      43.164  25.832  26.047  1.00  0.00     0.060 A 
ATOM     35  C   UNL A   1      43.442  27.203  26.153  1.00  0.00     0.016 A 
ATOM     36  C   UNL A   1      42.067  25.265  26.699  1.00  0.00     0.016 A 
ATOM     37  C   UNL A   1      42.640  28.008  26.948  1.00  0.00     0.010 A 
ATOM     38  C   UNL A   1      41.294  26.062  27.539  1.00  0.00     0.010 A 
ATOM     39  C   UNL A   1      41.615  27.422  27.699  1.00  0.00    -0.014 A 
BRANCH  39  40
ATOM     40  C   UNL A   1      41.136  28.153  28.887  1.00  0.00     0.031 A 
ATOM     41  C   UNL A   1      41.932  27.981  30.152  1.00  0.00     0.074 A 
ATOM     42  C   UNL A   1      40.098  29.001  28.830  1.00  0.00     0.049 A 
ATOM     43  N   UNL A   1      41.740  28.502  31.334  1.00  0.00    -0.248 NA
ATOM     44  C   UNL A   1      43.114  27.106  30.064  1.00  0.00     0.031 C 
ATOM     45  C   UNL A   1      39.313  29.302  27.636  1.00  0.00     0.029 A 
ATOM     46  N   UNL A   1      39.535  29.769  29.814  1.00  0.00    -0.354 N 
ATOM     47  C   UNL A   1      42.774  28.017  32.124  1.00  0.00     0.074 A 
ATOM     48  C   UNL A   1      43.574  27.140  31.303  1.00  0.00     0.031 C 
ATOM     49  C   UNL A   1      38.355  30.189  27.963  1.00  0.00     0.029 A 
ATOM     50  C   UNL A   1      38.444  30.486  29.393  1.00  0.00     0.049 A 
ATOM     51  H   UNL A   1      39.881  29.804  30.735  1.00  0.00     0.167 HD
ATOM     52  C   UNL A   1      43.036  28.286  33.423  1.00  0.00     0.037 A 
ATOM     53  C   UNL A   1      37.606  31.269  30.100  1.00  0.00     0.037 A 
ATOM     54  C   UNL A   1      42.229  29.150  34.237  1.00  0.00     0.049 A 
ATOM     55  C   UNL A   1      37.859  31.468  31.575  1.00  0.00     0.074 A 
ATOM     56  C   UNL A   1      42.395  29.484  35.567  1.00  0.00     0.029 A 
ATOM     57  N   UNL A   1      41.092  29.811  33.793  1.00  0.00    -0.354 N 
ATOM     58  N   UNL A   1      38.836  31.012  32.321  1.00  0.00    -0.248 NA
ATOM     59  C   UNL A   1      36.887  32.295  32.306  1.00  0.00     0.031 C 
ATOM     60  C   UNL A   1      41.324  30.298  35.946  1.00  0.00     0.029 A 
ATOM     61  C   UNL A   1      40.529  30.527  34.833  1.00  0.00     0.049 A 
ATOM     62  H   UNL A   1      40.739  29.773  32.874  1.00  0.00     0.167 HD
ATOM     63  C   UNL A   1      38.618  31.521  33.595  1.00  0.00     0.074 A 
ATOM     64  C   UNL A   1      37.421  32.332  33.518  1.00  0.00     0.031 C 
ATOM     65  C   UNL A   1      39.342  31.339  34.728  1.00  0.00     0.037 A 
BRANCH  52  66
ATOM     66  C   UNL A   1      44.212  27.595  34.044  1.00  0.00     0.064 A 
ATOM     67  C   UNL A   1      45.495  28.162  34.037  1.00  0.00     0.173 A 
ATOM     68  C   UNL A   1      44.049  26.345  34.660  1.00  0.00     0.173 A 
ATOM     69  F   UNL A   1      45.710  29.342  33.435  1.00  0.00    -0.203 F 
ATOM     70  C   UNL A   1      46.577  27.492  34.604  1.00  0.00     0.198 A 
ATOM     71  C   UNL A   1      45.125  25.694  35.254  1.00  0.00     0.198 A 
ATOM     72  F   UNL A   1      42.844  25.757  34.685  1.00  0.00    -0.203 F 
ATOM     73  F   UNL A   1      47.804  28.027  34.538  1.00  0.00    -0.200 F 
ATOM     74  C   UNL A   1      46.388  26.263  35.219  1.00  0.00     0.200 A 
ATOM     75  F   UNL A   1      44.939  24.511  35.856  1.00  0.00    -0.200 F 
ATOM     76  F   UNL A   1      47.428  25.622  35.770  1.00  0.00    -0.200 F 
ENDBRANCH  52  66
BRANCH  53  77
ATOM     77  C   UNL A   1      36.436  31.899  29.436  1.00  0.00     0.064 A 
ATOM     78  C   UNL A   1      35.334  31.136  29.025  1.00  0.00     0.173 A 
ATOM     79  C   UNL A   1      36.412  33.276  29.163  1.00  0.00     0.173 A 
ATOM     80  F   UNL A   1      35.319  29.812  29.238  1.00  0.00    -0.203 F 
ATOM     81  C   UNL A   1      34.265  31.721  28.348  1.00  0.00     0.198 A 
ATOM     82  C   UNL A   1      35.330  33.864  28.514  1.00  0.00     0.198 A 
ATOM     83  F   UNL A   1      37.444  34.050  29.528  1.00  0.00    -0.203 F 
ATOM     84  F   UNL A   1      33.250  30.960  27.916  1.00  0.00    -0.200 F 
ATOM     85  C   UNL A   1      34.262  33.086  28.097  1.00  0.00     0.200 A 
ATOM     86  F   UNL A   1      35.327  35.184  28.283  1.00  0.00    -0.200 F 
ATOM     87  F   UNL A   1      33.235  33.647  27.444  1.00  0.00    -0.200 F 
ENDBRANCH  53  77
BRANCH  65  88
ATOM     88  C   UNL A   1      38.891  32.062  35.966  1.00  0.00     0.064 A 
ATOM     89  C   UNL A   1      38.099  31.439  36.941  1.00  0.00     0.173 A 
ATOM     90  C   UNL A   1      39.308  33.382  36.203  1.00  0.00     0.173 A 
ATOM     91  F   UNL A   1      37.666  30.182  36.758  1.00  0.00    -0.203 F 
ATOM     92  C   UNL A   1      37.718  32.120  38.094  1.00  0.00     0.198 A 
ATOM     93  C   UNL A   1      38.954  34.047  37.373  1.00  0.00     0.198 A 
ATOM     94  F   UNL A   1      40.077  34.020  35.308  1.00  0.00    -0.203 F 
ATOM     95  F   UNL A   1      36.919  31.521  38.989  1.00  0.00    -0.200 F 
ATOM     96  C   UNL A   1      38.152  33.419  38.313  1.00  0.00     0.200 A 
ATOM     97  F   UNL A   1      39.392  35.295  37.591  1.00  0.00    -0.200 F 
ATOM     98  F   UNL A   1      37.793  34.067  39.429  1.00  0.00    -0.200 F 
ENDBRANCH  65  88
ENDBRANCH  39  40
ENDBRANCH  32  34
ENDBRANCH  31  32
ENDBRANCH  30  31
ENDBRANCH  29  30
ENDBRANCH  28  29
ENDBRANCH  27  28
ENDBRANCH   1  27
TORSDOF 20
ENDMDL
MODEL 2
REMARK VINA RESULT:     -12.4      5.026     10.427
REMARK SMILES CO[C@H]1C[C@@H](C(=O)OCCOCCOCCOC(=O)c2ccc(-c3c4nc(c(-c5c(F)c(F)c(F)c(F)c5F)c5ccc([nH]5)c(-c5c(F)c(F)c(F)c(F)c5F)c5nc(c(-c6c(F)c(F)c(F)c(F)c6F)c6ccc3[nH]6)C=C5)C=C4)cc2)N(C(=O)Nc2cc(C)cc(F)c2)C1
REMARK SMILES IDX 12 1 11 2 10 3 9 4 8 5 6 6 7 7 5 8 3 9 4 10 95 11 83 12 2 13
REMARK SMILES IDX 1 14 84 15 85 16 86 17 87 19 88 20 94 21 89 22 92 23 90 24
REMARK SMILES IDX 91 25 93 26 13 27 14 28 15 29 16 30 17 31 18 32 19 33 20 34
REMARK SMILES IDX 21 35 82 36 22 37 81 38 23 39 24 40 25 41 75 42 26 43 80 44
REMARK SMILES IDX 74 45 76 46 27 47 79 48 73 49 72 50 28 52 60 53 40 54 59 55
REMARK SMILES IDX 41 56 44 57 58 58 77 59 42 60 43 61 57 63 78 64 45 65 29 66
REMARK SMILES IDX 30 67 38 68 31 69 32 70 36 71 39 72 33 73 34 74 37 75 35 76
REMARK SMILES IDX 61 77 62 78 70 79 63 80 64 81 68 82 71 83 65 84 66 85 69 86
REMARK SMILES IDX 67 87 46 88 47 89 55 90 48 91 49 92 53 93 56 94 50 95 51 96
REMARK SMILES IDX 54 97 52 98
REMARK H PARENT 86 18 76 51 44 62
REMARK Flexibility Score: inf
ROOT
ATOM      1  C   UNL A   1      34.887  31.879  27.774  1.00  0.00     0.188 C 
ENDROOT
BRANCH   1   2
ATOM      2  O   UNL A   1      34.450  29.936  27.556  1.00  0.00    -0.376 OA
BRANCH   2   3
ATOM      3  C   UNL A   1      33.898  28.805  26.585  1.00  0.00     0.202 C 
BRANCH   3   4
ATOM      4  C   UNL A   1      33.653  28.976  25.012  1.00  0.00     0.261 C 
BRANCH   4   5
ATOM      5  O   UNL A   1      33.653  27.775  24.189  1.00  0.00    -0.462 OA
BRANCH   5   6
ATOM      6  C   UNL A   1      33.419  27.902  22.838  1.00  0.00     0.329 C 
ATOM      7  O   UNL A   1      34.301  28.174  22.029  1.00  0.00    -0.250 OA
BRANCH   6   8
ATOM      8  C   UNL A   1      32.053  27.247  22.433  1.00  0.00     0.199 C 
ATOM      9  C   UNL A   1      30.236  26.628  23.841  1.00  0.00     0.140 C 
ATOM     10  C   UNL A   1      30.777  27.795  23.033  1.00  0.00     0.071 C 
ATOM     11  C   UNL A   1      30.805  25.376  23.122  1.00  0.00     0.154 C 
ATOM     12  N   UNL A   1      31.971  25.841  22.371  1.00  0.00    -0.308 N 
BRANCH   9  13
ATOM     13  O   UNL A   1      30.660  26.645  25.202  1.00  0.00    -0.380 OA
ATOM     14  C   UNL A   1      30.820  25.359  25.792  1.00  0.00     0.195 C 
ENDBRANCH   9  13
BRANCH  12  15
ATOM     15  C   UNL A   1      32.627  25.098  21.447  1.00  0.00     0.322 C 
ATOM     16  O   UNL A   1      32.925  25.595  20.355  1.00  0.00    -0.248 OA
ATOM     17  N   UNL A   1      33.026  23.810  21.670  1.00  0.00    -0.308 N 
ATOM     18  H   UNL A   1      33.214  23.380  20.804  1.00  0.00     0.171 HD
BRANCH  17  19
ATOM     19  C   UNL A   1      33.270  22.856  22.729  1.00  0.00     0.046 A 
ATOM     20  C   UNL A   1      32.287  21.299  22.525  1.00  0.00     0.029 A 
ATOM     21  C   UNL A   1      34.509  22.883  24.087  1.00  0.00     0.065 A 
ATOM     22  C   UNL A   1      32.602  19.884  23.598  1.00  0.00    -0.046 A 
ATOM     23  C   UNL A   1      34.744  21.462  25.142  1.00  0.00     0.125 A 
ATOM     24  C   UNL A   1      32.193  18.487  23.239  1.00  0.00     0.044 C 
ATOM     25  C   UNL A   1      33.835  19.988  24.886  1.00  0.00     0.042 A 
ATOM     26  F   UNL A   1      35.667  21.525  26.112  1.00  0.00    -0.207 F 
ENDBRANCH  17  19
ENDBRANCH  12  15
ENDBRANCH   6   8
ENDBRANCH   5   6
ENDBRANCH   4   5
ENDBRANCH   3   4
ENDBRANCH   2   3
ENDBRANCH   1   2
BRANCH   1  27
ATOM     27  C   UNL A   1      34.150  33.128  28.723  1.00  0.00     0.188 C 
BRANCH  27  28
ATOM     28  O   UNL A   1      34.911  33.911  29.637  1.00  0.00    -0.376 OA
BRANCH  28  29
ATOM     29  C   UNL A   1      34.447  34.477  30.846  1.00  0.00     0.202 C 
BRANCH  29  30
ATOM     30  C   UNL A   1      34.174  33.579  32.054  1.00  0.00     0.261 C 
BRANCH  30  31
ATOM     31  O   UNL A   1      34.810  32.304  31.993  1.00  0.00    -0.460 OA
BRANCH  31  32
ATOM     32  C   UNL A   1      35.902  32.163  32.781  1.00  0.00     0.338 C 
ATOM     33  O   UNL A   1      36.016  32.449  33.954  1.00  0.00    -0.246 OA
BRANCH  32  34
ATOM     34  C   UNL A   1      36.852  31.331  32.019  1.00  0.00     0.060 A 
ATOM     35  C   UNL A   1      37.857  30.665  32.735  1.00  0.00     0.016 A 
ATOM     36  C   UNL A   1      36.701  31.146  30.643  1.00  0.00     0.016 A 
ATOM     37  C   UNL A   1      38.743  29.834  32.066  1.00  0.00     0.010 A 
ATOM     38  C   UNL A   1      37.623  30.354  29.963  1.00  0.00     0.010 A 
ATOM     39  C   UNL A   1      38.672  29.741  30.672  1.00  0.00    -0.014 A 
BRANCH  39  40
ATOM     40  C   UNL A   1      39.885  29.304  29.955  1.00  0.00     0.031 A 
ATOM     41  C   UNL A   1      40.996  30.310  29.833  1.00  0.00     0.074 A 
ATOM     42  C   UNL A   1      40.034  28.048  29.509  1.00  0.00     0.049 A 
ATOM     43  N   UNL A   1      42.164  30.197  29.259  1.00  0.00    -0.248 NA
ATOM     44  C   UNL A   1      40.756  31.625  30.455  1.00  0.00     0.031 C 
ATOM     45  C   UNL A   1      39.053  26.975  29.649  1.00  0.00     0.029 A 
ATOM     46  N   UNL A   1      41.085  27.469  28.849  1.00  0.00    -0.354 N 
ATOM     47  C   UNL A   1      42.791  31.420  29.452  1.00  0.00     0.074 A 
ATOM     48  C   UNL A   1      41.872  32.273  30.168  1.00  0.00     0.031 C 
ATOM     49  C   UNL A   1      39.548  25.862  29.077  1.00  0.00     0.029 A 
ATOM     50  C   UNL A   1      40.861  26.160  28.505  1.00  0.00     0.049 A 
ATOM     51  H   UNL A   1      41.921  27.945  28.642  1.00  0.00     0.167 HD
ATOM     52  C   UNL A   1      44.032  31.798  29.070  1.00  0.00     0.037 A 
ATOM     53  C   UNL A   1      41.628  25.318  27.785  1.00  0.00     0.037 A 
ATOM     54  C   UNL A   1      44.937  30.948  28.349  1.00  0.00     0.049 A 
ATOM     55  C   UNL A   1      42.966  25.798  27.277  1.00  0.00     0.074 A 
ATOM     56  C   UNL A   1      46.213  31.231  27.902  1.00  0.00     0.029 A 
ATOM     57  N   UNL A   1      44.651  29.647  27.961  1.00  0.00    -0.354 N 
ATOM     58  N   UNL A   1      43.560  26.953  27.461  1.00  0.00    -0.248 NA
ATOM     59  C   UNL A   1      43.741  24.853  26.460  1.00  0.00     0.031 C 
ATOM     60  C   UNL A   1      46.678  30.122  27.188  1.00  0.00     0.029 A 
ATOM     61  C   UNL A   1      45.717  29.123  27.252  1.00  0.00     0.049 A 
ATOM     62  H   UNL A   1      43.814  29.168  28.160  1.00  0.00     0.167 HD
ATOM     63  C   UNL A   1      44.787  26.862  26.815  1.00  0.00     0.074 A 
ATOM     64  C   UNL A   1      44.857  25.533  26.244  1.00  0.00     0.031 C 
ATOM     65  C   UNL A   1      45.769  27.791  26.703  1.00  0.00     0.037 A 
BRANCH  52  66
ATOM     66  C   UNL A   1      44.450  33.202  29.383  1.00  0.00     0.064 A 
ATOM     67  C   UNL A   1      44.175  34.270  28.516  1.00  0.00     0.173 A 
ATOM     68  C   UNL A   1      45.136  33.483  30.574  1.00  0.00     0.173 A 
ATOM     69  F   UNL A   1      43.547  34.051  27.350  1.00  0.00    -0.203 F 
ATOM     70  C   UNL A   1      44.590  35.565  28.820  1.00  0.00     0.198 A 
ATOM     71  C   UNL A   1      45.521  34.782  30.890  1.00  0.00     0.198 A 
ATOM     72  F   UNL A   1      45.431  32.495  31.432  1.00  0.00    -0.203 F 
ATOM     73  F   UNL A   1      44.365  36.561  27.952  1.00  0.00    -0.200 F 
ATOM     74  C   UNL A   1      45.255  35.820  30.010  1.00  0.00     0.200 A 
ATOM     75  F   UNL A   1      46.155  35.028  32.045  1.00  0.00    -0.200 F 
ATOM     76  F   UNL A   1      45.649  37.066  30.305  1.00  0.00    -0.200 F 
ENDBRANCH  52  66
BRANCH  53  77
ATOM     77  C   UNL A   1      41.143  23.947  27.476  1.00  0.00     0.064 A 
ATOM     78  C   UNL A   1      41.752  22.816  28.037  1.00  0.00     0.173 A 
ATOM     79  C   UNL A   1      40.082  23.739  26.581  1.00  0.00     0.173 A 
ATOM     80  F   UNL A   1      42.787  22.960  28.877  1.00  0.00    -0.203 F 
ATOM     81  C   UNL A   1      41.333  21.530  27.698  1.00  0.00     0.198 A 
ATOM     82  C   UNL A   1      39.646  22.455  26.267  1.00  0.00     0.198 A 
ATOM     83  F   UNL A   1      39.470  24.787  26.010  1.00  0.00    -0.203 F 
ATOM     84  F   UNL A   1      41.970  20.465  28.205  1.00  0.00    -0.200 F 
ATOM     85  C   UNL A   1      40.277  21.351  26.816  1.00  0.00     0.200 A 
ATOM     86  F   UNL A   1      38.618  22.287  25.422  1.00  0.00    -0.200 F 
ATOM     87  F   UNL A   1      39.878  20.115  26.489  1.00  0.00    -0.200 F 
ENDBRANCH  53  77
BRANCH  65  88
ATOM     88  C   UNL A   1      47.024  27.393  25.979  1.00  0.00     0.064 A 
ATOM     89  C   UNL A   1      48.100  26.782  26.641  1.00  0.00     0.173 A 
ATOM     90  C   UNL A   1      47.127  27.577  24.591  1.00  0.00     0.173 A 
ATOM     91  F   UNL A   1      48.056  26.593  27.969  1.00  0.00    -0.203 F 
ATOM     92  C   UNL A   1      49.241  26.395  25.944  1.00  0.00     0.198 A 
ATOM     93  C   UNL A   1      48.254  27.157  23.893  1.00  0.00     0.198 A 
ATOM     94  F   UNL A   1      46.121  28.146  23.908  1.00  0.00    -0.203 F 
ATOM     95  F   UNL A   1      50.276  25.858  26.604  1.00  0.00    -0.200 F 
ATOM     96  C   UNL A   1      49.314  26.575  24.570  1.00  0.00     0.200 A 
ATOM     97  F   UNL A   1      48.313  27.313  22.563  1.00  0.00    -0.200 F 
ATOM     98  F   UNL A   1      50.409  26.191  23.901  1.00  0.00    -0.200 F 
ENDBRANCH  65  88
ENDBRANCH  39  40
ENDBRANCH  32  34
ENDBRANCH  31  32
ENDBRANCH  30  31
ENDBRANCH  29  30
ENDBRANCH  28  29
ENDBRANCH  27  28
ENDBRANCH   1  27
TORSDOF 20
ENDMDL
MODEL 3
REMARK VINA RESULT:     -11.9      5.093     10.598
REMARK SMILES CO[C@H]1C[C@@H](C(=O)OCCOCCOCCOC(=O)c2ccc(-c3c4nc(c(-c5c(F)c(F)c(F)c(F)c5F)c5ccc([nH]5)c(-c5c(F)c(F)c(F)c(F)c5F)c5nc(c(-c6c(F)c(F)c(F)c(F)c6F)c6ccc3[nH]6)C=C5)C=C4)cc2)N(C(=O)Nc2cc(C)cc(F)c2)C1
REMARK SMILES IDX 12 1 11 2 10 3 9 4 8 5 6 6 7 7 5 8 3 9 4 10 95 11 83 12 2 13
REMARK SMILES IDX 1 14 84 15 85 16 86 17 87 19 88 20 94 21 89 22 92 23 90 24
REMARK SMILES IDX 91 25 93 26 13 27 14 28 15 29 16 30 17 31 18 32 19 33 20 34
REMARK SMILES IDX 21 35 82 36 22 37 81 38 23 39 24 40 25 41 75 42 26 43 80 44
REMARK SMILES IDX 74 45 76 46 27 47 79 48 73 49 72 50 28 52 60 53 40 54 59 55
REMARK SMILES IDX 41 56 44 57 58 58 77 59 42 60 43 61 57 63 78 64 45 65 29 66
REMARK SMILES IDX 30 67 38 68 31 69 32 70 36 71 39 72 33 73 34 74 37 75 35 76
REMARK SMILES IDX 61 77 62 78 70 79 63 80 64 81 68 82 71 83 65 84 66 85 69 86
REMARK SMILES IDX 67 87 46 88 47 89 55 90 48 91 49 92 53 93 56 94 50 95 51 96
REMARK SMILES IDX 54 97 52 98
REMARK H PARENT 86 18 76 51 44 62
REMARK Flexibility Score: inf
ROOT
ATOM      1  C   UNL A   1      35.006  32.290  28.042  1.00  0.00     0.188 C 
ENDROOT
BRANCH   1   2
ATOM      2  O   UNL A   1      33.663  30.871  27.598  1.00  0.00    -0.376 OA
BRANCH   2   3
ATOM      3  C   UNL A   1      32.545  30.381  26.580  1.00  0.00     0.202 C 
BRANCH   3   4
ATOM      4  C   UNL A   1      31.767  28.984  26.664  1.00  0.00     0.261 C 
BRANCH   4   5
ATOM      5  O   UNL A   1      32.336  27.846  25.954  1.00  0.00    -0.462 OA
BRANCH   5   6
ATOM      6  C   UNL A   1      32.842  28.045  24.690  1.00  0.00     0.329 C 
ATOM      7  O   UNL A   1      34.024  28.297  24.474  1.00  0.00    -0.250 OA
BRANCH   6   8
ATOM      8  C   UNL A   1      31.866  27.495  23.592  1.00  0.00     0.199 C 
ATOM      9  C   UNL A   1      29.786  26.377  23.891  1.00  0.00     0.140 C 
ATOM     10  C   UNL A   1      30.384  27.764  23.734  1.00  0.00     0.071 C 
ATOM     11  C   UNL A   1      30.791  25.449  23.158  1.00  0.00     0.154 C 
ATOM     12  N   UNL A   1      32.056  26.181  23.118  1.00  0.00    -0.308 N 
BRANCH   9  13
ATOM     13  O   UNL A   1      29.652  25.975  25.252  1.00  0.00    -0.380 OA
ATOM     14  C   UNL A   1      30.229  24.711  25.559  1.00  0.00     0.195 C 
ENDBRANCH   9  13
BRANCH  12  15
ATOM     15  C   UNL A   1      33.131  25.804  22.383  1.00  0.00     0.322 C 
ATOM     16  O   UNL A   1      33.643  26.599  21.588  1.00  0.00    -0.248 OA
ATOM     17  N   UNL A   1      33.724  24.578  22.501  1.00  0.00    -0.308 N 
ATOM     18  H   UNL A   1      34.278  24.415  21.704  1.00  0.00     0.171 HD
BRANCH  17  19
ATOM     19  C   UNL A   1      33.825  23.438  23.384  1.00  0.00     0.046 A 
ATOM     20  C   UNL A   1      32.664  22.071  22.918  1.00  0.00     0.029 A 
ATOM     21  C   UNL A   1      35.026  23.083  24.730  1.00  0.00     0.065 A 
ATOM     22  C   UNL A   1      32.780  20.469  23.737  1.00  0.00    -0.046 A 
ATOM     23  C   UNL A   1      35.061  21.488  25.531  1.00  0.00     0.125 A 
ATOM     24  C   UNL A   1      32.212  19.213  23.146  1.00  0.00     0.044 C 
ATOM     25  C   UNL A   1      33.985  20.202  25.027  1.00  0.00     0.042 A 
ATOM     26  F   UNL A   1      35.962  21.272  26.499  1.00  0.00    -0.207 F 
ENDBRANCH  17  19
ENDBRANCH  12  15
ENDBRANCH   6   8
ENDBRANCH   5   6
ENDBRANCH   4   5
ENDBRANCH   3   4
ENDBRANCH   2   3
ENDBRANCH   1   2
BRANCH   1  27
ATOM     27  C   UNL A   1      34.852  33.809  28.861  1.00  0.00     0.188 C 
BRANCH  27  28
ATOM     28  O   UNL A   1      35.610  34.102  30.030  1.00  0.00    -0.376 OA
BRANCH  28  29
ATOM     29  C   UNL A   1      35.097  34.361  31.322  1.00  0.00     0.202 C 
BRANCH  29  30
ATOM     30  C   UNL A   1      34.417  33.241  32.110  1.00  0.00     0.261 C 
BRANCH  30  31
ATOM     31  O   UNL A   1      35.062  31.973  32.006  1.00  0.00    -0.460 OA
BRANCH  31  32
ATOM     32  C   UNL A   1      36.183  31.831  32.751  1.00  0.00     0.338 C 
ATOM     33  O   UNL A   1      36.336  32.099  33.925  1.00  0.00    -0.246 OA
BRANCH  32  34
ATOM     34  C   UNL A   1      37.113  31.021  31.942  1.00  0.00     0.060 A 
ATOM     35  C   UNL A   1      38.145  30.347  32.612  1.00  0.00     0.016 A 
ATOM     36  C   UNL A   1      36.918  30.861  30.568  1.00  0.00     0.016 A 
ATOM     37  C   UNL A   1      39.014  29.536  31.898  1.00  0.00     0.010 A 
ATOM     38  C   UNL A   1      37.821  30.090  29.843  1.00  0.00     0.010 A 
ATOM     39  C   UNL A   1      38.896  29.470  30.504  1.00  0.00    -0.014 A 
BRANCH  39  40
ATOM     40  C   UNL A   1      40.088  29.056  29.739  1.00  0.00     0.031 A 
ATOM     41  C   UNL A   1      41.176  30.081  29.577  1.00  0.00     0.074 A 
ATOM     42  C   UNL A   1      40.241  27.803  29.284  1.00  0.00     0.049 A 
ATOM     43  N   UNL A   1      42.322  29.990  28.957  1.00  0.00    -0.248 NA
ATOM     44  C   UNL A   1      40.938  31.390  30.211  1.00  0.00     0.031 C 
ATOM     45  C   UNL A   1      39.286  26.713  29.460  1.00  0.00     0.029 A 
ATOM     46  N   UNL A   1      41.275  27.244  28.582  1.00  0.00    -0.354 N 
ATOM     47  C   UNL A   1      42.935  31.223  29.129  1.00  0.00     0.074 A 
ATOM     48  C   UNL A   1      42.030  32.058  29.882  1.00  0.00     0.031 C 
ATOM     49  C   UNL A   1      39.777  25.610  28.866  1.00  0.00     0.029 A 
ATOM     50  C   UNL A   1      41.061  25.932  28.243  1.00  0.00     0.049 A 
ATOM     51  H   UNL A   1      42.094  27.735  28.344  1.00  0.00     0.167 HD
ATOM     52  C   UNL A   1      44.154  31.623  28.699  1.00  0.00     0.037 A 
ATOM     53  C   UNL A   1      41.814  25.105  27.492  1.00  0.00     0.037 A 
ATOM     54  C   UNL A   1      45.044  30.790  27.941  1.00  0.00     0.049 A 
ATOM     55  C   UNL A   1      43.122  25.609  26.933  1.00  0.00     0.074 A 
ATOM     56  C   UNL A   1      46.296  31.097  27.445  1.00  0.00     0.029 A 
ATOM     57  N   UNL A   1      44.766  29.485  27.561  1.00  0.00    -0.354 N 
ATOM     58  N   UNL A   1      43.703  26.774  27.097  1.00  0.00    -0.248 NA
ATOM     59  C   UNL A   1      43.881  24.679  26.084  1.00  0.00     0.031 C 
ATOM     60  C   UNL A   1      46.752  29.997  26.711  1.00  0.00     0.029 A 
ATOM     61  C   UNL A   1      45.812  28.982  26.809  1.00  0.00     0.049 A 
ATOM     62  H   UNL A   1      43.946  28.992  27.791  1.00  0.00     0.167 HD
ATOM     63  C   UNL A   1      44.904  26.706  26.403  1.00  0.00     0.074 A 
ATOM     64  C   UNL A   1      44.975  25.380  25.826  1.00  0.00     0.031 C 
ATOM     65  C   UNL A   1      45.866  27.652  26.256  1.00  0.00     0.037 A 
BRANCH  52  66
ATOM     66  C   UNL A   1      44.559  33.034  29.000  1.00  0.00     0.064 A 
ATOM     67  C   UNL A   1      45.160  33.391  30.216  1.00  0.00     0.173 A 
ATOM     68  C   UNL A   1      44.346  34.044  28.051  1.00  0.00     0.173 A 
ATOM     69  F   UNL A   1      45.359  32.467  31.169  1.00  0.00    -0.203 F 
ATOM     70  C   UNL A   1      45.511  34.713  30.481  1.00  0.00     0.198 A 
ATOM     71  C   UNL A   1      44.728  35.357  28.305  1.00  0.00     0.198 A 
ATOM     72  F   UNL A   1      43.767  33.756  26.876  1.00  0.00    -0.203 F 
ATOM     73  F   UNL A   1      46.034  35.041  31.670  1.00  0.00    -0.200 F 
ATOM     74  C   UNL A   1      45.303  35.692  29.521  1.00  0.00     0.200 A 
ATOM     75  F   UNL A   1      44.534  36.302  27.373  1.00  0.00    -0.200 F 
ATOM     76  F   UNL A   1      45.647  36.963  29.774  1.00  0.00    -0.200 F 
ENDBRANCH  52  66
BRANCH  53  77
ATOM     77  C   UNL A   1      41.341  23.726  27.199  1.00  0.00     0.064 A 
ATOM     78  C   UNL A   1      40.209  23.499  26.405  1.00  0.00     0.173 A 
ATOM     79  C   UNL A   1      41.992  22.607  27.740  1.00  0.00     0.173 A 
ATOM     80  F   UNL A   1      39.534  24.536  25.887  1.00  0.00    -0.203 F 
ATOM     81  C   UNL A   1      39.733  22.208  26.182  1.00  0.00     0.198 A 
ATOM     82  C   UNL A   1      41.534  21.316  27.490  1.00  0.00     0.198 A 
ATOM     83  F   UNL A   1      43.077  22.769  28.512  1.00  0.00    -0.203 F 
ATOM     84  F   UNL A   1      38.615  22.022  25.467  1.00  0.00    -0.200 F 
ATOM     85  C   UNL A   1      40.399  21.117  26.721  1.00  0.00     0.200 A 
ATOM     86  F   UNL A   1      42.188  20.265  28.005  1.00  0.00    -0.200 F 
ATOM     87  F   UNL A   1      39.940  19.876  26.508  1.00  0.00    -0.200 F 
ENDBRANCH  53  77
BRANCH  65  88
ATOM     88  C   UNL A   1      47.098  27.278  25.482  1.00  0.00     0.064 A 
ATOM     89  C   UNL A   1      47.271  27.648  24.140  1.00  0.00     0.173 A 
ATOM     90  C   UNL A   1      48.144  26.585  26.112  1.00  0.00     0.173 A 
ATOM     91  F   UNL A   1      46.297  28.302  23.489  1.00  0.00    -0.203 F 
ATOM     92  C   UNL A   1      48.434  27.315  23.451  1.00  0.00     0.198 A 
ATOM     93  C   UNL A   1      49.319  26.285  25.430  1.00  0.00     0.198 A 
ATOM     94  F   UNL A   1      48.035  26.218  27.398  1.00  0.00    -0.203 F 
ATOM     95  F   UNL A   1      48.557  27.636  22.156  1.00  0.00    -0.200 F 
ATOM     96  C   UNL A   1      49.460  26.642  24.099  1.00  0.00     0.200 A 
ATOM     97  F   UNL A   1      50.317  25.653  26.064  1.00  0.00    -0.200 F 
ATOM     98  F   UNL A   1      50.583  26.334  23.436  1.00  0.00    -0.200 F 
ENDBRANCH  65  88
ENDBRANCH  39  40
ENDBRANCH  32  34
ENDBRANCH  31  32
ENDBRANCH  30  31
ENDBRANCH  29  30
ENDBRANCH  28  29
ENDBRANCH  27  28
ENDBRANCH   1  27
TORSDOF 20
ENDMDL
