MODEL 1
REMARK VINA RESULT:     -11.8      0.000      0.000
REMARK SMILES Cc1cccc(-c2ncc(C[NH+]3CCC4(CC3)NC(=O)C[C@H]4C(=O)OCCOCCOCCOC(=O)c3ccc(-c4c5nc(c(-c6c(F)c(F)c(F)c(F)c6F)c6ccc([nH]6)c(-c6c(F)c(F)c(F)c(F)c6F)c6nc(c(-c7c(F)c(F)c(F)c(F)c7F)c7ccc4[nH]7)C=C6)C=C5)cc3)cn2)c1
REMARK SMILES IDX 29 1 28 2 27 3 26 4 25 5 23 6 24 7 22 8 12 9 13 10 17 11
REMARK SMILES IDX 14 13 16 14 15 15 18 16 19 17 21 19 20 20 11 21 10 22 7 23
REMARK SMILES IDX 8 24 101 25 9 26 100 27 6 28 1 29 2 30 3 31 102 32 4 33 5 34
REMARK SMILES IDX 30 35 31 36 32 37 33 38 34 39 35 40 36 41 37 42 38 43 99 44
REMARK SMILES IDX 39 45 98 46 40 47 41 48 42 49 92 50 43 51 97 52 91 53 93 54
REMARK SMILES IDX 44 55 96 56 90 57 89 58 45 60 77 61 57 62 76 63 58 64 61 65
REMARK SMILES IDX 75 66 94 67 59 68 60 69 74 71 95 72 62 73 46 74 47 75 55 76
REMARK SMILES IDX 48 77 49 78 53 79 56 80 50 81 51 82 54 83 52 84 78 85 79 86
REMARK SMILES IDX 87 87 80 88 81 89 85 90 88 91 82 92 83 93 86 94 84 95 63 96
REMARK SMILES IDX 64 97 72 98 65 99 66 100 70 101 73 102 67 103 68 104 71 105
REMARK SMILES IDX 69 106
REMARK H PARENT 12 12 18 18 93 59 61 70
REMARK Flexibility Score: inf
ROOT
ATOM      1  C   UNL A   1      39.921  28.171  27.596  1.00  0.00     0.188 C 
ENDROOT
BRANCH   1   2
ATOM      2  O   UNL A   1      40.400  28.915  26.445  1.00  0.00    -0.376 OA
BRANCH   2   3
ATOM      3  C   UNL A   1      41.693  28.974  25.763  1.00  0.00     0.202 C 
BRANCH   3   4
ATOM      4  C   UNL A   1      43.133  27.908  25.637  1.00  0.00     0.261 C 
BRANCH   4   5
ATOM      5  O   UNL A   1      43.806  26.287  26.255  1.00  0.00    -0.463 OA
BRANCH   5   6
ATOM      6  C   UNL A   1      43.651  24.994  27.098  1.00  0.00     0.311 C 
ATOM      7  O   UNL A   1      43.198  24.850  28.251  1.00  0.00    -0.252 OA
BRANCH   6   8
ATOM      8  C   UNL A   1      43.734  23.657  26.508  1.00  0.00     0.134 C 
ATOM      9  N   UNL A   1      38.906  22.341  26.808  1.00  0.00    -0.331 N 
ATOM     10  C   UNL A   1      40.294  21.413  27.128  1.00  0.00     0.264 C 
ATOM     11  C   UNL A   1      39.421  24.191  26.966  1.00  0.00     0.264 C 
ATOM     12  H   UNL A   1      38.100  22.273  27.430  1.00  0.00     0.348 HD
ATOM     13  C   UNL A   1      41.925  21.637  26.354  1.00  0.00     0.091 C 
ATOM     14  C   UNL A   1      41.211  24.771  25.759  1.00  0.00     0.091 C 
ATOM     15  C   UNL A   1      42.533  23.292  25.703  1.00  0.00     0.064 C 
ATOM     16  N   UNL A   1      43.196  23.001  24.456  1.00  0.00    -0.349 N 
ATOM     17  C   UNL A   1      44.581  22.927  24.514  1.00  0.00     0.221 C 
ATOM     18  H   UNL A   1      42.697  22.863  23.618  1.00  0.00     0.164 HD
ATOM     19  C   UNL A   1      45.034  23.257  25.882  1.00  0.00     0.117 C 
ATOM     20  O   UNL A   1      45.320  22.611  23.600  1.00  0.00    -0.275 OA
BRANCH   9  21
ATOM     21  C   UNL A   1      38.424  21.721  25.191  1.00  0.00     0.302 C 
BRANCH  21  22
ATOM     22  C   UNL A   1      36.918  21.779  24.402  1.00  0.00     0.043 A 
ATOM     23  C   UNL A   1      34.348  22.896  23.917  1.00  0.00     0.159 A 
ATOM     24  N   UNL A   1      35.409  23.313  23.191  1.00  0.00    -0.236 NA
ATOM     25  N   UNL A   1      34.445  21.789  24.673  1.00  0.00    -0.236 NA
ATOM     26  C   UNL A   1      36.629  22.674  23.377  1.00  0.00     0.124 A 
ATOM     27  C   UNL A   1      35.709  21.234  24.842  1.00  0.00     0.124 A 
BRANCH  23  28
ATOM     28  C   UNL A   1      33.045  23.683  23.881  1.00  0.00     0.019 A 
ATOM     29  C   UNL A   1      31.434  26.679  21.973  1.00  0.00     0.044 C 
ATOM     30  C   UNL A   1      31.594  25.521  22.931  1.00  0.00    -0.050 A 
ATOM     31  C   UNL A   1      30.498  25.032  23.618  1.00  0.00     0.003 A 
ATOM     32  C   UNL A   1      32.831  24.850  23.098  1.00  0.00     0.015 A 
ATOM     33  C   UNL A   1      30.668  23.947  24.480  1.00  0.00     0.001 A 
ATOM     34  C   UNL A   1      31.917  23.293  24.615  1.00  0.00     0.012 A 
ENDBRANCH  23  28
ENDBRANCH  21  22
ENDBRANCH   9  21
ENDBRANCH   6   8
ENDBRANCH   5   6
ENDBRANCH   4   5
ENDBRANCH   3   4
ENDBRANCH   2   3
ENDBRANCH   1   2
BRANCH   1  35
ATOM     35  C   UNL A   1      38.988  28.768  28.670  1.00  0.00     0.188 C 
BRANCH  35  36
ATOM     36  O   UNL A   1      38.425  29.973  28.202  1.00  0.00    -0.376 OA
BRANCH  36  37
ATOM     37  C   UNL A   1      37.039  30.035  27.896  1.00  0.00     0.202 C 
BRANCH  37  38
ATOM     38  C   UNL A   1      35.966  30.238  28.993  1.00  0.00     0.261 C 
BRANCH  38  39
ATOM     39  O   UNL A   1      35.818  31.412  29.934  1.00  0.00    -0.460 OA
BRANCH  39  40
ATOM     40  C   UNL A   1      35.675  32.211  31.028  1.00  0.00     0.338 C 
ATOM     41  O   UNL A   1      34.514  32.427  31.337  1.00  0.00    -0.246 OA
BRANCH  40  42
ATOM     42  C   UNL A   1      36.949  32.905  31.770  1.00  0.00     0.060 A 
ATOM     43  C   UNL A   1      37.933  34.427  31.348  1.00  0.00     0.016 A 
ATOM     44  C   UNL A   1      37.788  31.573  31.784  1.00  0.00     0.016 A 
ATOM     45  C   UNL A   1      39.768  34.112  30.692  1.00  0.00     0.010 A 
ATOM     46  C   UNL A   1      39.334  31.420  31.202  1.00  0.00     0.010 A 
ATOM     47  C   UNL A   1      40.510  32.489  30.780  1.00  0.00    -0.014 A 
BRANCH  47  48
ATOM     48  C   UNL A   1      42.185  31.837  31.364  1.00  0.00     0.031 A 
ATOM     49  C   UNL A   1      43.325  30.505  30.587  1.00  0.00     0.074 A 
ATOM     50  C   UNL A   1      42.821  32.448  32.375  1.00  0.00     0.049 A 
ATOM     51  N   UNL A   1      43.618  29.324  31.115  1.00  0.00    -0.248 NA
ATOM     52  C   UNL A   1      43.635  30.191  28.977  1.00  0.00     0.031 C 
ATOM     53  C   UNL A   1      44.218  32.309  32.793  1.00  0.00     0.029 A 
ATOM     54  N   UNL A   1      42.322  33.415  33.238  1.00  0.00    -0.354 N 
ATOM     55  C   UNL A   1      44.142  28.475  30.088  1.00  0.00     0.074 A 
ATOM     56  C   UNL A   1      43.605  28.881  28.867  1.00  0.00     0.031 C 
ATOM     57  C   UNL A   1      44.346  32.855  34.019  1.00  0.00     0.029 A 
ATOM     58  C   UNL A   1      43.002  33.212  34.450  1.00  0.00     0.049 A 
ATOM     59  H   UNL A   1      41.639  34.097  33.041  1.00  0.00     0.167 HD
ATOM     60  C   UNL A   1      45.387  27.913  30.142  1.00  0.00     0.037 A 
ATOM     61  C   UNL A   1      42.287  32.630  35.454  1.00  0.00     0.037 A 
ATOM     62  C   UNL A   1      45.932  28.332  31.404  1.00  0.00     0.049 A 
ATOM     63  C   UNL A   1      42.856  31.250  35.708  1.00  0.00     0.074 A 
ATOM     64  C   UNL A   1      46.687  29.432  31.769  1.00  0.00     0.029 A 
ATOM     65  N   UNL A   1      45.209  27.952  32.513  1.00  0.00    -0.354 N 
ATOM     66  N   UNL A   1      43.406  30.473  34.805  1.00  0.00    -0.248 NA
ATOM     67  C   UNL A   1      43.019  30.745  37.063  1.00  0.00     0.031 C 
ATOM     68  C   UNL A   1      46.368  29.722  33.131  1.00  0.00     0.029 A 
ATOM     69  C   UNL A   1      45.432  28.798  33.570  1.00  0.00     0.049 A 
ATOM     70  H   UNL A   1      44.609  27.172  32.544  1.00  0.00     0.167 HD
ATOM     71  C   UNL A   1      44.030  29.427  35.435  1.00  0.00     0.074 A 
ATOM     72  C   UNL A   1      43.751  29.644  36.842  1.00  0.00     0.031 C 
ATOM     73  C   UNL A   1      44.785  28.466  34.821  1.00  0.00     0.037 A 
BRANCH  60  74
ATOM     74  C   UNL A   1      46.198  27.384  28.945  1.00  0.00     0.064 A 
ATOM     75  C   UNL A   1      46.466  26.003  28.849  1.00  0.00     0.173 A 
ATOM     76  C   UNL A   1      46.736  28.143  27.870  1.00  0.00     0.173 A 
ATOM     77  F   UNL A   1      45.962  25.142  29.742  1.00  0.00    -0.203 F 
ATOM     78  C   UNL A   1      47.251  25.445  27.829  1.00  0.00     0.198 A 
ATOM     79  C   UNL A   1      47.579  27.594  26.887  1.00  0.00     0.198 A 
ATOM     80  F   UNL A   1      46.426  29.432  27.685  1.00  0.00    -0.203 F 
ATOM     81  F   UNL A   1      47.439  24.119  27.792  1.00  0.00    -0.200 F 
ATOM     82  C   UNL A   1      47.831  26.240  26.863  1.00  0.00     0.200 A 
ATOM     83  F   UNL A   1      48.129  28.387  25.953  1.00  0.00    -0.200 F 
ATOM     84  F   UNL A   1      48.595  25.704  25.902  1.00  0.00    -0.200 F 
ENDBRANCH  60  74
BRANCH  61  85
ATOM     85  C   UNL A   1      40.845  33.078  35.388  1.00  0.00     0.064 A 
ATOM     86  C   UNL A   1      39.890  32.101  34.994  1.00  0.00     0.173 A 
ATOM     87  C   UNL A   1      40.358  34.164  36.127  1.00  0.00     0.173 A 
ATOM     88  F   UNL A   1      40.285  31.021  34.297  1.00  0.00    -0.203 F 
ATOM     89  C   UNL A   1      38.577  32.119  35.468  1.00  0.00     0.198 A 
ATOM     90  C   UNL A   1      39.025  34.196  36.568  1.00  0.00     0.198 A 
ATOM     91  F   UNL A   1      41.183  35.142  36.522  1.00  0.00    -0.203 F 
ATOM     92  F   UNL A   1      37.762  31.080  35.229  1.00  0.00    -0.200 F 
ATOM     93  C   UNL A   1      38.152  33.154  36.278  1.00  0.00     0.200 A 
ATOM     94  F   UNL A   1      38.603  35.203  37.347  1.00  0.00    -0.200 F 
ATOM     95  F   UNL A   1      36.922  33.125  36.810  1.00  0.00    -0.200 F 
ENDBRANCH  61  85
BRANCH  73  96
ATOM     96  C   UNL A   1      44.982  27.051  35.354  1.00  0.00     0.064 A 
ATOM     97  C   UNL A   1      46.075  26.676  36.147  1.00  0.00     0.173 A 
ATOM     98  C   UNL A   1      43.959  26.065  35.247  1.00  0.00     0.173 A 
ATOM     99  F   UNL A   1      47.038  27.540  36.484  1.00  0.00    -0.203 F 
ATOM    100  C   UNL A   1      46.191  25.395  36.685  1.00  0.00     0.198 A 
ATOM    101  C   UNL A   1      44.017  24.842  35.904  1.00  0.00     0.198 A 
ATOM    102  F   UNL A   1      42.842  26.252  34.529  1.00  0.00    -0.203 F 
ATOM    103  F   UNL A   1      47.314  25.057  37.333  1.00  0.00    -0.200 F 
ATOM    104  C   UNL A   1      45.157  24.486  36.585  1.00  0.00     0.200 A 
ATOM    105  F   UNL A   1      42.958  24.021  35.876  1.00  0.00    -0.200 F 
ATOM    106  F   UNL A   1      45.253  23.278  37.149  1.00  0.00    -0.200 F 
ENDBRANCH  73  96
ENDBRANCH  47  48
ENDBRANCH  40  42
ENDBRANCH  39  40
ENDBRANCH  38  39
ENDBRANCH  37  38
ENDBRANCH  36  37
ENDBRANCH  35  36
ENDBRANCH   1  35
TORSDOF 20
ENDMDL
MODEL 2
REMARK VINA RESULT:     -11.6      5.422     12.199
REMARK SMILES Cc1cccc(-c2ncc(C[NH+]3CCC4(CC3)NC(=O)C[C@H]4C(=O)OCCOCCOCCOC(=O)c3ccc(-c4c5nc(c(-c6c(F)c(F)c(F)c(F)c6F)c6ccc([nH]6)c(-c6c(F)c(F)c(F)c(F)c6F)c6nc(c(-c7c(F)c(F)c(F)c(F)c7F)c7ccc4[nH]7)C=C6)C=C5)cc3)cn2)c1
REMARK SMILES IDX 29 1 28 2 27 3 26 4 25 5 23 6 24 7 22 8 12 9 13 10 17 11
REMARK SMILES IDX 14 13 16 14 15 15 18 16 19 17 21 19 20 20 11 21 10 22 7 23
REMARK SMILES IDX 8 24 101 25 9 26 100 27 6 28 1 29 2 30 3 31 102 32 4 33 5 34
REMARK SMILES IDX 30 35 31 36 32 37 33 38 34 39 35 40 36 41 37 42 38 43 99 44
REMARK SMILES IDX 39 45 98 46 40 47 41 48 42 49 92 50 43 51 97 52 91 53 93 54
REMARK SMILES IDX 44 55 96 56 90 57 89 58 45 60 77 61 57 62 76 63 58 64 61 65
REMARK SMILES IDX 75 66 94 67 59 68 60 69 74 71 95 72 62 73 46 74 47 75 55 76
REMARK SMILES IDX 48 77 49 78 53 79 56 80 50 81 51 82 54 83 52 84 78 85 79 86
REMARK SMILES IDX 87 87 80 88 81 89 85 90 88 91 82 92 83 93 86 94 84 95 63 96
REMARK SMILES IDX 64 97 72 98 65 99 66 100 70 101 73 102 67 103 68 104 71 105
REMARK SMILES IDX 69 106
REMARK H PARENT 12 12 18 18 93 59 61 70
REMARK Flexibility Score: inf
ROOT
ATOM      1  C   UNL A   1      34.420  33.882  30.918  1.00  0.00     0.188 C 
ENDROOT
BRANCH   1   2
ATOM      2  O   UNL A   1      35.353  33.075  31.684  1.00  0.00    -0.376 OA
BRANCH   2   3
ATOM      3  C   UNL A   1      35.529  31.631  31.840  1.00  0.00     0.202 C 
BRANCH   3   4
ATOM      4  C   UNL A   1      36.900  30.534  32.218  1.00  0.00     0.261 C 
BRANCH   4   5
ATOM      5  O   UNL A   1      38.660  30.554  32.820  1.00  0.00    -0.463 OA
BRANCH   5   6
ATOM      6  C   UNL A   1      39.910  31.330  33.314  1.00  0.00     0.311 C 
ATOM      7  O   UNL A   1      41.102  30.965  33.359  1.00  0.00    -0.252 OA
BRANCH   6   8
ATOM      8  C   UNL A   1      39.905  32.779  33.517  1.00  0.00     0.134 C 
ATOM      9  N   UNL A   1      43.260  34.094  30.032  1.00  0.00    -0.331 N 
ATOM     10  C   UNL A   1      43.075  34.676  31.618  1.00  0.00     0.264 C 
ATOM     11  C   UNL A   1      42.425  32.359  29.972  1.00  0.00     0.264 C 
ATOM     12  H   UNL A   1      44.196  33.912  29.668  1.00  0.00     0.348 HD
ATOM     13  C   UNL A   1      41.515  34.742  32.552  1.00  0.00     0.091 C 
ATOM     14  C   UNL A   1      40.323  32.305  30.730  1.00  0.00     0.091 C 
ATOM     15  C   UNL A   1      40.091  33.552  32.255  1.00  0.00     0.064 C 
ATOM     16  N   UNL A   1      38.894  34.353  32.320  1.00  0.00    -0.349 N 
ATOM     17  C   UNL A   1      38.203  34.306  33.524  1.00  0.00     0.221 C 
ATOM     18  H   UNL A   1      38.587  34.898  31.560  1.00  0.00     0.164 HD
ATOM     19  C   UNL A   1      38.865  33.346  34.433  1.00  0.00     0.117 C 
ATOM     20  O   UNL A   1      37.224  34.969  33.814  1.00  0.00    -0.275 OA
BRANCH   9  21
ATOM     21  C   UNL A   1      42.533  35.428  29.072  1.00  0.00     0.302 C 
BRANCH  21  22
ATOM     22  C   UNL A   1      43.044  37.038  28.874  1.00  0.00     0.043 A 
ATOM     23  C   UNL A   1      43.275  39.748  29.705  1.00  0.00     0.159 A 
ATOM     24  N   UNL A   1      44.240  38.860  30.034  1.00  0.00    -0.236 NA
ATOM     25  N   UNL A   1      42.354  39.426  28.780  1.00  0.00    -0.236 NA
ATOM     26  C   UNL A   1      44.153  37.571  29.524  1.00  0.00     0.124 A 
ATOM     27  C   UNL A   1      42.307  38.103  28.351  1.00  0.00     0.124 A 
BRANCH  23  28
ATOM     28  C   UNL A   1      43.230  41.110  30.383  1.00  0.00     0.019 A 
ATOM     29  C   UNL A   1      44.529  44.747  29.838  1.00  0.00     0.044 C 
ATOM     30  C   UNL A   1      43.820  43.566  30.461  1.00  0.00    -0.050 A 
ATOM     31  C   UNL A   1      42.952  43.757  31.521  1.00  0.00     0.003 A 
ATOM     32  C   UNL A   1      43.948  42.254  29.941  1.00  0.00     0.015 A 
ATOM     33  C   UNL A   1      42.292  42.653  32.063  1.00  0.00     0.001 A 
ATOM     34  C   UNL A   1      42.436  41.356  31.512  1.00  0.00     0.012 A 
ENDBRANCH  23  28
ENDBRANCH  21  22
ENDBRANCH   9  21
ENDBRANCH   6   8
ENDBRANCH   5   6
ENDBRANCH   4   5
ENDBRANCH   3   4
ENDBRANCH   2   3
ENDBRANCH   1   2
BRANCH   1  35
ATOM     35  C   UNL A   1      34.635  34.260  29.438  1.00  0.00     0.188 C 
BRANCH  35  36
ATOM     36  O   UNL A   1      36.004  34.176  29.113  1.00  0.00    -0.376 OA
BRANCH  36  37
ATOM     37  C   UNL A   1      36.485  33.079  28.348  1.00  0.00     0.202 C 
BRANCH  37  38
ATOM     38  C   UNL A   1      37.600  32.142  28.872  1.00  0.00     0.261 C 
BRANCH  38  39
ATOM     39  O   UNL A   1      37.884  30.719  28.449  1.00  0.00    -0.460 OA
BRANCH  39  40
ATOM     40  C   UNL A   1      37.786  29.430  28.020  1.00  0.00     0.338 C 
ATOM     41  O   UNL A   1      36.797  29.207  27.339  1.00  0.00    -0.246 OA
BRANCH  40  42
ATOM     42  C   UNL A   1      38.839  28.277  28.484  1.00  0.00     0.060 A 
ATOM     43  C   UNL A   1      39.280  27.628  30.172  1.00  0.00     0.016 A 
ATOM     44  C   UNL A   1      40.042  28.926  27.703  1.00  0.00     0.016 A 
ATOM     45  C   UNL A   1      41.072  28.118  30.841  1.00  0.00     0.010 A 
ATOM     46  C   UNL A   1      41.515  29.298  28.370  1.00  0.00     0.010 A 
ATOM     47  C   UNL A   1      42.277  28.885  29.768  1.00  0.00    -0.014 A 
BRANCH  47  48
ATOM     48  C   UNL A   1      44.108  28.581  29.415  1.00  0.00     0.031 A 
ATOM     49  C   UNL A   1      45.510  29.832  29.032  1.00  0.00     0.074 A 
ATOM     50  C   UNL A   1      44.625  27.356  29.591  1.00  0.00     0.049 A 
ATOM     51  N   UNL A   1      46.164  29.944  27.884  1.00  0.00    -0.248 NA
ATOM     52  C   UNL A   1      45.767  31.355  29.666  1.00  0.00     0.031 C 
ATOM     53  C   UNL A   1      46.034  26.960  29.662  1.00  0.00     0.029 A 
ATOM     54  N   UNL A   1      43.945  26.166  29.812  1.00  0.00    -0.354 N 
ATOM     55  C   UNL A   1      46.822  31.215  27.848  1.00  0.00     0.074 A 
ATOM     56  C   UNL A   1      46.097  32.107  28.639  1.00  0.00     0.031 C 
ATOM     57  C   UNL A   1      46.100  25.620  29.535  1.00  0.00     0.029 A 
ATOM     58  C   UNL A   1      44.749  25.170  29.233  1.00  0.00     0.049 A 
ATOM     59  H   UNL A   1      43.084  26.046  30.277  1.00  0.00     0.167 HD
ATOM     60  C   UNL A   1      48.175  31.357  27.712  1.00  0.00     0.037 A 
ATOM     61  C   UNL A   1      44.308  24.648  28.053  1.00  0.00     0.037 A 
ATOM     62  C   UNL A   1      48.679  30.018  27.580  1.00  0.00     0.049 A 
ATOM     63  C   UNL A   1      45.261  25.075  26.956  1.00  0.00     0.074 A 
ATOM     64  C   UNL A   1      49.122  29.096  28.512  1.00  0.00     0.029 A 
ATOM     65  N   UNL A   1      48.182  29.304  26.511  1.00  0.00    -0.354 N 
ATOM     66  N   UNL A   1      45.933  26.202  26.925  1.00  0.00    -0.248 NA
ATOM     67  C   UNL A   1      45.665  24.146  25.912  1.00  0.00     0.031 C 
ATOM     68  C   UNL A   1      48.843  27.800  27.980  1.00  0.00     0.029 A 
ATOM     69  C   UNL A   1      48.242  27.952  26.740  1.00  0.00     0.049 A 
ATOM     70  H   UNL A   1      47.830  29.712  25.687  1.00  0.00     0.167 HD
ATOM     71  C   UNL A   1      46.873  26.134  25.929  1.00  0.00     0.074 A 
ATOM     72  C   UNL A   1      46.658  24.832  25.326  1.00  0.00     0.031 C 
ATOM     73  C   UNL A   1      47.817  27.087  25.661  1.00  0.00     0.037 A 
BRANCH  60  74
ATOM     74  C   UNL A   1      49.004  32.593  28.104  1.00  0.00     0.064 A 
ATOM     75  C   UNL A   1      49.365  32.782  29.453  1.00  0.00     0.173 A 
ATOM     76  C   UNL A   1      49.477  33.619  27.240  1.00  0.00     0.173 A 
ATOM     77  F   UNL A   1      49.064  31.865  30.380  1.00  0.00    -0.203 F 
ATOM     78  C   UNL A   1      50.062  33.912  29.908  1.00  0.00     0.198 A 
ATOM     79  C   UNL A   1      50.114  34.783  27.705  1.00  0.00     0.198 A 
ATOM     80  F   UNL A   1      49.400  33.517  25.907  1.00  0.00    -0.203 F 
ATOM     81  F   UNL A   1      50.392  34.006  31.203  1.00  0.00    -0.200 F 
ATOM     82  C   UNL A   1      50.413  34.926  29.042  1.00  0.00     0.200 A 
ATOM     83  F   UNL A   1      50.451  35.756  26.843  1.00  0.00    -0.200 F 
ATOM     84  F   UNL A   1      51.061  36.011  29.484  1.00  0.00    -0.200 F 
ENDBRANCH  60  74
BRANCH  61  85
ATOM     85  C   UNL A   1      42.798  24.589  28.047  1.00  0.00     0.064 A 
ATOM     86  C   UNL A   1      42.125  25.558  27.252  1.00  0.00     0.173 A 
ATOM     87  C   UNL A   1      42.088  23.416  28.336  1.00  0.00     0.173 A 
ATOM     88  F   UNL A   1      42.749  26.700  26.919  1.00  0.00    -0.203 F 
ATOM     89  C   UNL A   1      40.899  25.287  26.640  1.00  0.00     0.198 A 
ATOM     90  C   UNL A   1      40.837  23.167  27.748  1.00  0.00     0.198 A 
ATOM     91  F   UNL A   1      42.637  22.459  29.095  1.00  0.00    -0.203 F 
ATOM     92  F   UNL A   1      40.389  26.151  25.748  1.00  0.00    -0.200 F 
ATOM     93  C   UNL A   1      40.268  24.080  26.868  1.00  0.00     0.200 A 
ATOM     94  F   UNL A   1      40.214  22.001  27.972  1.00  0.00    -0.200 F 
ATOM     95  F   UNL A   1      39.140  23.780  26.208  1.00  0.00    -0.200 F 
ENDBRANCH  61  85
BRANCH  73  96
ATOM     96  C   UNL A   1      48.444  27.319  24.291  1.00  0.00     0.064 A 
ATOM     97  C   UNL A   1      49.735  26.887  23.956  1.00  0.00     0.173 A 
ATOM     98  C   UNL A   1      47.680  27.814  23.195  1.00  0.00     0.173 A 
ATOM     99  F   UNL A   1      50.518  26.245  24.830  1.00  0.00    -0.203 F 
ATOM    100  C   UNL A   1      50.256  27.044  22.673  1.00  0.00     0.198 A 
ATOM    101  C   UNL A   1      48.158  27.836  21.890  1.00  0.00     0.198 A 
ATOM    102  F   UNL A   1      46.427  28.271  23.331  1.00  0.00    -0.203 F 
ATOM    103  F   UNL A   1      51.535  26.723  22.443  1.00  0.00    -0.200 F 
ATOM    104  C   UNL A   1      49.465  27.496  21.636  1.00  0.00     0.200 A 
ATOM    105  F   UNL A   1      47.338  28.181  20.888  1.00  0.00    -0.200 F 
ATOM    106  F   UNL A   1      49.956  27.594  20.396  1.00  0.00    -0.200 F 
ENDBRANCH  73  96
ENDBRANCH  47  48
ENDBRANCH  40  42
ENDBRANCH  39  40
ENDBRANCH  38  39
ENDBRANCH  37  38
ENDBRANCH  36  37
ENDBRANCH  35  36
ENDBRANCH   1  35
TORSDOF 20
ENDMDL
MODEL 3
REMARK VINA RESULT:     -11.5      4.336     10.682
REMARK SMILES Cc1cccc(-c2ncc(C[NH+]3CCC4(CC3)NC(=O)C[C@H]4C(=O)OCCOCCOCCOC(=O)c3ccc(-c4c5nc(c(-c6c(F)c(F)c(F)c(F)c6F)c6ccc([nH]6)c(-c6c(F)c(F)c(F)c(F)c6F)c6nc(c(-c7c(F)c(F)c(F)c(F)c7F)c7ccc4[nH]7)C=C6)C=C5)cc3)cn2)c1
REMARK SMILES IDX 29 1 28 2 27 3 26 4 25 5 23 6 24 7 22 8 12 9 13 10 17 11
REMARK SMILES IDX 14 13 16 14 15 15 18 16 19 17 21 19 20 20 11 21 10 22 7 23
REMARK SMILES IDX 8 24 101 25 9 26 100 27 6 28 1 29 2 30 3 31 102 32 4 33 5 34
REMARK SMILES IDX 30 35 31 36 32 37 33 38 34 39 35 40 36 41 37 42 38 43 99 44
REMARK SMILES IDX 39 45 98 46 40 47 41 48 42 49 92 50 43 51 97 52 91 53 93 54
REMARK SMILES IDX 44 55 96 56 90 57 89 58 45 60 77 61 57 62 76 63 58 64 61 65
REMARK SMILES IDX 75 66 94 67 59 68 60 69 74 71 95 72 62 73 46 74 47 75 55 76
REMARK SMILES IDX 48 77 49 78 53 79 56 80 50 81 51 82 54 83 52 84 78 85 79 86
REMARK SMILES IDX 87 87 80 88 81 89 85 90 88 91 82 92 83 93 86 94 84 95 63 96
REMARK SMILES IDX 64 97 72 98 65 99 66 100 70 101 73 102 67 103 68 104 71 105
REMARK SMILES IDX 69 106
REMARK H PARENT 12 12 18 18 93 59 61 70
REMARK Flexibility Score: inf
ROOT
ATOM      1  C   UNL A   1      31.358  29.335  24.650  1.00  0.00     0.188 C 
ENDROOT
BRANCH   1   2
ATOM      2  O   UNL A   1      31.333  27.981  25.174  1.00  0.00    -0.376 OA
BRANCH   2   3
ATOM      3  C   UNL A   1      30.539  26.798  24.845  1.00  0.00     0.202 C 
BRANCH   3   4
ATOM      4  C   UNL A   1      30.520  25.587  23.517  1.00  0.00     0.261 C 
BRANCH   4   5
ATOM      5  O   UNL A   1      31.405  24.064  22.920  1.00  0.00    -0.463 OA
BRANCH   5   6
ATOM      6  C   UNL A   1      32.113  22.713  23.208  1.00  0.00     0.311 C 
ATOM      7  O   UNL A   1      32.797  22.001  22.446  1.00  0.00    -0.252 OA
BRANCH   6   8
ATOM      8  C   UNL A   1      32.342  22.220  24.566  1.00  0.00     0.134 C 
ATOM      9  N   UNL A   1      37.323  21.677  24.400  1.00  0.00    -0.331 N 
ATOM     10  C   UNL A   1      36.153  20.650  25.083  1.00  0.00     0.264 C 
ATOM     11  C   UNL A   1      36.419  22.761  23.089  1.00  0.00     0.264 C 
ATOM     12  H   UNL A   1      38.098  21.276  23.871  1.00  0.00     0.348 HD
ATOM     13  C   UNL A   1      34.545  21.170  25.757  1.00  0.00     0.091 C 
ATOM     14  C   UNL A   1      34.598  23.818  23.842  1.00  0.00     0.091 C 
ATOM     15  C   UNL A   1      33.626  22.695  25.158  1.00  0.00     0.064 C 
ATOM     16  N   UNL A   1      33.093  23.320  26.343  1.00  0.00    -0.349 N 
ATOM     17  C   UNL A   1      31.754  23.065  26.608  1.00  0.00     0.221 C 
ATOM     18  H   UNL A   1      33.644  23.891  26.926  1.00  0.00     0.164 HD
ATOM     19  C   UNL A   1      31.184  22.247  25.516  1.00  0.00     0.117 C 
ATOM     20  O   UNL A   1      31.138  23.423  27.596  1.00  0.00    -0.275 OA
BRANCH   9  21
ATOM     21  C   UNL A   1      37.993  22.480  25.861  1.00  0.00     0.302 C 
BRANCH  21  22
ATOM     22  C   UNL A   1      39.599  22.583  26.413  1.00  0.00     0.043 A 
ATOM     23  C   UNL A   1      42.365  23.153  26.080  1.00  0.00     0.159 A 
ATOM     24  N   UNL A   1      41.528  24.120  26.520  1.00  0.00    -0.236 NA
ATOM     25  N   UNL A   1      41.955  21.873  26.050  1.00  0.00    -0.236 NA
ATOM     26  C   UNL A   1      40.205  23.782  26.773  1.00  0.00     0.124 A 
ATOM     27  C   UNL A   1      40.605  21.624  26.276  1.00  0.00     0.124 A 
BRANCH  23  28
ATOM     28  C   UNL A   1      43.769  23.515  25.616  1.00  0.00     0.019 A 
ATOM     29  C   UNL A   1      45.984  26.670  25.028  1.00  0.00     0.044 C 
ATOM     30  C   UNL A   1      45.563  25.221  25.110  1.00  0.00    -0.050 A 
ATOM     31  C   UNL A   1      46.504  24.216  24.979  1.00  0.00     0.003 A 
ATOM     32  C   UNL A   1      44.229  24.843  25.401  1.00  0.00     0.015 A 
ATOM     33  C   UNL A   1      46.093  22.886  25.082  1.00  0.00     0.001 A 
ATOM     34  C   UNL A   1      44.753  22.544  25.384  1.00  0.00     0.012 A 
ENDBRANCH  23  28
ENDBRANCH  21  22
ENDBRANCH   9  21
ENDBRANCH   6   8
ENDBRANCH   5   6
ENDBRANCH   4   5
ENDBRANCH   3   4
ENDBRANCH   2   3
ENDBRANCH   1   2
BRANCH   1  35
ATOM     35  C   UNL A   1      31.173  30.592  25.525  1.00  0.00     0.188 C 
BRANCH  35  36
ATOM     36  O   UNL A   1      32.237  30.700  26.444  1.00  0.00    -0.376 OA
BRANCH  36  37
ATOM     37  C   UNL A   1      33.447  29.992  26.213  1.00  0.00     0.202 C 
BRANCH  37  38
ATOM     38  C   UNL A   1      34.053  29.039  27.272  1.00  0.00     0.261 C 
BRANCH  38  39
ATOM     39  O   UNL A   1      35.225  29.305  28.189  1.00  0.00    -0.460 OA
BRANCH  39  40
ATOM     40  C   UNL A   1      36.424  29.677  28.717  1.00  0.00     0.338 C 
ATOM     41  O   UNL A   1      37.350  28.939  28.418  1.00  0.00    -0.246 OA
BRANCH  40  42
ATOM     42  C   UNL A   1      36.568  30.927  29.751  1.00  0.00     0.060 A 
ATOM     43  C   UNL A   1      36.646  32.762  29.452  1.00  0.00     0.016 A 
ATOM     44  C   UNL A   1      37.846  30.328  30.448  1.00  0.00     0.016 A 
ATOM     45  C   UNL A   1      38.402  33.611  29.760  1.00  0.00     0.010 A 
ATOM     46  C   UNL A   1      39.280  31.136  30.654  1.00  0.00     0.010 A 
ATOM     47  C   UNL A   1      39.732  32.714  30.547  1.00  0.00    -0.014 A 
BRANCH  47  48
ATOM     48  C   UNL A   1      40.945  33.112  31.941  1.00  0.00     0.031 A 
ATOM     49  C   UNL A   1      40.609  33.737  33.722  1.00  0.00     0.074 A 
ATOM     50  C   UNL A   1      42.240  32.791  31.807  1.00  0.00     0.049 A 
ATOM     51  N   UNL A   1      40.951  34.921  34.212  1.00  0.00    -0.248 NA
ATOM     52  C   UNL A   1      39.365  33.338  34.763  1.00  0.00     0.031 C 
ATOM     53  C   UNL A   1      43.280  32.735  32.839  1.00  0.00     0.029 A 
ATOM     54  N   UNL A   1      42.902  32.370  30.661  1.00  0.00    -0.354 N 
ATOM     55  C   UNL A   1      40.191  35.169  35.399  1.00  0.00     0.074 A 
ATOM     56  C   UNL A   1      38.984  34.476  35.300  1.00  0.00     0.031 C 
ATOM     57  C   UNL A   1      44.478  32.675  32.225  1.00  0.00     0.029 A 
ATOM     58  C   UNL A   1      44.217  32.843  30.802  1.00  0.00     0.049 A 
ATOM     59  H   UNL A   1      42.529  31.851  29.911  1.00  0.00     0.167 HD
ATOM     60  C   UNL A   1      40.760  35.391  36.623  1.00  0.00     0.037 A 
ATOM     61  C   UNL A   1      44.561  33.913  30.031  1.00  0.00     0.037 A 
ATOM     62  C   UNL A   1      42.177  35.358  36.386  1.00  0.00     0.049 A 
ATOM     63  C   UNL A   1      44.777  35.106  30.939  1.00  0.00     0.074 A 
ATOM     64  C   UNL A   1      43.101  34.328  36.423  1.00  0.00     0.029 A 
ATOM     65  N   UNL A   1      42.646  36.290  35.486  1.00  0.00    -0.354 N 
ATOM     66  N   UNL A   1      44.148  35.330  32.068  1.00  0.00    -0.248 NA
ATOM     67  C   UNL A   1      45.881  36.028  30.714  1.00  0.00     0.031 C 
ATOM     68  C   UNL A   1      44.127  34.658  35.487  1.00  0.00     0.029 A 
ATOM     69  C   UNL A   1      43.816  35.875  34.901  1.00  0.00     0.049 A 
ATOM     70  H   UNL A   1      42.198  37.144  35.288  1.00  0.00     0.167 HD
ATOM     71  C   UNL A   1      44.774  36.352  32.735  1.00  0.00     0.074 A 
ATOM     72  C   UNL A   1      45.845  36.753  31.842  1.00  0.00     0.031 C 
ATOM     73  C   UNL A   1      44.452  36.799  33.987  1.00  0.00     0.037 A 
BRANCH  60  74
ATOM     74  C   UNL A   1      40.073  35.220  37.989  1.00  0.00     0.064 A 
ATOM     75  C   UNL A   1      39.914  33.925  38.524  1.00  0.00     0.173 A 
ATOM     76  C   UNL A   1      39.554  36.246  38.824  1.00  0.00     0.173 A 
ATOM     77  F   UNL A   1      40.419  32.856  37.896  1.00  0.00    -0.203 F 
ATOM     78  C   UNL A   1      39.243  33.672  39.730  1.00  0.00     0.198 A 
ATOM     79  C   UNL A   1      38.822  35.988  39.997  1.00  0.00     0.198 A 
ATOM     80  F   UNL A   1      39.780  37.544  38.581  1.00  0.00    -0.203 F 
ATOM     81  F   UNL A   1      39.156  32.415  40.186  1.00  0.00    -0.200 F 
ATOM     82  C   UNL A   1      38.673  34.698  40.454  1.00  0.00     0.200 A 
ATOM     83  F   UNL A   1      38.280  37.003  40.689  1.00  0.00    -0.200 F 
ATOM     84  F   UNL A   1      38.017  34.449  41.595  1.00  0.00    -0.200 F 
ENDBRANCH  60  74
BRANCH  61  85
ATOM     85  C   UNL A   1      43.856  33.835  28.697  1.00  0.00     0.064 A 
ATOM     86  C   UNL A   1      42.904  34.855  28.417  1.00  0.00     0.173 A 
ATOM     87  C   UNL A   1      44.407  33.176  27.590  1.00  0.00     0.173 A 
ATOM     88  F   UNL A   1      42.346  35.545  29.426  1.00  0.00    -0.203 F 
ATOM     89  C   UNL A   1      42.664  35.303  27.116  1.00  0.00     0.198 A 
ATOM     90  C   UNL A   1      44.130  33.607  26.282  1.00  0.00     0.198 A 
ATOM     91  F   UNL A   1      45.295  32.189  27.760  1.00  0.00    -0.203 F 
ATOM     92  F   UNL A   1      41.904  36.391  26.911  1.00  0.00    -0.200 F 
ATOM     93  C   UNL A   1      43.298  34.695  26.051  1.00  0.00     0.200 A 
ATOM     94  F   UNL A   1      44.734  33.014  25.241  1.00  0.00    -0.200 F 
ATOM     95  F   UNL A   1      43.141  35.184  24.812  1.00  0.00    -0.200 F 
ENDBRANCH  61  85
BRANCH  73  96
ATOM     96  C   UNL A   1      44.700  38.217  34.487  1.00  0.00     0.064 A 
ATOM     97  C   UNL A   1      43.964  39.325  34.048  1.00  0.00     0.173 A 
ATOM     98  C   UNL A   1      45.566  38.478  35.589  1.00  0.00     0.173 A 
ATOM     99  F   UNL A   1      42.989  39.215  33.138  1.00  0.00    -0.203 F 
ATOM    100  C   UNL A   1      44.160  40.600  34.578  1.00  0.00     0.198 A 
ATOM    101  C   UNL A   1      45.650  39.721  36.205  1.00  0.00     0.198 A 
ATOM    102  F   UNL A   1      46.346  37.536  36.139  1.00  0.00    -0.203 F 
ATOM    103  F   UNL A   1      43.514  41.640  34.035  1.00  0.00    -0.200 F 
ATOM    104  C   UNL A   1      44.983  40.795  35.669  1.00  0.00     0.200 A 
ATOM    105  F   UNL A   1      46.376  39.860  37.323  1.00  0.00    -0.200 F 
ATOM    106  F   UNL A   1      45.125  42.011  36.206  1.00  0.00    -0.200 F 
ENDBRANCH  73  96
ENDBRANCH  47  48
ENDBRANCH  40  42
ENDBRANCH  39  40
ENDBRANCH  38  39
ENDBRANCH  37  38
ENDBRANCH  36  37
ENDBRANCH  35  36
ENDBRANCH   1  35
TORSDOF 20
ENDMDL
