MODEL 1
REMARK VINA RESULT:     -11.5      0.000      0.000
REMARK SMILES O=C(OCCOCCOCCOC(=O)[C@H](c1c[nH]c2cc(F)ccc12)[NH+]1CC[NH+](Cc2cccc(Cl)c2)CC1)c1ccc(-c2c3nc(c(-c4c(F)c(F)c(F)c(F)c4F)c4ccc([nH]4)c(-c4c(F)c(F)c(F)c(F)c4F)c4nc(c(-c5c(F)c(F)c(F)c(F)c5F)c5ccc2[nH]5)C=C4)C=C3)cc1
REMARK SMILES IDX 8 1 7 2 6 3 5 4 4 5 3 6 2 7 1 8 40 9 41 10 102 11 42 12
REMARK SMILES IDX 101 13 43 14 44 15 45 16 95 17 46 18 100 19 94 20 96 21
REMARK SMILES IDX 47 22 99 23 93 24 92 25 48 27 80 28 60 29 79 30 61 31 64 32
REMARK SMILES IDX 78 33 97 34 62 35 63 36 77 38 98 39 65 40 49 41 50 42 58 43
REMARK SMILES IDX 51 44 52 45 56 46 59 47 53 48 54 49 57 50 55 51 81 52 82 53
REMARK SMILES IDX 90 54 83 55 84 56 88 57 91 58 85 59 86 60 89 61 87 62 66 63
REMARK SMILES IDX 67 64 75 65 68 66 69 67 73 68 76 69 70 70 71 71 74 72 72 73
REMARK SMILES IDX 9 74 10 75 11 76 12 77 13 78 14 79 15 80 26 81 27 82 39 83
REMARK SMILES IDX 28 85 38 86 29 87 30 89 31 90 32 91 37 92 33 93 35 94 34 95
REMARK SMILES IDX 36 96 16 97 17 98 25 99 18 100 19 101 24 102 20 104 23 105
REMARK SMILES IDX 21 106 22 107
REMARK H PARENT 96 26 64 37 26 84 29 88 18 103
REMARK Flexibility Score: inf
ROOT
ATOM      1  C   UNL A   1      32.482  20.592  24.656  1.00  0.00     0.188 C 
ENDROOT
BRANCH   1   2
ATOM      2  C   UNL A   1      33.603  20.280  25.648  1.00  0.00     0.188 C 
BRANCH   2   3
ATOM      3  O   UNL A   1      34.860  20.131  24.987  1.00  0.00    -0.376 OA
BRANCH   3   4
ATOM      4  C   UNL A   1      35.786  21.191  25.240  1.00  0.00     0.202 C 
BRANCH   4   5
ATOM      5  C   UNL A   1      37.270  20.846  25.023  1.00  0.00     0.261 C 
BRANCH   5   6
ATOM      6  O   UNL A   1      38.176  21.899  25.409  1.00  0.00    -0.460 OA
BRANCH   6   7
ATOM      7  C   UNL A   1      39.205  21.818  26.294  1.00  0.00     0.338 C 
ATOM      8  O   UNL A   1      39.664  20.723  26.603  1.00  0.00    -0.246 OA
BRANCH   7   9
ATOM      9  C   UNL A   1      39.830  23.047  26.849  1.00  0.00     0.060 A 
ATOM     10  C   UNL A   1      39.424  24.326  26.487  1.00  0.00     0.016 A 
ATOM     11  C   UNL A   1      40.827  22.920  27.820  1.00  0.00     0.016 A 
ATOM     12  C   UNL A   1      40.114  25.450  26.905  1.00  0.00     0.010 A 
ATOM     13  C   UNL A   1      41.430  24.063  28.360  1.00  0.00     0.010 A 
ATOM     14  C   UNL A   1      41.107  25.342  27.873  1.00  0.00    -0.014 A 
BRANCH  14  15
ATOM     15  C   UNL A   1      41.829  26.567  28.303  1.00  0.00     0.031 A 
ATOM     16  C   UNL A   1      43.224  26.800  27.801  1.00  0.00     0.074 A 
ATOM     17  C   UNL A   1      41.213  27.504  29.054  1.00  0.00     0.049 A 
ATOM     18  N   UNL A   1      44.062  27.760  28.094  1.00  0.00    -0.248 NA
ATOM     19  C   UNL A   1      43.746  25.828  26.826  1.00  0.00     0.031 C 
ATOM     20  C   UNL A   1      39.823  27.450  29.514  1.00  0.00     0.029 A 
ATOM     21  N   UNL A   1      41.664  28.703  29.552  1.00  0.00    -0.354 N 
ATOM     22  C   UNL A   1      45.205  27.496  27.352  1.00  0.00     0.074 A 
ATOM     23  C   UNL A   1      44.982  26.259  26.642  1.00  0.00     0.031 C 
ATOM     24  C   UNL A   1      39.540  28.549  30.223  1.00  0.00     0.029 A 
ATOM     25  C   UNL A   1      40.735  29.366  30.319  1.00  0.00     0.049 A 
ATOM     26  H   UNL A   1      42.567  29.053  29.377  1.00  0.00     0.167 HD
ATOM     27  C   UNL A   1      46.329  28.242  27.244  1.00  0.00     0.037 A 
ATOM     28  C   UNL A   1      40.833  30.495  31.042  1.00  0.00     0.037 A 
ATOM     29  C   UNL A   1      46.531  29.485  27.935  1.00  0.00     0.049 A 
ATOM     30  C   UNL A   1      42.124  31.255  30.984  1.00  0.00     0.074 A 
ATOM     31  C   UNL A   1      47.645  30.303  27.940  1.00  0.00     0.029 A 
ATOM     32  N   UNL A   1      45.579  30.095  28.742  1.00  0.00    -0.354 N 
ATOM     33  N   UNL A   1      43.213  30.973  30.310  1.00  0.00    -0.248 NA
ATOM     34  C   UNL A   1      42.198  32.496  31.763  1.00  0.00     0.031 C 
ATOM     35  C   UNL A   1      47.377  31.395  28.773  1.00  0.00     0.029 A 
ATOM     36  C   UNL A   1      46.083  31.279  29.255  1.00  0.00     0.049 A 
ATOM     37  H   UNL A   1      44.678  29.740  28.922  1.00  0.00     0.167 HD
ATOM     38  C   UNL A   1      44.095  32.011  30.562  1.00  0.00     0.074 A 
ATOM     39  C   UNL A   1      43.402  32.941  31.433  1.00  0.00     0.031 C 
ATOM     40  C   UNL A   1      45.363  32.181  30.116  1.00  0.00     0.037 A 
BRANCH  27  41
ATOM     41  C   UNL A   1      47.413  27.708  26.355  1.00  0.00     0.064 A 
ATOM     42  C   UNL A   1      47.400  27.927  24.968  1.00  0.00     0.173 A 
ATOM     43  C   UNL A   1      48.454  26.938  26.889  1.00  0.00     0.173 A 
ATOM     44  F   UNL A   1      46.406  28.630  24.405  1.00  0.00    -0.203 F 
ATOM     45  C   UNL A   1      48.371  27.363  24.146  1.00  0.00     0.198 A 
ATOM     46  C   UNL A   1      49.442  26.399  26.067  1.00  0.00     0.198 A 
ATOM     47  F   UNL A   1      48.509  26.693  28.207  1.00  0.00    -0.203 F 
ATOM     48  F   UNL A   1      48.301  27.529  22.818  1.00  0.00    -0.200 F 
ATOM     49  C   UNL A   1      49.393  26.604  24.696  1.00  0.00     0.200 A 
ATOM     50  F   UNL A   1      50.430  25.667  26.599  1.00  0.00    -0.200 F 
ATOM     51  F   UNL A   1      50.323  26.055  23.902  1.00  0.00    -0.200 F 
ENDBRANCH  27  41
BRANCH  28  52
ATOM     52  C   UNL A   1      39.695  30.955  31.886  1.00  0.00     0.064 A 
ATOM     53  C   UNL A   1      38.861  32.005  31.482  1.00  0.00     0.173 A 
ATOM     54  C   UNL A   1      39.434  30.362  33.133  1.00  0.00     0.173 A 
ATOM     55  F   UNL A   1      39.075  32.616  30.308  1.00  0.00    -0.203 F 
ATOM     56  C   UNL A   1      37.830  32.463  32.302  1.00  0.00     0.198 A 
ATOM     57  C   UNL A   1      38.387  30.804  33.940  1.00  0.00     0.198 A 
ATOM     58  F   UNL A   1      40.202  29.351  33.568  1.00  0.00    -0.203 F 
ATOM     59  F   UNL A   1      37.081  33.505  31.912  1.00  0.00    -0.200 F 
ATOM     60  C   UNL A   1      37.592  31.860  33.528  1.00  0.00     0.200 A 
ATOM     61  F   UNL A   1      38.158  30.220  35.125  1.00  0.00    -0.200 F 
ATOM     62  F   UNL A   1      36.604  32.308  34.316  1.00  0.00    -0.200 F 
ENDBRANCH  28  52
BRANCH  40  63
ATOM     63  C   UNL A   1      46.059  33.434  30.548  1.00  0.00     0.064 A 
ATOM     64  C   UNL A   1      46.822  33.480  31.724  1.00  0.00     0.173 A 
ATOM     65  C   UNL A   1      45.971  34.596  29.769  1.00  0.00     0.173 A 
ATOM     66  F   UNL A   1      46.916  32.397  32.511  1.00  0.00    -0.203 F 
ATOM     67  C   UNL A   1      47.448  34.656  32.120  1.00  0.00     0.198 A 
ATOM     68  C   UNL A   1      46.624  35.762  30.152  1.00  0.00     0.198 A 
ATOM     69  F   UNL A   1      45.254  34.598  28.635  1.00  0.00    -0.203 F 
ATOM     70  F   UNL A   1      48.124  34.696  33.277  1.00  0.00    -0.200 F 
ATOM     71  C   UNL A   1      47.354  35.794  31.331  1.00  0.00     0.200 A 
ATOM     72  F   UNL A   1      46.542  36.857  29.385  1.00  0.00    -0.200 F 
ATOM     73  F   UNL A   1      47.959  36.926  31.715  1.00  0.00    -0.200 F 
ENDBRANCH  40  63
ENDBRANCH  14  15
ENDBRANCH   7   9
ENDBRANCH   6   7
ENDBRANCH   5   6
ENDBRANCH   4   5
ENDBRANCH   3   4
ENDBRANCH   2   3
ENDBRANCH   1   2
BRANCH   1  74
ATOM     74  O   UNL A   1      32.797  21.537  23.637  1.00  0.00    -0.376 OA
BRANCH  74  75
ATOM     75  C   UNL A   1      31.703  22.165  22.974  1.00  0.00     0.202 C 
BRANCH  75  76
ATOM     76  C   UNL A   1      31.412  23.632  23.332  1.00  0.00     0.261 C 
BRANCH  76  77
ATOM     77  O   UNL A   1      32.140  24.615  22.570  1.00  0.00    -0.459 OA
BRANCH  77  78
ATOM     78  C   UNL A   1      31.519  25.830  22.376  1.00  0.00     0.370 C 
ATOM     79  O   UNL A   1      31.491  26.426  21.306  1.00  0.00    -0.245 OA
BRANCH  78  80
ATOM     80  C   UNL A   1      30.925  26.340  23.710  1.00  0.00     0.328 C 
BRANCH  80  81
ATOM     81  N   UNL A   1      31.867  27.141  24.501  1.00  0.00    -0.310 N 
ATOM     82  C   UNL A   1      33.300  26.889  24.553  1.00  0.00     0.325 C 
ATOM     83  C   UNL A   1      31.373  27.820  25.692  1.00  0.00     0.325 C 
ATOM     84  H   UNL A   1      31.857  27.781  23.707  1.00  0.00     0.349 HD
ATOM     85  C   UNL A   1      34.028  28.252  24.663  1.00  0.00     0.324 C 
ATOM     86  C   UNL A   1      32.123  29.160  25.877  1.00  0.00     0.324 C 
ATOM     87  N   UNL A   1      33.586  29.137  25.752  1.00  0.00    -0.322 N 
ATOM     88  H   UNL A   1      33.845  30.084  25.477  1.00  0.00     0.348 HD
BRANCH  87  89
ATOM     89  C   UNL A   1      34.333  28.987  27.004  1.00  0.00     0.299 C 
BRANCH  89  90
ATOM     90  C   UNL A   1      35.043  30.216  27.519  1.00  0.00     0.008 A 
ATOM     91  C   UNL A   1      36.432  30.215  27.720  1.00  0.00     0.009 A 
ATOM     92  C   UNL A   1      34.310  31.359  27.874  1.00  0.00     0.030 A 
ATOM     93  C   UNL A   1      37.057  31.288  28.359  1.00  0.00     0.002 A 
ATOM     94  C   UNL A   1      34.941  32.430  28.504  1.00  0.00     0.041 A 
ATOM     95  C   UNL A   1      36.308  32.390  28.767  1.00  0.00     0.020 A 
ATOM     96  Cl  UNL A   1      34.010  33.788  29.003  1.00  0.00    -0.084 Cl
ENDBRANCH  89  90
ENDBRANCH  87  89
ENDBRANCH  80  81
BRANCH  80  97
ATOM     97  C   UNL A   1      29.572  27.001  23.575  1.00  0.00     0.046 A 
ATOM     98  C   UNL A   1      28.324  26.482  23.876  1.00  0.00     0.094 A 
ATOM     99  C   UNL A   1      29.328  28.300  22.996  1.00  0.00     0.009 A 
ATOM    100  N   UNL A   1      27.372  27.424  23.588  1.00  0.00    -0.361 N 
ATOM    101  C   UNL A   1      27.953  28.524  23.007  1.00  0.00     0.049 A 
ATOM    102  C   UNL A   1      30.155  29.265  22.379  1.00  0.00     0.014 A 
ATOM    103  H   UNL A   1      26.410  27.326  23.770  1.00  0.00     0.166 HD
ATOM    104  C   UNL A   1      27.372  29.682  22.473  1.00  0.00     0.065 A 
ATOM    105  C   UNL A   1      29.595  30.416  21.821  1.00  0.00     0.040 A 
ATOM    106  C   UNL A   1      28.225  30.615  21.884  1.00  0.00     0.125 A 
ATOM    107  F   UNL A   1      27.706  31.731  21.355  1.00  0.00    -0.207 F 
ENDBRANCH  80  97
ENDBRANCH  78  80
ENDBRANCH  77  78
ENDBRANCH  76  77
ENDBRANCH  75  76
ENDBRANCH  74  75
ENDBRANCH   1  74
TORSDOF 21
ENDMDL
MODEL 2
REMARK VINA RESULT:     -11.4      0.790      6.819
REMARK SMILES O=C(OCCOCCOCCOC(=O)[C@H](c1c[nH]c2cc(F)ccc12)[NH+]1CC[NH+](Cc2cccc(Cl)c2)CC1)c1ccc(-c2c3nc(c(-c4c(F)c(F)c(F)c(F)c4F)c4ccc([nH]4)c(-c4c(F)c(F)c(F)c(F)c4F)c4nc(c(-c5c(F)c(F)c(F)c(F)c5F)c5ccc2[nH]5)C=C4)C=C3)cc1
REMARK SMILES IDX 8 1 7 2 6 3 5 4 4 5 3 6 2 7 1 8 40 9 41 10 102 11 42 12
REMARK SMILES IDX 101 13 43 14 44 15 45 16 95 17 46 18 100 19 94 20 96 21
REMARK SMILES IDX 47 22 99 23 93 24 92 25 48 27 80 28 60 29 79 30 61 31 64 32
REMARK SMILES IDX 78 33 97 34 62 35 63 36 77 38 98 39 65 40 49 41 50 42 58 43
REMARK SMILES IDX 51 44 52 45 56 46 59 47 53 48 54 49 57 50 55 51 81 52 82 53
REMARK SMILES IDX 90 54 83 55 84 56 88 57 91 58 85 59 86 60 89 61 87 62 66 63
REMARK SMILES IDX 67 64 75 65 68 66 69 67 73 68 76 69 70 70 71 71 74 72 72 73
REMARK SMILES IDX 9 74 10 75 11 76 12 77 13 78 14 79 15 80 26 81 27 82 39 83
REMARK SMILES IDX 28 85 38 86 29 87 30 89 31 90 32 91 37 92 33 93 35 94 34 95
REMARK SMILES IDX 36 96 16 97 17 98 25 99 18 100 19 101 24 102 20 104 23 105
REMARK SMILES IDX 21 106 22 107
REMARK H PARENT 96 26 64 37 26 84 29 88 18 103
REMARK Flexibility Score: inf
ROOT
ATOM      1  C   UNL A   1      32.292  20.301  24.252  1.00  0.00     0.188 C 
ENDROOT
BRANCH   1   2
ATOM      2  C   UNL A   1      33.258  19.951  25.385  1.00  0.00     0.188 C 
BRANCH   2   3
ATOM      3  O   UNL A   1      34.616  19.984  24.944  1.00  0.00    -0.376 OA
BRANCH   3   4
ATOM      4  C   UNL A   1      35.370  21.090  25.447  1.00  0.00     0.202 C 
BRANCH   4   5
ATOM      5  C   UNL A   1      36.872  21.079  25.115  1.00  0.00     0.261 C 
BRANCH   5   6
ATOM      6  O   UNL A   1      37.635  22.071  25.830  1.00  0.00    -0.460 OA
BRANCH   6   7
ATOM      7  C   UNL A   1      38.935  21.986  26.223  1.00  0.00     0.338 C 
ATOM      8  O   UNL A   1      39.516  20.907  26.193  1.00  0.00    -0.246 OA
BRANCH   7   9
ATOM      9  C   UNL A   1      39.687  23.202  26.629  1.00  0.00     0.060 A 
ATOM     10  C   UNL A   1      39.391  24.468  26.138  1.00  0.00     0.016 A 
ATOM     11  C   UNL A   1      40.696  23.084  27.588  1.00  0.00     0.016 A 
ATOM     12  C   UNL A   1      40.195  25.560  26.419  1.00  0.00     0.010 A 
ATOM     13  C   UNL A   1      41.419  24.215  27.990  1.00  0.00     0.010 A 
ATOM     14  C   UNL A   1      41.202  25.460  27.374  1.00  0.00    -0.014 A 
BRANCH  14  15
ATOM     15  C   UNL A   1      42.047  26.649  27.655  1.00  0.00     0.031 A 
ATOM     16  C   UNL A   1      41.532  27.698  28.597  1.00  0.00     0.074 A 
ATOM     17  C   UNL A   1      43.296  26.743  27.151  1.00  0.00     0.049 A 
ATOM     18  N   UNL A   1      42.066  28.842  28.937  1.00  0.00    -0.248 NA
ATOM     19  C   UNL A   1      40.246  27.418  29.258  1.00  0.00     0.031 C 
ATOM     20  C   UNL A   1      43.955  25.738  26.314  1.00  0.00     0.029 A 
ATOM     21  N   UNL A   1      44.251  27.722  27.283  1.00  0.00    -0.354 N 
ATOM     22  C   UNL A   1      41.177  29.416  29.835  1.00  0.00     0.074 A 
ATOM     23  C   UNL A   1      40.042  28.529  29.944  1.00  0.00     0.031 C 
ATOM     24  C   UNL A   1      45.190  26.151  26.004  1.00  0.00     0.029 A 
ATOM     25  C   UNL A   1      45.401  27.469  26.573  1.00  0.00     0.049 A 
ATOM     26  H   UNL A   1      44.124  28.528  27.834  1.00  0.00     0.167 HD
ATOM     27  C   UNL A   1      41.313  30.566  30.536  1.00  0.00     0.037 A 
ATOM     28  C   UNL A   1      46.499  28.220  26.375  1.00  0.00     0.037 A 
ATOM     29  C   UNL A   1      42.457  31.429  30.439  1.00  0.00     0.049 A 
ATOM     30  C   UNL A   1      46.585  29.537  27.087  1.00  0.00     0.074 A 
ATOM     31  C   UNL A   1      42.685  32.640  31.063  1.00  0.00     0.029 A 
ATOM     32  N   UNL A   1      43.579  31.155  29.667  1.00  0.00    -0.354 N 
ATOM     33  N   UNL A   1      45.717  30.088  27.902  1.00  0.00    -0.248 NA
ATOM     34  C   UNL A   1      47.802  30.327  26.874  1.00  0.00     0.031 C 
ATOM     35  C   UNL A   1      43.933  33.115  30.647  1.00  0.00     0.029 A 
ATOM     36  C   UNL A   1      44.502  32.180  29.795  1.00  0.00     0.049 A 
ATOM     37  H   UNL A   1      43.702  30.351  29.111  1.00  0.00     0.167 HD
ATOM     38  C   UNL A   1      46.292  31.277  28.319  1.00  0.00     0.074 A 
ATOM     39  C   UNL A   1      47.593  31.355  27.684  1.00  0.00     0.031 C 
ATOM     40  C   UNL A   1      45.789  32.222  29.151  1.00  0.00     0.037 A 
BRANCH  27  41
ATOM     41  C   UNL A   1      40.182  30.941  31.447  1.00  0.00     0.064 A 
ATOM     42  C   UNL A   1      39.262  31.945  31.102  1.00  0.00     0.173 A 
ATOM     43  C   UNL A   1      40.037  30.317  32.693  1.00  0.00     0.173 A 
ATOM     44  F   UNL A   1      39.378  32.594  29.935  1.00  0.00    -0.203 F 
ATOM     45  C   UNL A   1      38.262  32.333  31.989  1.00  0.00     0.198 A 
ATOM     46  C   UNL A   1      39.017  30.688  33.566  1.00  0.00     0.198 A 
ATOM     47  F   UNL A   1      40.893  29.357  33.073  1.00  0.00    -0.203 F 
ATOM     48  F   UNL A   1      37.437  33.339  31.667  1.00  0.00    -0.200 F 
ATOM     49  C   UNL A   1      38.137  31.702  33.217  1.00  0.00     0.200 A 
ATOM     50  F   UNL A   1      38.896  30.077  34.752  1.00  0.00    -0.200 F 
ATOM     51  F   UNL A   1      37.179  32.083  34.073  1.00  0.00    -0.200 F 
ENDBRANCH  27  41
BRANCH  28  52
ATOM     52  C   UNL A   1      47.580  27.757  25.460  1.00  0.00     0.064 A 
ATOM     53  C   UNL A   1      47.488  27.926  24.073  1.00  0.00     0.173 A 
ATOM     54  C   UNL A   1      48.722  27.110  25.962  1.00  0.00     0.173 A 
ATOM     55  F   UNL A   1      46.412  28.522  23.541  1.00  0.00    -0.203 F 
ATOM     56  C   UNL A   1      48.480  27.442  23.221  1.00  0.00     0.198 A 
ATOM     57  C   UNL A   1      49.726  26.651  25.111  1.00  0.00     0.198 A 
ATOM     58  F   UNL A   1      48.861  26.924  27.283  1.00  0.00    -0.203 F 
ATOM     59  F   UNL A   1      48.340  27.571  21.894  1.00  0.00    -0.200 F 
ATOM     60  C   UNL A   1      49.599  26.809  23.740  1.00  0.00     0.200 A 
ATOM     61  F   UNL A   1      50.807  26.039  25.614  1.00  0.00    -0.200 F 
ATOM     62  F   UNL A   1      50.548  26.339  22.918  1.00  0.00    -0.200 F 
ENDBRANCH  28  52
BRANCH  40  63
ATOM     63  C   UNL A   1      46.670  33.398  29.433  1.00  0.00     0.064 A 
ATOM     64  C   UNL A   1      47.543  33.413  30.531  1.00  0.00     0.173 A 
ATOM     65  C   UNL A   1      46.648  34.517  28.588  1.00  0.00     0.173 A 
ATOM     66  F   UNL A   1      47.581  32.372  31.377  1.00  0.00    -0.203 F 
ATOM     67  C   UNL A   1      48.343  34.520  30.789  1.00  0.00     0.198 A 
ATOM     68  C   UNL A   1      47.472  35.610  28.832  1.00  0.00     0.198 A 
ATOM     69  F   UNL A   1      45.830  34.547  27.525  1.00  0.00    -0.203 F 
ATOM     70  F   UNL A   1      49.127  34.539  31.875  1.00  0.00    -0.200 F 
ATOM     71  C   UNL A   1      48.311  35.615  29.937  1.00  0.00     0.200 A 
ATOM     72  F   UNL A   1      47.449  36.662  28.003  1.00  0.00    -0.200 F 
ATOM     73  F   UNL A   1      49.083  36.681  30.187  1.00  0.00    -0.200 F 
ENDBRANCH  40  63
ENDBRANCH  14  15
ENDBRANCH   7   9
ENDBRANCH   6   7
ENDBRANCH   5   6
ENDBRANCH   4   5
ENDBRANCH   3   4
ENDBRANCH   2   3
ENDBRANCH   1   2
BRANCH   1  74
ATOM     74  O   UNL A   1      32.754  21.275  23.319  1.00  0.00    -0.376 OA
BRANCH  74  75
ATOM     75  C   UNL A   1      31.777  22.140  22.747  1.00  0.00     0.202 C 
BRANCH  75  76
ATOM     76  C   UNL A   1      31.542  23.492  23.440  1.00  0.00     0.261 C 
BRANCH  76  77
ATOM     77  O   UNL A   1      32.277  24.606  22.898  1.00  0.00    -0.459 OA
BRANCH  77  78
ATOM     78  C   UNL A   1      31.559  25.754  22.644  1.00  0.00     0.370 C 
ATOM     79  O   UNL A   1      31.504  26.304  21.549  1.00  0.00    -0.245 OA
BRANCH  78  80
ATOM     80  C   UNL A   1      30.895  26.264  23.944  1.00  0.00     0.328 C 
BRANCH  80  81
ATOM     81  N   UNL A   1      31.781  27.099  24.764  1.00  0.00    -0.310 N 
ATOM     82  C   UNL A   1      33.207  27.255  24.516  1.00  0.00     0.325 C 
ATOM     83  C   UNL A   1      31.425  27.328  26.159  1.00  0.00     0.325 C 
ATOM     84  H   UNL A   1      31.444  27.871  24.189  1.00  0.00     0.349 HD
ATOM     85  C   UNL A   1      33.606  28.706  24.880  1.00  0.00     0.324 C 
ATOM     86  C   UNL A   1      31.868  28.748  26.584  1.00  0.00     0.324 C 
ATOM     87  N   UNL A   1      33.230  29.165  26.226  1.00  0.00    -0.322 N 
ATOM     88  H   UNL A   1      33.194  30.183  26.184  1.00  0.00     0.348 HD
BRANCH  87  89
ATOM     89  C   UNL A   1      34.253  28.955  27.253  1.00  0.00     0.299 C 
BRANCH  89  90
ATOM     90  C   UNL A   1      35.113  30.145  27.604  1.00  0.00     0.008 A 
ATOM     91  C   UNL A   1      36.454  29.980  27.984  1.00  0.00     0.009 A 
ATOM     92  C   UNL A   1      34.559  31.435  27.626  1.00  0.00     0.030 A 
ATOM     93  C   UNL A   1      37.191  31.060  28.476  1.00  0.00     0.002 A 
ATOM     94  C   UNL A   1      35.302  32.510  28.110  1.00  0.00     0.041 A 
ATOM     95  C   UNL A   1      36.608  32.323  28.554  1.00  0.00     0.020 A 
ATOM     96  Cl  UNL A   1      34.578  34.067  28.202  1.00  0.00    -0.084 Cl
ENDBRANCH  89  90
ENDBRANCH  87  89
ENDBRANCH  80  81
BRANCH  80  97
ATOM     97  C   UNL A   1      29.532  26.886  23.743  1.00  0.00     0.046 A 
ATOM     98  C   UNL A   1      28.286  26.330  23.977  1.00  0.00     0.094 A 
ATOM     99  C   UNL A   1      29.280  28.181  23.158  1.00  0.00     0.009 A 
ATOM    100  N   UNL A   1      27.323  27.246  23.645  1.00  0.00    -0.361 N 
ATOM    101  C   UNL A   1      27.901  28.366  23.099  1.00  0.00     0.049 A 
ATOM    102  C   UNL A   1      30.110  29.174  22.589  1.00  0.00     0.014 A 
ATOM    103  H   UNL A   1      26.356  27.119  23.777  1.00  0.00     0.166 HD
ATOM    104  C   UNL A   1      27.314  29.510  22.542  1.00  0.00     0.065 A 
ATOM    105  C   UNL A   1      29.546  30.312  22.009  1.00  0.00     0.040 A 
ATOM    106  C   UNL A   1      28.169  30.470  22.003  1.00  0.00     0.125 A 
ATOM    107  F   UNL A   1      27.646  31.575  21.453  1.00  0.00    -0.207 F 
ENDBRANCH  80  97
ENDBRANCH  78  80
ENDBRANCH  77  78
ENDBRANCH  76  77
ENDBRANCH  75  76
ENDBRANCH  74  75
ENDBRANCH   1  74
TORSDOF 21
ENDMDL
MODEL 3
REMARK VINA RESULT:     -11.0      3.764      8.690
REMARK SMILES O=C(OCCOCCOCCOC(=O)[C@H](c1c[nH]c2cc(F)ccc12)[NH+]1CC[NH+](Cc2cccc(Cl)c2)CC1)c1ccc(-c2c3nc(c(-c4c(F)c(F)c(F)c(F)c4F)c4ccc([nH]4)c(-c4c(F)c(F)c(F)c(F)c4F)c4nc(c(-c5c(F)c(F)c(F)c(F)c5F)c5ccc2[nH]5)C=C4)C=C3)cc1
REMARK SMILES IDX 8 1 7 2 6 3 5 4 4 5 3 6 2 7 1 8 40 9 41 10 102 11 42 12
REMARK SMILES IDX 101 13 43 14 44 15 45 16 95 17 46 18 100 19 94 20 96 21
REMARK SMILES IDX 47 22 99 23 93 24 92 25 48 27 80 28 60 29 79 30 61 31 64 32
REMARK SMILES IDX 78 33 97 34 62 35 63 36 77 38 98 39 65 40 49 41 50 42 58 43
REMARK SMILES IDX 51 44 52 45 56 46 59 47 53 48 54 49 57 50 55 51 81 52 82 53
REMARK SMILES IDX 90 54 83 55 84 56 88 57 91 58 85 59 86 60 89 61 87 62 66 63
REMARK SMILES IDX 67 64 75 65 68 66 69 67 73 68 76 69 70 70 71 71 74 72 72 73
REMARK SMILES IDX 9 74 10 75 11 76 12 77 13 78 14 79 15 80 26 81 27 82 39 83
REMARK SMILES IDX 28 85 38 86 29 87 30 89 31 90 32 91 37 92 33 93 35 94 34 95
REMARK SMILES IDX 36 96 16 97 17 98 25 99 18 100 19 101 24 102 20 104 23 105
REMARK SMILES IDX 21 106 22 107
REMARK H PARENT 96 26 64 37 26 84 29 88 18 103
REMARK Flexibility Score: inf
ROOT
ATOM      1  C   UNL A   1      35.002  31.250  28.566  1.00  0.00     0.188 C 
ENDROOT
BRANCH   1   2
ATOM      2  C   UNL A   1      35.473  32.590  28.000  1.00  0.00     0.188 C 
BRANCH   2   3
ATOM      3  O   UNL A   1      34.637  33.664  28.433  1.00  0.00    -0.376 OA
BRANCH   3   4
ATOM      4  C   UNL A   1      34.062  33.476  29.728  1.00  0.00     0.202 C 
BRANCH   4   5
ATOM      5  C   UNL A   1      34.753  34.228  30.880  1.00  0.00     0.261 C 
BRANCH   5   6
ATOM      6  O   UNL A   1      35.260  33.366  31.918  1.00  0.00    -0.460 OA
BRANCH   6   7
ATOM      7  C   UNL A   1      36.508  33.374  32.460  1.00  0.00     0.338 C 
ATOM      8  O   UNL A   1      36.711  33.948  33.525  1.00  0.00    -0.246 OA
BRANCH   7   9
ATOM      9  C   UNL A   1      37.625  32.639  31.810  1.00  0.00     0.060 A 
ATOM     10  C   UNL A   1      38.467  31.782  32.508  1.00  0.00     0.016 A 
ATOM     11  C   UNL A   1      37.803  32.763  30.429  1.00  0.00     0.016 A 
ATOM     12  C   UNL A   1      39.585  31.222  31.912  1.00  0.00     0.010 A 
ATOM     13  C   UNL A   1      38.846  32.079  29.793  1.00  0.00     0.010 A 
ATOM     14  C   UNL A   1      39.776  31.334  30.539  1.00  0.00    -0.014 A 
BRANCH  14  15
ATOM     15  C   UNL A   1      40.984  30.721  29.929  1.00  0.00     0.031 A 
ATOM     16  C   UNL A   1      42.239  31.538  29.828  1.00  0.00     0.074 A 
ATOM     17  C   UNL A   1      40.987  29.423  29.558  1.00  0.00     0.049 A 
ATOM     18  N   UNL A   1      43.385  31.234  29.278  1.00  0.00    -0.248 NA
ATOM     19  C   UNL A   1      42.206  32.877  30.440  1.00  0.00     0.031 C 
ATOM     20  C   UNL A   1      39.867  28.491  29.707  1.00  0.00     0.029 A 
ATOM     21  N   UNL A   1      41.972  28.647  28.995  1.00  0.00    -0.354 N 
ATOM     22  C   UNL A   1      44.196  32.344  29.467  1.00  0.00     0.074 A 
ATOM     23  C   UNL A   1      43.399  33.352  30.126  1.00  0.00     0.031 C 
ATOM     24  C   UNL A   1      40.221  27.285  29.247  1.00  0.00     0.029 A 
ATOM     25  C   UNL A   1      41.571  27.361  28.721  1.00  0.00     0.049 A 
ATOM     26  H   UNL A   1      42.879  28.981  28.806  1.00  0.00     0.167 HD
ATOM     27  C   UNL A   1      45.503  32.496  29.151  1.00  0.00     0.037 A 
ATOM     28  C   UNL A   1      42.205  26.355  28.094  1.00  0.00     0.037 A 
ATOM     29  C   UNL A   1      46.294  31.478  28.518  1.00  0.00     0.049 A 
ATOM     30  C   UNL A   1      43.624  26.579  27.666  1.00  0.00     0.074 A 
ATOM     31  C   UNL A   1      47.612  31.534  28.108  1.00  0.00     0.029 A 
ATOM     32  N   UNL A   1      45.831  30.204  28.213  1.00  0.00    -0.354 N 
ATOM     33  N   UNL A   1      44.367  27.650  27.814  1.00  0.00    -0.248 NA
ATOM     34  C   UNL A   1      44.302  25.458  27.005  1.00  0.00     0.031 C 
ATOM     35  C   UNL A   1      47.939  30.303  27.529  1.00  0.00     0.029 A 
ATOM     36  C   UNL A   1      46.838  29.465  27.615  1.00  0.00     0.049 A 
ATOM     37  H   UNL A   1      44.921  29.874  28.397  1.00  0.00     0.167 HD
ATOM     38  C   UNL A   1      45.607  27.326  27.288  1.00  0.00     0.074 A 
ATOM     39  C   UNL A   1      45.521  25.950  26.839  1.00  0.00     0.031 C 
ATOM     40  C   UNL A   1      46.717  28.097  27.184  1.00  0.00     0.037 A 
BRANCH  27  41
ATOM     41  C   UNL A   1      46.130  33.817  29.481  1.00  0.00     0.064 A 
ATOM     42  C   UNL A   1      46.129  34.881  28.564  1.00  0.00     0.173 A 
ATOM     43  C   UNL A   1      46.772  34.012  30.711  1.00  0.00     0.173 A 
ATOM     44  F   UNL A   1      45.556  34.734  27.360  1.00  0.00    -0.203 F 
ATOM     45  C   UNL A   1      46.779  36.078  28.855  1.00  0.00     0.198 A 
ATOM     46  C   UNL A   1      47.396  35.221  31.011  1.00  0.00     0.198 A 
ATOM     47  F   UNL A   1      46.808  33.025  31.620  1.00  0.00    -0.203 F 
ATOM     48  F   UNL A   1      46.822  37.055  27.938  1.00  0.00    -0.200 F 
ATOM     49  C   UNL A   1      47.407  36.248  30.079  1.00  0.00     0.200 A 
ATOM     50  F   UNL A   1      48.002  35.385  32.195  1.00  0.00    -0.200 F 
ATOM     51  F   UNL A   1      48.039  37.397  30.354  1.00  0.00    -0.200 F 
ENDBRANCH  27  41
BRANCH  28  52
ATOM     52  C   UNL A   1      41.503  25.069  27.823  1.00  0.00     0.064 A 
ATOM     53  C   UNL A   1      41.860  23.886  28.481  1.00  0.00     0.173 A 
ATOM     54  C   UNL A   1      40.468  24.998  26.875  1.00  0.00     0.173 A 
ATOM     55  F   UNL A   1      42.851  23.895  29.384  1.00  0.00    -0.203 F 
ATOM     56  C   UNL A   1      41.232  22.677  28.183  1.00  0.00     0.198 A 
ATOM     57  C   UNL A   1      39.823  23.794  26.597  1.00  0.00     0.198 A 
ATOM     58  F   UNL A   1      40.085  26.102  26.216  1.00  0.00    -0.203 F 
ATOM     59  F   UNL A   1      41.631  21.551  28.790  1.00  0.00    -0.200 F 
ATOM     60  C   UNL A   1      40.212  22.633  27.244  1.00  0.00     0.200 A 
ATOM     61  F   UNL A   1      38.837  23.753  25.689  1.00  0.00    -0.200 F 
ATOM     62  F   UNL A   1      39.615  21.468  26.955  1.00  0.00    -0.200 F 
ENDBRANCH  28  52
BRANCH  40  63
ATOM     63  C   UNL A   1      47.925  27.447  26.584  1.00  0.00     0.064 A 
ATOM     64  C   UNL A   1      48.880  26.799  27.382  1.00  0.00     0.173 A 
ATOM     65  C   UNL A   1      48.121  27.465  25.196  1.00  0.00     0.173 A 
ATOM     66  F   UNL A   1      48.743  26.778  28.716  1.00  0.00    -0.203 F 
ATOM     67  C   UNL A   1      50.005  26.216  26.811  1.00  0.00     0.198 A 
ATOM     68  C   UNL A   1      49.233  26.853  24.626  1.00  0.00     0.198 A 
ATOM     69  F   UNL A   1      47.233  28.071  24.394  1.00  0.00    -0.203 F 
ATOM     70  F   UNL A   1      50.935  25.653  27.594  1.00  0.00    -0.200 F 
ATOM     71  C   UNL A   1      50.178  26.238  25.434  1.00  0.00     0.200 A 
ATOM     72  F   UNL A   1      49.393  26.865  23.296  1.00  0.00    -0.200 F 
ATOM     73  F   UNL A   1      51.263  25.674  24.886  1.00  0.00    -0.200 F 
ENDBRANCH  40  63
ENDBRANCH  14  15
ENDBRANCH   7   9
ENDBRANCH   6   7
ENDBRANCH   5   6
ENDBRANCH   4   5
ENDBRANCH   3   4
ENDBRANCH   2   3
ENDBRANCH   1   2
BRANCH   1  74
ATOM     74  O   UNL A   1      34.443  30.338  27.624  1.00  0.00    -0.376 OA
BRANCH  74  75
ATOM     75  C   UNL A   1      33.270  30.757  26.932  1.00  0.00     0.202 C 
BRANCH  75  76
ATOM     76  C   UNL A   1      32.650  29.765  25.935  1.00  0.00     0.261 C 
BRANCH  76  77
ATOM     77  O   UNL A   1      32.883  28.372  26.217  1.00  0.00    -0.459 OA
BRANCH  77  78
ATOM     78  C   UNL A   1      31.775  27.551  26.231  1.00  0.00     0.370 C 
ATOM     79  O   UNL A   1      31.115  27.303  27.233  1.00  0.00    -0.245 OA
BRANCH  78  80
ATOM     80  C   UNL A   1      31.536  26.958  24.823  1.00  0.00     0.328 C 
BRANCH  80  81
ATOM     81  N   UNL A   1      31.999  25.572  24.686  1.00  0.00    -0.310 N 
ATOM     82  C   UNL A   1      32.144  24.890  23.407  1.00  0.00     0.325 C 
ATOM     83  C   UNL A   1      31.773  24.650  25.792  1.00  0.00     0.325 C 
ATOM     84  H   UNL A   1      32.936  25.969  24.750  1.00  0.00     0.349 HD
ATOM     85  C   UNL A   1      33.367  23.944  23.500  1.00  0.00     0.324 C 
ATOM     86  C   UNL A   1      32.944  23.643  25.878  1.00  0.00     0.324 C 
ATOM     87  N   UNL A   1      33.375  23.002  24.629  1.00  0.00    -0.322 N 
ATOM     88  H   UNL A   1      34.350  22.746  24.785  1.00  0.00     0.348 HD
BRANCH  87  89
ATOM     89  C   UNL A   1      32.778  21.696  24.341  1.00  0.00     0.299 C 
BRANCH  89  90
ATOM     90  C   UNL A   1      33.667  20.489  24.525  1.00  0.00     0.008 A 
ATOM     91  C   UNL A   1      34.999  20.633  24.943  1.00  0.00     0.009 A 
ATOM     92  C   UNL A   1      33.193  19.207  24.208  1.00  0.00     0.030 A 
ATOM     93  C   UNL A   1      35.865  19.537  24.942  1.00  0.00     0.002 A 
ATOM     94  C   UNL A   1      34.060  18.116  24.217  1.00  0.00     0.041 A 
ATOM     95  C   UNL A   1      35.399  18.280  24.562  1.00  0.00     0.020 A 
ATOM     96  Cl  UNL A   1      33.477  16.567  23.749  1.00  0.00    -0.084 Cl
ENDBRANCH  89  90
ENDBRANCH  87  89
ENDBRANCH  80  81
BRANCH  80  97
ATOM     97  C   UNL A   1      30.133  27.157  24.295  1.00  0.00     0.046 A 
ATOM     98  C   UNL A   1      29.046  26.304  24.391  1.00  0.00     0.094 A 
ATOM     99  C   UNL A   1      29.692  28.266  23.484  1.00  0.00     0.009 A 
ATOM    100  N   UNL A   1      27.975  26.880  23.760  1.00  0.00    -0.361 N 
ATOM    101  C   UNL A   1      28.354  28.056  23.159  1.00  0.00     0.049 A 
ATOM    102  C   UNL A   1      30.346  29.386  22.924  1.00  0.00     0.014 A 
ATOM    103  H   UNL A   1      27.065  26.505  23.740  1.00  0.00     0.166 HD
ATOM    104  C   UNL A   1      27.629  28.931  22.339  1.00  0.00     0.065 A 
ATOM    105  C   UNL A   1      29.648  30.260  22.087  1.00  0.00     0.040 A 
ATOM    106  C   UNL A   1      28.309  30.030  21.817  1.00  0.00     0.125 A 
ATOM    107  F   UNL A   1      27.651  30.886  21.021  1.00  0.00    -0.207 F 
ENDBRANCH  80  97
ENDBRANCH  78  80
ENDBRANCH  77  78
ENDBRANCH  76  77
ENDBRANCH  75  76
ENDBRANCH  74  75
ENDBRANCH   1  74
TORSDOF 21
ENDMDL
