MODEL 1
REMARK VINA RESULT:     -11.4      0.000      0.000
REMARK SMILES Cc1cc(OC(F)(F)F)cc2c1O[C@H](C(F)(F)F)C(C(=O)OCCOCCOCCOC(=O)c1ccc(-c3c4nc(c(-c5c(F)c(F)c(F)c(F)c5F)c5ccc([nH]5)c(-c5c(F)c(F)c(F)c(F)c5F)c5nc(c(-c6c(F)c(F)c(F)c(F)c6F)c6ccc3[nH]6)C=C5)C=C4)cc1)=C2
REMARK SMILES IDX 26 1 25 2 24 3 23 4 22 5 20 6 21 7 19 8 1 9 2 10 3 11 12 12
REMARK SMILES IDX 4 13 11 14 13 15 10 16 97 17 14 18 5 19 6 20 7 21 8 22 9 23
REMARK SMILES IDX 15 24 16 25 17 26 18 27 27 28 28 29 29 30 30 31 31 32 32 33
REMARK SMILES IDX 33 34 34 35 35 36 96 37 36 38 95 39 37 40 38 41 39 42 89 43
REMARK SMILES IDX 40 44 94 45 88 46 90 47 41 48 93 49 87 50 86 51 42 53 74 54
REMARK SMILES IDX 54 55 73 56 55 57 58 58 72 59 91 60 56 61 57 62 71 64 92 65
REMARK SMILES IDX 59 66 43 67 44 68 52 69 45 70 46 71 50 72 53 73 47 74 48 75
REMARK SMILES IDX 51 76 49 77 75 78 76 79 84 80 77 81 78 82 82 83 85 84 79 85
REMARK SMILES IDX 80 86 83 87 81 88 60 89 61 90 69 91 62 92 63 93 67 94 70 95
REMARK SMILES IDX 64 96 65 97 68 98 66 99
REMARK H PARENT 90 52 58 63
REMARK Flexibility Score: inf
ROOT
ATOM      1  C   UNL A   1      33.905  19.337  24.762  1.00  0.00     0.188 C 
ENDROOT
BRANCH   1   2
ATOM      2  O   UNL A   1      32.882  19.881  23.963  1.00  0.00    -0.376 OA
BRANCH   2   3
ATOM      3  C   UNL A   1      32.346  21.165  24.223  1.00  0.00     0.202 C 
BRANCH   3   4
ATOM      4  C   UNL A   1      31.718  21.625  25.551  1.00  0.00     0.261 C 
BRANCH   4   5
ATOM      5  O   UNL A   1      30.888  22.789  25.520  1.00  0.00    -0.460 OA
BRANCH   5   6
ATOM      6  C   UNL A   1      31.200  23.751  26.423  1.00  0.00     0.338 C 
ATOM      7  O   UNL A   1      31.389  23.596  27.617  1.00  0.00    -0.246 OA
BRANCH   6   8
ATOM      8  C   UNL A   1      31.439  25.027  25.717  1.00  0.00     0.087 C 
ATOM      9  C   UNL A   1      33.547  29.011  23.301  1.00  0.00     0.048 C 
ATOM     10  C   UNL A   1      32.168  28.418  23.402  1.00  0.00    -0.005 A 
ATOM     11  C   UNL A   1      31.124  28.960  22.633  1.00  0.00     0.054 A 
ATOM     12  C   UNL A   1      31.904  27.340  24.260  1.00  0.00     0.131 A 
ATOM     13  C   UNL A   1      29.836  28.431  22.705  1.00  0.00     0.130 A 
ATOM     14  C   UNL A   1      30.626  26.778  24.306  1.00  0.00     0.021 A 
ATOM     15  O   UNL A   1      32.941  26.892  25.027  1.00  0.00    -0.475 OA
ATOM     16  C   UNL A   1      29.592  27.344  23.550  1.00  0.00     0.058 A 
ATOM     17  C   UNL A   1      30.394  25.569  25.079  1.00  0.00     0.027 C 
ATOM     18  C   UNL A   1      32.810  25.644  25.757  1.00  0.00     0.316 C 
BRANCH  13  19
ATOM     19  O   UNL A   1      28.743  28.863  22.009  1.00  0.00    -0.406 OA
BRANCH  19  20
ATOM     20  C   UNL A   1      27.890  29.806  22.638  1.00  0.00     0.573 C 
ATOM     21  F   UNL A   1      27.498  30.762  21.770  1.00  0.00    -0.132 F 
ATOM     22  F   UNL A   1      26.803  29.204  23.167  1.00  0.00    -0.132 F 
ATOM     23  F   UNL A   1      28.569  30.403  23.642  1.00  0.00    -0.132 F 
ENDBRANCH  19  20
ENDBRANCH  13  19
BRANCH  18  24
ATOM     24  C   UNL A   1      33.897  24.681  25.264  1.00  0.00     0.430 C 
ATOM     25  F   UNL A   1      34.158  23.721  26.182  1.00  0.00    -0.167 F 
ATOM     26  F   UNL A   1      33.524  24.043  24.129  1.00  0.00    -0.167 F 
ATOM     27  F   UNL A   1      35.059  25.323  25.004  1.00  0.00    -0.167 F 
ENDBRANCH  18  24
ENDBRANCH   6   8
ENDBRANCH   5   6
ENDBRANCH   4   5
ENDBRANCH   3   4
ENDBRANCH   2   3
ENDBRANCH   1   2
BRANCH   1  28
ATOM     28  C   UNL A   1      35.191  20.168  24.968  1.00  0.00     0.188 C 
BRANCH  28  29
ATOM     29  O   UNL A   1      36.454  19.537  24.959  1.00  0.00    -0.376 OA
BRANCH  29  30
ATOM     30  C   UNL A   1      37.621  20.342  24.866  1.00  0.00     0.202 C 
BRANCH  30  31
ATOM     31  C   UNL A   1      37.567  21.882  24.907  1.00  0.00     0.261 C 
BRANCH  31  32
ATOM     32  O   UNL A   1      37.971  22.499  26.139  1.00  0.00    -0.460 OA
BRANCH  32  33
ATOM     33  C   UNL A   1      39.311  22.646  26.317  1.00  0.00     0.338 C 
ATOM     34  O   UNL A   1      40.196  21.889  25.977  1.00  0.00    -0.246 OA
BRANCH  33  35
ATOM     35  C   UNL A   1      39.562  23.997  26.858  1.00  0.00     0.060 A 
ATOM     36  C   UNL A   1      40.227  24.943  26.062  1.00  0.00     0.016 A 
ATOM     37  C   UNL A   1      39.149  24.322  28.148  1.00  0.00     0.016 A 
ATOM     38  C   UNL A   1      40.443  26.233  26.543  1.00  0.00     0.010 A 
ATOM     39  C   UNL A   1      39.407  25.602  28.647  1.00  0.00     0.010 A 
ATOM     40  C   UNL A   1      40.058  26.559  27.850  1.00  0.00    -0.014 A 
BRANCH  40  41
ATOM     41  C   UNL A   1      40.496  27.847  28.437  1.00  0.00     0.031 A 
ATOM     42  C   UNL A   1      41.956  28.035  28.727  1.00  0.00     0.074 A 
ATOM     43  C   UNL A   1      39.619  28.834  28.687  1.00  0.00     0.049 A 
ATOM     44  N   UNL A   1      42.574  29.072  29.231  1.00  0.00    -0.248 NA
ATOM     45  C   UNL A   1      42.839  26.904  28.405  1.00  0.00     0.031 C 
ATOM     46  C   UNL A   1      38.186  28.779  28.412  1.00  0.00     0.029 A 
ATOM     47  N   UNL A   1      39.811  30.079  29.232  1.00  0.00    -0.354 N 
ATOM     48  C   UNL A   1      43.916  28.724  29.269  1.00  0.00     0.074 A 
ATOM     49  C   UNL A   1      44.022  27.366  28.781  1.00  0.00     0.031 C 
ATOM     50  C   UNL A   1      37.625  29.939  28.796  1.00  0.00     0.029 A 
ATOM     51  C   UNL A   1      38.655  30.809  29.364  1.00  0.00     0.049 A 
ATOM     52  H   UNL A   1      40.695  30.418  29.502  1.00  0.00     0.167 HD
ATOM     53  C   UNL A   1      44.970  29.478  29.659  1.00  0.00     0.037 A 
ATOM     54  C   UNL A   1      38.455  32.034  29.892  1.00  0.00     0.037 A 
ATOM     55  C   UNL A   1      44.859  30.820  30.161  1.00  0.00     0.049 A 
ATOM     56  C   UNL A   1      39.635  32.816  30.418  1.00  0.00     0.074 A 
ATOM     57  C   UNL A   1      45.870  31.666  30.578  1.00  0.00     0.029 A 
ATOM     58  N   UNL A   1      43.665  31.505  30.329  1.00  0.00    -0.354 N 
ATOM     59  N   UNL A   1      40.907  32.499  30.410  1.00  0.00    -0.248 NA
ATOM     60  C   UNL A   1      39.353  34.127  31.025  1.00  0.00     0.031 C 
ATOM     61  C   UNL A   1      45.284  32.841  31.055  1.00  0.00     0.029 A 
ATOM     62  C   UNL A   1      43.914  32.755  30.872  1.00  0.00     0.049 A 
ATOM     63  H   UNL A   1      42.774  31.156  30.096  1.00  0.00     0.167 HD
ATOM     64  C   UNL A   1      41.577  33.579  30.972  1.00  0.00     0.074 A 
ATOM     65  C   UNL A   1      40.573  34.565  31.309  1.00  0.00     0.031 C 
ATOM     66  C   UNL A   1      42.906  33.737  31.182  1.00  0.00     0.037 A 
BRANCH  53  67
ATOM     67  C   UNL A   1      46.337  28.871  29.563  1.00  0.00     0.064 A 
ATOM     68  C   UNL A   1      46.880  28.125  30.621  1.00  0.00     0.173 A 
ATOM     69  C   UNL A   1      47.083  28.973  28.381  1.00  0.00     0.173 A 
ATOM     70  F   UNL A   1      46.212  28.009  31.779  1.00  0.00    -0.203 F 
ATOM     71  C   UNL A   1      48.124  27.514  30.500  1.00  0.00     0.198 A 
ATOM     72  C   UNL A   1      48.313  28.336  28.252  1.00  0.00     0.198 A 
ATOM     73  F   UNL A   1      46.607  29.673  27.338  1.00  0.00    -0.203 F 
ATOM     74  F   UNL A   1      48.638  26.835  31.535  1.00  0.00    -0.200 F 
ATOM     75  C   UNL A   1      48.834  27.610  29.312  1.00  0.00     0.200 A 
ATOM     76  F   UNL A   1      48.990  28.415  27.098  1.00  0.00    -0.200 F 
ATOM     77  F   UNL A   1      50.022  27.003  29.190  1.00  0.00    -0.200 F 
ENDBRANCH  53  67
BRANCH  54  78
ATOM     78  C   UNL A   1      37.084  32.609  29.929  1.00  0.00     0.064 A 
ATOM     79  C   UNL A   1      36.572  33.318  28.834  1.00  0.00     0.173 A 
ATOM     80  C   UNL A   1      36.256  32.459  31.053  1.00  0.00     0.173 A 
ATOM     81  F   UNL A   1      37.332  33.513  27.747  1.00  0.00    -0.203 F 
ATOM     82  C   UNL A   1      35.288  33.862  28.864  1.00  0.00     0.198 A 
ATOM     83  C   UNL A   1      34.963  32.978  31.070  1.00  0.00     0.198 A 
ATOM     84  F   UNL A   1      36.699  31.794  32.130  1.00  0.00    -0.203 F 
ATOM     85  F   UNL A   1      34.838  34.568  27.817  1.00  0.00    -0.200 F 
ATOM     86  C   UNL A   1      34.482  33.683  29.977  1.00  0.00     0.200 A 
ATOM     87  F   UNL A   1      34.183  32.794  32.144  1.00  0.00    -0.200 F 
ATOM     88  F   UNL A   1      33.244  34.197  30.001  1.00  0.00    -0.200 F 
ENDBRANCH  54  78
BRANCH  66  89
ATOM     89  C   UNL A   1      43.388  35.032  31.774  1.00  0.00     0.064 A 
ATOM     90  C   UNL A   1      43.519  35.202  33.159  1.00  0.00     0.173 A 
ATOM     91  C   UNL A   1      43.861  36.057  30.938  1.00  0.00     0.173 A 
ATOM     92  F   UNL A   1      43.075  34.255  34.000  1.00  0.00    -0.203 F 
ATOM     93  C   UNL A   1      44.111  36.347  33.685  1.00  0.00     0.198 A 
ATOM     94  C   UNL A   1      44.479  37.186  31.467  1.00  0.00     0.198 A 
ATOM     95  F   UNL A   1      43.769  35.938  29.604  1.00  0.00    -0.203 F 
ATOM     96  F   UNL A   1      44.217  36.495  35.013  1.00  0.00    -0.200 F 
ATOM     97  C   UNL A   1      44.606  37.330  32.840  1.00  0.00     0.200 A 
ATOM     98  F   UNL A   1      44.975  38.123  30.646  1.00  0.00    -0.200 F 
ATOM     99  F   UNL A   1      45.210  38.413  33.348  1.00  0.00    -0.200 F 
ENDBRANCH  66  89
ENDBRANCH  40  41
ENDBRANCH  33  35
ENDBRANCH  32  33
ENDBRANCH  31  32
ENDBRANCH  30  31
ENDBRANCH  29  30
ENDBRANCH  28  29
ENDBRANCH   1  28
TORSDOF 20
ENDMDL
MODEL 2
REMARK VINA RESULT:     -11.4      3.488      5.640
REMARK SMILES Cc1cc(OC(F)(F)F)cc2c1O[C@H](C(F)(F)F)C(C(=O)OCCOCCOCCOC(=O)c1ccc(-c3c4nc(c(-c5c(F)c(F)c(F)c(F)c5F)c5ccc([nH]5)c(-c5c(F)c(F)c(F)c(F)c5F)c5nc(c(-c6c(F)c(F)c(F)c(F)c6F)c6ccc3[nH]6)C=C5)C=C4)cc1)=C2
REMARK SMILES IDX 26 1 25 2 24 3 23 4 22 5 20 6 21 7 19 8 1 9 2 10 3 11 12 12
REMARK SMILES IDX 4 13 11 14 13 15 10 16 97 17 14 18 5 19 6 20 7 21 8 22 9 23
REMARK SMILES IDX 15 24 16 25 17 26 18 27 27 28 28 29 29 30 30 31 31 32 32 33
REMARK SMILES IDX 33 34 34 35 35 36 96 37 36 38 95 39 37 40 38 41 39 42 89 43
REMARK SMILES IDX 40 44 94 45 88 46 90 47 41 48 93 49 87 50 86 51 42 53 74 54
REMARK SMILES IDX 54 55 73 56 55 57 58 58 72 59 91 60 56 61 57 62 71 64 92 65
REMARK SMILES IDX 59 66 43 67 44 68 52 69 45 70 46 71 50 72 53 73 47 74 48 75
REMARK SMILES IDX 51 76 49 77 75 78 76 79 84 80 77 81 78 82 82 83 85 84 79 85
REMARK SMILES IDX 80 86 83 87 81 88 60 89 61 90 69 91 62 92 63 93 67 94 70 95
REMARK SMILES IDX 64 96 65 97 68 98 66 99
REMARK H PARENT 90 52 58 63
REMARK Flexibility Score: inf
ROOT
ATOM      1  C   UNL A   1      40.223  21.769  26.772  1.00  0.00     0.188 C 
ENDROOT
BRANCH   1   2
ATOM      2  O   UNL A   1      39.267  21.529  25.768  1.00  0.00    -0.376 OA
BRANCH   2   3
ATOM      3  C   UNL A   1      38.065  22.276  25.699  1.00  0.00     0.202 C 
BRANCH   3   4
ATOM      4  C   UNL A   1      36.739  21.792  25.087  1.00  0.00     0.261 C 
BRANCH   4   5
ATOM      5  O   UNL A   1      35.650  22.718  25.056  1.00  0.00    -0.460 OA
BRANCH   5   6
ATOM      6  C   UNL A   1      35.398  23.280  23.848  1.00  0.00     0.338 C 
ATOM      7  O   UNL A   1      35.862  22.938  22.773  1.00  0.00    -0.246 OA
BRANCH   6   8
ATOM      8  C   UNL A   1      34.336  24.296  23.992  1.00  0.00     0.087 C 
ATOM      9  C   UNL A   1      29.904  26.848  23.913  1.00  0.00     0.048 C 
ATOM     10  C   UNL A   1      31.191  26.945  24.687  1.00  0.00    -0.005 A 
ATOM     11  C   UNL A   1      31.304  27.886  25.725  1.00  0.00     0.054 A 
ATOM     12  C   UNL A   1      32.284  26.120  24.382  1.00  0.00     0.131 A 
ATOM     13  C   UNL A   1      32.483  27.998  26.461  1.00  0.00     0.130 A 
ATOM     14  C   UNL A   1      33.453  26.199  25.142  1.00  0.00     0.021 A 
ATOM     15  O   UNL A   1      32.138  25.266  23.327  1.00  0.00    -0.475 OA
ATOM     16  C   UNL A   1      33.557  27.156  26.158  1.00  0.00     0.058 A 
ATOM     17  C   UNL A   1      34.524  25.241  24.923  1.00  0.00     0.027 C 
ATOM     18  C   UNL A   1      33.126  24.227  23.101  1.00  0.00     0.316 C 
BRANCH  13  19
ATOM     19  O   UNL A   1      32.715  28.865  27.491  1.00  0.00    -0.406 OA
BRANCH  19  20
ATOM     20  C   UNL A   1      33.474  30.032  27.213  1.00  0.00     0.573 C 
ATOM     21  F   UNL A   1      33.559  30.249  25.884  1.00  0.00    -0.132 F 
ATOM     22  F   UNL A   1      32.939  31.116  27.814  1.00  0.00    -0.132 F 
ATOM     23  F   UNL A   1      34.725  29.861  27.692  1.00  0.00    -0.132 F 
ENDBRANCH  19  20
ENDBRANCH  13  19
BRANCH  18  24
ATOM     24  C   UNL A   1      32.422  22.867  23.180  1.00  0.00     0.430 C 
ATOM     25  F   UNL A   1      32.632  22.271  24.377  1.00  0.00    -0.167 F 
ATOM     26  F   UNL A   1      31.081  22.988  23.036  1.00  0.00    -0.167 F 
ATOM     27  F   UNL A   1      32.856  22.018  22.220  1.00  0.00    -0.167 F 
ENDBRANCH  18  24
ENDBRANCH   6   8
ENDBRANCH   5   6
ENDBRANCH   4   5
ENDBRANCH   3   4
ENDBRANCH   2   3
ENDBRANCH   1   2
BRANCH   1  28
ATOM     28  C   UNL A   1      41.679  21.321  26.516  1.00  0.00     0.188 C 
BRANCH  28  29
ATOM     29  O   UNL A   1      42.147  20.093  27.032  1.00  0.00    -0.376 OA
BRANCH  29  30
ATOM     30  C   UNL A   1      42.191  18.961  26.175  1.00  0.00     0.202 C 
BRANCH  30  31
ATOM     31  C   UNL A   1      43.488  18.498  25.484  1.00  0.00     0.261 C 
BRANCH  31  32
ATOM     32  O   UNL A   1      43.819  19.154  24.250  1.00  0.00    -0.460 OA
BRANCH  32  33
ATOM     33  C   UNL A   1      45.067  19.688  24.177  1.00  0.00     0.338 C 
ATOM     34  O   UNL A   1      46.046  19.224  23.629  1.00  0.00    -0.246 OA
BRANCH  33  35
ATOM     35  C   UNL A   1      45.022  21.053  24.738  1.00  0.00     0.060 A 
ATOM     36  C   UNL A   1      44.617  22.119  23.921  1.00  0.00     0.016 A 
ATOM     37  C   UNL A   1      45.388  21.276  26.064  1.00  0.00     0.016 A 
ATOM     38  C   UNL A   1      44.537  23.409  24.443  1.00  0.00     0.010 A 
ATOM     39  C   UNL A   1      45.351  22.577  26.574  1.00  0.00     0.010 A 
ATOM     40  C   UNL A   1      44.931  23.647  25.765  1.00  0.00    -0.014 A 
BRANCH  40  41
ATOM     41  C   UNL A   1      45.068  25.042  26.243  1.00  0.00     0.031 A 
ATOM     42  C   UNL A   1      46.420  25.688  26.173  1.00  0.00     0.074 A 
ATOM     43  C   UNL A   1      44.009  25.727  26.708  1.00  0.00     0.049 A 
ATOM     44  N   UNL A   1      46.783  26.895  26.523  1.00  0.00    -0.248 NA
ATOM     45  C   UNL A   1      47.513  24.862  25.634  1.00  0.00     0.031 C 
ATOM     46  C   UNL A   1      42.643  25.218  26.788  1.00  0.00     0.029 A 
ATOM     47  N   UNL A   1      43.924  27.005  27.204  1.00  0.00    -0.354 N 
ATOM     48  C   UNL A   1      48.136  26.978  26.232  1.00  0.00     0.074 A 
ATOM     49  C   UNL A   1      48.545  25.689  25.718  1.00  0.00     0.031 C 
ATOM     50  C   UNL A   1      41.854  26.174  27.309  1.00  0.00     0.029 A 
ATOM     51  C   UNL A   1      42.662  27.353  27.620  1.00  0.00     0.049 A 
ATOM     52  H   UNL A   1      44.694  27.615  27.256  1.00  0.00     0.167 HD
ATOM     53  C   UNL A   1      48.961  28.042  26.363  1.00  0.00     0.037 A 
ATOM     54  C   UNL A   1      42.217  28.490  28.194  1.00  0.00     0.037 A 
ATOM     55  C   UNL A   1      48.556  29.316  26.892  1.00  0.00     0.049 A 
ATOM     56  C   UNL A   1      43.182  29.628  28.427  1.00  0.00     0.074 A 
ATOM     57  C   UNL A   1      49.319  30.456  27.061  1.00  0.00     0.029 A 
ATOM     58  N   UNL A   1      47.281  29.612  27.351  1.00  0.00    -0.354 N 
ATOM     59  N   UNL A   1      44.450  29.716  28.108  1.00  0.00    -0.248 NA
ATOM     60  C   UNL A   1      42.652  30.827  29.098  1.00  0.00     0.031 C 
ATOM     61  C   UNL A   1      48.523  31.424  27.678  1.00  0.00     0.029 A 
ATOM     62  C   UNL A   1      47.246  30.910  27.832  1.00  0.00     0.049 A 
ATOM     63  H   UNL A   1      46.515  28.992  27.337  1.00  0.00     0.167 HD
ATOM     64  C   UNL A   1      44.859  30.984  28.503  1.00  0.00     0.074 A 
ATOM     65  C   UNL A   1      43.705  31.635  29.084  1.00  0.00     0.031 C 
ATOM     66  C   UNL A   1      46.083  31.555  28.387  1.00  0.00     0.037 A 
BRANCH  53  67
ATOM     67  C   UNL A   1      50.388  27.878  25.933  1.00  0.00     0.064 A 
ATOM     68  C   UNL A   1      51.407  27.633  26.865  1.00  0.00     0.173 A 
ATOM     69  C   UNL A   1      50.730  27.895  24.573  1.00  0.00     0.173 A 
ATOM     70  F   UNL A   1      51.133  27.621  28.179  1.00  0.00    -0.203 F 
ATOM     71  C   UNL A   1      52.718  27.421  26.451  1.00  0.00     0.198 A 
ATOM     72  C   UNL A   1      52.037  27.652  24.161  1.00  0.00     0.198 A 
ATOM     73  F   UNL A   1      49.791  28.122  23.641  1.00  0.00    -0.203 F 
ATOM     74  F   UNL A   1      53.682  27.222  27.361  1.00  0.00    -0.200 F 
ATOM     75  C   UNL A   1      53.030  27.419  25.100  1.00  0.00     0.200 A 
ATOM     76  F   UNL A   1      52.332  27.634  22.854  1.00  0.00    -0.200 F 
ATOM     77  F   UNL A   1      54.289  27.194  24.701  1.00  0.00    -0.200 F 
ENDBRANCH  53  67
BRANCH  54  78
ATOM     78  C   UNL A   1      40.784  28.618  28.568  1.00  0.00     0.064 A 
ATOM     79  C   UNL A   1      40.344  28.287  29.857  1.00  0.00     0.173 A 
ATOM     80  C   UNL A   1      39.825  29.077  27.652  1.00  0.00     0.173 A 
ATOM     81  F   UNL A   1      41.216  27.818  30.762  1.00  0.00    -0.203 F 
ATOM     82  C   UNL A   1      39.001  28.402  30.213  1.00  0.00     0.198 A 
ATOM     83  C   UNL A   1      38.488  29.219  28.017  1.00  0.00     0.198 A 
ATOM     84  F   UNL A   1      40.191  29.403  26.403  1.00  0.00    -0.203 F 
ATOM     85  F   UNL A   1      38.603  28.042  31.441  1.00  0.00    -0.200 F 
ATOM     86  C   UNL A   1      38.076  28.877  29.297  1.00  0.00     0.200 A 
ATOM     87  F   UNL A   1      37.599  29.688  27.131  1.00  0.00    -0.200 F 
ATOM     88  F   UNL A   1      36.787  28.998  29.643  1.00  0.00    -0.200 F 
ENDBRANCH  54  78
BRANCH  66  89
ATOM     89  C   UNL A   1      46.259  32.972  28.858  1.00  0.00     0.064 A 
ATOM     90  C   UNL A   1      45.954  34.063  28.034  1.00  0.00     0.173 A 
ATOM     91  C   UNL A   1      46.596  33.232  30.197  1.00  0.00     0.173 A 
ATOM     92  F   UNL A   1      45.635  33.867  26.745  1.00  0.00    -0.203 F 
ATOM     93  C   UNL A   1      45.974  35.363  28.533  1.00  0.00     0.198 A 
ATOM     94  C   UNL A   1      46.586  34.530  30.699  1.00  0.00     0.198 A 
ATOM     95  F   UNL A   1      46.885  32.221  31.031  1.00  0.00    -0.203 F 
ATOM     96  F   UNL A   1      45.691  36.393  27.724  1.00  0.00    -0.200 F 
ATOM     97  C   UNL A   1      46.273  35.594  29.868  1.00  0.00     0.200 A 
ATOM     98  F   UNL A   1      46.853  34.748  31.995  1.00  0.00    -0.200 F 
ATOM     99  F   UNL A   1      46.254  36.842  30.355  1.00  0.00    -0.200 F 
ENDBRANCH  66  89
ENDBRANCH  40  41
ENDBRANCH  33  35
ENDBRANCH  32  33
ENDBRANCH  31  32
ENDBRANCH  30  31
ENDBRANCH  29  30
ENDBRANCH  28  29
ENDBRANCH   1  28
TORSDOF 20
ENDMDL
MODEL 3
REMARK VINA RESULT:     -11.4      5.076     11.127
REMARK SMILES Cc1cc(OC(F)(F)F)cc2c1O[C@H](C(F)(F)F)C(C(=O)OCCOCCOCCOC(=O)c1ccc(-c3c4nc(c(-c5c(F)c(F)c(F)c(F)c5F)c5ccc([nH]5)c(-c5c(F)c(F)c(F)c(F)c5F)c5nc(c(-c6c(F)c(F)c(F)c(F)c6F)c6ccc3[nH]6)C=C5)C=C4)cc1)=C2
REMARK SMILES IDX 26 1 25 2 24 3 23 4 22 5 20 6 21 7 19 8 1 9 2 10 3 11 12 12
REMARK SMILES IDX 4 13 11 14 13 15 10 16 97 17 14 18 5 19 6 20 7 21 8 22 9 23
REMARK SMILES IDX 15 24 16 25 17 26 18 27 27 28 28 29 29 30 30 31 31 32 32 33
REMARK SMILES IDX 33 34 34 35 35 36 96 37 36 38 95 39 37 40 38 41 39 42 89 43
REMARK SMILES IDX 40 44 94 45 88 46 90 47 41 48 93 49 87 50 86 51 42 53 74 54
REMARK SMILES IDX 54 55 73 56 55 57 58 58 72 59 91 60 56 61 57 62 71 64 92 65
REMARK SMILES IDX 59 66 43 67 44 68 52 69 45 70 46 71 50 72 53 73 47 74 48 75
REMARK SMILES IDX 51 76 49 77 75 78 76 79 84 80 77 81 78 82 82 83 85 84 79 85
REMARK SMILES IDX 80 86 83 87 81 88 60 89 61 90 69 91 62 92 63 93 67 94 70 95
REMARK SMILES IDX 64 96 65 97 68 98 66 99
REMARK H PARENT 90 52 58 63
REMARK Flexibility Score: inf
ROOT
ATOM      1  C   UNL A   1      32.619  36.096  30.362  1.00  0.00     0.188 C 
ENDROOT
BRANCH   1   2
ATOM      2  O   UNL A   1      32.527  37.201  31.229  1.00  0.00    -0.376 OA
BRANCH   2   3
ATOM      3  C   UNL A   1      33.605  37.570  32.070  1.00  0.00     0.202 C 
BRANCH   3   4
ATOM      4  C   UNL A   1      34.025  36.849  33.362  1.00  0.00     0.261 C 
BRANCH   4   5
ATOM      5  O   UNL A   1      35.015  35.822  33.252  1.00  0.00    -0.460 OA
BRANCH   5   6
ATOM      6  C   UNL A   1      34.546  34.552  33.318  1.00  0.00     0.338 C 
ATOM      7  O   UNL A   1      33.456  34.157  32.942  1.00  0.00    -0.246 OA
BRANCH   6   8
ATOM      8  C   UNL A   1      35.625  33.654  33.779  1.00  0.00     0.087 C 
ATOM      9  C   UNL A   1      39.599  30.446  34.047  1.00  0.00     0.048 C 
ATOM     10  C   UNL A   1      38.922  31.405  34.989  1.00  0.00    -0.005 A 
ATOM     11  C   UNL A   1      39.462  31.614  36.269  1.00  0.00     0.054 A 
ATOM     12  C   UNL A   1      37.752  32.084  34.614  1.00  0.00     0.131 A 
ATOM     13  C   UNL A   1      38.856  32.497  37.163  1.00  0.00     0.130 A 
ATOM     14  C   UNL A   1      37.165  33.001  35.488  1.00  0.00     0.021 A 
ATOM     15  O   UNL A   1      37.240  31.797  33.381  1.00  0.00    -0.475 OA
ATOM     16  C   UNL A   1      37.703  33.181  36.768  1.00  0.00     0.058 A 
ATOM     17  C   UNL A   1      36.046  33.813  35.041  1.00  0.00     0.027 C 
ATOM     18  C   UNL A   1      36.179  32.624  32.834  1.00  0.00     0.316 C 
BRANCH  13  19
ATOM     19  O   UNL A   1      39.284  32.790  38.427  1.00  0.00    -0.406 OA
BRANCH  19  20
ATOM     20  C   UNL A   1      40.117  33.926  38.595  1.00  0.00     0.573 C 
ATOM     21  F   UNL A   1      39.416  34.974  39.078  1.00  0.00    -0.132 F 
ATOM     22  F   UNL A   1      41.150  33.655  39.422  1.00  0.00    -0.132 F 
ATOM     23  F   UNL A   1      40.622  34.276  37.393  1.00  0.00    -0.132 F 
ENDBRANCH  19  20
ENDBRANCH  13  19
BRANCH  18  24
ATOM     24  C   UNL A   1      36.679  33.244  31.524  1.00  0.00     0.430 C 
ATOM     25  F   UNL A   1      35.657  33.756  30.798  1.00  0.00    -0.167 F 
ATOM     26  F   UNL A   1      37.543  34.262  31.749  1.00  0.00    -0.167 F 
ATOM     27  F   UNL A   1      37.316  32.337  30.747  1.00  0.00    -0.167 F 
ENDBRANCH  18  24
ENDBRANCH   6   8
ENDBRANCH   5   6
ENDBRANCH   4   5
ENDBRANCH   3   4
ENDBRANCH   2   3
ENDBRANCH   1   2
BRANCH   1  28
ATOM     28  C   UNL A   1      33.250  36.311  28.968  1.00  0.00     0.188 C 
BRANCH  28  29
ATOM     29  O   UNL A   1      34.074  35.317  28.399  1.00  0.00    -0.376 OA
BRANCH  29  30
ATOM     30  C   UNL A   1      33.620  33.970  28.394  1.00  0.00     0.202 C 
BRANCH  30  31
ATOM     31  C   UNL A   1      34.513  32.800  27.937  1.00  0.00     0.261 C 
BRANCH  31  32
ATOM     32  O   UNL A   1      34.392  31.580  28.685  1.00  0.00    -0.460 OA
BRANCH  32  33
ATOM     33  C   UNL A   1      34.634  30.434  27.994  1.00  0.00     0.338 C 
ATOM     34  O   UNL A   1      33.929  29.903  27.160  1.00  0.00    -0.246 OA
BRANCH  33  35
ATOM     35  C   UNL A   1      36.013  29.995  28.289  1.00  0.00     0.060 A 
ATOM     36  C   UNL A   1      36.315  29.492  29.563  1.00  0.00     0.016 A 
ATOM     37  C   UNL A   1      37.001  30.089  27.311  1.00  0.00     0.016 A 
ATOM     38  C   UNL A   1      37.603  29.043  29.850  1.00  0.00     0.010 A 
ATOM     39  C   UNL A   1      38.303  29.680  27.614  1.00  0.00     0.010 A 
ATOM     40  C   UNL A   1      38.610  29.161  28.883  1.00  0.00    -0.014 A 
BRANCH  40  41
ATOM     41  C   UNL A   1      40.018  28.904  29.265  1.00  0.00     0.031 A 
ATOM     42  C   UNL A   1      40.651  27.619  28.819  1.00  0.00     0.074 A 
ATOM     43  C   UNL A   1      40.724  29.801  29.974  1.00  0.00     0.049 A 
ATOM     44  N   UNL A   1      41.865  27.177  29.024  1.00  0.00    -0.248 NA
ATOM     45  C   UNL A   1      39.802  26.708  28.035  1.00  0.00     0.031 C 
ATOM     46  C   UNL A   1      40.227  31.096  30.428  1.00  0.00     0.029 A 
ATOM     47  N   UNL A   1      42.016  29.753  30.435  1.00  0.00    -0.354 N 
ATOM     48  C   UNL A   1      41.929  25.950  28.381  1.00  0.00     0.074 A 
ATOM     49  C   UNL A   1      40.623  25.691  27.817  1.00  0.00     0.031 C 
ATOM     50  C   UNL A   1      41.204  31.720  31.111  1.00  0.00     0.029 A 
ATOM     51  C   UNL A   1      42.385  30.859  31.160  1.00  0.00     0.049 A 
ATOM     52  H   UNL A   1      42.622  28.997  30.263  1.00  0.00     0.167 HD
ATOM     53  C   UNL A   1      42.991  25.121  28.256  1.00  0.00     0.037 A 
ATOM     54  C   UNL A   1      43.542  31.137  31.797  1.00  0.00     0.037 A 
ATOM     55  C   UNL A   1      44.283  25.372  28.835  1.00  0.00     0.049 A 
ATOM     56  C   UNL A   1      44.679  30.146  31.731  1.00  0.00     0.074 A 
ATOM     57  C   UNL A   1      45.422  24.592  28.761  1.00  0.00     0.029 A 
ATOM     58  N   UNL A   1      44.601  26.479  29.607  1.00  0.00    -0.354 N 
ATOM     59  N   UNL A   1      44.749  29.008  31.085  1.00  0.00    -0.248 NA
ATOM     60  C   UNL A   1      45.901  30.479  32.482  1.00  0.00     0.031 C 
ATOM     61  C   UNL A   1      46.413  25.196  29.537  1.00  0.00     0.029 A 
ATOM     62  C   UNL A   1      45.914  26.387  30.040  1.00  0.00     0.049 A 
ATOM     63  H   UNL A   1      43.987  27.221  29.815  1.00  0.00     0.167 HD
ATOM     64  C   UNL A   1      46.025  28.510  31.318  1.00  0.00     0.074 A 
ATOM     65  C   UNL A   1      46.700  29.468  32.164  1.00  0.00     0.031 C 
ATOM     66  C   UNL A   1      46.583  27.361  30.864  1.00  0.00     0.037 A 
BRANCH  53  67
ATOM     67  C   UNL A   1      42.804  23.859  27.468  1.00  0.00     0.064 A 
ATOM     68  C   UNL A   1      43.179  23.780  26.118  1.00  0.00     0.173 A 
ATOM     69  C   UNL A   1      42.315  22.699  28.084  1.00  0.00     0.173 A 
ATOM     70  F   UNL A   1      43.640  24.867  25.480  1.00  0.00    -0.203 F 
ATOM     71  C   UNL A   1      43.059  22.587  25.412  1.00  0.00     0.198 A 
ATOM     72  C   UNL A   1      42.225  21.500  27.383  1.00  0.00     0.198 A 
ATOM     73  F   UNL A   1      41.946  22.721  29.374  1.00  0.00    -0.203 F 
ATOM     74  F   UNL A   1      43.391  22.544  24.114  1.00  0.00    -0.200 F 
ATOM     75  C   UNL A   1      42.594  21.446  26.048  1.00  0.00     0.200 A 
ATOM     76  F   UNL A   1      41.791  20.394  28.003  1.00  0.00    -0.200 F 
ATOM     77  F   UNL A   1      42.499  20.293  25.372  1.00  0.00    -0.200 F 
ENDBRANCH  53  67
BRANCH  54  78
ATOM     78  C   UNL A   1      43.692  32.420  32.534  1.00  0.00     0.064 A 
ATOM     79  C   UNL A   1      43.315  32.524  33.880  1.00  0.00     0.173 A 
ATOM     80  C   UNL A   1      44.216  33.564  31.914  1.00  0.00     0.173 A 
ATOM     81  F   UNL A   1      42.784  31.466  34.511  1.00  0.00    -0.203 F 
ATOM     82  C   UNL A   1      43.451  33.724  34.576  1.00  0.00     0.198 A 
ATOM     83  C   UNL A   1      44.377  34.756  32.619  1.00  0.00     0.198 A 
ATOM     84  F   UNL A   1      44.586  33.521  30.626  1.00  0.00    -0.203 F 
ATOM     85  F   UNL A   1      43.048  33.805  35.852  1.00  0.00    -0.200 F 
ATOM     86  C   UNL A   1      43.989  34.836  33.948  1.00  0.00     0.200 A 
ATOM     87  F   UNL A   1      44.908  35.825  32.010  1.00  0.00    -0.200 F 
ATOM     88  F   UNL A   1      44.129  35.987  34.620  1.00  0.00    -0.200 F 
ENDBRANCH  54  78
BRANCH  66  89
ATOM     89  C   UNL A   1      48.012  27.067  31.229  1.00  0.00     0.064 A 
ATOM     90  C   UNL A   1      48.336  26.222  32.298  1.00  0.00     0.173 A 
ATOM     91  C   UNL A   1      49.057  27.520  30.407  1.00  0.00     0.173 A 
ATOM     92  F   UNL A   1      47.375  25.770  33.117  1.00  0.00    -0.203 F 
ATOM     93  C   UNL A   1      49.654  25.835  32.528  1.00  0.00     0.198 A 
ATOM     94  C   UNL A   1      50.368  27.107  30.622  1.00  0.00     0.198 A 
ATOM     95  F   UNL A   1      48.797  28.321  29.362  1.00  0.00    -0.203 F 
ATOM     96  F   UNL A   1      49.945  25.036  33.564  1.00  0.00    -0.200 F 
ATOM     97  C   UNL A   1      50.666  26.264  31.681  1.00  0.00     0.200 A 
ATOM     98  F   UNL A   1      51.340  27.505  29.788  1.00  0.00    -0.200 F 
ATOM     99  F   UNL A   1      51.928  25.859  31.882  1.00  0.00    -0.200 F 
ENDBRANCH  66  89
ENDBRANCH  40  41
ENDBRANCH  33  35
ENDBRANCH  32  33
ENDBRANCH  31  32
ENDBRANCH  30  31
ENDBRANCH  29  30
ENDBRANCH  28  29
ENDBRANCH   1  28
TORSDOF 20
ENDMDL
