MODEL 1
REMARK VINA RESULT:     -11.2      0.000      0.000
REMARK SMILES Cc1ccc(Cl)c(NC(=O)C[N@@H+]2CCC[C@H]2C(=O)OCCOCCOCCOC(=O)c2ccc(-c3c4nc(c(-c5c(F)c(F)c(F)c(F)c5F)c5ccc([nH]5)c(-c5c(F)c(F)c(F)c(F)c5F)c5nc(c(-c6c(F)c(F)c(F)c(F)c6F)c6ccc3[nH]6)C=C5)C=C4)cc2)c1Cl
REMARK SMILES IDX 23 1 22 2 21 3 20 4 19 5 17 6 18 7 16 8 12 9 13 10 14 12
REMARK SMILES IDX 15 13 11 14 9 15 8 16 10 18 7 19 1 20 2 21 3 22 94 23 4 24
REMARK SMILES IDX 95 25 5 26 6 27 24 28 25 29 26 30 27 31 28 32 29 33 30 34
REMARK SMILES IDX 31 35 32 36 93 37 33 38 92 39 34 40 35 41 36 42 86 43 37 44
REMARK SMILES IDX 91 45 85 46 87 47 38 48 90 49 84 50 83 51 39 53 71 54 51 55
REMARK SMILES IDX 70 56 52 57 55 58 69 59 88 60 53 61 54 62 68 64 89 65 56 66
REMARK SMILES IDX 40 67 41 68 49 69 42 70 43 71 47 72 50 73 44 74 45 75 48 76
REMARK SMILES IDX 46 77 72 78 73 79 81 80 74 81 75 82 79 83 82 84 76 85 77 86
REMARK SMILES IDX 80 87 78 88 57 89 58 90 66 91 59 92 60 93 64 94 67 95 61 96
REMARK SMILES IDX 62 97 65 98 63 99
REMARK H PARENT 12 11 8 17 87 52 55 63
REMARK Flexibility Score: inf
ROOT
ATOM      1  C   UNL A   1      39.524  21.869  26.439  1.00  0.00     0.188 C 
ENDROOT
BRANCH   1   2
ATOM      2  O   UNL A   1      38.152  21.750  26.075  1.00  0.00    -0.376 OA
BRANCH   2   3
ATOM      3  C   UNL A   1      37.801  21.319  24.766  1.00  0.00     0.202 C 
BRANCH   3   4
ATOM      4  C   UNL A   1      36.627  22.043  24.107  1.00  0.00     0.261 C 
BRANCH   4   5
ATOM      5  O   UNL A   1      35.368  21.562  24.596  1.00  0.00    -0.459 OA
BRANCH   5   6
ATOM      6  C   UNL A   1      34.636  22.433  25.348  1.00  0.00     0.365 C 
ATOM      7  O   UNL A   1      35.101  23.327  26.043  1.00  0.00    -0.245 OA
BRANCH   6   8
ATOM      8  C   UNL A   1      33.134  22.201  25.096  1.00  0.00     0.295 C 
ATOM      9  N   UNL A   1      32.476  23.461  24.672  1.00  0.00    -0.315 N 
ATOM     10  C   UNL A   1      32.647  23.467  23.203  1.00  0.00     0.263 C 
ATOM     11  H   UNL A   1      32.877  24.270  25.146  1.00  0.00     0.349 HD
ATOM     12  C   UNL A   1      32.456  22.020  22.769  1.00  0.00     0.068 C 
ATOM     13  C   UNL A   1      32.960  21.200  23.948  1.00  0.00     0.083 C 
BRANCH   9  14
ATOM     14  C   UNL A   1      31.023  23.471  24.991  1.00  0.00     0.364 C 
BRANCH  14  15
ATOM     15  C   UNL A   1      30.657  24.331  26.197  1.00  0.00     0.279 C 
ATOM     16  N   UNL A   1      30.622  25.695  26.201  1.00  0.00    -0.319 N 
ATOM     17  H   UNL A   1      30.358  26.046  27.082  1.00  0.00     0.170 HD
ATOM     18  O   UNL A   1      30.300  23.788  27.252  1.00  0.00    -0.268 OA
BRANCH  16  19
ATOM     19  C   UNL A   1      30.862  26.743  25.275  1.00  0.00     0.079 A 
ATOM     20  C   UNL A   1      29.212  29.362  23.004  1.00  0.00     0.046 C 
ATOM     21  C   UNL A   1      30.256  28.541  23.717  1.00  0.00    -0.030 A 
ATOM     22  C   UNL A   1      31.559  29.048  23.790  1.00  0.00     0.006 A 
ATOM     23  C   UNL A   1      29.950  27.326  24.377  1.00  0.00     0.069 A 
ATOM     24  C   UNL A   1      32.532  28.372  24.513  1.00  0.00     0.023 A 
ATOM     25  Cl  UNL A   1      28.614  26.408  23.745  1.00  0.00    -0.082 Cl
ATOM     26  C   UNL A   1      32.180  27.254  25.269  1.00  0.00     0.066 A 
ATOM     27  Cl  UNL A   1      33.429  26.543  26.241  1.00  0.00    -0.082 Cl
ENDBRANCH  16  19
ENDBRANCH  14  15
ENDBRANCH   9  14
ENDBRANCH   6   8
ENDBRANCH   5   6
ENDBRANCH   4   5
ENDBRANCH   3   4
ENDBRANCH   2   3
ENDBRANCH   1   2
BRANCH   1  28
ATOM     28  C   UNL A   1      40.433  20.628  26.481  1.00  0.00     0.188 C 
BRANCH  28  29
ATOM     29  O   UNL A   1      41.772  20.911  26.851  1.00  0.00    -0.376 OA
BRANCH  29  30
ATOM     30  C   UNL A   1      42.777  20.298  26.058  1.00  0.00     0.202 C 
BRANCH  30  31
ATOM     31  C   UNL A   1      43.585  21.331  25.274  1.00  0.00     0.261 C 
BRANCH  31  32
ATOM     32  O   UNL A   1      42.919  22.599  25.122  1.00  0.00    -0.460 OA
BRANCH  32  33
ATOM     33  C   UNL A   1      43.708  23.689  25.059  1.00  0.00     0.338 C 
ATOM     34  O   UNL A   1      44.609  23.917  24.264  1.00  0.00    -0.246 OA
BRANCH  33  35
ATOM     35  C   UNL A   1      43.205  24.671  26.030  1.00  0.00     0.060 A 
ATOM     36  C   UNL A   1      43.622  26.001  25.921  1.00  0.00     0.016 A 
ATOM     37  C   UNL A   1      42.346  24.278  27.055  1.00  0.00     0.016 A 
ATOM     38  C   UNL A   1      43.201  26.944  26.856  1.00  0.00     0.010 A 
ATOM     39  C   UNL A   1      41.917  25.227  27.987  1.00  0.00     0.010 A 
ATOM     40  C   UNL A   1      42.354  26.561  27.903  1.00  0.00    -0.014 A 
BRANCH  40  41
ATOM     41  C   UNL A   1      41.983  27.532  28.962  1.00  0.00     0.031 A 
ATOM     42  C   UNL A   1      42.820  27.620  30.205  1.00  0.00     0.074 A 
ATOM     43  C   UNL A   1      40.913  28.333  28.815  1.00  0.00     0.049 A 
ATOM     44  N   UNL A   1      42.593  28.274  31.315  1.00  0.00    -0.248 NA
ATOM     45  C   UNL A   1      44.086  26.873  30.192  1.00  0.00     0.031 C 
ATOM     46  C   UNL A   1      40.062  28.401  27.628  1.00  0.00     0.029 A 
ATOM     47  N   UNL A   1      40.354  29.239  29.682  1.00  0.00    -0.354 N 
ATOM     48  C   UNL A   1      43.672  27.996  32.143  1.00  0.00     0.074 A 
ATOM     49  C   UNL A   1      44.553  27.111  31.409  1.00  0.00     0.031 C 
ATOM     50  C   UNL A   1      39.084  29.297  27.843  1.00  0.00     0.029 A 
ATOM     51  C   UNL A   1      39.203  29.817  29.204  1.00  0.00     0.049 A 
ATOM     52  H   UNL A   1      40.741  29.454  30.561  1.00  0.00     0.167 HD
ATOM     53  C   UNL A   1      43.903  28.439  33.401  1.00  0.00     0.037 A 
ATOM     54  C   UNL A   1      38.322  30.635  29.812  1.00  0.00     0.037 A 
ATOM     55  C   UNL A   1      43.033  29.328  34.123  1.00  0.00     0.049 A 
ATOM     56  C   UNL A   1      38.551  31.035  31.247  1.00  0.00     0.074 A 
ATOM     57  C   UNL A   1      43.180  29.830  35.405  1.00  0.00     0.029 A 
ATOM     58  N   UNL A   1      41.849  29.851  33.624  1.00  0.00    -0.354 N 
ATOM     59  N   UNL A   1      39.552  30.740  32.039  1.00  0.00    -0.248 NA
ATOM     60  C   UNL A   1      37.514  31.866  31.876  1.00  0.00     0.031 C 
ATOM     61  C   UNL A   1      42.065  30.622  35.696  1.00  0.00     0.029 A 
ATOM     62  C   UNL A   1      41.245  30.651  34.580  1.00  0.00     0.049 A 
ATOM     63  H   UNL A   1      41.491  29.679  32.723  1.00  0.00     0.167 HD
ATOM     64  C   UNL A   1      39.277  31.361  33.251  1.00  0.00     0.074 A 
ATOM     65  C   UNL A   1      38.021  32.062  33.085  1.00  0.00     0.031 C 
ATOM     66  C   UNL A   1      39.998  31.348  34.399  1.00  0.00     0.037 A 
BRANCH  53  67
ATOM     67  C   UNL A   1      45.130  27.931  34.096  1.00  0.00     0.064 A 
ATOM     68  C   UNL A   1      46.328  28.661  34.109  1.00  0.00     0.173 A 
ATOM     69  C   UNL A   1      45.097  26.709  34.785  1.00  0.00     0.173 A 
ATOM     70  F   UNL A   1      46.415  29.827  33.449  1.00  0.00    -0.203 F 
ATOM     71  C   UNL A   1      47.454  28.175  34.768  1.00  0.00     0.198 A 
ATOM     72  C   UNL A   1      46.217  26.239  35.463  1.00  0.00     0.198 A 
ATOM     73  F   UNL A   1      43.975  25.974  34.802  1.00  0.00    -0.203 F 
ATOM     74  F   UNL A   1      48.600  28.868  34.731  1.00  0.00    -0.200 F 
ATOM     75  C   UNL A   1      47.396  26.968  35.450  1.00  0.00     0.200 A 
ATOM     76  F   UNL A   1      46.157  25.076  36.128  1.00  0.00    -0.200 F 
ATOM     77  F   UNL A   1      48.479  26.504  36.086  1.00  0.00    -0.200 F 
ENDBRANCH  53  67
BRANCH  54  78
ATOM     78  C   UNL A   1      37.110  31.094  29.085  1.00  0.00     0.064 A 
ATOM     79  C   UNL A   1      36.986  32.421  28.652  1.00  0.00     0.173 A 
ATOM     80  C   UNL A   1      36.040  30.222  28.832  1.00  0.00     0.173 A 
ATOM     81  F   UNL A   1      37.968  33.300  28.900  1.00  0.00    -0.203 F 
ATOM     82  C   UNL A   1      35.834  32.860  28.004  1.00  0.00     0.198 A 
ATOM     83  C   UNL A   1      34.901  30.655  28.158  1.00  0.00     0.198 A 
ATOM     84  F   UNL A   1      36.105  28.944  29.234  1.00  0.00    -0.203 F 
ATOM     85  F   UNL A   1      35.722  34.146  27.640  1.00  0.00    -0.200 F 
ATOM     86  C   UNL A   1      34.795  31.977  27.750  1.00  0.00     0.200 A 
ATOM     87  F   UNL A   1      33.904  29.796  27.910  1.00  0.00    -0.200 F 
ATOM     88  F   UNL A   1      33.689  32.401  27.126  1.00  0.00    -0.200 F 
ENDBRANCH  54  78
BRANCH  66  89
ATOM     89  C   UNL A   1      39.465  32.138  35.557  1.00  0.00     0.064 A 
ATOM     90  C   UNL A   1      39.784  33.492  35.732  1.00  0.00     0.173 A 
ATOM     91  C   UNL A   1      38.584  31.545  36.475  1.00  0.00     0.173 A 
ATOM     92  F   UNL A   1      40.633  34.099  34.890  1.00  0.00    -0.203 F 
ATOM     93  C   UNL A   1      39.252  34.221  36.793  1.00  0.00     0.198 A 
ATOM     94  C   UNL A   1      38.035  32.282  37.520  1.00  0.00     0.198 A 
ATOM     95  F   UNL A   1      38.244  30.254  36.347  1.00  0.00    -0.203 F 
ATOM     96  F   UNL A   1      39.599  35.503  36.962  1.00  0.00    -0.200 F 
ATOM     97  C   UNL A   1      38.373  33.617  37.681  1.00  0.00     0.200 A 
ATOM     98  F   UNL A   1      37.177  31.701  38.369  1.00  0.00    -0.200 F 
ATOM     99  F   UNL A   1      37.856  34.323  38.697  1.00  0.00    -0.200 F 
ENDBRANCH  66  89
ENDBRANCH  40  41
ENDBRANCH  33  35
ENDBRANCH  32  33
ENDBRANCH  31  32
ENDBRANCH  30  31
ENDBRANCH  29  30
ENDBRANCH  28  29
ENDBRANCH   1  28
TORSDOF 20
ENDMDL
MODEL 2
REMARK VINA RESULT:     -11.0      3.617      9.277
REMARK SMILES Cc1ccc(Cl)c(NC(=O)C[N@@H+]2CCC[C@H]2C(=O)OCCOCCOCCOC(=O)c2ccc(-c3c4nc(c(-c5c(F)c(F)c(F)c(F)c5F)c5ccc([nH]5)c(-c5c(F)c(F)c(F)c(F)c5F)c5nc(c(-c6c(F)c(F)c(F)c(F)c6F)c6ccc3[nH]6)C=C5)C=C4)cc2)c1Cl
REMARK SMILES IDX 23 1 22 2 21 3 20 4 19 5 17 6 18 7 16 8 12 9 13 10 14 12
REMARK SMILES IDX 15 13 11 14 9 15 8 16 10 18 7 19 1 20 2 21 3 22 94 23 4 24
REMARK SMILES IDX 95 25 5 26 6 27 24 28 25 29 26 30 27 31 28 32 29 33 30 34
REMARK SMILES IDX 31 35 32 36 93 37 33 38 92 39 34 40 35 41 36 42 86 43 37 44
REMARK SMILES IDX 91 45 85 46 87 47 38 48 90 49 84 50 83 51 39 53 71 54 51 55
REMARK SMILES IDX 70 56 52 57 55 58 69 59 88 60 53 61 54 62 68 64 89 65 56 66
REMARK SMILES IDX 40 67 41 68 49 69 42 70 43 71 47 72 50 73 44 74 45 75 48 76
REMARK SMILES IDX 46 77 72 78 73 79 81 80 74 81 75 82 79 83 82 84 76 85 77 86
REMARK SMILES IDX 80 87 78 88 57 89 58 90 66 91 59 92 60 93 64 94 67 95 61 96
REMARK SMILES IDX 62 97 65 98 63 99
REMARK H PARENT 12 11 8 17 87 52 55 63
REMARK Flexibility Score: inf
ROOT
ATOM      1  C   UNL A   1      35.444  32.478  28.319  1.00  0.00     0.188 C 
ENDROOT
BRANCH   1   2
ATOM      2  O   UNL A   1      34.871  31.732  27.250  1.00  0.00    -0.376 OA
BRANCH   2   3
ATOM      3  C   UNL A   1      33.957  30.678  27.532  1.00  0.00     0.202 C 
BRANCH   3   4
ATOM      4  C   UNL A   1      34.407  29.270  27.146  1.00  0.00     0.261 C 
BRANCH   4   5
ATOM      5  O   UNL A   1      33.955  28.911  25.835  1.00  0.00    -0.459 OA
BRANCH   5   6
ATOM      6  C   UNL A   1      33.598  27.607  25.651  1.00  0.00     0.365 C 
ATOM      7  O   UNL A   1      33.675  26.729  26.501  1.00  0.00    -0.245 OA
BRANCH   6   8
ATOM      8  C   UNL A   1      32.971  27.432  24.255  1.00  0.00     0.295 C 
ATOM      9  N   UNL A   1      31.947  26.359  24.274  1.00  0.00    -0.315 N 
ATOM     10  C   UNL A   1      30.707  27.067  24.662  1.00  0.00     0.263 C 
ATOM     11  H   UNL A   1      32.213  25.600  24.901  1.00  0.00     0.349 HD
ATOM     12  C   UNL A   1      30.767  28.407  23.944  1.00  0.00     0.068 C 
ATOM     13  C   UNL A   1      32.252  28.726  23.855  1.00  0.00     0.083 C 
BRANCH   9  14
ATOM     14  C   UNL A   1      31.754  25.743  22.934  1.00  0.00     0.364 C 
BRANCH  14  15
ATOM     15  C   UNL A   1      33.034  25.191  22.313  1.00  0.00     0.279 C 
ATOM     16  N   UNL A   1      33.715  24.100  22.769  1.00  0.00    -0.319 N 
ATOM     17  H   UNL A   1      34.512  23.918  22.220  1.00  0.00     0.170 HD
ATOM     18  O   UNL A   1      33.487  25.707  21.281  1.00  0.00    -0.268 OA
BRANCH  16  19
ATOM     19  C   UNL A   1      33.584  23.159  23.821  1.00  0.00     0.079 A 
ATOM     20  C   UNL A   1      34.022  22.590  27.593  1.00  0.00     0.046 C 
ATOM     21  C   UNL A   1      33.698  22.357  26.139  1.00  0.00    -0.030 A 
ATOM     22  C   UNL A   1      32.864  21.282  25.811  1.00  0.00     0.006 A 
ATOM     23  C   UNL A   1      34.140  23.226  25.112  1.00  0.00     0.069 A 
ATOM     24  C   UNL A   1      32.466  21.082  24.498  1.00  0.00     0.023 A 
ATOM     25  Cl  UNL A   1      35.631  24.077  25.396  1.00  0.00    -0.082 Cl
ATOM     26  C   UNL A   1      32.795  22.024  23.524  1.00  0.00     0.066 A 
ATOM     27  Cl  UNL A   1      32.153  21.762  21.933  1.00  0.00    -0.082 Cl
ENDBRANCH  16  19
ENDBRANCH  14  15
ENDBRANCH   9  14
ENDBRANCH   6   8
ENDBRANCH   5   6
ENDBRANCH   4   5
ENDBRANCH   3   4
ENDBRANCH   2   3
ENDBRANCH   1   2
BRANCH   1  28
ATOM     28  C   UNL A   1      34.559  33.027  29.453  1.00  0.00     0.188 C 
BRANCH  28  29
ATOM     29  O   UNL A   1      33.447  33.779  28.998  1.00  0.00    -0.376 OA
BRANCH  29  30
ATOM     30  C   UNL A   1      33.697  35.151  28.726  1.00  0.00     0.202 C 
BRANCH  30  31
ATOM     31  C   UNL A   1      32.900  36.064  29.656  1.00  0.00     0.261 C 
BRANCH  31  32
ATOM     32  O   UNL A   1      32.272  35.374  30.753  1.00  0.00    -0.460 OA
BRANCH  32  33
ATOM     33  C   UNL A   1      32.552  35.830  31.990  1.00  0.00     0.338 C 
ATOM     34  O   UNL A   1      31.910  36.630  32.657  1.00  0.00    -0.246 OA
BRANCH  33  35
ATOM     35  C   UNL A   1      33.707  35.078  32.501  1.00  0.00     0.060 A 
ATOM     36  C   UNL A   1      34.975  35.662  32.432  1.00  0.00     0.016 A 
ATOM     37  C   UNL A   1      33.542  33.796  33.023  1.00  0.00     0.016 A 
ATOM     38  C   UNL A   1      36.094  34.953  32.864  1.00  0.00     0.010 A 
ATOM     39  C   UNL A   1      34.664  33.090  33.464  1.00  0.00     0.010 A 
ATOM     40  C   UNL A   1      35.948  33.657  33.373  1.00  0.00    -0.014 A 
BRANCH  40  41
ATOM     41  C   UNL A   1      37.142  32.855  33.738  1.00  0.00     0.031 A 
ATOM     42  C   UNL A   1      37.824  33.108  35.050  1.00  0.00     0.074 A 
ATOM     43  C   UNL A   1      37.610  31.904  32.910  1.00  0.00     0.049 A 
ATOM     44  N   UNL A   1      38.962  32.643  35.499  1.00  0.00    -0.248 NA
ATOM     45  C   UNL A   1      37.127  34.002  35.986  1.00  0.00     0.031 C 
ATOM     46  C   UNL A   1      36.998  31.507  31.643  1.00  0.00     0.029 A 
ATOM     47  N   UNL A   1      38.722  31.105  33.012  1.00  0.00    -0.354 N 
ATOM     48  C   UNL A   1      39.132  33.210  36.755  1.00  0.00     0.074 A 
ATOM     49  C   UNL A   1      37.982  34.055  36.997  1.00  0.00     0.031 C 
ATOM     50  C   UNL A   1      37.746  30.542  31.081  1.00  0.00     0.029 A 
ATOM     51  C   UNL A   1      38.921  30.300  31.916  1.00  0.00     0.049 A 
ATOM     52  H   UNL A   1      39.320  31.107  33.794  1.00  0.00     0.167 HD
ATOM     53  C   UNL A   1      40.156  33.039  37.623  1.00  0.00     0.037 A 
ATOM     54  C   UNL A   1      39.955  29.497  31.602  1.00  0.00     0.037 A 
ATOM     55  C   UNL A   1      41.291  32.188  37.386  1.00  0.00     0.049 A 
ATOM     56  C   UNL A   1      41.130  29.400  32.541  1.00  0.00     0.074 A 
ATOM     57  C   UNL A   1      42.382  31.953  38.206  1.00  0.00     0.029 A 
ATOM     58  N   UNL A   1      41.481  31.429  36.241  1.00  0.00    -0.354 N 
ATOM     59  N   UNL A   1      41.304  29.966  33.710  1.00  0.00    -0.248 NA
ATOM     60  C   UNL A   1      42.260  28.566  32.105  1.00  0.00     0.031 C 
ATOM     61  C   UNL A   1      43.252  31.085  37.538  1.00  0.00     0.029 A 
ATOM     62  C   UNL A   1      42.683  30.743  36.323  1.00  0.00     0.049 A 
ATOM     63  H   UNL A   1      40.856  31.384  35.483  1.00  0.00     0.167 HD
ATOM     64  C   UNL A   1      42.551  29.546  34.157  1.00  0.00     0.074 A 
ATOM     65  C   UNL A   1      43.084  28.664  33.139  1.00  0.00     0.031 C 
ATOM     66  C   UNL A   1      43.197  29.864  35.305  1.00  0.00     0.037 A 
BRANCH  53  67
ATOM     67  C   UNL A   1      40.115  33.825  38.899  1.00  0.00     0.064 A 
ATOM     68  C   UNL A   1      40.771  35.059  39.029  1.00  0.00     0.173 A 
ATOM     69  C   UNL A   1      39.384  33.350  39.999  1.00  0.00     0.173 A 
ATOM     70  F   UNL A   1      41.498  35.547  38.012  1.00  0.00    -0.203 F 
ATOM     71  C   UNL A   1      40.713  35.777  40.220  1.00  0.00     0.198 A 
ATOM     72  C   UNL A   1      39.308  34.083  41.179  1.00  0.00     0.198 A 
ATOM     73  F   UNL A   1      38.740  32.176  39.924  1.00  0.00    -0.203 F 
ATOM     74  F   UNL A   1      41.383  36.932  40.337  1.00  0.00    -0.200 F 
ATOM     75  C   UNL A   1      39.978  35.292  41.292  1.00  0.00     0.200 A 
ATOM     76  F   UNL A   1      38.590  33.616  42.211  1.00  0.00    -0.200 F 
ATOM     77  F   UNL A   1      39.920  35.986  42.436  1.00  0.00    -0.200 F 
ENDBRANCH  53  67
BRANCH  54  78
ATOM     78  C   UNL A   1      39.956  28.754  30.315  1.00  0.00     0.064 A 
ATOM     79  C   UNL A   1      39.376  27.483  30.213  1.00  0.00     0.173 A 
ATOM     80  C   UNL A   1      40.559  29.290  29.166  1.00  0.00     0.173 A 
ATOM     81  F   UNL A   1      38.816  26.915  31.292  1.00  0.00    -0.203 F 
ATOM     82  C   UNL A   1      39.409  26.772  29.016  1.00  0.00     0.198 A 
ATOM     83  C   UNL A   1      40.567  28.590  27.963  1.00  0.00     0.198 A 
ATOM     84  F   UNL A   1      41.136  30.500  29.213  1.00  0.00    -0.203 F 
ATOM     85  F   UNL A   1      38.887  25.538  28.957  1.00  0.00    -0.200 F 
ATOM     86  C   UNL A   1      39.998  27.328  27.889  1.00  0.00     0.200 A 
ATOM     87  F   UNL A   1      41.130  29.135  26.876  1.00  0.00    -0.200 F 
ATOM     88  F   UNL A   1      40.028  26.642  26.739  1.00  0.00    -0.200 F 
ENDBRANCH  54  78
BRANCH  66  89
ATOM     89  C   UNL A   1      44.538  29.236  35.539  1.00  0.00     0.064 A 
ATOM     90  C   UNL A   1      44.667  27.992  36.175  1.00  0.00     0.173 A 
ATOM     91  C   UNL A   1      45.706  29.860  35.075  1.00  0.00     0.173 A 
ATOM     92  F   UNL A   1      43.581  27.363  36.649  1.00  0.00    -0.203 F 
ATOM     93  C   UNL A   1      45.916  27.405  36.353  1.00  0.00     0.198 A 
ATOM     94  C   UNL A   1      46.952  29.259  35.232  1.00  0.00     0.198 A 
ATOM     95  F   UNL A   1      45.636  31.047  34.455  1.00  0.00    -0.203 F 
ATOM     96  F   UNL A   1      46.019  26.235  36.996  1.00  0.00    -0.200 F 
ATOM     97  C   UNL A   1      47.056  28.035  35.875  1.00  0.00     0.200 A 
ATOM     98  F   UNL A   1      48.050  29.864  34.759  1.00  0.00    -0.200 F 
ATOM     99  F   UNL A   1      48.258  27.465  36.039  1.00  0.00    -0.200 F 
ENDBRANCH  66  89
ENDBRANCH  40  41
ENDBRANCH  33  35
ENDBRANCH  32  33
ENDBRANCH  31  32
ENDBRANCH  30  31
ENDBRANCH  29  30
ENDBRANCH  28  29
ENDBRANCH   1  28
TORSDOF 20
ENDMDL
MODEL 3
REMARK VINA RESULT:     -10.8      3.601      9.173
REMARK SMILES Cc1ccc(Cl)c(NC(=O)C[N@@H+]2CCC[C@H]2C(=O)OCCOCCOCCOC(=O)c2ccc(-c3c4nc(c(-c5c(F)c(F)c(F)c(F)c5F)c5ccc([nH]5)c(-c5c(F)c(F)c(F)c(F)c5F)c5nc(c(-c6c(F)c(F)c(F)c(F)c6F)c6ccc3[nH]6)C=C5)C=C4)cc2)c1Cl
REMARK SMILES IDX 23 1 22 2 21 3 20 4 19 5 17 6 18 7 16 8 12 9 13 10 14 12
REMARK SMILES IDX 15 13 11 14 9 15 8 16 10 18 7 19 1 20 2 21 3 22 94 23 4 24
REMARK SMILES IDX 95 25 5 26 6 27 24 28 25 29 26 30 27 31 28 32 29 33 30 34
REMARK SMILES IDX 31 35 32 36 93 37 33 38 92 39 34 40 35 41 36 42 86 43 37 44
REMARK SMILES IDX 91 45 85 46 87 47 38 48 90 49 84 50 83 51 39 53 71 54 51 55
REMARK SMILES IDX 70 56 52 57 55 58 69 59 88 60 53 61 54 62 68 64 89 65 56 66
REMARK SMILES IDX 40 67 41 68 49 69 42 70 43 71 47 72 50 73 44 74 45 75 48 76
REMARK SMILES IDX 46 77 72 78 73 79 81 80 74 81 75 82 79 83 82 84 76 85 77 86
REMARK SMILES IDX 80 87 78 88 57 89 58 90 66 91 59 92 60 93 64 94 67 95 61 96
REMARK SMILES IDX 62 97 65 98 63 99
REMARK H PARENT 12 11 8 17 87 52 55 63
REMARK Flexibility Score: inf
ROOT
ATOM      1  C   UNL A   1      35.260  32.079  28.235  1.00  0.00     0.188 C 
ENDROOT
BRANCH   1   2
ATOM      2  O   UNL A   1      34.374  31.521  27.271  1.00  0.00    -0.376 OA
BRANCH   2   3
ATOM      3  C   UNL A   1      33.797  30.240  27.496  1.00  0.00     0.202 C 
BRANCH   3   4
ATOM      4  C   UNL A   1      34.422  29.072  26.736  1.00  0.00     0.261 C 
BRANCH   4   5
ATOM      5  O   UNL A   1      33.641  27.877  26.866  1.00  0.00    -0.459 OA
BRANCH   5   6
ATOM      6  C   UNL A   1      32.467  27.840  26.172  1.00  0.00     0.365 C 
ATOM      7  O   UNL A   1      31.352  27.803  26.676  1.00  0.00    -0.245 OA
BRANCH   6   8
ATOM      8  C   UNL A   1      32.751  27.977  24.664  1.00  0.00     0.295 C 
ATOM      9  N   UNL A   1      32.550  26.678  23.976  1.00  0.00    -0.315 N 
ATOM     10  C   UNL A   1      31.111  26.685  23.631  1.00  0.00     0.263 C 
ATOM     11  H   UNL A   1      32.840  25.897  24.562  1.00  0.00     0.349 HD
ATOM     12  C   UNL A   1      30.802  28.117  23.218  1.00  0.00     0.068 C 
ATOM     13  C   UNL A   1      31.754  28.967  24.047  1.00  0.00     0.083 C 
BRANCH   9  14
ATOM     14  C   UNL A   1      33.347  26.577  22.724  1.00  0.00     0.364 C 
BRANCH  14  15
ATOM     15  C   UNL A   1      33.312  25.197  22.075  1.00  0.00     0.279 C 
ATOM     16  N   UNL A   1      33.701  24.039  22.682  1.00  0.00    -0.319 N 
ATOM     17  H   UNL A   1      33.594  23.264  22.083  1.00  0.00     0.170 HD
ATOM     18  O   UNL A   1      32.844  25.067  20.934  1.00  0.00    -0.268 OA
BRANCH  16  19
ATOM     19  C   UNL A   1      34.220  23.650  23.944  1.00  0.00     0.079 A 
ATOM     20  C   UNL A   1      37.339  23.638  26.183  1.00  0.00     0.046 C 
ATOM     21  C   UNL A   1      35.929  23.426  25.692  1.00  0.00    -0.030 A 
ATOM     22  C   UNL A   1      34.931  23.169  26.639  1.00  0.00     0.006 A 
ATOM     23  C   UNL A   1      35.570  23.556  24.328  1.00  0.00     0.069 A 
ATOM     24  C   UNL A   1      33.606  23.057  26.244  1.00  0.00     0.023 A 
ATOM     25  Cl  UNL A   1      36.807  23.201  23.157  1.00  0.00    -0.082 Cl
ATOM     26  C   UNL A   1      33.253  23.325  24.922  1.00  0.00     0.066 A 
ATOM     27  Cl  UNL A   1      31.561  23.285  24.540  1.00  0.00    -0.082 Cl
ENDBRANCH  16  19
ENDBRANCH  14  15
ENDBRANCH   9  14
ENDBRANCH   6   8
ENDBRANCH   5   6
ENDBRANCH   4   5
ENDBRANCH   3   4
ENDBRANCH   2   3
ENDBRANCH   1   2
BRANCH   1  28
ATOM     28  C   UNL A   1      34.738  33.048  29.311  1.00  0.00     0.188 C 
BRANCH  28  29
ATOM     29  O   UNL A   1      33.626  33.821  28.894  1.00  0.00    -0.376 OA
BRANCH  29  30
ATOM     30  C   UNL A   1      33.863  35.212  28.735  1.00  0.00     0.202 C 
BRANCH  30  31
ATOM     31  C   UNL A   1      32.924  36.047  29.605  1.00  0.00     0.261 C 
BRANCH  31  32
ATOM     32  O   UNL A   1      32.353  35.320  30.710  1.00  0.00    -0.460 OA
BRANCH  32  33
ATOM     33  C   UNL A   1      32.638  35.780  31.943  1.00  0.00     0.338 C 
ATOM     34  O   UNL A   1      31.999  36.582  32.611  1.00  0.00    -0.246 OA
BRANCH  33  35
ATOM     35  C   UNL A   1      33.794  35.028  32.453  1.00  0.00     0.060 A 
ATOM     36  C   UNL A   1      35.059  35.622  32.404  1.00  0.00     0.016 A 
ATOM     37  C   UNL A   1      33.634  33.737  32.953  1.00  0.00     0.016 A 
ATOM     38  C   UNL A   1      36.179  34.914  32.834  1.00  0.00     0.010 A 
ATOM     39  C   UNL A   1      34.757  33.032  33.393  1.00  0.00     0.010 A 
ATOM     40  C   UNL A   1      36.038  33.609  33.321  1.00  0.00    -0.014 A 
BRANCH  40  41
ATOM     41  C   UNL A   1      37.234  32.810  33.684  1.00  0.00     0.031 A 
ATOM     42  C   UNL A   1      37.919  33.064  34.995  1.00  0.00     0.074 A 
ATOM     43  C   UNL A   1      37.703  31.860  32.855  1.00  0.00     0.049 A 
ATOM     44  N   UNL A   1      39.058  32.602  35.442  1.00  0.00    -0.248 NA
ATOM     45  C   UNL A   1      37.221  33.957  35.932  1.00  0.00     0.031 C 
ATOM     46  C   UNL A   1      37.089  31.462  31.589  1.00  0.00     0.029 A 
ATOM     47  N   UNL A   1      38.817  31.063  32.954  1.00  0.00    -0.354 N 
ATOM     48  C   UNL A   1      39.229  33.169  36.697  1.00  0.00     0.074 A 
ATOM     49  C   UNL A   1      38.077  34.012  36.942  1.00  0.00     0.031 C 
ATOM     50  C   UNL A   1      37.838  30.499  31.026  1.00  0.00     0.029 A 
ATOM     51  C   UNL A   1      39.015  30.259  31.858  1.00  0.00     0.049 A 
ATOM     52  H   UNL A   1      39.416  31.067  33.736  1.00  0.00     0.167 HD
ATOM     53  C   UNL A   1      40.255  33.001  37.564  1.00  0.00     0.037 A 
ATOM     54  C   UNL A   1      40.051  29.458  31.542  1.00  0.00     0.037 A 
ATOM     55  C   UNL A   1      41.392  32.152  37.324  1.00  0.00     0.049 A 
ATOM     56  C   UNL A   1      41.228  29.364  32.479  1.00  0.00     0.074 A 
ATOM     57  C   UNL A   1      42.485  31.920  38.141  1.00  0.00     0.029 A 
ATOM     58  N   UNL A   1      41.582  31.394  36.178  1.00  0.00    -0.354 N 
ATOM     59  N   UNL A   1      41.403  29.931  33.648  1.00  0.00    -0.248 NA
ATOM     60  C   UNL A   1      42.359  28.533  32.041  1.00  0.00     0.031 C 
ATOM     61  C   UNL A   1      43.356  31.054  37.472  1.00  0.00     0.029 A 
ATOM     62  C   UNL A   1      42.785  30.711  36.258  1.00  0.00     0.049 A 
ATOM     63  H   UNL A   1      40.954  31.348  35.421  1.00  0.00     0.167 HD
ATOM     64  C   UNL A   1      42.651  29.513  34.092  1.00  0.00     0.074 A 
ATOM     65  C   UNL A   1      43.184  28.632  33.073  1.00  0.00     0.031 C 
ATOM     66  C   UNL A   1      43.299  29.833  35.239  1.00  0.00     0.037 A 
BRANCH  53  67
ATOM     67  C   UNL A   1      40.215  33.787  38.840  1.00  0.00     0.064 A 
ATOM     68  C   UNL A   1      39.521  33.328  39.969  1.00  0.00     0.173 A 
ATOM     69  C   UNL A   1      40.908  35.002  38.942  1.00  0.00     0.173 A 
ATOM     70  F   UNL A   1      38.828  32.180  39.915  1.00  0.00    -0.203 F 
ATOM     71  C   UNL A   1      39.505  34.069  41.147  1.00  0.00     0.198 A 
ATOM     72  C   UNL A   1      40.910  35.728  40.129  1.00  0.00     0.198 A 
ATOM     73  F   UNL A   1      41.587  35.483  37.890  1.00  0.00    -0.203 F 
ATOM     74  F   UNL A   1      38.799  33.634  42.200  1.00  0.00    -0.200 F 
ATOM     75  C   UNL A   1      40.203  35.265  41.229  1.00  0.00     0.200 A 
ATOM     76  F   UNL A   1      41.592  36.879  40.208  1.00  0.00    -0.200 F 
ATOM     77  F   UNL A   1      40.189  35.975  42.364  1.00  0.00    -0.200 F 
ENDBRANCH  53  67
BRANCH  54  78
ATOM     78  C   UNL A   1      40.051  28.716  30.255  1.00  0.00     0.064 A 
ATOM     79  C   UNL A   1      40.626  29.268  29.102  1.00  0.00     0.173 A 
ATOM     80  C   UNL A   1      39.455  27.450  30.144  1.00  0.00     0.173 A 
ATOM     81  F   UNL A   1      41.180  30.489  29.151  1.00  0.00    -0.203 F 
ATOM     82  C   UNL A   1      40.594  28.588  27.887  1.00  0.00     0.198 A 
ATOM     83  C   UNL A   1      39.449  26.759  28.936  1.00  0.00     0.198 A 
ATOM     84  F   UNL A   1      38.883  26.882  31.216  1.00  0.00    -0.203 F 
ATOM     85  F   UNL A   1      41.111  29.159  26.789  1.00  0.00    -0.200 F 
ATOM     86  C   UNL A   1      40.013  27.332  27.805  1.00  0.00     0.200 A 
ATOM     87  F   UNL A   1      38.892  25.543  28.864  1.00  0.00    -0.200 F 
ATOM     88  F   UNL A   1      39.984  26.679  26.636  1.00  0.00    -0.200 F 
ENDBRANCH  54  78
BRANCH  66  89
ATOM     89  C   UNL A   1      44.642  29.207  35.470  1.00  0.00     0.064 A 
ATOM     90  C   UNL A   1      45.828  29.850  35.085  1.00  0.00     0.173 A 
ATOM     91  C   UNL A   1      44.747  27.974  36.131  1.00  0.00     0.173 A 
ATOM     92  F   UNL A   1      45.779  31.023  34.438  1.00  0.00    -0.203 F 
ATOM     93  C   UNL A   1      47.069  29.272  35.339  1.00  0.00     0.198 A 
ATOM     94  C   UNL A   1      45.990  27.411  36.405  1.00  0.00     0.198 A 
ATOM     95  F   UNL A   1      43.643  27.323  36.524  1.00  0.00    -0.203 F 
ATOM     96  F   UNL A   1      48.188  29.886  34.930  1.00  0.00    -0.200 F 
ATOM     97  C   UNL A   1      47.149  28.058  36.005  1.00  0.00     0.200 A 
ATOM     98  F   UNL A   1      46.066  26.244  37.060  1.00  0.00    -0.200 F 
ATOM     99  F   UNL A   1      48.346  27.508  36.256  1.00  0.00    -0.200 F 
ENDBRANCH  66  89
ENDBRANCH  40  41
ENDBRANCH  33  35
ENDBRANCH  32  33
ENDBRANCH  31  32
ENDBRANCH  30  31
ENDBRANCH  29  30
ENDBRANCH  28  29
ENDBRANCH   1  28
TORSDOF 20
ENDMDL
