MODEL 1
REMARK VINA RESULT:     -10.6      0.000      0.000
REMARK SMILES CC[C@](C)(NC(=O)NC[C@H]1COCCO1)C(=O)OCCOCCOCCOC(=O)c1ccc(-c2c3nc(c(-c4c(F)c(F)c(F)c(F)c4F)c4ccc([nH]4)c(-c4c(F)c(F)c(F)c(F)c4F)c4nc(c(-c5c(F)c(F)c(F)c(F)c5F)c5ccc2[nH]5)C=C4)C=C3)cc1
REMARK SMILES IDX 22 1 21 2 20 3 19 4 18 5 16 6 17 7 3 8 4 9 2 10 1 11 5 12
REMARK SMILES IDX 6 13 7 15 8 16 9 18 10 19 11 20 15 21 12 22 14 23 13 24
REMARK SMILES IDX 23 25 24 26 25 27 26 28 27 29 28 30 29 31 30 32 31 33 92 34
REMARK SMILES IDX 32 35 91 36 33 37 34 38 35 39 85 40 36 41 90 42 84 43 86 44
REMARK SMILES IDX 37 45 89 46 83 47 82 48 38 50 70 51 50 52 69 53 51 54 54 55
REMARK SMILES IDX 68 56 87 57 52 58 53 59 67 61 88 62 55 63 39 64 40 65 48 66
REMARK SMILES IDX 41 67 42 68 46 69 49 70 43 71 44 72 47 73 45 74 71 75 72 76
REMARK SMILES IDX 80 77 73 78 74 79 78 80 81 81 75 82 76 83 79 84 77 85 56 86
REMARK SMILES IDX 57 87 65 88 58 89 59 90 63 91 66 92 60 93 61 94 64 95 62 96
REMARK H PARENT 5 14 8 17 86 49 54 60
REMARK Flexibility Score: inf
ROOT
ATOM      1  C   UNL A   1      39.614  21.799  25.981  1.00  0.00     0.188 C 
ENDROOT
BRANCH   1   2
ATOM      2  O   UNL A   1      38.195  21.795  26.100  1.00  0.00    -0.376 OA
BRANCH   2   3
ATOM      3  C   UNL A   1      37.493  21.475  24.899  1.00  0.00     0.202 C 
BRANCH   3   4
ATOM      4  C   UNL A   1      36.096  20.920  25.169  1.00  0.00     0.261 C 
BRANCH   4   5
ATOM      5  O   UNL A   1      35.184  21.455  24.194  1.00  0.00    -0.462 OA
BRANCH   5   6
ATOM      6  C   UNL A   1      33.884  21.606  24.521  1.00  0.00     0.331 C 
ATOM      7  O   UNL A   1      33.127  20.664  24.737  1.00  0.00    -0.249 OA
BRANCH   6   8
ATOM      8  C   UNL A   1      33.426  23.110  24.534  1.00  0.00     0.136 C 
ATOM      9  C   UNL A   1      32.561  23.206  23.230  1.00  0.00     0.047 C 
BRANCH   8  10
ATOM     10  C   UNL A   1      34.646  24.053  24.348  1.00  0.00     0.037 C 
ATOM     11  C   UNL A   1      35.350  24.510  25.621  1.00  0.00     0.007 C 
ENDBRANCH   8  10
BRANCH   8  12
ATOM     12  N   UNL A   1      32.488  23.683  25.583  1.00  0.00    -0.322 N 
ATOM     13  C   UNL A   1      31.593  24.638  25.816  1.00  0.00     0.315 C 
ATOM     14  H   UNL A   1      32.577  23.144  26.400  1.00  0.00     0.166 HD
ATOM     15  O   UNL A   1      30.784  24.409  26.722  1.00  0.00    -0.249 OA
ATOM     16  N   UNL A   1      31.497  25.814  25.200  1.00  0.00    -0.335 N 
ATOM     17  H   UNL A   1      30.604  26.227  25.196  1.00  0.00     0.165 HD
BRANCH  16  18
ATOM     18  C   UNL A   1      32.535  26.554  24.541  1.00  0.00     0.152 C 
BRANCH  18  19
ATOM     19  C   UNL A   1      32.216  27.281  23.224  1.00  0.00     0.163 C 
ATOM     20  C   UNL A   1      30.878  26.947  22.560  1.00  0.00     0.194 C 
ATOM     21  O   UNL A   1      32.321  28.716  23.414  1.00  0.00    -0.372 OA
ATOM     22  O   UNL A   1      29.775  27.443  23.325  1.00  0.00    -0.376 OA
ATOM     23  C   UNL A   1      31.182  29.267  24.099  1.00  0.00     0.189 C 
ATOM     24  C   UNL A   1      29.871  28.870  23.427  1.00  0.00     0.188 C 
ENDBRANCH  18  19
ENDBRANCH  16  18
ENDBRANCH   8  12
ENDBRANCH   6   8
ENDBRANCH   5   6
ENDBRANCH   4   5
ENDBRANCH   3   4
ENDBRANCH   2   3
ENDBRANCH   1   2
BRANCH   1  25
ATOM     25  C   UNL A   1      40.292  20.548  26.497  1.00  0.00     0.188 C 
BRANCH  25  26
ATOM     26  O   UNL A   1      41.587  20.242  25.999  1.00  0.00    -0.376 OA
BRANCH  26  27
ATOM     27  C   UNL A   1      42.579  21.204  26.390  1.00  0.00     0.202 C 
BRANCH  27  28
ATOM     28  C   UNL A   1      43.466  21.810  25.273  1.00  0.00     0.261 C 
BRANCH  28  29
ATOM     29  O   UNL A   1      43.050  23.084  24.736  1.00  0.00    -0.460 OA
BRANCH  29  30
ATOM     30  C   UNL A   1      43.827  24.167  24.976  1.00  0.00     0.338 C 
ATOM     31  O   UNL A   1      44.824  24.486  24.347  1.00  0.00    -0.246 OA
BRANCH  30  32
ATOM     32  C   UNL A   1      43.100  25.076  25.924  1.00  0.00     0.060 A 
ATOM     33  C   UNL A   1      43.676  26.325  26.210  1.00  0.00     0.016 A 
ATOM     34  C   UNL A   1      41.809  24.794  26.397  1.00  0.00     0.016 A 
ATOM     35  C   UNL A   1      43.000  27.256  27.003  1.00  0.00     0.010 A 
ATOM     36  C   UNL A   1      41.134  25.723  27.201  1.00  0.00     0.010 A 
ATOM     37  C   UNL A   1      41.748  26.939  27.548  1.00  0.00    -0.014 A 
BRANCH  37  38
ATOM     38  C   UNL A   1      41.258  27.726  28.712  1.00  0.00     0.031 A 
ATOM     39  C   UNL A   1      42.023  27.578  30.003  1.00  0.00     0.074 A 
ATOM     40  C   UNL A   1      40.232  28.593  28.632  1.00  0.00     0.049 A 
ATOM     41  N   UNL A   1      41.853  28.174  31.155  1.00  0.00    -0.248 NA
ATOM     42  C   UNL A   1      43.143  26.621  29.984  1.00  0.00     0.031 C 
ATOM     43  C   UNL A   1      39.428  28.854  27.441  1.00  0.00     0.029 A 
ATOM     44  N   UNL A   1      39.694  29.422  29.589  1.00  0.00    -0.354 N 
ATOM     45  C   UNL A   1      42.855  27.682  31.981  1.00  0.00     0.074 A 
ATOM     46  C   UNL A   1      43.592  26.697  31.224  1.00  0.00     0.031 C 
ATOM     47  C   UNL A   1      38.491  29.772  27.740  1.00  0.00     0.029 A 
ATOM     48  C   UNL A   1      38.616  30.152  29.147  1.00  0.00     0.049 A 
ATOM     49  H   UNL A   1      40.048  29.486  30.505  1.00  0.00     0.167 HD
ATOM     50  C   UNL A   1      43.154  28.032  33.254  1.00  0.00     0.037 A 
ATOM     51  C   UNL A   1      37.822  31.015  29.814  1.00  0.00     0.037 A 
ATOM     52  C   UNL A   1      42.404  28.987  34.021  1.00  0.00     0.049 A 
ATOM     53  C   UNL A   1      38.120  31.327  31.263  1.00  0.00     0.074 A 
ATOM     54  C   UNL A   1      42.604  29.394  35.328  1.00  0.00     0.029 A 
ATOM     55  N   UNL A   1      41.298  29.678  33.550  1.00  0.00    -0.354 N 
ATOM     56  N   UNL A   1      39.087  30.877  32.030  1.00  0.00    -0.248 NA
ATOM     57  C   UNL A   1      37.224  32.279  31.936  1.00  0.00     0.031 C 
ATOM     58  C   UNL A   1      41.587  30.293  35.665  1.00  0.00     0.029 A 
ATOM     59  C   UNL A   1      40.793  30.496  34.547  1.00  0.00     0.049 A 
ATOM     60  H   UNL A   1      40.926  29.598  32.641  1.00  0.00     0.167 HD
ATOM     61  C   UNL A   1      38.932  31.511  33.258  1.00  0.00     0.074 A 
ATOM     62  C   UNL A   1      37.794  32.397  33.126  1.00  0.00     0.031 C 
ATOM     63  C   UNL A   1      39.660  31.373  34.395  1.00  0.00     0.037 A 
BRANCH  50  64
ATOM     64  C   UNL A   1      44.333  27.356  33.893  1.00  0.00     0.064 A 
ATOM     65  C   UNL A   1      44.193  26.155  34.605  1.00  0.00     0.173 A 
ATOM     66  C   UNL A   1      45.617  27.909  33.784  1.00  0.00     0.173 A 
ATOM     67  F   UNL A   1      42.983  25.597  34.760  1.00  0.00    -0.203 F 
ATOM     68  C   UNL A   1      45.292  25.546  35.207  1.00  0.00     0.198 A 
ATOM     69  C   UNL A   1      46.719  27.280  34.359  1.00  0.00     0.198 A 
ATOM     70  F   UNL A   1      45.805  29.058  33.119  1.00  0.00    -0.203 F 
ATOM     71  F   UNL A   1      45.126  24.429  35.929  1.00  0.00    -0.200 F 
ATOM     72  C   UNL A   1      46.554  26.105  35.076  1.00  0.00     0.200 A 
ATOM     73  F   UNL A   1      47.939  27.816  34.223  1.00  0.00    -0.200 F 
ATOM     74  F   UNL A   1      47.612  25.515  35.649  1.00  0.00    -0.200 F 
ENDBRANCH  50  64
BRANCH  51  75
ATOM     75  C   UNL A   1      36.649  31.639  29.136  1.00  0.00     0.064 A 
ATOM     76  C   UNL A   1      36.605  33.014  28.858  1.00  0.00     0.173 A 
ATOM     77  C   UNL A   1      35.519  30.876  28.803  1.00  0.00     0.173 A 
ATOM     78  F   UNL A   1      37.644  33.796  29.186  1.00  0.00    -0.203 F 
ATOM     79  C   UNL A   1      35.469  33.604  28.303  1.00  0.00     0.198 A 
ATOM     80  C   UNL A   1      34.398  31.461  28.215  1.00  0.00     0.198 A 
ATOM     81  F   UNL A   1      35.499  29.560  29.055  1.00  0.00    -0.203 F 
ATOM     82  F   UNL A   1      35.431  34.929  28.112  1.00  0.00    -0.200 F 
ATOM     83  C   UNL A   1      34.369  32.826  27.976  1.00  0.00     0.200 A 
ATOM     84  F   UNL A   1      33.340  30.704  27.896  1.00  0.00    -0.200 F 
ATOM     85  F   UNL A   1      33.277  33.393  27.448  1.00  0.00    -0.200 F 
ENDBRANCH  51  75
BRANCH  63  86
ATOM     86  C   UNL A   1      39.274  32.228  35.571  1.00  0.00     0.064 A 
ATOM     87  C   UNL A   1      39.745  33.541  35.719  1.00  0.00     0.173 A 
ATOM     88  C   UNL A   1      38.401  31.731  36.552  1.00  0.00     0.173 A 
ATOM     89  F   UNL A   1      40.586  34.063  34.815  1.00  0.00    -0.203 F 
ATOM     90  C   UNL A   1      39.393  34.308  36.828  1.00  0.00     0.198 A 
ATOM     91  C   UNL A   1      38.021  32.514  37.638  1.00  0.00     0.198 A 
ATOM     92  F   UNL A   1      37.908  30.487  36.452  1.00  0.00    -0.203 F 
ATOM     93  F   UNL A   1      39.909  35.534  36.982  1.00  0.00    -0.200 F 
ATOM     94  C   UNL A   1      38.528  33.795  37.783  1.00  0.00     0.200 A 
ATOM     95  F   UNL A   1      37.168  32.024  38.549  1.00  0.00    -0.200 F 
ATOM     96  F   UNL A   1      38.190  34.535  38.848  1.00  0.00    -0.200 F 
ENDBRANCH  63  86
ENDBRANCH  37  38
ENDBRANCH  30  32
ENDBRANCH  29  30
ENDBRANCH  28  29
ENDBRANCH  27  28
ENDBRANCH  26  27
ENDBRANCH  25  26
ENDBRANCH   1  25
TORSDOF 21
ENDMDL
MODEL 2
REMARK VINA RESULT:     -10.5      0.843      2.173
REMARK SMILES CC[C@](C)(NC(=O)NC[C@H]1COCCO1)C(=O)OCCOCCOCCOC(=O)c1ccc(-c2c3nc(c(-c4c(F)c(F)c(F)c(F)c4F)c4ccc([nH]4)c(-c4c(F)c(F)c(F)c(F)c4F)c4nc(c(-c5c(F)c(F)c(F)c(F)c5F)c5ccc2[nH]5)C=C4)C=C3)cc1
REMARK SMILES IDX 22 1 21 2 20 3 19 4 18 5 16 6 17 7 3 8 4 9 2 10 1 11 5 12
REMARK SMILES IDX 6 13 7 15 8 16 9 18 10 19 11 20 15 21 12 22 14 23 13 24
REMARK SMILES IDX 23 25 24 26 25 27 26 28 27 29 28 30 29 31 30 32 31 33 92 34
REMARK SMILES IDX 32 35 91 36 33 37 34 38 35 39 85 40 36 41 90 42 84 43 86 44
REMARK SMILES IDX 37 45 89 46 83 47 82 48 38 50 70 51 50 52 69 53 51 54 54 55
REMARK SMILES IDX 68 56 87 57 52 58 53 59 67 61 88 62 55 63 39 64 40 65 48 66
REMARK SMILES IDX 41 67 42 68 46 69 49 70 43 71 44 72 47 73 45 74 71 75 72 76
REMARK SMILES IDX 80 77 73 78 74 79 78 80 81 81 75 82 76 83 79 84 77 85 56 86
REMARK SMILES IDX 57 87 65 88 58 89 59 90 63 91 66 92 60 93 61 94 64 95 62 96
REMARK H PARENT 5 14 8 17 86 49 54 60
REMARK Flexibility Score: inf
ROOT
ATOM      1  C   UNL A   1      40.279  21.791  26.037  1.00  0.00     0.188 C 
ENDROOT
BRANCH   1   2
ATOM      2  O   UNL A   1      38.896  21.812  26.373  1.00  0.00    -0.376 OA
BRANCH   2   3
ATOM      3  C   UNL A   1      38.006  21.707  25.262  1.00  0.00     0.202 C 
BRANCH   3   4
ATOM      4  C   UNL A   1      36.556  21.496  25.692  1.00  0.00     0.261 C 
BRANCH   4   5
ATOM      5  O   UNL A   1      35.741  21.321  24.519  1.00  0.00    -0.462 OA
BRANCH   5   6
ATOM      6  C   UNL A   1      34.513  20.777  24.645  1.00  0.00     0.331 C 
ATOM      7  O   UNL A   1      34.322  19.590  24.894  1.00  0.00    -0.249 OA
BRANCH   6   8
ATOM      8  C   UNL A   1      33.356  21.808  24.380  1.00  0.00     0.136 C 
ATOM      9  C   UNL A   1      32.224  20.893  23.795  1.00  0.00     0.047 C 
BRANCH   8  10
ATOM     10  C   UNL A   1      33.762  22.808  23.262  1.00  0.00     0.037 C 
ATOM     11  C   UNL A   1      34.682  23.950  23.677  1.00  0.00     0.007 C 
ENDBRANCH   8  10
BRANCH   8  12
ATOM     12  N   UNL A   1      32.629  22.546  25.490  1.00  0.00    -0.322 N 
ATOM     13  C   UNL A   1      31.466  23.088  25.837  1.00  0.00     0.315 C 
ATOM     14  H   UNL A   1      33.258  22.671  26.236  1.00  0.00     0.166 HD
ATOM     15  O   UNL A   1      31.264  23.197  27.052  1.00  0.00    -0.249 OA
ATOM     16  N   UNL A   1      30.521  23.546  25.021  1.00  0.00    -0.335 N 
ATOM     17  H   UNL A   1      29.605  23.552  25.382  1.00  0.00     0.165 HD
BRANCH  16  18
ATOM     18  C   UNL A   1      30.670  24.033  23.680  1.00  0.00     0.152 C 
BRANCH  18  19
ATOM     19  C   UNL A   1      30.388  25.517  23.385  1.00  0.00     0.163 C 
ATOM     20  C   UNL A   1      29.473  26.251  24.368  1.00  0.00     0.194 C 
ATOM     21  O   UNL A   1      31.638  26.240  23.250  1.00  0.00    -0.372 OA
ATOM     22  O   UNL A   1      30.103  26.425  25.641  1.00  0.00    -0.376 OA
ATOM     23  C   UNL A   1      32.257  26.516  24.519  1.00  0.00     0.189 C 
ATOM     24  C   UNL A   1      31.294  27.207  25.479  1.00  0.00     0.188 C 
ENDBRANCH  18  19
ENDBRANCH  16  18
ENDBRANCH   8  12
ENDBRANCH   6   8
ENDBRANCH   5   6
ENDBRANCH   4   5
ENDBRANCH   3   4
ENDBRANCH   2   3
ENDBRANCH   1   2
BRANCH   1  25
ATOM     25  C   UNL A   1      40.938  20.435  26.169  1.00  0.00     0.188 C 
BRANCH  25  26
ATOM     26  O   UNL A   1      42.257  20.286  25.663  1.00  0.00    -0.376 OA
BRANCH  26  27
ATOM     27  C   UNL A   1      43.153  21.310  26.124  1.00  0.00     0.202 C 
BRANCH  27  28
ATOM     28  C   UNL A   1      43.929  22.117  25.051  1.00  0.00     0.261 C 
BRANCH  28  29
ATOM     29  O   UNL A   1      43.431  23.438  24.750  1.00  0.00    -0.460 OA
BRANCH  29  30
ATOM     30  C   UNL A   1      44.195  24.504  25.086  1.00  0.00     0.338 C 
ATOM     31  O   UNL A   1      45.216  24.860  24.519  1.00  0.00    -0.246 OA
BRANCH  30  32
ATOM     32  C   UNL A   1      43.428  25.355  26.055  1.00  0.00     0.060 A 
ATOM     33  C   UNL A   1      43.929  26.634  26.349  1.00  0.00     0.016 A 
ATOM     34  C   UNL A   1      42.165  24.987  26.545  1.00  0.00     0.016 A 
ATOM     35  C   UNL A   1      43.209  27.512  27.164  1.00  0.00     0.010 A 
ATOM     36  C   UNL A   1      41.446  25.863  27.371  1.00  0.00     0.010 A 
ATOM     37  C   UNL A   1      41.988  27.111  27.724  1.00  0.00    -0.014 A 
BRANCH  37  38
ATOM     38  C   UNL A   1      41.469  27.852  28.904  1.00  0.00     0.031 A 
ATOM     39  C   UNL A   1      42.233  27.696  30.194  1.00  0.00     0.074 A 
ATOM     40  C   UNL A   1      40.415  28.687  28.841  1.00  0.00     0.049 A 
ATOM     41  N   UNL A   1      42.040  28.257  31.361  1.00  0.00    -0.248 NA
ATOM     42  C   UNL A   1      43.384  26.777  30.157  1.00  0.00     0.031 C 
ATOM     43  C   UNL A   1      39.608  28.951  27.654  1.00  0.00     0.029 A 
ATOM     44  N   UNL A   1      39.847  29.474  29.816  1.00  0.00    -0.354 N 
ATOM     45  C   UNL A   1      43.054  27.777  32.179  1.00  0.00     0.074 A 
ATOM     46  C   UNL A   1      43.826  26.837  31.401  1.00  0.00     0.031 C 
ATOM     47  C   UNL A   1      38.640  29.831  27.972  1.00  0.00     0.029 A 
ATOM     48  C   UNL A   1      38.748  30.180  29.388  1.00  0.00     0.049 A 
ATOM     49  H   UNL A   1      40.195  29.526  30.736  1.00  0.00     0.167 HD
ATOM     50  C   UNL A   1      43.337  28.105  33.461  1.00  0.00     0.037 A 
ATOM     51  C   UNL A   1      37.923  30.999  30.073  1.00  0.00     0.037 A 
ATOM     52  C   UNL A   1      42.553  29.015  34.249  1.00  0.00     0.049 A 
ATOM     53  C   UNL A   1      38.206  31.284  31.530  1.00  0.00     0.074 A 
ATOM     54  C   UNL A   1      42.735  29.396  35.566  1.00  0.00     0.029 A 
ATOM     55  N   UNL A   1      41.427  29.682  33.790  1.00  0.00    -0.354 N 
ATOM     56  N   UNL A   1      39.184  30.846  32.290  1.00  0.00    -0.248 NA
ATOM     57  C   UNL A   1      37.277  32.190  32.222  1.00  0.00     0.031 C 
ATOM     58  C   UNL A   1      41.688  30.253  35.920  1.00  0.00     0.029 A 
ATOM     59  C   UNL A   1      40.892  30.458  34.804  1.00  0.00     0.049 A 
ATOM     60  H   UNL A   1      41.062  29.613  32.878  1.00  0.00     0.167 HD
ATOM     61  C   UNL A   1      39.003  31.444  33.533  1.00  0.00     0.074 A 
ATOM     62  C   UNL A   1      37.839  32.295  33.418  1.00  0.00     0.031 C 
ATOM     63  C   UNL A   1      39.732  31.301  34.669  1.00  0.00     0.037 A 
BRANCH  50  64
ATOM     64  C   UNL A   1      44.534  27.452  34.088  1.00  0.00     0.064 A 
ATOM     65  C   UNL A   1      45.804  28.049  34.044  1.00  0.00     0.173 A 
ATOM     66  C   UNL A   1      44.411  26.220  34.747  1.00  0.00     0.173 A 
ATOM     67  F   UNL A   1      45.981  29.216  33.405  1.00  0.00    -0.203 F 
ATOM     68  C   UNL A   1      46.910  27.426  34.615  1.00  0.00     0.198 A 
ATOM     69  C   UNL A   1      45.514  25.615  35.346  1.00  0.00     0.198 A 
ATOM     70  F   UNL A   1      43.223  25.604  34.813  1.00  0.00    -0.203 F 
ATOM     71  F   UNL A   1      48.122  27.989  34.514  1.00  0.00    -0.200 F 
ATOM     72  C   UNL A   1      46.762  26.213  35.272  1.00  0.00     0.200 A 
ATOM     73  F   UNL A   1      45.368  24.449  35.988  1.00  0.00    -0.200 F 
ATOM     74  F   UNL A   1      47.827  25.617  35.827  1.00  0.00    -0.200 F 
ENDBRANCH  50  64
BRANCH  51  75
ATOM     75  C   UNL A   1      36.733  31.601  29.405  1.00  0.00     0.064 A 
ATOM     76  C   UNL A   1      35.630  30.821  29.026  1.00  0.00     0.173 A 
ATOM     77  C   UNL A   1      36.700  32.966  29.083  1.00  0.00     0.173 A 
ATOM     78  F   UNL A   1      35.622  29.504  29.279  1.00  0.00    -0.203 F 
ATOM     79  C   UNL A   1      34.558  31.376  28.325  1.00  0.00     0.198 A 
ATOM     80  C   UNL A   1      35.613  33.527  28.414  1.00  0.00     0.198 A 
ATOM     81  F   UNL A   1      37.731  33.759  29.410  1.00  0.00    -0.203 F 
ATOM     82  F   UNL A   1      33.551  30.593  27.916  1.00  0.00    -0.200 F 
ATOM     83  C   UNL A   1      34.548  32.730  28.026  1.00  0.00     0.200 A 
ATOM     84  F   UNL A   1      35.605  34.837  28.132  1.00  0.00    -0.200 F 
ATOM     85  F   UNL A   1      33.522  33.261  27.348  1.00  0.00    -0.200 F 
ENDBRANCH  51  75
BRANCH  63  86
ATOM     86  C   UNL A   1      39.313  32.113  35.865  1.00  0.00     0.064 A 
ATOM     87  C   UNL A   1      38.408  31.618  36.815  1.00  0.00     0.173 A 
ATOM     88  C   UNL A   1      39.845  33.395  36.073  1.00  0.00     0.173 A 
ATOM     89  F   UNL A   1      37.864  30.402  36.663  1.00  0.00    -0.203 F 
ATOM     90  C   UNL A   1      38.015  32.394  37.903  1.00  0.00     0.198 A 
ATOM     91  C   UNL A   1      39.480  34.153  37.182  1.00  0.00     0.198 A 
ATOM     92  F   UNL A   1      40.727  33.912  35.204  1.00  0.00    -0.203 F 
ATOM     93  F   UNL A   1      37.098  31.928  38.760  1.00  0.00    -0.200 F 
ATOM     94  C   UNL A   1      38.555  33.659  38.088  1.00  0.00     0.200 A 
ATOM     95  F   UNL A   1      40.019  35.366  37.369  1.00  0.00    -0.200 F 
ATOM     96  F   UNL A   1      38.177  34.404  39.136  1.00  0.00    -0.200 F 
ENDBRANCH  63  86
ENDBRANCH  37  38
ENDBRANCH  30  32
ENDBRANCH  29  30
ENDBRANCH  28  29
ENDBRANCH  27  28
ENDBRANCH  26  27
ENDBRANCH  25  26
ENDBRANCH   1  25
TORSDOF 21
ENDMDL
MODEL 3
REMARK VINA RESULT:     -10.3      5.245      9.824
REMARK SMILES CC[C@](C)(NC(=O)NC[C@H]1COCCO1)C(=O)OCCOCCOCCOC(=O)c1ccc(-c2c3nc(c(-c4c(F)c(F)c(F)c(F)c4F)c4ccc([nH]4)c(-c4c(F)c(F)c(F)c(F)c4F)c4nc(c(-c5c(F)c(F)c(F)c(F)c5F)c5ccc2[nH]5)C=C4)C=C3)cc1
REMARK SMILES IDX 22 1 21 2 20 3 19 4 18 5 16 6 17 7 3 8 4 9 2 10 1 11 5 12
REMARK SMILES IDX 6 13 7 15 8 16 9 18 10 19 11 20 15 21 12 22 14 23 13 24
REMARK SMILES IDX 23 25 24 26 25 27 26 28 27 29 28 30 29 31 30 32 31 33 92 34
REMARK SMILES IDX 32 35 91 36 33 37 34 38 35 39 85 40 36 41 90 42 84 43 86 44
REMARK SMILES IDX 37 45 89 46 83 47 82 48 38 50 70 51 50 52 69 53 51 54 54 55
REMARK SMILES IDX 68 56 87 57 52 58 53 59 67 61 88 62 55 63 39 64 40 65 48 66
REMARK SMILES IDX 41 67 42 68 46 69 49 70 43 71 44 72 47 73 45 74 71 75 72 76
REMARK SMILES IDX 80 77 73 78 74 79 78 80 81 81 75 82 76 83 79 84 77 85 56 86
REMARK SMILES IDX 57 87 65 88 58 89 59 90 63 91 66 92 60 93 61 94 64 95 62 96
REMARK H PARENT 5 14 8 17 86 49 54 60
REMARK Flexibility Score: inf
ROOT
ATOM      1  C   UNL A   1      39.965  20.910  26.464  1.00  0.00     0.188 C 
ENDROOT
BRANCH   1   2
ATOM      2  O   UNL A   1      39.265  22.073  26.035  1.00  0.00    -0.376 OA
BRANCH   2   3
ATOM      3  C   UNL A   1      38.029  21.819  25.368  1.00  0.00     0.202 C 
BRANCH   3   4
ATOM      4  C   UNL A   1      37.080  23.014  25.418  1.00  0.00     0.261 C 
BRANCH   4   5
ATOM      5  O   UNL A   1      35.753  22.573  25.082  1.00  0.00    -0.462 OA
BRANCH   5   6
ATOM      6  C   UNL A   1      35.157  23.063  23.976  1.00  0.00     0.331 C 
ATOM      7  O   UNL A   1      35.745  23.243  22.913  1.00  0.00    -0.249 OA
BRANCH   6   8
ATOM      8  C   UNL A   1      33.647  23.437  24.208  1.00  0.00     0.136 C 
ATOM      9  C   UNL A   1      32.923  22.601  23.097  1.00  0.00     0.047 C 
BRANCH   8  10
ATOM     10  C   UNL A   1      33.402  24.937  23.888  1.00  0.00     0.037 C 
ATOM     11  C   UNL A   1      34.057  25.946  24.824  1.00  0.00     0.007 C 
ENDBRANCH   8  10
BRANCH   8  12
ATOM     12  N   UNL A   1      32.877  23.045  25.456  1.00  0.00    -0.322 N 
ATOM     13  C   UNL A   1      32.828  22.175  26.460  1.00  0.00     0.315 C 
ATOM     14  H   UNL A   1      32.128  23.675  25.563  1.00  0.00     0.166 HD
ATOM     15  O   UNL A   1      32.234  22.555  27.475  1.00  0.00    -0.249 OA
ATOM     16  N   UNL A   1      33.323  20.940  26.473  1.00  0.00    -0.335 N 
ATOM     17  H   UNL A   1      33.553  20.577  27.359  1.00  0.00     0.165 HD
BRANCH  16  18
ATOM     18  C   UNL A   1      33.563  20.071  25.356  1.00  0.00     0.152 C 
BRANCH  18  19
ATOM     19  C   UNL A   1      32.407  19.214  24.812  1.00  0.00     0.163 C 
ATOM     20  C   UNL A   1      32.536  18.719  23.369  1.00  0.00     0.194 C 
ATOM     21  O   UNL A   1      32.170  18.087  25.694  1.00  0.00    -0.372 OA
ATOM     22  O   UNL A   1      33.576  17.743  23.242  1.00  0.00    -0.376 OA
ATOM     23  C   UNL A   1      33.143  17.041  25.528  1.00  0.00     0.189 C 
ATOM     24  C   UNL A   1      33.269  16.613  24.069  1.00  0.00     0.188 C 
ENDBRANCH  18  19
ENDBRANCH  16  18
ENDBRANCH   8  12
ENDBRANCH   6   8
ENDBRANCH   5   6
ENDBRANCH   4   5
ENDBRANCH   3   4
ENDBRANCH   2   3
ENDBRANCH   1   2
BRANCH   1  25
ATOM     25  C   UNL A   1      41.170  21.187  27.336  1.00  0.00     0.188 C 
BRANCH  25  26
ATOM     26  O   UNL A   1      42.326  20.381  27.146  1.00  0.00    -0.376 OA
BRANCH  26  27
ATOM     27  C   UNL A   1      42.102  19.284  26.247  1.00  0.00     0.202 C 
BRANCH  27  28
ATOM     28  C   UNL A   1      43.343  18.659  25.558  1.00  0.00     0.261 C 
BRANCH  28  29
ATOM     29  O   UNL A   1      43.786  19.283  24.334  1.00  0.00    -0.460 OA
BRANCH  29  30
ATOM     30  C   UNL A   1      45.068  19.709  24.259  1.00  0.00     0.338 C 
ATOM     31  O   UNL A   1      45.967  19.169  23.634  1.00  0.00    -0.246 OA
BRANCH  30  32
ATOM     32  C   UNL A   1      45.138  21.108  24.798  1.00  0.00     0.060 A 
ATOM     33  C   UNL A   1      44.768  22.162  23.945  1.00  0.00     0.016 A 
ATOM     34  C   UNL A   1      45.400  21.383  26.149  1.00  0.00     0.016 A 
ATOM     35  C   UNL A   1      44.714  23.476  24.418  1.00  0.00     0.010 A 
ATOM     36  C   UNL A   1      45.355  22.702  26.623  1.00  0.00     0.010 A 
ATOM     37  C   UNL A   1      45.060  23.761  25.746  1.00  0.00    -0.014 A 
BRANCH  37  38
ATOM     38  C   UNL A   1      45.422  25.158  26.104  1.00  0.00     0.031 A 
ATOM     39  C   UNL A   1      44.325  26.019  26.677  1.00  0.00     0.074 A 
ATOM     40  C   UNL A   1      46.675  25.640  26.005  1.00  0.00     0.049 A 
ATOM     41  N   UNL A   1      44.365  27.250  27.120  1.00  0.00    -0.248 NA
ATOM     42  C   UNL A   1      42.993  25.394  26.767  1.00  0.00     0.031 C 
ATOM     43  C   UNL A   1      47.831  24.908  25.496  1.00  0.00     0.029 A 
ATOM     44  N   UNL A   1      47.179  26.876  26.336  1.00  0.00    -0.354 N 
ATOM     45  C   UNL A   1      43.077  27.531  27.557  1.00  0.00     0.074 A 
ATOM     46  C   UNL A   1      42.264  26.371  27.276  1.00  0.00     0.031 C 
ATOM     47  C   UNL A   1      48.910  25.712  25.539  1.00  0.00     0.029 A 
ATOM     48  C   UNL A   1      48.518  27.021  26.061  1.00  0.00     0.049 A 
ATOM     49  H   UNL A   1      46.631  27.592  26.733  1.00  0.00     0.167 HD
ATOM     50  C   UNL A   1      42.611  28.649  28.162  1.00  0.00     0.037 A 
ATOM     51  C   UNL A   1      49.322  28.095  26.205  1.00  0.00     0.037 A 
ATOM     52  C   UNL A   1      43.408  29.817  28.414  1.00  0.00     0.049 A 
ATOM     53  C   UNL A   1      48.759  29.366  26.802  1.00  0.00     0.074 A 
ATOM     54  C   UNL A   1      43.029  31.013  28.995  1.00  0.00     0.029 A 
ATOM     55  N   UNL A   1      44.751  29.937  28.088  1.00  0.00    -0.354 N 
ATOM     56  N   UNL A   1      47.546  29.615  27.238  1.00  0.00    -0.248 NA
ATOM     57  C   UNL A   1      49.684  30.500  26.941  1.00  0.00     0.031 C 
ATOM     58  C   UNL A   1      44.129  31.877  28.973  1.00  0.00     0.029 A 
ATOM     59  C   UNL A   1      45.211  31.195  28.439  1.00  0.00     0.049 A 
ATOM     60  H   UNL A   1      45.296  29.232  27.669  1.00  0.00     0.167 HD
ATOM     61  C   UNL A   1      47.571  30.916  27.727  1.00  0.00     0.074 A 
ATOM     62  C   UNL A   1      48.926  31.396  27.557  1.00  0.00     0.031 C 
ATOM     63  C   UNL A   1      46.566  31.653  28.264  1.00  0.00     0.037 A 
BRANCH  50  64
ATOM     64  C   UNL A   1      41.166  28.657  28.569  1.00  0.00     0.064 A 
ATOM     65  C   UNL A   1      40.154  29.048  27.677  1.00  0.00     0.173 A 
ATOM     66  C   UNL A   1      40.786  28.262  29.860  1.00  0.00     0.173 A 
ATOM     67  F   UNL A   1      40.466  29.458  26.438  1.00  0.00    -0.203 F 
ATOM     68  C   UNL A   1      38.819  29.067  28.071  1.00  0.00     0.198 A 
ATOM     69  C   UNL A   1      39.446  28.251  30.240  1.00  0.00     0.198 A 
ATOM     70  F   UNL A   1      41.713  27.885  30.752  1.00  0.00    -0.203 F 
ATOM     71  F   UNL A   1      37.876  29.496  27.221  1.00  0.00    -0.200 F 
ATOM     72  C   UNL A   1      38.466  28.661  29.349  1.00  0.00     0.200 A 
ATOM     73  F   UNL A   1      39.106  27.850  31.472  1.00  0.00    -0.200 F 
ATOM     74  F   UNL A   1      37.180  28.673  29.726  1.00  0.00    -0.200 F 
ENDBRANCH  50  64
BRANCH  51  75
ATOM     75  C   UNL A   1      50.744  28.039  25.760  1.00  0.00     0.064 A 
ATOM     76  C   UNL A   1      51.096  28.137  24.405  1.00  0.00     0.173 A 
ATOM     77  C   UNL A   1      51.781  27.828  26.682  1.00  0.00     0.173 A 
ATOM     78  F   UNL A   1      50.142  28.305  23.477  1.00  0.00    -0.203 F 
ATOM     79  C   UNL A   1      52.420  27.996  23.989  1.00  0.00     0.198 A 
ATOM     80  C   UNL A   1      53.108  27.724  26.269  1.00  0.00     0.198 A 
ATOM     81  F   UNL A   1      51.504  27.715  27.989  1.00  0.00    -0.203 F 
ATOM     82  F   UNL A   1      52.716  28.026  22.683  1.00  0.00    -0.200 F 
ATOM     83  C   UNL A   1      53.426  27.796  24.922  1.00  0.00     0.200 A 
ATOM     84  F   UNL A   1      54.077  27.536  27.175  1.00  0.00    -0.200 F 
ATOM     85  F   UNL A   1      54.696  27.656  24.522  1.00  0.00    -0.200 F 
ENDBRANCH  51  75
BRANCH  63  86
ATOM     86  C   UNL A   1      46.904  33.038  28.744  1.00  0.00     0.064 A 
ATOM     87  C   UNL A   1      46.779  34.161  27.912  1.00  0.00     0.173 A 
ATOM     88  C   UNL A   1      47.337  33.246  30.063  1.00  0.00     0.173 A 
ATOM     89  F   UNL A   1      46.376  34.019  26.641  1.00  0.00    -0.203 F 
ATOM     90  C   UNL A   1      47.119  35.432  28.367  1.00  0.00     0.198 A 
ATOM     91  C   UNL A   1      47.639  34.523  30.527  1.00  0.00     0.198 A 
ATOM     92  F   UNL A   1      47.459  32.210  30.906  1.00  0.00    -0.203 F 
ATOM     93  F   UNL A   1      47.057  36.479  27.534  1.00  0.00    -0.200 F 
ATOM     94  C   UNL A   1      47.544  35.613  29.675  1.00  0.00     0.200 A 
ATOM     95  F   UNL A   1      48.029  34.698  31.797  1.00  0.00    -0.200 F 
ATOM     96  F   UNL A   1      47.870  36.837  30.112  1.00  0.00    -0.200 F 
ENDBRANCH  63  86
ENDBRANCH  37  38
ENDBRANCH  30  32
ENDBRANCH  29  30
ENDBRANCH  28  29
ENDBRANCH  27  28
ENDBRANCH  26  27
ENDBRANCH  25  26
ENDBRANCH   1  25
TORSDOF 21
ENDMDL
