MODEL 1
REMARK VINA RESULT:     -11.7      0.000      0.000
REMARK SMILES CN1CC(=O)N(CC(=O)N2CCCC[C@H]2C(=O)OCCOCCOCCOC(=O)c2ccc(-c3c4nc(c(-c5c(F)c(F)c(F)c(F)c5F)c5ccc([nH]5)c(-c5c(F)c(F)c(F)c(F)c5F)c5nc(c(-c6c(F)c(F)c(F)c(F)c6F)c6ccc3[nH]6)C=C5)C=C4)cc2)C1=O
REMARK SMILES IDX 22 1 21 2 20 3 19 4 18 5 16 6 17 7 15 8 10 9 11 10 12 11
REMARK SMILES IDX 14 12 13 13 8 14 9 15 7 16 6 17 1 18 2 19 3 20 93 21 4 22
REMARK SMILES IDX 94 23 5 24 23 25 24 26 25 27 26 28 27 29 28 30 29 31 30 32
REMARK SMILES IDX 31 33 92 34 32 35 91 36 33 37 34 38 35 39 85 40 36 41 90 42
REMARK SMILES IDX 84 43 86 44 37 45 89 46 83 47 82 48 38 50 70 51 50 52 69 53
REMARK SMILES IDX 51 54 54 55 68 56 87 57 52 58 53 59 67 61 88 62 55 63 39 64
REMARK SMILES IDX 40 65 48 66 41 67 42 68 46 69 49 70 43 71 44 72 47 73 45 74
REMARK SMILES IDX 71 75 72 76 80 77 73 78 74 79 78 80 81 81 75 82 76 83 79 84
REMARK SMILES IDX 77 85 56 86 57 87 65 88 58 89 59 90 63 91 66 92 60 93 61 94
REMARK SMILES IDX 64 95 62 96
REMARK H PARENT 86 49 54 60
REMARK Flexibility Score: inf
ROOT
ATOM      1  C   UNL A   1      40.021  21.332  26.497  1.00  0.00     0.188 C 
ENDROOT
BRANCH   1   2
ATOM      2  O   UNL A   1      38.952  21.899  25.767  1.00  0.00    -0.376 OA
BRANCH   2   3
ATOM      3  C   UNL A   1      38.423  23.156  26.141  1.00  0.00     0.202 C 
BRANCH   3   4
ATOM      4  C   UNL A   1      37.149  23.689  25.478  1.00  0.00     0.261 C 
BRANCH   4   5
ATOM      5  O   UNL A   1      36.248  22.703  24.958  1.00  0.00    -0.462 OA
BRANCH   5   6
ATOM      6  C   UNL A   1      35.858  22.879  23.663  1.00  0.00     0.328 C 
ATOM      7  O   UNL A   1      36.638  23.016  22.729  1.00  0.00    -0.250 OA
BRANCH   6   8
ATOM      8  C   UNL A   1      34.312  22.853  23.541  1.00  0.00     0.195 C 
ATOM      9  N   UNL A   1      33.680  22.991  24.859  1.00  0.00    -0.327 N 
ATOM     10  C   UNL A   1      33.741  24.352  25.427  1.00  0.00     0.120 C 
ATOM     11  C   UNL A   1      33.170  25.410  24.485  1.00  0.00     0.022 C 
ATOM     12  C   UNL A   1      33.641  23.844  22.583  1.00  0.00     0.037 C 
ATOM     13  C   UNL A   1      33.707  25.285  23.065  1.00  0.00     0.005 C 
BRANCH   9  14
ATOM     14  C   UNL A   1      33.122  21.971  25.614  1.00  0.00     0.243 C 
ATOM     15  O   UNL A   1      33.648  21.649  26.689  1.00  0.00    -0.273 OA
BRANCH  14  16
ATOM     16  C   UNL A   1      31.997  21.049  25.084  1.00  0.00     0.230 C 
BRANCH  16  17
ATOM     17  N   UNL A   1      32.280  19.832  24.352  1.00  0.00    -0.253 N 
ATOM     18  C   UNL A   1      33.256  16.362  24.095  1.00  0.00     0.149 C 
ATOM     19  N   UNL A   1      32.741  17.698  23.915  1.00  0.00    -0.318 N 
ATOM     20  C   UNL A   1      32.515  18.272  22.610  1.00  0.00     0.221 C 
ATOM     21  C   UNL A   1      32.558  18.622  24.926  1.00  0.00     0.327 C 
ATOM     22  C   UNL A   1      32.213  19.713  22.992  1.00  0.00     0.250 C 
ATOM     23  O   UNL A   1      32.687  18.405  26.122  1.00  0.00    -0.248 OA
ATOM     24  O   UNL A   1      31.971  20.608  22.197  1.00  0.00    -0.272 OA
ENDBRANCH  16  17
ENDBRANCH  14  16
ENDBRANCH   9  14
ENDBRANCH   6   8
ENDBRANCH   5   6
ENDBRANCH   4   5
ENDBRANCH   3   4
ENDBRANCH   2   3
ENDBRANCH   1   2
BRANCH   1  25
ATOM     25  C   UNL A   1      40.572  19.923  26.187  1.00  0.00     0.188 C 
BRANCH  25  26
ATOM     26  O   UNL A   1      41.715  19.751  25.394  1.00  0.00    -0.376 OA
BRANCH  26  27
ATOM     27  C   UNL A   1      42.997  20.128  25.844  1.00  0.00     0.202 C 
BRANCH  27  28
ATOM     28  C   UNL A   1      43.690  21.459  25.509  1.00  0.00     0.261 C 
BRANCH  28  29
ATOM     29  O   UNL A   1      42.870  22.574  25.146  1.00  0.00    -0.460 OA
BRANCH  29  30
ATOM     30  C   UNL A   1      43.515  23.762  25.029  1.00  0.00     0.338 C 
ATOM     31  O   UNL A   1      44.378  24.056  24.222  1.00  0.00    -0.246 OA
BRANCH  30  32
ATOM     32  C   UNL A   1      42.892  24.752  25.935  1.00  0.00     0.060 A 
ATOM     33  C   UNL A   1      43.339  26.080  25.891  1.00  0.00     0.016 A 
ATOM     34  C   UNL A   1      41.911  24.370  26.851  1.00  0.00     0.016 A 
ATOM     35  C   UNL A   1      42.824  27.023  26.784  1.00  0.00     0.010 A 
ATOM     36  C   UNL A   1      41.411  25.311  27.757  1.00  0.00     0.010 A 
ATOM     37  C   UNL A   1      41.882  26.638  27.746  1.00  0.00    -0.014 A 
BRANCH  37  38
ATOM     38  C   UNL A   1      41.519  27.560  28.854  1.00  0.00     0.031 A 
ATOM     39  C   UNL A   1      42.303  27.486  30.136  1.00  0.00     0.074 A 
ATOM     40  C   UNL A   1      40.516  28.448  28.738  1.00  0.00     0.049 A 
ATOM     41  N   UNL A   1      42.109  28.108  31.271  1.00  0.00    -0.248 NA
ATOM     42  C   UNL A   1      43.468  26.587  30.134  1.00  0.00     0.031 C 
ATOM     43  C   UNL A   1      39.717  28.672  27.537  1.00  0.00     0.029 A 
ATOM     44  N   UNL A   1      39.989  29.320  29.662  1.00  0.00    -0.354 N 
ATOM     45  C   UNL A   1      43.118  27.670  32.119  1.00  0.00     0.074 A 
ATOM     46  C   UNL A   1      43.912  26.715  31.375  1.00  0.00     0.031 C 
ATOM     47  C   UNL A   1      38.783  29.602  27.802  1.00  0.00     0.029 A 
ATOM     48  C   UNL A   1      38.893  30.009  29.205  1.00  0.00     0.049 A 
ATOM     49  H   UNL A   1      40.362  29.439  30.565  1.00  0.00     0.167 HD
ATOM     50  C   UNL A   1      43.363  28.030  33.401  1.00  0.00     0.037 A 
ATOM     51  C   UNL A   1      38.054  30.842  29.854  1.00  0.00     0.037 A 
ATOM     52  C   UNL A   1      42.571  28.971  34.149  1.00  0.00     0.049 A 
ATOM     53  C   UNL A   1      38.286  31.148  31.316  1.00  0.00     0.074 A 
ATOM     54  C   UNL A   1      42.746  29.400  35.453  1.00  0.00     0.029 A 
ATOM     55  N   UNL A   1      41.445  29.619  33.662  1.00  0.00    -0.354 N 
ATOM     56  N   UNL A   1      39.248  30.741  32.109  1.00  0.00    -0.248 NA
ATOM     57  C   UNL A   1      37.308  32.029  31.974  1.00  0.00     0.031 C 
ATOM     58  C   UNL A   1      41.692  30.260  35.776  1.00  0.00     0.029 A 
ATOM     59  C   UNL A   1      40.898  30.421  34.652  1.00  0.00     0.049 A 
ATOM     60  H   UNL A   1      41.088  29.523  32.751  1.00  0.00     0.167 HD
ATOM     61  C   UNL A   1      39.014  31.344  33.340  1.00  0.00     0.074 A 
ATOM     62  C   UNL A   1      37.823  32.152  33.190  1.00  0.00     0.031 C 
ATOM     63  C   UNL A   1      39.724  31.240  34.490  1.00  0.00     0.037 A 
BRANCH  50  64
ATOM     64  C   UNL A   1      44.520  27.373  34.095  1.00  0.00     0.064 A 
ATOM     65  C   UNL A   1      45.784  27.977  34.158  1.00  0.00     0.173 A 
ATOM     66  C   UNL A   1      44.348  26.137  34.737  1.00  0.00     0.173 A 
ATOM     67  F   UNL A   1      46.004  29.151  33.548  1.00  0.00    -0.203 F 
ATOM     68  C   UNL A   1      46.842  27.354  34.816  1.00  0.00     0.198 A 
ATOM     69  C   UNL A   1      45.398  25.533  35.421  1.00  0.00     0.198 A 
ATOM     70  F   UNL A   1      43.157  25.520  34.709  1.00  0.00    -0.203 F 
ATOM     71  F   UNL A   1      48.054  27.925  34.823  1.00  0.00    -0.200 F 
ATOM     72  C   UNL A   1      46.646  26.137  35.454  1.00  0.00     0.200 A 
ATOM     73  F   UNL A   1      45.204  24.364  36.047  1.00  0.00    -0.200 F 
ATOM     74  F   UNL A   1      47.663  25.544  36.094  1.00  0.00    -0.200 F 
ENDBRANCH  50  64
BRANCH  51  75
ATOM     75  C   UNL A   1      36.883  31.431  29.147  1.00  0.00     0.064 A 
ATOM     76  C   UNL A   1      36.849  32.792  28.811  1.00  0.00     0.173 A 
ATOM     77  C   UNL A   1      35.752  30.659  28.847  1.00  0.00     0.173 A 
ATOM     78  F   UNL A   1      37.892  33.582  29.110  1.00  0.00    -0.203 F 
ATOM     79  C   UNL A   1      35.720  33.362  28.226  1.00  0.00     0.198 A 
ATOM     80  C   UNL A   1      34.636  31.222  28.231  1.00  0.00     0.198 A 
ATOM     81  F   UNL A   1      35.727  29.354  29.156  1.00  0.00    -0.203 F 
ATOM     82  F   UNL A   1      35.689  34.679  27.976  1.00  0.00    -0.200 F 
ATOM     83  C   UNL A   1      34.616  32.576  27.932  1.00  0.00     0.200 A 
ATOM     84  F   UNL A   1      33.574  30.457  27.944  1.00  0.00    -0.200 F 
ATOM     85  F   UNL A   1      33.527  33.125  27.376  1.00  0.00    -0.200 F 
ENDBRANCH  51  75
BRANCH  63  86
ATOM     86  C   UNL A   1      39.275  32.055  35.671  1.00  0.00     0.064 A 
ATOM     87  C   UNL A   1      39.642  33.400  35.828  1.00  0.00     0.173 A 
ATOM     88  C   UNL A   1      38.415  31.496  36.630  1.00  0.00     0.173 A 
ATOM     89  F   UNL A   1      40.471  33.981  34.948  1.00  0.00    -0.203 F 
ATOM     90  C   UNL A   1      39.183  34.146  36.912  1.00  0.00     0.198 A 
ATOM     91  C   UNL A   1      37.932  32.254  37.693  1.00  0.00     0.198 A 
ATOM     92  F   UNL A   1      38.024  30.217  36.524  1.00  0.00    -0.203 F 
ATOM     93  F   UNL A   1      39.583  35.416  37.065  1.00  0.00    -0.200 F 
ATOM     94  C   UNL A   1      38.322  33.577  37.838  1.00  0.00     0.200 A 
ATOM     95  F   UNL A   1      37.085  31.706  38.576  1.00  0.00    -0.200 F 
ATOM     96  F   UNL A   1      37.871  34.301  38.871  1.00  0.00    -0.200 F 
ENDBRANCH  63  86
ENDBRANCH  37  38
ENDBRANCH  30  32
ENDBRANCH  29  30
ENDBRANCH  28  29
ENDBRANCH  27  28
ENDBRANCH  26  27
ENDBRANCH  25  26
ENDBRANCH   1  25
TORSDOF 20
ENDMDL
MODEL 2
REMARK VINA RESULT:     -11.5      1.564      3.057
REMARK SMILES CN1CC(=O)N(CC(=O)N2CCCC[C@H]2C(=O)OCCOCCOCCOC(=O)c2ccc(-c3c4nc(c(-c5c(F)c(F)c(F)c(F)c5F)c5ccc([nH]5)c(-c5c(F)c(F)c(F)c(F)c5F)c5nc(c(-c6c(F)c(F)c(F)c(F)c6F)c6ccc3[nH]6)C=C5)C=C4)cc2)C1=O
REMARK SMILES IDX 22 1 21 2 20 3 19 4 18 5 16 6 17 7 15 8 10 9 11 10 12 11
REMARK SMILES IDX 14 12 13 13 8 14 9 15 7 16 6 17 1 18 2 19 3 20 93 21 4 22
REMARK SMILES IDX 94 23 5 24 23 25 24 26 25 27 26 28 27 29 28 30 29 31 30 32
REMARK SMILES IDX 31 33 92 34 32 35 91 36 33 37 34 38 35 39 85 40 36 41 90 42
REMARK SMILES IDX 84 43 86 44 37 45 89 46 83 47 82 48 38 50 70 51 50 52 69 53
REMARK SMILES IDX 51 54 54 55 68 56 87 57 52 58 53 59 67 61 88 62 55 63 39 64
REMARK SMILES IDX 40 65 48 66 41 67 42 68 46 69 49 70 43 71 44 72 47 73 45 74
REMARK SMILES IDX 71 75 72 76 80 77 73 78 74 79 78 80 81 81 75 82 76 83 79 84
REMARK SMILES IDX 77 85 56 86 57 87 65 88 58 89 59 90 63 91 66 92 60 93 61 94
REMARK SMILES IDX 64 95 62 96
REMARK H PARENT 86 49 54 60
REMARK Flexibility Score: inf
ROOT
ATOM      1  C   UNL A   1      39.364  22.003  26.258  1.00  0.00     0.188 C 
ENDROOT
BRANCH   1   2
ATOM      2  O   UNL A   1      37.966  21.958  26.056  1.00  0.00    -0.376 OA
BRANCH   2   3
ATOM      3  C   UNL A   1      37.438  21.406  24.866  1.00  0.00     0.202 C 
BRANCH   3   4
ATOM      4  C   UNL A   1      35.995  20.891  24.825  1.00  0.00     0.261 C 
BRANCH   4   5
ATOM      5  O   UNL A   1      35.218  21.094  26.013  1.00  0.00    -0.462 OA
BRANCH   5   6
ATOM      6  C   UNL A   1      34.497  22.250  26.059  1.00  0.00     0.328 C 
ATOM      7  O   UNL A   1      34.999  23.364  26.127  1.00  0.00    -0.250 OA
BRANCH   6   8
ATOM      8  C   UNL A   1      32.975  21.957  25.985  1.00  0.00     0.195 C 
ATOM      9  N   UNL A   1      32.244  23.116  25.460  1.00  0.00    -0.327 N 
ATOM     10  C   UNL A   1      32.403  23.334  24.008  1.00  0.00     0.120 C 
ATOM     11  C   UNL A   1      32.044  22.098  23.185  1.00  0.00     0.022 C 
ATOM     12  C   UNL A   1      32.510  20.712  25.222  1.00  0.00     0.037 C 
ATOM     13  C   UNL A   1      32.692  20.827  23.716  1.00  0.00     0.005 C 
BRANCH   9  14
ATOM     14  C   UNL A   1      31.508  24.028  26.201  1.00  0.00     0.243 C 
ATOM     15  O   UNL A   1      31.373  23.855  27.421  1.00  0.00    -0.273 OA
BRANCH  14  16
ATOM     16  C   UNL A   1      30.649  25.142  25.555  1.00  0.00     0.230 C 
BRANCH  16  17
ATOM     17  N   UNL A   1      31.182  26.458  25.271  1.00  0.00    -0.253 N 
ATOM     18  C   UNL A   1      32.598  28.980  23.105  1.00  0.00     0.149 C 
ATOM     19  N   UNL A   1      31.957  28.218  24.150  1.00  0.00    -0.318 N 
ATOM     20  C   UNL A   1      31.857  28.696  25.507  1.00  0.00     0.221 C 
ATOM     21  C   UNL A   1      31.517  26.914  24.026  1.00  0.00     0.327 C 
ATOM     22  C   UNL A   1      31.330  27.449  26.200  1.00  0.00     0.250 C 
ATOM     23  O   UNL A   1      31.494  26.263  22.991  1.00  0.00    -0.248 OA
ATOM     24  O   UNL A   1      31.101  27.362  27.397  1.00  0.00    -0.272 OA
ENDBRANCH  16  17
ENDBRANCH  14  16
ENDBRANCH   9  14
ENDBRANCH   6   8
ENDBRANCH   5   6
ENDBRANCH   4   5
ENDBRANCH   3   4
ENDBRANCH   2   3
ENDBRANCH   1   2
BRANCH   1  25
ATOM     25  C   UNL A   1      40.239  20.730  26.242  1.00  0.00     0.188 C 
BRANCH  25  26
ATOM     26  O   UNL A   1      41.483  20.698  26.888  1.00  0.00    -0.376 OA
BRANCH  26  27
ATOM     27  C   UNL A   1      42.678  20.435  26.188  1.00  0.00     0.202 C 
BRANCH  27  28
ATOM     28  C   UNL A   1      43.483  21.479  25.399  1.00  0.00     0.261 C 
BRANCH  28  29
ATOM     29  O   UNL A   1      42.810  22.667  24.970  1.00  0.00    -0.460 OA
BRANCH  29  30
ATOM     30  C   UNL A   1      43.554  23.801  24.984  1.00  0.00     0.338 C 
ATOM     31  O   UNL A   1      44.512  24.063  24.279  1.00  0.00    -0.246 OA
BRANCH  30  32
ATOM     32  C   UNL A   1      42.925  24.792  25.884  1.00  0.00     0.060 A 
ATOM     33  C   UNL A   1      43.377  26.119  25.846  1.00  0.00     0.016 A 
ATOM     34  C   UNL A   1      41.934  24.412  26.790  1.00  0.00     0.016 A 
ATOM     35  C   UNL A   1      42.857  27.063  26.735  1.00  0.00     0.010 A 
ATOM     36  C   UNL A   1      41.428  25.355  27.692  1.00  0.00     0.010 A 
ATOM     37  C   UNL A   1      41.904  26.680  27.687  1.00  0.00    -0.014 A 
BRANCH  37  38
ATOM     38  C   UNL A   1      41.534  27.602  28.792  1.00  0.00     0.031 A 
ATOM     39  C   UNL A   1      42.328  27.550  30.069  1.00  0.00     0.074 A 
ATOM     40  C   UNL A   1      40.515  28.472  28.678  1.00  0.00     0.049 A 
ATOM     41  N   UNL A   1      42.131  28.175  31.202  1.00  0.00    -0.248 NA
ATOM     42  C   UNL A   1      43.508  26.670  30.063  1.00  0.00     0.031 C 
ATOM     43  C   UNL A   1      39.703  28.675  27.482  1.00  0.00     0.029 A 
ATOM     44  N   UNL A   1      39.979  29.340  29.601  1.00  0.00    -0.354 N 
ATOM     45  C   UNL A   1      43.154  27.760  32.045  1.00  0.00     0.074 A 
ATOM     46  C   UNL A   1      43.958  26.814  31.300  1.00  0.00     0.031 C 
ATOM     47  C   UNL A   1      38.755  29.591  27.749  1.00  0.00     0.029 A 
ATOM     48  C   UNL A   1      38.868  30.008  29.148  1.00  0.00     0.049 A 
ATOM     49  H   UNL A   1      40.356  29.471  30.501  1.00  0.00     0.167 HD
ATOM     50  C   UNL A   1      43.402  28.131  33.322  1.00  0.00     0.037 A 
ATOM     51  C   UNL A   1      38.019  30.830  29.799  1.00  0.00     0.037 A 
ATOM     52  C   UNL A   1      42.599  29.062  34.071  1.00  0.00     0.049 A 
ATOM     53  C   UNL A   1      38.257  31.149  31.257  1.00  0.00     0.074 A 
ATOM     54  C   UNL A   1      42.776  29.502  35.371  1.00  0.00     0.029 A 
ATOM     55  N   UNL A   1      41.459  29.689  33.589  1.00  0.00    -0.354 N 
ATOM     56  N   UNL A   1      39.231  30.763  32.045  1.00  0.00    -0.248 NA
ATOM     57  C   UNL A   1      37.268  32.017  31.917  1.00  0.00     0.031 C 
ATOM     58  C   UNL A   1      41.710  30.346  35.697  1.00  0.00     0.029 A 
ATOM     59  C   UNL A   1      40.905  30.487  34.578  1.00  0.00     0.049 A 
ATOM     60  H   UNL A   1      41.096  29.581  32.680  1.00  0.00     0.167 HD
ATOM     61  C   UNL A   1      38.996  31.369  33.274  1.00  0.00     0.074 A 
ATOM     62  C   UNL A   1      37.790  32.156  33.129  1.00  0.00     0.031 C 
ATOM     63  C   UNL A   1      39.716  31.284  34.420  1.00  0.00     0.037 A 
BRANCH  50  64
ATOM     64  C   UNL A   1      44.575  27.498  34.012  1.00  0.00     0.064 A 
ATOM     65  C   UNL A   1      45.840  28.103  34.024  1.00  0.00     0.173 A 
ATOM     66  C   UNL A   1      44.419  26.285  34.701  1.00  0.00     0.173 A 
ATOM     67  F   UNL A   1      46.045  29.255  33.368  1.00  0.00    -0.203 F 
ATOM     68  C   UNL A   1      46.913  27.503  34.679  1.00  0.00     0.198 A 
ATOM     69  C   UNL A   1      45.485  25.706  35.380  1.00  0.00     0.198 A 
ATOM     70  F   UNL A   1      43.228  25.668  34.722  1.00  0.00    -0.203 F 
ATOM     71  F   UNL A   1      48.125  28.074  34.637  1.00  0.00    -0.200 F 
ATOM     72  C   UNL A   1      46.733  26.310  35.363  1.00  0.00     0.200 A 
ATOM     73  F   UNL A   1      45.306  24.559  36.051  1.00  0.00    -0.200 F 
ATOM     74  F   UNL A   1      47.765  25.739  35.999  1.00  0.00    -0.200 F 
ENDBRANCH  50  64
BRANCH  51  75
ATOM     75  C   UNL A   1      36.834  31.394  29.097  1.00  0.00     0.064 A 
ATOM     76  C   UNL A   1      36.769  32.755  28.762  1.00  0.00     0.173 A 
ATOM     77  C   UNL A   1      35.718  30.598  28.800  1.00  0.00     0.173 A 
ATOM     78  F   UNL A   1      37.796  33.566  29.057  1.00  0.00    -0.203 F 
ATOM     79  C   UNL A   1      35.625  33.301  28.182  1.00  0.00     0.198 A 
ATOM     80  C   UNL A   1      34.587  31.138  28.190  1.00  0.00     0.198 A 
ATOM     81  F   UNL A   1      35.722  29.293  29.109  1.00  0.00    -0.203 F 
ATOM     82  F   UNL A   1      35.565  34.617  27.934  1.00  0.00    -0.200 F 
ATOM     83  C   UNL A   1      34.537  32.491  27.892  1.00  0.00     0.200 A 
ATOM     84  F   UNL A   1      33.541  30.351  27.906  1.00  0.00    -0.200 F 
ATOM     85  F   UNL A   1      33.435  33.018  27.341  1.00  0.00    -0.200 F 
ENDBRANCH  51  75
BRANCH  63  86
ATOM     86  C   UNL A   1      39.261  32.099  35.599  1.00  0.00     0.064 A 
ATOM     87  C   UNL A   1      39.613  33.448  35.750  1.00  0.00     0.173 A 
ATOM     88  C   UNL A   1      38.411  31.533  36.564  1.00  0.00     0.173 A 
ATOM     89  F   UNL A   1      40.433  34.035  34.866  1.00  0.00    -0.203 F 
ATOM     90  C   UNL A   1      39.150  34.193  36.833  1.00  0.00     0.198 A 
ATOM     91  C   UNL A   1      37.923  32.289  37.625  1.00  0.00     0.198 A 
ATOM     92  F   UNL A   1      38.035  30.249  36.464  1.00  0.00    -0.203 F 
ATOM     93  F   UNL A   1      39.535  35.468  36.980  1.00  0.00    -0.200 F 
ATOM     94  C   UNL A   1      38.298  33.617  37.764  1.00  0.00     0.200 A 
ATOM     95  F   UNL A   1      37.085  31.735  38.513  1.00  0.00    -0.200 F 
ATOM     96  F   UNL A   1      37.842  34.339  38.795  1.00  0.00    -0.200 F 
ENDBRANCH  63  86
ENDBRANCH  37  38
ENDBRANCH  30  32
ENDBRANCH  29  30
ENDBRANCH  28  29
ENDBRANCH  27  28
ENDBRANCH  26  27
ENDBRANCH  25  26
ENDBRANCH   1  25
TORSDOF 20
ENDMDL
MODEL 3
REMARK VINA RESULT:     -11.5      1.403      3.318
REMARK SMILES CN1CC(=O)N(CC(=O)N2CCCC[C@H]2C(=O)OCCOCCOCCOC(=O)c2ccc(-c3c4nc(c(-c5c(F)c(F)c(F)c(F)c5F)c5ccc([nH]5)c(-c5c(F)c(F)c(F)c(F)c5F)c5nc(c(-c6c(F)c(F)c(F)c(F)c6F)c6ccc3[nH]6)C=C5)C=C4)cc2)C1=O
REMARK SMILES IDX 22 1 21 2 20 3 19 4 18 5 16 6 17 7 15 8 10 9 11 10 12 11
REMARK SMILES IDX 14 12 13 13 8 14 9 15 7 16 6 17 1 18 2 19 3 20 93 21 4 22
REMARK SMILES IDX 94 23 5 24 23 25 24 26 25 27 26 28 27 29 28 30 29 31 30 32
REMARK SMILES IDX 31 33 92 34 32 35 91 36 33 37 34 38 35 39 85 40 36 41 90 42
REMARK SMILES IDX 84 43 86 44 37 45 89 46 83 47 82 48 38 50 70 51 50 52 69 53
REMARK SMILES IDX 51 54 54 55 68 56 87 57 52 58 53 59 67 61 88 62 55 63 39 64
REMARK SMILES IDX 40 65 48 66 41 67 42 68 46 69 49 70 43 71 44 72 47 73 45 74
REMARK SMILES IDX 71 75 72 76 80 77 73 78 74 79 78 80 81 81 75 82 76 83 79 84
REMARK SMILES IDX 77 85 56 86 57 87 65 88 58 89 59 90 63 91 66 92 60 93 61 94
REMARK SMILES IDX 64 95 62 96
REMARK H PARENT 86 49 54 60
REMARK Flexibility Score: inf
ROOT
ATOM      1  C   UNL A   1      39.798  21.616  26.427  1.00  0.00     0.188 C 
ENDROOT
BRANCH   1   2
ATOM      2  O   UNL A   1      38.593  21.823  25.718  1.00  0.00    -0.376 OA
BRANCH   2   3
ATOM      3  C   UNL A   1      37.912  23.057  25.821  1.00  0.00     0.202 C 
BRANCH   3   4
ATOM      4  C   UNL A   1      36.396  23.090  26.048  1.00  0.00     0.261 C 
BRANCH   4   5
ATOM      5  O   UNL A   1      35.693  21.867  25.790  1.00  0.00    -0.462 OA
BRANCH   5   6
ATOM      6  C   UNL A   1      34.343  21.910  25.970  1.00  0.00     0.328 C 
ATOM      7  O   UNL A   1      33.669  20.949  26.317  1.00  0.00    -0.250 OA
BRANCH   6   8
ATOM      8  C   UNL A   1      33.794  23.337  25.704  1.00  0.00     0.195 C 
ATOM      9  N   UNL A   1      33.384  23.488  24.303  1.00  0.00    -0.327 N 
ATOM     10  C   UNL A   1      32.124  22.800  23.957  1.00  0.00     0.120 C 
ATOM     11  C   UNL A   1      30.964  23.203  24.865  1.00  0.00     0.022 C 
ATOM     12  C   UNL A   1      32.659  23.858  26.593  1.00  0.00     0.037 C 
ATOM     13  C   UNL A   1      31.331  23.161  26.343  1.00  0.00     0.005 C 
BRANCH   9  14
ATOM     14  C   UNL A   1      34.094  24.134  23.303  1.00  0.00     0.243 C 
ATOM     15  O   UNL A   1      35.002  23.531  22.712  1.00  0.00    -0.273 OA
BRANCH  14  16
ATOM     16  C   UNL A   1      33.971  25.652  23.028  1.00  0.00     0.230 C 
BRANCH  16  17
ATOM     17  N   UNL A   1      32.838  26.429  23.487  1.00  0.00    -0.253 N 
ATOM     18  C   UNL A   1      29.554  27.891  23.123  1.00  0.00     0.149 C 
ATOM     19  N   UNL A   1      30.812  27.345  23.574  1.00  0.00    -0.318 N 
ATOM     20  C   UNL A   1      31.403  27.707  24.839  1.00  0.00     0.221 C 
ATOM     21  C   UNL A   1      31.656  26.560  22.813  1.00  0.00     0.327 C 
ATOM     22  C   UNL A   1      32.770  27.054  24.701  1.00  0.00     0.250 C 
ATOM     23  O   UNL A   1      31.408  26.116  21.701  1.00  0.00    -0.248 OA
ATOM     24  O   UNL A   1      33.656  27.107  25.540  1.00  0.00    -0.272 OA
ENDBRANCH  16  17
ENDBRANCH  14  16
ENDBRANCH   9  14
ENDBRANCH   6   8
ENDBRANCH   5   6
ENDBRANCH   4   5
ENDBRANCH   3   4
ENDBRANCH   2   3
ENDBRANCH   1   2
BRANCH   1  25
ATOM     25  C   UNL A   1      40.491  20.236  26.484  1.00  0.00     0.188 C 
BRANCH  25  26
ATOM     26  O   UNL A   1      41.493  19.890  25.566  1.00  0.00    -0.376 OA
BRANCH  26  27
ATOM     27  C   UNL A   1      42.855  20.155  25.816  1.00  0.00     0.202 C 
BRANCH  27  28
ATOM     28  C   UNL A   1      43.593  21.435  25.392  1.00  0.00     0.261 C 
BRANCH  28  29
ATOM     29  O   UNL A   1      42.812  22.595  25.087  1.00  0.00    -0.460 OA
BRANCH  29  30
ATOM     30  C   UNL A   1      43.499  23.764  25.027  1.00  0.00     0.338 C 
ATOM     31  O   UNL A   1      44.410  24.046  24.270  1.00  0.00    -0.246 OA
BRANCH  30  32
ATOM     32  C   UNL A   1      42.860  24.757  25.918  1.00  0.00     0.060 A 
ATOM     33  C   UNL A   1      43.340  26.074  25.914  1.00  0.00     0.016 A 
ATOM     34  C   UNL A   1      41.830  24.387  26.785  1.00  0.00     0.016 A 
ATOM     35  C   UNL A   1      42.809  27.017  26.798  1.00  0.00     0.010 A 
ATOM     36  C   UNL A   1      41.314  25.328  27.682  1.00  0.00     0.010 A 
ATOM     37  C   UNL A   1      41.817  26.643  27.711  1.00  0.00    -0.014 A 
BRANCH  37  38
ATOM     38  C   UNL A   1      41.428  27.559  28.815  1.00  0.00     0.031 A 
ATOM     39  C   UNL A   1      42.199  27.496  30.106  1.00  0.00     0.074 A 
ATOM     40  C   UNL A   1      40.413  28.432  28.689  1.00  0.00     0.049 A 
ATOM     41  N   UNL A   1      41.983  28.113  31.239  1.00  0.00    -0.248 NA
ATOM     42  C   UNL A   1      43.377  26.614  30.116  1.00  0.00     0.031 C 
ATOM     43  C   UNL A   1      39.624  28.644  27.479  1.00  0.00     0.029 A 
ATOM     44  N   UNL A   1      39.863  29.294  29.607  1.00  0.00    -0.354 N 
ATOM     45  C   UNL A   1      42.989  27.690  32.098  1.00  0.00     0.074 A 
ATOM     46  C   UNL A   1      43.805  26.748  31.362  1.00  0.00     0.031 C 
ATOM     47  C   UNL A   1      38.673  29.560  27.735  1.00  0.00     0.029 A 
ATOM     48  C   UNL A   1      38.761  29.967  29.139  1.00  0.00     0.049 A 
ATOM     49  H   UNL A   1      40.224  29.418  30.515  1.00  0.00     0.167 HD
ATOM     50  C   UNL A   1      43.215  28.053  33.382  1.00  0.00     0.037 A 
ATOM     51  C   UNL A   1      37.903  30.787  29.780  1.00  0.00     0.037 A 
ATOM     52  C   UNL A   1      42.400  28.981  34.123  1.00  0.00     0.049 A 
ATOM     53  C   UNL A   1      38.114  31.095  31.244  1.00  0.00     0.074 A 
ATOM     54  C   UNL A   1      42.554  29.411  35.429  1.00  0.00     0.029 A 
ATOM     55  N   UNL A   1      41.270  29.613  33.624  1.00  0.00    -0.354 N 
ATOM     56  N   UNL A   1      39.073  30.702  32.047  1.00  0.00    -0.248 NA
ATOM     57  C   UNL A   1      37.116  31.961  31.892  1.00  0.00     0.031 C 
ATOM     58  C   UNL A   1      41.484  30.256  35.741  1.00  0.00     0.029 A 
ATOM     59  C   UNL A   1      40.700  30.405  34.608  1.00  0.00     0.049 A 
ATOM     60  H   UNL A   1      40.924  29.512  32.708  1.00  0.00     0.167 HD
ATOM     61  C   UNL A   1      38.816  31.301  33.275  1.00  0.00     0.074 A 
ATOM     62  C   UNL A   1      37.615  32.091  33.114  1.00  0.00     0.031 C 
ATOM     63  C   UNL A   1      39.516  31.206  34.434  1.00  0.00     0.037 A 
BRANCH  50  64
ATOM     64  C   UNL A   1      44.373  27.413  34.089  1.00  0.00     0.064 A 
ATOM     65  C   UNL A   1      44.245  26.186  34.756  1.00  0.00     0.173 A 
ATOM     66  C   UNL A   1      45.638  28.021  34.067  1.00  0.00     0.173 A 
ATOM     67  F   UNL A   1      43.055  25.572  34.820  1.00  0.00    -0.203 F 
ATOM     68  C   UNL A   1      45.337  25.604  35.398  1.00  0.00     0.198 A 
ATOM     69  C   UNL A   1      46.732  27.421  34.681  1.00  0.00     0.198 A 
ATOM     70  F   UNL A   1      45.814  29.194  33.439  1.00  0.00    -0.203 F 
ATOM     71  F   UNL A   1      45.181  24.455  36.071  1.00  0.00    -0.200 F 
ATOM     72  C   UNL A   1      46.580  26.217  35.353  1.00  0.00     0.200 A 
ATOM     73  F   UNL A   1      47.935  28.009  34.626  1.00  0.00    -0.200 F 
ATOM     74  F   UNL A   1      47.630  25.651  35.963  1.00  0.00    -0.200 F 
ENDBRANCH  50  64
BRANCH  51  75
ATOM     75  C   UNL A   1      36.731  31.358  29.060  1.00  0.00     0.064 A 
ATOM     76  C   UNL A   1      36.678  32.720  28.728  1.00  0.00     0.173 A 
ATOM     77  C   UNL A   1      35.617  30.569  28.743  1.00  0.00     0.173 A 
ATOM     78  F   UNL A   1      37.704  33.526  29.042  1.00  0.00    -0.203 F 
ATOM     79  C   UNL A   1      35.547  33.273  28.131  1.00  0.00     0.198 A 
ATOM     80  C   UNL A   1      34.499  31.115  28.115  1.00  0.00     0.198 A 
ATOM     81  F   UNL A   1      35.610  29.263  29.048  1.00  0.00    -0.203 F 
ATOM     82  F   UNL A   1      35.497  34.590  27.885  1.00  0.00    -0.200 F 
ATOM     83  C   UNL A   1      34.460  32.469  27.820  1.00  0.00     0.200 A 
ATOM     84  F   UNL A   1      33.454  30.333  27.812  1.00  0.00    -0.200 F 
ATOM     85  F   UNL A   1      33.369  33.002  27.253  1.00  0.00    -0.200 F 
ENDBRANCH  51  75
BRANCH  63  86
ATOM     86  C   UNL A   1      39.041  32.014  35.610  1.00  0.00     0.064 A 
ATOM     87  C   UNL A   1      38.230  31.463  36.612  1.00  0.00     0.173 A 
ATOM     88  C   UNL A   1      39.455  33.348  35.763  1.00  0.00     0.173 A 
ATOM     89  F   UNL A   1      37.796  30.198  36.511  1.00  0.00    -0.203 F 
ATOM     90  C   UNL A   1      37.833  32.222  37.712  1.00  0.00     0.198 A 
ATOM     91  C   UNL A   1      39.084  34.093  36.878  1.00  0.00     0.198 A 
ATOM     92  F   UNL A   1      40.238  33.923  34.839  1.00  0.00    -0.203 F 
ATOM     93  F   UNL A   1      37.022  31.688  38.635  1.00  0.00    -0.200 F 
ATOM     94  C   UNL A   1      38.268  33.533  37.849  1.00  0.00     0.200 A 
ATOM     95  F   UNL A   1      39.520  35.353  37.018  1.00  0.00    -0.200 F 
ATOM     96  F   UNL A   1      37.896  34.255  38.914  1.00  0.00    -0.200 F 
ENDBRANCH  63  86
ENDBRANCH  37  38
ENDBRANCH  30  32
ENDBRANCH  29  30
ENDBRANCH  28  29
ENDBRANCH  27  28
ENDBRANCH  26  27
ENDBRANCH  25  26
ENDBRANCH   1  25
TORSDOF 20
ENDMDL
