MODEL 1
REMARK VINA RESULT:     -11.6      0.000      0.000
REMARK SMILES Cc1cc(F)ccc1S(=O)(=O)N1CCO[C@H](CC(=O)OCCOCCOCCOC(=O)c2ccc(-c3c4nc(c(-c5c(F)c(F)c(F)c(F)c5F)c5ccc([nH]5)c(-c5c(F)c(F)c(F)c(F)c5F)c5nc(c(-c6c(F)c(F)c(F)c(F)c6F)c6ccc3[nH]6)C=C5)C=C4)cc2)C1
REMARK SMILES IDX 24 1 23 2 22 3 21 4 20 5 18 6 19 7 17 8 16 9 12 10 13 11
REMARK SMILES IDX 95 12 14 13 15 14 9 15 10 16 11 17 8 18 1 19 2 20 3 21 4 22
REMARK SMILES IDX 7 23 5 24 6 25 25 26 26 27 27 28 28 29 29 30 30 31 31 32
REMARK SMILES IDX 32 33 33 34 94 35 34 36 93 37 35 38 36 39 37 40 87 41 38 42
REMARK SMILES IDX 92 43 86 44 88 45 39 46 91 47 85 48 84 49 40 51 72 52 52 53
REMARK SMILES IDX 71 54 53 55 56 56 70 57 89 58 54 59 55 60 69 62 90 63 57 64
REMARK SMILES IDX 41 65 42 66 50 67 43 68 44 69 48 70 51 71 45 72 46 73 49 74
REMARK SMILES IDX 47 75 73 76 74 77 82 78 75 79 76 80 80 81 83 82 77 83 78 84
REMARK SMILES IDX 81 85 79 86 58 87 59 88 67 89 60 90 61 91 65 92 68 93 62 94
REMARK SMILES IDX 63 95 66 96 64 97
REMARK H PARENT 88 50 56 61
REMARK Flexibility Score: inf
ROOT
ATOM      1  C   UNL A   1      32.488  31.009  26.730  1.00  0.00     0.188 C 
ENDROOT
BRANCH   1   2
ATOM      2  O   UNL A   1      32.090  29.911  25.931  1.00  0.00    -0.376 OA
BRANCH   2   3
ATOM      3  C   UNL A   1      32.048  28.634  26.562  1.00  0.00     0.202 C 
BRANCH   3   4
ATOM      4  C   UNL A   1      31.380  27.463  25.807  1.00  0.00     0.261 C 
BRANCH   4   5
ATOM      5  O   UNL A   1      30.828  26.384  26.623  1.00  0.00    -0.463 OA
BRANCH   5   6
ATOM      6  C   UNL A   1      31.361  25.158  26.421  1.00  0.00     0.308 C 
ATOM      7  O   UNL A   1      31.293  24.251  27.251  1.00  0.00    -0.252 OA
BRANCH   6   8
ATOM      8  C   UNL A   1      32.108  24.907  25.116  1.00  0.00     0.156 C 
BRANCH   8   9
ATOM      9  C   UNL A   1      31.600  24.117  23.892  1.00  0.00     0.144 C 
ATOM     10  N   UNL A   1      33.239  22.305  24.132  1.00  0.00    -0.193 NA
ATOM     11  C   UNL A   1      33.862  22.585  22.820  1.00  0.00     0.131 C 
ATOM     12  C   UNL A   1      31.781  22.586  24.106  1.00  0.00     0.135 C 
ATOM     13  C   UNL A   1      33.551  24.033  22.392  1.00  0.00     0.177 C 
ATOM     14  O   UNL A   1      32.219  24.502  22.639  1.00  0.00    -0.375 OA
BRANCH  10  15
ATOM     15  S   UNL A   1      33.921  21.178  25.173  1.00  0.00     0.243 S 
ATOM     16  O   UNL A   1      33.823  19.865  24.565  1.00  0.00    -0.207 OA
ATOM     17  O   UNL A   1      33.370  21.445  26.485  1.00  0.00    -0.207 OA
BRANCH  15  18
ATOM     18  C   UNL A   1      35.694  21.522  25.298  1.00  0.00     0.085 A 
ATOM     19  C   UNL A   1      35.593  24.070  25.743  1.00  0.00     0.046 C 
ATOM     20  C   UNL A   1      36.287  22.751  25.656  1.00  0.00    -0.028 A 
ATOM     21  C   UNL A   1      37.685  22.802  25.841  1.00  0.00     0.044 A 
ATOM     22  C   UNL A   1      38.482  21.700  25.574  1.00  0.00     0.123 A 
ATOM     23  C   UNL A   1      36.530  20.424  25.000  1.00  0.00     0.025 A 
ATOM     24  F   UNL A   1      39.808  21.795  25.725  1.00  0.00    -0.207 F 
ATOM     25  C   UNL A   1      37.919  20.521  25.116  1.00  0.00     0.040 A 
ENDBRANCH  15  18
ENDBRANCH  10  15
ENDBRANCH   8   9
ENDBRANCH   6   8
ENDBRANCH   5   6
ENDBRANCH   4   5
ENDBRANCH   3   4
ENDBRANCH   2   3
ENDBRANCH   1   2
BRANCH   1  26
ATOM     26  C   UNL A   1      33.891  30.965  27.366  1.00  0.00     0.188 C 
BRANCH  26  27
ATOM     27  O   UNL A   1      34.379  32.191  27.873  1.00  0.00    -0.376 OA
BRANCH  27  28
ATOM     28  C   UNL A   1      34.604  32.332  29.266  1.00  0.00     0.202 C 
BRANCH  28  29
ATOM     29  C   UNL A   1      36.050  32.363  29.773  1.00  0.00     0.261 C 
BRANCH  29  30
ATOM     30  O   UNL A   1      37.017  32.097  28.769  1.00  0.00    -0.460 OA
BRANCH  30  31
ATOM     31  C   UNL A   1      37.945  31.210  29.172  1.00  0.00     0.338 C 
ATOM     32  O   UNL A   1      38.905  31.424  29.897  1.00  0.00    -0.246 OA
BRANCH  31  33
ATOM     33  C   UNL A   1      37.575  29.881  28.596  1.00  0.00     0.060 A 
ATOM     34  C   UNL A   1      37.452  28.918  29.617  1.00  0.00     0.016 A 
ATOM     35  C   UNL A   1      38.443  29.692  27.532  1.00  0.00     0.016 A 
ATOM     36  C   UNL A   1      38.581  28.215  29.947  1.00  0.00     0.010 A 
ATOM     37  C   UNL A   1      39.603  29.063  27.872  1.00  0.00     0.010 A 
ATOM     38  C   UNL A   1      39.680  28.426  29.126  1.00  0.00    -0.014 A 
BRANCH  38  39
ATOM     39  C   UNL A   1      40.973  27.895  29.422  1.00  0.00     0.031 A 
ATOM     40  C   UNL A   1      41.201  26.543  28.928  1.00  0.00     0.074 A 
ATOM     41  C   UNL A   1      41.885  28.745  29.924  1.00  0.00     0.049 A 
ATOM     42  N   UNL A   1      42.138  25.767  29.323  1.00  0.00    -0.248 NA
ATOM     43  C   UNL A   1      40.273  25.912  27.988  1.00  0.00     0.031 C 
ATOM     44  C   UNL A   1      43.330  28.630  29.898  1.00  0.00     0.029 A 
ATOM     45  N   UNL A   1      41.629  29.851  30.742  1.00  0.00    -0.354 N 
ATOM     46  C   UNL A   1      42.166  24.721  28.428  1.00  0.00     0.074 A 
ATOM     47  C   UNL A   1      40.891  24.755  27.762  1.00  0.00     0.031 C 
ATOM     48  C   UNL A   1      43.840  29.442  30.842  1.00  0.00     0.029 A 
ATOM     49  C   UNL A   1      42.726  29.971  31.618  1.00  0.00     0.049 A 
ATOM     50  H   UNL A   1      40.836  30.434  30.710  1.00  0.00     0.167 HD
ATOM     51  C   UNL A   1      43.363  24.111  28.211  1.00  0.00     0.037 A 
ATOM     52  C   UNL A   1      42.516  29.688  32.941  1.00  0.00     0.037 A 
ATOM     53  C   UNL A   1      44.364  24.640  29.151  1.00  0.00     0.049 A 
ATOM     54  C   UNL A   1      43.080  28.346  33.379  1.00  0.00     0.074 A 
ATOM     55  C   UNL A   1      45.339  25.621  29.062  1.00  0.00     0.029 A 
ATOM     56  N   UNL A   1      44.148  24.452  30.506  1.00  0.00    -0.354 N 
ATOM     57  N   UNL A   1      43.641  27.480  32.578  1.00  0.00    -0.248 NA
ATOM     58  C   UNL A   1      43.003  27.856  34.754  1.00  0.00     0.031 C 
ATOM     59  C   UNL A   1      45.659  26.053  30.389  1.00  0.00     0.029 A 
ATOM     60  C   UNL A   1      44.890  25.324  31.280  1.00  0.00     0.049 A 
ATOM     61  H   UNL A   1      43.537  23.775  30.876  1.00  0.00     0.167 HD
ATOM     62  C   UNL A   1      44.018  26.372  33.282  1.00  0.00     0.074 A 
ATOM     63  C   UNL A   1      43.563  26.639  34.636  1.00  0.00     0.031 C 
ATOM     64  C   UNL A   1      44.682  25.315  32.721  1.00  0.00     0.037 A 
BRANCH  51  65
ATOM     65  C   UNL A   1      43.693  23.320  26.963  1.00  0.00     0.064 A 
ATOM     66  C   UNL A   1      43.142  22.036  26.787  1.00  0.00     0.173 A 
ATOM     67  C   UNL A   1      44.584  23.714  25.943  1.00  0.00     0.173 A 
ATOM     68  F   UNL A   1      42.199  21.562  27.611  1.00  0.00    -0.203 F 
ATOM     69  C   UNL A   1      43.535  21.184  25.750  1.00  0.00     0.198 A 
ATOM     70  C   UNL A   1      45.014  22.847  24.934  1.00  0.00     0.198 A 
ATOM     71  F   UNL A   1      45.030  24.968  25.831  1.00  0.00    -0.203 F 
ATOM     72  F   UNL A   1      42.977  19.970  25.645  1.00  0.00    -0.200 F 
ATOM     73  C   UNL A   1      44.496  21.577  24.843  1.00  0.00     0.200 A 
ATOM     74  F   UNL A   1      45.929  23.265  24.046  1.00  0.00    -0.200 F 
ATOM     75  F   UNL A   1      44.895  20.749  23.868  1.00  0.00    -0.200 F 
ENDBRANCH  51  65
BRANCH  52  76
ATOM     76  C   UNL A   1      41.254  30.311  33.440  1.00  0.00     0.064 A 
ATOM     77  C   UNL A   1      41.261  31.701  33.682  1.00  0.00     0.173 A 
ATOM     78  C   UNL A   1      40.009  29.691  33.275  1.00  0.00     0.173 A 
ATOM     79  F   UNL A   1      42.427  32.343  33.864  1.00  0.00    -0.203 F 
ATOM     80  C   UNL A   1      40.089  32.454  33.626  1.00  0.00     0.198 A 
ATOM     81  C   UNL A   1      38.835  30.449  33.228  1.00  0.00     0.198 A 
ATOM     82  F   UNL A   1      39.932  28.370  33.060  1.00  0.00    -0.203 F 
ATOM     83  F   UNL A   1      40.144  33.789  33.745  1.00  0.00    -0.200 F 
ATOM     84  C   UNL A   1      38.880  31.829  33.372  1.00  0.00     0.200 A 
ATOM     85  F   UNL A   1      37.662  29.851  32.974  1.00  0.00    -0.200 F 
ATOM     86  F   UNL A   1      37.761  32.556  33.235  1.00  0.00    -0.200 F 
ENDBRANCH  52  76
BRANCH  64  87
ATOM     87  C   UNL A   1      45.209  24.165  33.532  1.00  0.00     0.064 A 
ATOM     88  C   UNL A   1      46.551  24.100  33.940  1.00  0.00     0.173 A 
ATOM     89  C   UNL A   1      44.421  23.030  33.824  1.00  0.00     0.173 A 
ATOM     90  F   UNL A   1      47.418  25.071  33.615  1.00  0.00    -0.203 F 
ATOM     91  C   UNL A   1      47.044  23.021  34.673  1.00  0.00     0.198 A 
ATOM     92  C   UNL A   1      44.933  21.925  34.496  1.00  0.00     0.198 A 
ATOM     93  F   UNL A   1      43.125  22.963  33.493  1.00  0.00    -0.203 F 
ATOM     94  F   UNL A   1      48.309  23.041  35.112  1.00  0.00    -0.200 F 
ATOM     95  C   UNL A   1      46.237  21.930  34.945  1.00  0.00     0.200 A 
ATOM     96  F   UNL A   1      44.149  20.859  34.713  1.00  0.00    -0.200 F 
ATOM     97  F   UNL A   1      46.716  20.888  35.636  1.00  0.00    -0.200 F 
ENDBRANCH  64  87
ENDBRANCH  38  39
ENDBRANCH  31  33
ENDBRANCH  30  31
ENDBRANCH  29  30
ENDBRANCH  28  29
ENDBRANCH  27  28
ENDBRANCH  26  27
ENDBRANCH   1  26
TORSDOF 20
ENDMDL
MODEL 2
REMARK VINA RESULT:     -11.4      4.121     10.610
REMARK SMILES Cc1cc(F)ccc1S(=O)(=O)N1CCO[C@H](CC(=O)OCCOCCOCCOC(=O)c2ccc(-c3c4nc(c(-c5c(F)c(F)c(F)c(F)c5F)c5ccc([nH]5)c(-c5c(F)c(F)c(F)c(F)c5F)c5nc(c(-c6c(F)c(F)c(F)c(F)c6F)c6ccc3[nH]6)C=C5)C=C4)cc2)C1
REMARK SMILES IDX 24 1 23 2 22 3 21 4 20 5 18 6 19 7 17 8 16 9 12 10 13 11
REMARK SMILES IDX 95 12 14 13 15 14 9 15 10 16 11 17 8 18 1 19 2 20 3 21 4 22
REMARK SMILES IDX 7 23 5 24 6 25 25 26 26 27 27 28 28 29 29 30 30 31 31 32
REMARK SMILES IDX 32 33 33 34 94 35 34 36 93 37 35 38 36 39 37 40 87 41 38 42
REMARK SMILES IDX 92 43 86 44 88 45 39 46 91 47 85 48 84 49 40 51 72 52 52 53
REMARK SMILES IDX 71 54 53 55 56 56 70 57 89 58 54 59 55 60 69 62 90 63 57 64
REMARK SMILES IDX 41 65 42 66 50 67 43 68 44 69 48 70 51 71 45 72 46 73 49 74
REMARK SMILES IDX 47 75 73 76 74 77 82 78 75 79 76 80 80 81 83 82 77 83 78 84
REMARK SMILES IDX 81 85 79 86 58 87 59 88 67 89 60 90 61 91 65 92 68 93 62 94
REMARK SMILES IDX 63 95 66 96 64 97
REMARK H PARENT 88 50 56 61
REMARK Flexibility Score: inf
ROOT
ATOM      1  C   UNL A   1      40.827  20.239  26.828  1.00  0.00     0.188 C 
ENDROOT
BRANCH   1   2
ATOM      2  O   UNL A   1      39.837  20.340  25.821  1.00  0.00    -0.376 OA
BRANCH   2   3
ATOM      3  C   UNL A   1      38.877  21.385  25.961  1.00  0.00     0.202 C 
BRANCH   3   4
ATOM      4  C   UNL A   1      37.751  21.492  24.909  1.00  0.00     0.261 C 
BRANCH   4   5
ATOM      5  O   UNL A   1      36.988  22.737  24.887  1.00  0.00    -0.463 OA
BRANCH   5   6
ATOM      6  C   UNL A   1      36.232  22.949  23.786  1.00  0.00     0.308 C 
ATOM      7  O   UNL A   1      36.698  22.971  22.646  1.00  0.00    -0.252 OA
BRANCH   6   8
ATOM      8  C   UNL A   1      34.742  23.203  23.977  1.00  0.00     0.156 C 
BRANCH   8   9
ATOM      9  C   UNL A   1      33.577  22.472  23.279  1.00  0.00     0.144 C 
ATOM     10  N   UNL A   1      32.374  24.530  22.692  1.00  0.00    -0.193 NA
ATOM     11  C   UNL A   1      31.194  24.170  23.507  1.00  0.00     0.131 C 
ATOM     12  C   UNL A   1      33.011  23.324  22.105  1.00  0.00     0.135 C 
ATOM     13  C   UNL A   1      31.596  23.137  24.580  1.00  0.00     0.177 C 
ATOM     14  O   UNL A   1      32.493  22.099  24.166  1.00  0.00    -0.375 OA
BRANCH  10  15
ATOM     15  S   UNL A   1      32.481  26.044  21.975  1.00  0.00     0.243 S 
ATOM     16  O   UNL A   1      31.406  26.178  21.010  1.00  0.00    -0.207 OA
ATOM     17  O   UNL A   1      33.865  26.220  21.590  1.00  0.00    -0.207 OA
BRANCH  15  18
ATOM     18  C   UNL A   1      32.153  27.296  23.241  1.00  0.00     0.085 A 
ATOM     19  C   UNL A   1      33.815  26.494  25.057  1.00  0.00     0.046 C 
ATOM     20  C   UNL A   1      32.851  27.464  24.455  1.00  0.00    -0.028 A 
ATOM     21  C   UNL A   1      32.552  28.582  25.261  1.00  0.00     0.044 A 
ATOM     22  C   UNL A   1      31.520  29.446  24.931  1.00  0.00     0.123 A 
ATOM     23  C   UNL A   1      31.084  28.169  22.944  1.00  0.00     0.025 A 
ATOM     24  F   UNL A   1      31.239  30.476  25.738  1.00  0.00    -0.207 F 
ATOM     25  C   UNL A   1      30.756  29.225  23.798  1.00  0.00     0.040 A 
ENDBRANCH  15  18
ENDBRANCH  10  15
ENDBRANCH   8   9
ENDBRANCH   6   8
ENDBRANCH   5   6
ENDBRANCH   4   5
ENDBRANCH   3   4
ENDBRANCH   2   3
ENDBRANCH   1   2
BRANCH   1  26
ATOM     26  C   UNL A   1      42.304  20.310  26.395  1.00  0.00     0.188 C 
BRANCH  26  27
ATOM     27  O   UNL A   1      42.622  21.302  25.440  1.00  0.00    -0.376 OA
BRANCH  27  28
ATOM     28  C   UNL A   1      42.965  22.607  25.875  1.00  0.00     0.202 C 
BRANCH  28  29
ATOM     29  C   UNL A   1      42.023  23.326  26.847  1.00  0.00     0.261 C 
BRANCH  29  30
ATOM     30  O   UNL A   1      41.988  24.735  26.679  1.00  0.00    -0.460 OA
BRANCH  30  31
ATOM     31  C   UNL A   1      41.619  25.376  27.803  1.00  0.00     0.338 C 
ATOM     32  O   UNL A   1      42.307  25.590  28.789  1.00  0.00    -0.246 OA
BRANCH  31  33
ATOM     33  C   UNL A   1      40.203  25.821  27.622  1.00  0.00     0.060 A 
ATOM     34  C   UNL A   1      40.134  26.878  26.693  1.00  0.00     0.016 A 
ATOM     35  C   UNL A   1      39.699  25.958  28.906  1.00  0.00     0.016 A 
ATOM     36  C   UNL A   1      40.239  28.150  27.192  1.00  0.00     0.010 A 
ATOM     37  C   UNL A   1      39.873  27.201  29.435  1.00  0.00     0.010 A 
ATOM     38  C   UNL A   1      40.245  28.253  28.575  1.00  0.00    -0.014 A 
BRANCH  38  39
ATOM     39  C   UNL A   1      40.505  29.485  29.252  1.00  0.00     0.031 A 
ATOM     40  C   UNL A   1      39.392  30.425  29.249  1.00  0.00     0.074 A 
ATOM     41  C   UNL A   1      41.635  29.560  29.976  1.00  0.00     0.049 A 
ATOM     42  N   UNL A   1      39.486  31.673  29.516  1.00  0.00    -0.248 NA
ATOM     43  C   UNL A   1      38.054  30.016  28.819  1.00  0.00     0.031 C 
ATOM     44  C   UNL A   1      41.937  30.450  31.080  1.00  0.00     0.029 A 
ATOM     45  N   UNL A   1      42.842  28.905  29.704  1.00  0.00    -0.354 N 
ATOM     46  C   UNL A   1      38.195  32.125  29.670  1.00  0.00     0.074 A 
ATOM     47  C   UNL A   1      37.365  31.133  29.041  1.00  0.00     0.031 C 
ATOM     48  C   UNL A   1      43.272  30.491  31.242  1.00  0.00     0.029 A 
ATOM     49  C   UNL A   1      43.874  29.763  30.134  1.00  0.00     0.049 A 
ATOM     50  H   UNL A   1      42.948  28.017  29.293  1.00  0.00     0.167 HD
ATOM     51  C   UNL A   1      37.992  33.169  30.520  1.00  0.00     0.037 A 
ATOM     52  C   UNL A   1      44.656  30.346  29.173  1.00  0.00     0.037 A 
ATOM     53  C   UNL A   1      39.290  33.694  30.975  1.00  0.00     0.049 A 
ATOM     54  C   UNL A   1      44.347  31.816  28.939  1.00  0.00     0.074 A 
ATOM     55  C   UNL A   1      40.065  33.489  32.105  1.00  0.00     0.029 A 
ATOM     56  N   UNL A   1      40.150  34.216  30.023  1.00  0.00    -0.354 N 
ATOM     57  N   UNL A   1      43.378  32.472  29.519  1.00  0.00    -0.248 NA
ATOM     58  C   UNL A   1      45.082  32.646  27.986  1.00  0.00     0.031 C 
ATOM     59  C   UNL A   1      41.415  33.845  31.790  1.00  0.00     0.029 A 
ATOM     60  C   UNL A   1      41.455  34.281  30.477  1.00  0.00     0.049 A 
ATOM     61  H   UNL A   1      39.866  34.508  29.127  1.00  0.00     0.167 HD
ATOM     62  C   UNL A   1      43.360  33.764  29.075  1.00  0.00     0.074 A 
ATOM     63  C   UNL A   1      44.425  33.815  28.087  1.00  0.00     0.031 C 
ATOM     64  C   UNL A   1      42.489  34.707  29.544  1.00  0.00     0.037 A 
BRANCH  51  65
ATOM     65  C   UNL A   1      36.665  33.472  31.182  1.00  0.00     0.064 A 
ATOM     66  C   UNL A   1      35.623  34.041  30.424  1.00  0.00     0.173 A 
ATOM     67  C   UNL A   1      36.363  33.306  32.550  1.00  0.00     0.173 A 
ATOM     68  F   UNL A   1      35.715  34.165  29.094  1.00  0.00    -0.203 F 
ATOM     69  C   UNL A   1      34.437  34.504  31.002  1.00  0.00     0.198 A 
ATOM     70  C   UNL A   1      35.200  33.811  33.138  1.00  0.00     0.198 A 
ATOM     71  F   UNL A   1      37.139  32.592  33.369  1.00  0.00    -0.203 F 
ATOM     72  F   UNL A   1      33.489  35.044  30.224  1.00  0.00    -0.200 F 
ATOM     73  C   UNL A   1      34.240  34.420  32.364  1.00  0.00     0.200 A 
ATOM     74  F   UNL A   1      35.018  33.689  34.461  1.00  0.00    -0.200 F 
ATOM     75  F   UNL A   1      33.117  34.891  32.923  1.00  0.00    -0.200 F 
ENDBRANCH  51  65
BRANCH  52  76
ATOM     76  C   UNL A   1      45.063  29.361  28.127  1.00  0.00     0.064 A 
ATOM     77  C   UNL A   1      46.119  28.476  28.435  1.00  0.00     0.173 A 
ATOM     78  C   UNL A   1      44.209  29.004  27.076  1.00  0.00     0.173 A 
ATOM     79  F   UNL A   1      46.977  28.778  29.423  1.00  0.00    -0.203 F 
ATOM     80  C   UNL A   1      46.231  27.234  27.813  1.00  0.00     0.198 A 
ATOM     81  C   UNL A   1      44.330  27.760  26.449  1.00  0.00     0.198 A 
ATOM     82  F   UNL A   1      43.198  29.809  26.721  1.00  0.00    -0.203 F 
ATOM     83  F   UNL A   1      47.175  26.369  28.210  1.00  0.00    -0.200 F 
ATOM     84  C   UNL A   1      45.319  26.867  26.839  1.00  0.00     0.200 A 
ATOM     85  F   UNL A   1      43.445  27.395  25.510  1.00  0.00    -0.200 F 
ATOM     86  F   UNL A   1      45.370  25.642  26.294  1.00  0.00    -0.200 F 
ENDBRANCH  52  76
BRANCH  64  87
ATOM     87  C   UNL A   1      42.567  36.155  29.147  1.00  0.00     0.064 A 
ATOM     88  C   UNL A   1      41.978  36.630  27.964  1.00  0.00     0.173 A 
ATOM     89  C   UNL A   1      43.337  37.090  29.871  1.00  0.00     0.173 A 
ATOM     90  F   UNL A   1      41.319  35.801  27.140  1.00  0.00    -0.203 F 
ATOM     91  C   UNL A   1      42.070  37.969  27.585  1.00  0.00     0.198 A 
ATOM     92  C   UNL A   1      43.485  38.410  29.454  1.00  0.00     0.198 A 
ATOM     93  F   UNL A   1      43.950  36.768  31.017  1.00  0.00    -0.203 F 
ATOM     94  F   UNL A   1      41.421  38.395  26.493  1.00  0.00    -0.200 F 
ATOM     95  C   UNL A   1      42.829  38.857  28.326  1.00  0.00     0.200 A 
ATOM     96  F   UNL A   1      44.259  39.246  30.161  1.00  0.00    -0.200 F 
ATOM     97  F   UNL A   1      42.929  40.139  27.953  1.00  0.00    -0.200 F 
ENDBRANCH  64  87
ENDBRANCH  38  39
ENDBRANCH  31  33
ENDBRANCH  30  31
ENDBRANCH  29  30
ENDBRANCH  28  29
ENDBRANCH  27  28
ENDBRANCH  26  27
ENDBRANCH   1  26
TORSDOF 20
ENDMDL
MODEL 3
REMARK VINA RESULT:     -11.4      3.960     10.248
REMARK SMILES Cc1cc(F)ccc1S(=O)(=O)N1CCO[C@H](CC(=O)OCCOCCOCCOC(=O)c2ccc(-c3c4nc(c(-c5c(F)c(F)c(F)c(F)c5F)c5ccc([nH]5)c(-c5c(F)c(F)c(F)c(F)c5F)c5nc(c(-c6c(F)c(F)c(F)c(F)c6F)c6ccc3[nH]6)C=C5)C=C4)cc2)C1
REMARK SMILES IDX 24 1 23 2 22 3 21 4 20 5 18 6 19 7 17 8 16 9 12 10 13 11
REMARK SMILES IDX 95 12 14 13 15 14 9 15 10 16 11 17 8 18 1 19 2 20 3 21 4 22
REMARK SMILES IDX 7 23 5 24 6 25 25 26 26 27 27 28 28 29 29 30 30 31 31 32
REMARK SMILES IDX 32 33 33 34 94 35 34 36 93 37 35 38 36 39 37 40 87 41 38 42
REMARK SMILES IDX 92 43 86 44 88 45 39 46 91 47 85 48 84 49 40 51 72 52 52 53
REMARK SMILES IDX 71 54 53 55 56 56 70 57 89 58 54 59 55 60 69 62 90 63 57 64
REMARK SMILES IDX 41 65 42 66 50 67 43 68 44 69 48 70 51 71 45 72 46 73 49 74
REMARK SMILES IDX 47 75 73 76 74 77 82 78 75 79 76 80 80 81 83 82 77 83 78 84
REMARK SMILES IDX 81 85 79 86 58 87 59 88 67 89 60 90 61 91 65 92 68 93 62 94
REMARK SMILES IDX 63 95 66 96 64 97
REMARK H PARENT 88 50 56 61
REMARK Flexibility Score: inf
ROOT
ATOM      1  C   UNL A   1      38.090  21.806  25.286  1.00  0.00     0.188 C 
ENDROOT
BRANCH   1   2
ATOM      2  O   UNL A   1      36.981  22.685  25.300  1.00  0.00    -0.376 OA
BRANCH   2   3
ATOM      3  C   UNL A   1      35.804  22.231  25.964  1.00  0.00     0.202 C 
BRANCH   3   4
ATOM      4  C   UNL A   1      34.449  22.858  25.567  1.00  0.00     0.261 C 
BRANCH   4   5
ATOM      5  O   UNL A   1      34.444  24.293  25.296  1.00  0.00    -0.463 OA
BRANCH   5   6
ATOM      6  C   UNL A   1      33.493  25.012  25.934  1.00  0.00     0.308 C 
ATOM      7  O   UNL A   1      32.534  24.496  26.509  1.00  0.00    -0.252 OA
BRANCH   6   8
ATOM      8  C   UNL A   1      33.603  26.532  25.906  1.00  0.00     0.156 C 
BRANCH   8   9
ATOM      9  C   UNL A   1      32.636  27.547  26.550  1.00  0.00     0.144 C 
ATOM     10  N   UNL A   1      31.252  27.807  24.540  1.00  0.00    -0.193 NA
ATOM     11  C   UNL A   1      31.569  29.246  24.409  1.00  0.00     0.131 C 
ATOM     12  C   UNL A   1      31.202  27.395  25.966  1.00  0.00     0.135 C 
ATOM     13  C   UNL A   1      32.879  29.563  25.158  1.00  0.00     0.177 C 
ATOM     14  O   UNL A   1      33.059  28.928  26.430  1.00  0.00    -0.375 OA
BRANCH  10  15
ATOM     15  S   UNL A   1      30.380  27.017  23.343  1.00  0.00     0.243 S 
ATOM     16  O   UNL A   1      30.468  27.788  22.117  1.00  0.00    -0.207 OA
ATOM     17  O   UNL A   1      29.100  26.673  23.926  1.00  0.00    -0.207 OA
BRANCH  15  18
ATOM     18  C   UNL A   1      31.203  25.444  22.986  1.00  0.00     0.085 A 
ATOM     19  C   UNL A   1      33.185  26.326  21.572  1.00  0.00     0.046 C 
ATOM     20  C   UNL A   1      32.440  25.276  22.330  1.00  0.00    -0.028 A 
ATOM     21  C   UNL A   1      33.001  23.983  22.261  1.00  0.00     0.044 A 
ATOM     22  C   UNL A   1      32.309  22.878  22.729  1.00  0.00     0.123 A 
ATOM     23  C   UNL A   1      30.502  24.300  23.424  1.00  0.00     0.025 A 
ATOM     24  F   UNL A   1      32.855  21.661  22.613  1.00  0.00    -0.207 F 
ATOM     25  C   UNL A   1      31.045  23.021  23.274  1.00  0.00     0.040 A 
ENDBRANCH  15  18
ENDBRANCH  10  15
ENDBRANCH   8   9
ENDBRANCH   6   8
ENDBRANCH   5   6
ENDBRANCH   4   5
ENDBRANCH   3   4
ENDBRANCH   2   3
ENDBRANCH   1   2
BRANCH   1  26
ATOM     26  C   UNL A   1      39.199  22.028  26.333  1.00  0.00     0.188 C 
BRANCH  26  27
ATOM     27  O   UNL A   1      40.358  21.233  26.184  1.00  0.00    -0.376 OA
BRANCH  27  28
ATOM     28  C   UNL A   1      41.629  21.856  26.106  1.00  0.00     0.202 C 
BRANCH  28  29
ATOM     29  C   UNL A   1      41.726  23.358  26.396  1.00  0.00     0.261 C 
BRANCH  29  30
ATOM     30  O   UNL A   1      41.515  23.695  27.758  1.00  0.00    -0.460 OA
BRANCH  30  31
ATOM     31  C   UNL A   1      41.553  25.024  27.970  1.00  0.00     0.338 C 
ATOM     32  O   UNL A   1      42.486  25.672  28.419  1.00  0.00    -0.246 OA
BRANCH  31  33
ATOM     33  C   UNL A   1      40.243  25.588  27.522  1.00  0.00     0.060 A 
ATOM     34  C   UNL A   1      40.445  26.616  26.581  1.00  0.00     0.016 A 
ATOM     35  C   UNL A   1      39.527  25.812  28.688  1.00  0.00     0.016 A 
ATOM     36  C   UNL A   1      40.576  27.889  27.071  1.00  0.00     0.010 A 
ATOM     37  C   UNL A   1      39.717  27.050  29.221  1.00  0.00     0.010 A 
ATOM     38  C   UNL A   1      40.338  28.036  28.430  1.00  0.00    -0.014 A 
BRANCH  38  39
ATOM     39  C   UNL A   1      40.585  29.261  29.124  1.00  0.00     0.031 A 
ATOM     40  C   UNL A   1      39.469  30.198  29.114  1.00  0.00     0.074 A 
ATOM     41  C   UNL A   1      41.703  29.330  29.865  1.00  0.00     0.049 A 
ATOM     42  N   UNL A   1      39.556  31.443  29.396  1.00  0.00    -0.248 NA
ATOM     43  C   UNL A   1      38.139  29.790  28.659  1.00  0.00     0.031 C 
ATOM     44  C   UNL A   1      41.986  30.210  30.983  1.00  0.00     0.029 A 
ATOM     45  N   UNL A   1      42.916  28.682  29.605  1.00  0.00    -0.354 N 
ATOM     46  C   UNL A   1      38.262  31.891  29.536  1.00  0.00     0.074 A 
ATOM     47  C   UNL A   1      37.444  30.903  28.883  1.00  0.00     0.031 C 
ATOM     48  C   UNL A   1      43.319  30.252  31.167  1.00  0.00     0.029 A 
ATOM     49  C   UNL A   1      43.940  29.537  30.060  1.00  0.00     0.049 A 
ATOM     50  H   UNL A   1      43.031  27.799  29.186  1.00  0.00     0.167 HD
ATOM     51  C   UNL A   1      38.043  32.925  30.394  1.00  0.00     0.037 A 
ATOM     52  C   UNL A   1      44.735  30.133  29.117  1.00  0.00     0.037 A 
ATOM     53  C   UNL A   1      39.332  33.448  30.874  1.00  0.00     0.049 A 
ATOM     54  C   UNL A   1      44.425  31.605  28.895  1.00  0.00     0.074 A 
ATOM     55  C   UNL A   1      40.091  33.231  32.014  1.00  0.00     0.029 A 
ATOM     56  N   UNL A   1      40.205  33.982  29.941  1.00  0.00    -0.354 N 
ATOM     57  N   UNL A   1      43.445  32.252  29.467  1.00  0.00    -0.248 NA
ATOM     58  C   UNL A   1      45.172  32.447  27.962  1.00  0.00     0.031 C 
ATOM     59  C   UNL A   1      41.444  33.595  31.723  1.00  0.00     0.029 A 
ATOM     60  C   UNL A   1      41.503  34.045  30.415  1.00  0.00     0.049 A 
ATOM     61  H   UNL A   1      39.934  34.283  29.044  1.00  0.00     0.167 HD
ATOM     62  C   UNL A   1      43.430  33.548  29.037  1.00  0.00     0.074 A 
ATOM     63  C   UNL A   1      44.510  33.613  28.066  1.00  0.00     0.031 C 
ATOM     64  C   UNL A   1      42.550  34.485  29.504  1.00  0.00     0.037 A 
BRANCH  51  65
ATOM     65  C   UNL A   1      36.705  33.217  31.039  1.00  0.00     0.064 A 
ATOM     66  C   UNL A   1      35.714  33.900  30.307  1.00  0.00     0.173 A 
ATOM     67  C   UNL A   1      36.347  32.930  32.373  1.00  0.00     0.173 A 
ATOM     68  F   UNL A   1      35.860  34.150  29.000  1.00  0.00    -0.203 F 
ATOM     69  C   UNL A   1      34.527  34.355  30.890  1.00  0.00     0.198 A 
ATOM     70  C   UNL A   1      35.183  33.424  32.970  1.00  0.00     0.198 A 
ATOM     71  F   UNL A   1      37.065  32.108  33.142  1.00  0.00    -0.203 F 
ATOM     72  F   UNL A   1      33.630  35.008  30.139  1.00  0.00    -0.200 F 
ATOM     73  C   UNL A   1      34.277  34.145  32.230  1.00  0.00     0.200 A 
ATOM     74  F   UNL A   1      34.949  33.181  34.268  1.00  0.00    -0.200 F 
ATOM     75  F   UNL A   1      33.153  34.607  32.795  1.00  0.00    -0.200 F 
ENDBRANCH  51  65
BRANCH  52  76
ATOM     76  C   UNL A   1      45.160  29.160  28.067  1.00  0.00     0.064 A 
ATOM     77  C   UNL A   1      46.156  28.221  28.408  1.00  0.00     0.173 A 
ATOM     78  C   UNL A   1      44.354  28.872  26.957  1.00  0.00     0.173 A 
ATOM     79  F   UNL A   1      46.968  28.457  29.453  1.00  0.00    -0.203 F 
ATOM     80  C   UNL A   1      46.252  26.994  27.756  1.00  0.00     0.198 A 
ATOM     81  C   UNL A   1      44.459  27.642  26.301  1.00  0.00     0.198 A 
ATOM     82  F   UNL A   1      43.402  29.731  26.569  1.00  0.00    -0.203 F 
ATOM     83  F   UNL A   1      47.133  26.076  28.180  1.00  0.00    -0.200 F 
ATOM     84  C   UNL A   1      45.384  26.695  26.720  1.00  0.00     0.200 A 
ATOM     85  F   UNL A   1      43.616  27.343  25.301  1.00  0.00    -0.200 F 
ATOM     86  F   UNL A   1      45.414  25.485  26.141  1.00  0.00    -0.200 F 
ENDBRANCH  52  76
BRANCH  64  87
ATOM     87  C   UNL A   1      42.630  35.936  29.123  1.00  0.00     0.064 A 
ATOM     88  C   UNL A   1      42.055  36.424  27.938  1.00  0.00     0.173 A 
ATOM     89  C   UNL A   1      43.388  36.866  29.868  1.00  0.00     0.173 A 
ATOM     90  F   UNL A   1      41.409  35.603  27.097  1.00  0.00    -0.203 F 
ATOM     91  C   UNL A   1      42.149  37.767  27.576  1.00  0.00     0.198 A 
ATOM     92  C   UNL A   1      43.539  38.190  29.467  1.00  0.00     0.198 A 
ATOM     93  F   UNL A   1      43.988  36.531  31.018  1.00  0.00    -0.203 F 
ATOM     94  F   UNL A   1      41.514  38.204  26.480  1.00  0.00    -0.200 F 
ATOM     95  C   UNL A   1      42.897  38.648  28.336  1.00  0.00     0.200 A 
ATOM     96  F   UNL A   1      44.302  39.019  30.193  1.00  0.00    -0.200 F 
ATOM     97  F   UNL A   1      42.999  39.934  27.979  1.00  0.00    -0.200 F 
ENDBRANCH  64  87
ENDBRANCH  38  39
ENDBRANCH  31  33
ENDBRANCH  30  31
ENDBRANCH  29  30
ENDBRANCH  28  29
ENDBRANCH  27  28
ENDBRANCH  26  27
ENDBRANCH   1  26
TORSDOF 20
ENDMDL
