MODEL 1
REMARK VINA RESULT:     -10.8      0.000      0.000
REMARK SMILES C[C@@](NC(=O)NCC(N)=O)(C(=O)OCCOCCOCCOC(=O)c1ccc(-c2c3nc(c(-c4c(F)c(F)c(F)c(F)c4F)c4ccc([nH]4)c(-c4c(F)c(F)c(F)c(F)c4F)c4nc(c(-c5c(F)c(F)c(F)c(F)c5F)c5ccc2[nH]5)C=C4)C=C3)cc1)C(F)(F)F
REMARK SMILES IDX 17 1 16 2 15 3 14 4 13 5 11 6 12 7 2 8 1 9 3 10 4 11 5 13
REMARK SMILES IDX 6 14 7 16 8 17 9 18 10 19 88 22 89 23 90 24 91 25 18 26
REMARK SMILES IDX 19 27 20 28 21 29 22 30 23 31 24 32 25 33 26 34 87 35 27 36
REMARK SMILES IDX 86 37 28 38 29 39 30 40 80 41 31 42 85 43 79 44 81 45 32 46
REMARK SMILES IDX 84 47 78 48 77 49 33 51 65 52 45 53 64 54 46 55 49 56 63 57
REMARK SMILES IDX 82 58 47 59 48 60 62 62 83 63 50 64 34 65 35 66 43 67 36 68
REMARK SMILES IDX 37 69 41 70 44 71 38 72 39 73 42 74 40 75 66 76 67 77 75 78
REMARK SMILES IDX 68 79 69 80 73 81 76 82 70 83 71 84 74 85 72 86 51 87 52 88
REMARK SMILES IDX 60 89 53 90 54 91 58 92 61 93 55 94 56 95 59 96 57 97
REMARK H PARENT 3 12 6 15 9 20 9 21 81 50 49 61
REMARK Flexibility Score: inf
ROOT
ATOM      1  C   UNL A   1      32.987  27.137  22.149  1.00  0.00     0.188 C 
ENDROOT
BRANCH   1   2
ATOM      2  O   UNL A   1      33.663  25.997  21.645  1.00  0.00    -0.376 OA
BRANCH   2   3
ATOM      3  C   UNL A   1      32.838  24.902  21.284  1.00  0.00     0.202 C 
BRANCH   3   4
ATOM      4  C   UNL A   1      32.943  23.696  22.223  1.00  0.00     0.261 C 
BRANCH   4   5
ATOM      5  O   UNL A   1      34.195  23.337  22.862  1.00  0.00    -0.461 OA
BRANCH   5   6
ATOM      6  C   UNL A   1      34.594  23.706  24.105  1.00  0.00     0.341 C 
ATOM      7  O   UNL A   1      34.400  24.809  24.595  1.00  0.00    -0.249 OA
BRANCH   6   8
ATOM      8  C   UNL A   1      35.341  22.587  24.802  1.00  0.00     0.232 C 
ATOM      9  C   UNL A   1      35.336  22.922  26.317  1.00  0.00     0.058 C 
BRANCH   8  10
ATOM     10  N   UNL A   1      34.616  21.293  24.603  1.00  0.00    -0.315 N 
ATOM     11  C   UNL A   1      33.343  20.878  24.621  1.00  0.00     0.316 C 
ATOM     12  H   UNL A   1      35.237  20.554  24.408  1.00  0.00     0.166 HD
ATOM     13  O   UNL A   1      33.120  19.781  24.105  1.00  0.00    -0.249 OA
ATOM     14  N   UNL A   1      32.319  21.525  25.187  1.00  0.00    -0.329 N 
ATOM     15  H   UNL A   1      31.442  21.125  24.987  1.00  0.00     0.165 HD
BRANCH  14  16
ATOM     16  C   UNL A   1      32.239  22.693  26.031  1.00  0.00     0.217 C 
BRANCH  16  17
ATOM     17  C   UNL A   1      30.901  23.126  26.621  1.00  0.00     0.236 C 
ATOM     18  N   UNL A   1      29.893  22.208  26.470  1.00  0.00    -0.368 N 
ATOM     19  O   UNL A   1      30.729  24.160  27.253  1.00  0.00    -0.273 OA
ATOM     20  H   UNL A   1      30.051  21.382  25.958  1.00  0.00     0.159 HD
ATOM     21  H   UNL A   1      29.011  22.374  26.875  1.00  0.00     0.159 HD
ENDBRANCH  16  17
ENDBRANCH  14  16
ENDBRANCH   8  10
BRANCH   8  22
ATOM     22  C   UNL A   1      36.814  22.605  24.360  1.00  0.00     0.422 C 
ATOM     23  F   UNL A   1      37.606  23.215  25.279  1.00  0.00    -0.168 F 
ATOM     24  F   UNL A   1      37.286  21.336  24.240  1.00  0.00    -0.168 F 
ATOM     25  F   UNL A   1      37.028  23.209  23.175  1.00  0.00    -0.168 F 
ENDBRANCH   8  22
ENDBRANCH   6   8
ENDBRANCH   5   6
ENDBRANCH   4   5
ENDBRANCH   3   4
ENDBRANCH   2   3
ENDBRANCH   1   2
BRANCH   1  26
ATOM     26  C   UNL A   1      33.896  28.117  22.903  1.00  0.00     0.188 C 
BRANCH  26  27
ATOM     27  O   UNL A   1      33.459  28.730  24.103  1.00  0.00    -0.376 OA
BRANCH  27  28
ATOM     28  C   UNL A   1      32.087  29.048  24.231  1.00  0.00     0.202 C 
BRANCH  28  29
ATOM     29  C   UNL A   1      31.625  29.981  25.370  1.00  0.00     0.261 C 
BRANCH  29  30
ATOM     30  O   UNL A   1      32.418  29.990  26.572  1.00  0.00    -0.460 OA
BRANCH  30  31
ATOM     31  C   UNL A   1      32.893  31.199  26.983  1.00  0.00     0.338 C 
ATOM     32  O   UNL A   1      32.293  32.244  27.013  1.00  0.00    -0.246 OA
BRANCH  31  33
ATOM     33  C   UNL A   1      34.229  30.983  27.622  1.00  0.00     0.060 A 
ATOM     34  C   UNL A   1      34.639  29.664  27.881  1.00  0.00     0.016 A 
ATOM     35  C   UNL A   1      35.085  32.043  27.923  1.00  0.00     0.016 A 
ATOM     36  C   UNL A   1      35.900  29.400  28.423  1.00  0.00     0.010 A 
ATOM     37  C   UNL A   1      36.328  31.780  28.520  1.00  0.00     0.010 A 
ATOM     38  C   UNL A   1      36.738  30.459  28.787  1.00  0.00    -0.014 A 
BRANCH  38  39
ATOM     39  C   UNL A   1      37.937  30.207  29.629  1.00  0.00     0.031 A 
ATOM     40  C   UNL A   1      38.988  29.267  29.101  1.00  0.00     0.074 A 
ATOM     41  C   UNL A   1      38.106  30.782  30.834  1.00  0.00     0.049 A 
ATOM     42  N   UNL A   1      40.046  28.779  29.694  1.00  0.00    -0.248 NA
ATOM     43  C   UNL A   1      38.818  28.819  27.708  1.00  0.00     0.031 C 
ATOM     44  C   UNL A   1      37.214  31.768  31.438  1.00  0.00     0.029 A 
ATOM     45  N   UNL A   1      39.091  30.597  31.777  1.00  0.00    -0.354 N 
ATOM     46  C   UNL A   1      40.657  27.954  28.758  1.00  0.00     0.074 A 
ATOM     47  C   UNL A   1      39.850  28.001  27.559  1.00  0.00     0.031 C 
ATOM     48  C   UNL A   1      37.672  32.074  32.666  1.00  0.00     0.029 A 
ATOM     49  C   UNL A   1      38.863  31.274  32.952  1.00  0.00     0.049 A 
ATOM     50  H   UNL A   1      39.883  30.033  31.626  1.00  0.00     0.167 HD
ATOM     51  C   UNL A   1      41.786  27.222  28.888  1.00  0.00     0.037 A 
ATOM     52  C   UNL A   1      39.515  31.218  34.132  1.00  0.00     0.037 A 
ATOM     53  C   UNL A   1      42.600  27.180  30.073  1.00  0.00     0.049 A 
ATOM     54  C   UNL A   1      40.716  30.311  34.282  1.00  0.00     0.074 A 
ATOM     55  C   UNL A   1      43.784  26.493  30.279  1.00  0.00     0.029 A 
ATOM     56  N   UNL A   1      42.311  27.845  31.254  1.00  0.00    -0.354 N 
ATOM     57  N   UNL A   1      41.300  29.549  33.389  1.00  0.00    -0.248 NA
ATOM     58  C   UNL A   1      41.341  30.248  35.613  1.00  0.00     0.031 C 
ATOM     59  C   UNL A   1      44.178  26.691  31.606  1.00  0.00     0.029 A 
ATOM     60  C   UNL A   1      43.271  27.547  32.207  1.00  0.00     0.049 A 
ATOM     61  H   UNL A   1      41.539  28.438  31.394  1.00  0.00     0.167 HD
ATOM     62  C   UNL A   1      42.367  28.941  34.040  1.00  0.00     0.074 A 
ATOM     63  C   UNL A   1      42.366  29.435  35.399  1.00  0.00     0.031 C 
ATOM     64  C   UNL A   1      43.266  28.048  33.556  1.00  0.00     0.037 A 
BRANCH  51  65
ATOM     65  C   UNL A   1      42.203  26.366  27.730  1.00  0.00     0.064 A 
ATOM     66  C   UNL A   1      43.210  26.764  26.841  1.00  0.00     0.173 A 
ATOM     67  C   UNL A   1      41.636  25.093  27.559  1.00  0.00     0.173 A 
ATOM     68  F   UNL A   1      43.771  27.977  26.955  1.00  0.00    -0.203 F 
ATOM     69  C   UNL A   1      43.631  25.920  25.816  1.00  0.00     0.198 A 
ATOM     70  C   UNL A   1      42.077  24.243  26.551  1.00  0.00     0.198 A 
ATOM     71  F   UNL A   1      40.670  24.667  28.386  1.00  0.00    -0.203 F 
ATOM     72  F   UNL A   1      44.578  26.329  24.960  1.00  0.00    -0.200 F 
ATOM     73  C   UNL A   1      43.073  24.657  25.679  1.00  0.00     0.200 A 
ATOM     74  F   UNL A   1      41.546  23.019  26.429  1.00  0.00    -0.200 F 
ATOM     75  F   UNL A   1      43.494  23.839  24.705  1.00  0.00    -0.200 F 
ENDBRANCH  51  65
BRANCH  52  76
ATOM     76  C   UNL A   1      39.018  31.987  35.307  1.00  0.00     0.064 A 
ATOM     77  C   UNL A   1      39.383  33.326  35.510  1.00  0.00     0.173 A 
ATOM     78  C   UNL A   1      38.232  31.372  36.294  1.00  0.00     0.173 A 
ATOM     79  F   UNL A   1      40.167  33.947  34.618  1.00  0.00    -0.203 F 
ATOM     80  C   UNL A   1      39.009  34.008  36.667  1.00  0.00     0.198 A 
ATOM     81  C   UNL A   1      37.829  32.066  37.433  1.00  0.00     0.198 A 
ATOM     82  F   UNL A   1      37.866  30.089  36.159  1.00  0.00    -0.203 F 
ATOM     83  F   UNL A   1      39.435  35.262  36.870  1.00  0.00    -0.200 F 
ATOM     84  C   UNL A   1      38.228  33.379  37.625  1.00  0.00     0.200 A 
ATOM     85  F   UNL A   1      37.073  31.453  38.355  1.00  0.00    -0.200 F 
ATOM     86  F   UNL A   1      37.881  34.029  38.744  1.00  0.00    -0.200 F 
ENDBRANCH  52  76
BRANCH  64  87
ATOM     87  C   UNL A   1      44.339  27.560  34.489  1.00  0.00     0.064 A 
ATOM     88  C   UNL A   1      45.536  28.270  34.664  1.00  0.00     0.173 A 
ATOM     89  C   UNL A   1      44.144  26.403  35.257  1.00  0.00     0.173 A 
ATOM     90  F   UNL A   1      45.777  29.376  33.944  1.00  0.00    -0.203 F 
ATOM     91  C   UNL A   1      46.507  27.826  35.558  1.00  0.00     0.198 A 
ATOM     92  C   UNL A   1      45.103  25.980  36.173  1.00  0.00     0.198 A 
ATOM     93  F   UNL A   1      43.012  25.692  35.137  1.00  0.00    -0.203 F 
ATOM     94  F   UNL A   1      47.661  28.497  35.677  1.00  0.00    -0.200 F 
ATOM     95  C   UNL A   1      46.287  26.687  36.318  1.00  0.00     0.200 A 
ATOM     96  F   UNL A   1      44.881  24.889  36.920  1.00  0.00    -0.200 F 
ATOM     97  F   UNL A   1      47.218  26.269  37.188  1.00  0.00    -0.200 F 
ENDBRANCH  64  87
ENDBRANCH  38  39
ENDBRANCH  31  33
ENDBRANCH  30  31
ENDBRANCH  29  30
ENDBRANCH  28  29
ENDBRANCH  27  28
ENDBRANCH  26  27
ENDBRANCH   1  26
TORSDOF 21
ENDMDL
MODEL 2
REMARK VINA RESULT:     -10.5      1.877      3.153
REMARK SMILES C[C@@](NC(=O)NCC(N)=O)(C(=O)OCCOCCOCCOC(=O)c1ccc(-c2c3nc(c(-c4c(F)c(F)c(F)c(F)c4F)c4ccc([nH]4)c(-c4c(F)c(F)c(F)c(F)c4F)c4nc(c(-c5c(F)c(F)c(F)c(F)c5F)c5ccc2[nH]5)C=C4)C=C3)cc1)C(F)(F)F
REMARK SMILES IDX 17 1 16 2 15 3 14 4 13 5 11 6 12 7 2 8 1 9 3 10 4 11 5 13
REMARK SMILES IDX 6 14 7 16 8 17 9 18 10 19 88 22 89 23 90 24 91 25 18 26
REMARK SMILES IDX 19 27 20 28 21 29 22 30 23 31 24 32 25 33 26 34 87 35 27 36
REMARK SMILES IDX 86 37 28 38 29 39 30 40 80 41 31 42 85 43 79 44 81 45 32 46
REMARK SMILES IDX 84 47 78 48 77 49 33 51 65 52 45 53 64 54 46 55 49 56 63 57
REMARK SMILES IDX 82 58 47 59 48 60 62 62 83 63 50 64 34 65 35 66 43 67 36 68
REMARK SMILES IDX 37 69 41 70 44 71 38 72 39 73 42 74 40 75 66 76 67 77 75 78
REMARK SMILES IDX 68 79 69 80 73 81 76 82 70 83 71 84 74 85 72 86 51 87 52 88
REMARK SMILES IDX 60 89 53 90 54 91 58 92 61 93 55 94 56 95 59 96 57 97
REMARK H PARENT 3 12 6 15 9 20 9 21 81 50 49 61
REMARK Flexibility Score: inf
ROOT
ATOM      1  C   UNL A   1      33.936  29.326  26.699  1.00  0.00     0.188 C 
ENDROOT
BRANCH   1   2
ATOM      2  O   UNL A   1      33.090  28.413  26.019  1.00  0.00    -0.376 OA
BRANCH   2   3
ATOM      3  C   UNL A   1      33.511  27.059  26.028  1.00  0.00     0.202 C 
BRANCH   3   4
ATOM      4  C   UNL A   1      33.527  26.394  24.648  1.00  0.00     0.261 C 
BRANCH   4   5
ATOM      5  O   UNL A   1      34.281  25.181  24.396  1.00  0.00    -0.461 OA
BRANCH   5   6
ATOM      6  C   UNL A   1      34.079  23.977  24.988  1.00  0.00     0.341 C 
ATOM      7  O   UNL A   1      33.924  23.813  26.189  1.00  0.00    -0.249 OA
BRANCH   6   8
ATOM      8  C   UNL A   1      34.105  22.851  23.974  1.00  0.00     0.232 C 
ATOM      9  C   UNL A   1      35.472  22.939  23.244  1.00  0.00     0.058 C 
BRANCH   8  10
ATOM     10  N   UNL A   1      34.031  21.533  24.678  1.00  0.00    -0.315 N 
ATOM     11  C   UNL A   1      33.065  20.738  25.155  1.00  0.00     0.316 C 
ATOM     12  H   UNL A   1      34.925  21.151  24.830  1.00  0.00     0.166 HD
ATOM     13  O   UNL A   1      33.389  19.574  25.403  1.00  0.00    -0.249 OA
ATOM     14  N   UNL A   1      31.810  21.110  25.426  1.00  0.00    -0.329 N 
ATOM     15  H   UNL A   1      31.215  20.357  25.649  1.00  0.00     0.165 HD
BRANCH  14  16
ATOM     16  C   UNL A   1      31.149  22.392  25.455  1.00  0.00     0.217 C 
BRANCH  16  17
ATOM     17  C   UNL A   1      30.505  22.897  26.742  1.00  0.00     0.236 C 
ATOM     18  N   UNL A   1      29.253  22.392  26.985  1.00  0.00    -0.368 N 
ATOM     19  O   UNL A   1      31.063  23.626  27.552  1.00  0.00    -0.273 OA
ATOM     20  H   UNL A   1      28.821  21.807  26.320  1.00  0.00     0.159 HD
ATOM     21  H   UNL A   1      28.786  22.612  27.823  1.00  0.00     0.159 HD
ENDBRANCH  16  17
ENDBRANCH  14  16
ENDBRANCH   8  10
BRANCH   8  22
ATOM     22  C   UNL A   1      33.028  23.102  22.905  1.00  0.00     0.422 C 
ATOM     23  F   UNL A   1      33.525  23.784  21.842  1.00  0.00    -0.168 F 
ATOM     24  F   UNL A   1      32.567  21.922  22.413  1.00  0.00    -0.168 F 
ATOM     25  F   UNL A   1      31.953  23.779  23.354  1.00  0.00    -0.168 F 
ENDBRANCH   8  22
ENDBRANCH   6   8
ENDBRANCH   5   6
ENDBRANCH   4   5
ENDBRANCH   3   4
ENDBRANCH   2   3
ENDBRANCH   1   2
BRANCH   1  26
ATOM     26  C   UNL A   1      33.207  30.559  27.248  1.00  0.00     0.188 C 
BRANCH  26  27
ATOM     27  O   UNL A   1      31.923  30.913  26.765  1.00  0.00    -0.376 OA
BRANCH  27  28
ATOM     28  C   UNL A   1      31.560  32.280  26.766  1.00  0.00     0.202 C 
BRANCH  28  29
ATOM     29  C   UNL A   1      32.581  33.337  27.237  1.00  0.00     0.261 C 
BRANCH  29  30
ATOM     30  O   UNL A   1      32.178  34.202  28.315  1.00  0.00    -0.460 OA
BRANCH  30  31
ATOM     31  C   UNL A   1      33.080  35.142  28.716  1.00  0.00     0.338 C 
ATOM     32  O   UNL A   1      32.896  36.328  28.822  1.00  0.00    -0.246 OA
BRANCH  31  33
ATOM     33  C   UNL A   1      34.291  34.435  29.237  1.00  0.00     0.060 A 
ATOM     34  C   UNL A   1      34.129  33.533  30.302  1.00  0.00     0.016 A 
ATOM     35  C   UNL A   1      35.553  34.612  28.670  1.00  0.00     0.016 A 
ATOM     36  C   UNL A   1      35.215  32.800  30.792  1.00  0.00     0.010 A 
ATOM     37  C   UNL A   1      36.653  33.919  29.199  1.00  0.00     0.010 A 
ATOM     38  C   UNL A   1      36.495  33.020  30.272  1.00  0.00    -0.014 A 
BRANCH  38  39
ATOM     39  C   UNL A   1      37.689  32.479  30.974  1.00  0.00     0.031 A 
ATOM     40  C   UNL A   1      38.441  31.350  30.324  1.00  0.00     0.074 A 
ATOM     41  C   UNL A   1      38.107  32.961  32.159  1.00  0.00     0.049 A 
ATOM     42  N   UNL A   1      39.420  30.619  30.793  1.00  0.00    -0.248 NA
ATOM     43  C   UNL A   1      38.031  30.999  28.954  1.00  0.00     0.031 C 
ATOM     44  C   UNL A   1      37.527  34.097  32.869  1.00  0.00     0.029 A 
ATOM     45  N   UNL A   1      39.119  32.529  32.987  1.00  0.00    -0.354 N 
ATOM     46  C   UNL A   1      39.729  29.713  29.786  1.00  0.00     0.074 A 
ATOM     47  C   UNL A   1      38.832  29.979  28.683  1.00  0.00     0.031 C 
ATOM     48  C   UNL A   1      38.167  34.252  34.043  1.00  0.00     0.029 A 
ATOM     49  C   UNL A   1      39.173  33.198  34.187  1.00  0.00     0.049 A 
ATOM     50  H   UNL A   1      39.745  31.810  32.743  1.00  0.00     0.167 HD
ATOM     51  C   UNL A   1      40.673  28.744  29.783  1.00  0.00     0.037 A 
ATOM     52  C   UNL A   1      39.915  32.958  35.288  1.00  0.00     0.037 A 
ATOM     53  C   UNL A   1      41.577  28.482  30.871  1.00  0.00     0.049 A 
ATOM     54  C   UNL A   1      40.891  31.803  35.295  1.00  0.00     0.074 A 
ATOM     55  C   UNL A   1      42.592  27.544  30.939  1.00  0.00     0.029 A 
ATOM     56  N   UNL A   1      41.569  29.153  32.084  1.00  0.00    -0.354 N 
ATOM     57  N   UNL A   1      41.193  30.963  34.335  1.00  0.00    -0.248 NA
ATOM     58  C   UNL A   1      41.622  31.557  36.549  1.00  0.00     0.031 C 
ATOM     59  C   UNL A   1      43.156  27.603  32.216  1.00  0.00     0.029 A 
ATOM     60  C   UNL A   1      42.532  28.616  32.923  1.00  0.00     0.049 A 
ATOM     61  H   UNL A   1      40.968  29.897  32.314  1.00  0.00     0.167 HD
ATOM     62  C   UNL A   1      42.160  30.111  34.858  1.00  0.00     0.074 A 
ATOM     63  C   UNL A   1      42.412  30.546  36.214  1.00  0.00     0.031 C 
ATOM     64  C   UNL A   1      42.780  29.059  34.270  1.00  0.00     0.037 A 
BRANCH  51  65
ATOM     65  C   UNL A   1      40.764  27.859  28.578  1.00  0.00     0.064 A 
ATOM     66  C   UNL A   1      40.045  26.659  28.486  1.00  0.00     0.173 A 
ATOM     67  C   UNL A   1      41.522  28.262  27.467  1.00  0.00     0.173 A 
ATOM     68  F   UNL A   1      39.320  26.225  29.527  1.00  0.00    -0.203 F 
ATOM     69  C   UNL A   1      40.088  25.890  27.325  1.00  0.00     0.198 A 
ATOM     70  C   UNL A   1      41.541  27.504  26.301  1.00  0.00     0.198 A 
ATOM     71  F   UNL A   1      42.224  29.403  27.507  1.00  0.00    -0.203 F 
ATOM     72  F   UNL A   1      39.415  24.732  27.267  1.00  0.00    -0.200 F 
ATOM     73  C   UNL A   1      40.826  26.318  26.231  1.00  0.00     0.200 A 
ATOM     74  F   UNL A   1      42.243  27.926  25.241  1.00  0.00    -0.200 F 
ATOM     75  F   UNL A   1      40.848  25.586  25.109  1.00  0.00    -0.200 F 
ENDBRANCH  51  65
BRANCH  52  76
ATOM     76  C   UNL A   1      39.728  33.776  36.518  1.00  0.00     0.064 A 
ATOM     77  C   UNL A   1      38.869  33.361  37.547  1.00  0.00     0.173 A 
ATOM     78  C   UNL A   1      40.345  35.029  36.655  1.00  0.00     0.173 A 
ATOM     79  F   UNL A   1      38.223  32.191  37.446  1.00  0.00    -0.203 F 
ATOM     80  C   UNL A   1      38.609  34.180  38.645  1.00  0.00     0.198 A 
ATOM     81  C   UNL A   1      40.112  35.833  37.770  1.00  0.00     0.198 A 
ATOM     82  F   UNL A   1      41.164  35.484  35.695  1.00  0.00    -0.203 F 
ATOM     83  F   UNL A   1      37.726  33.792  39.574  1.00  0.00    -0.200 F 
ATOM     84  C   UNL A   1      39.235  35.413  38.757  1.00  0.00     0.200 A 
ATOM     85  F   UNL A   1      40.721  37.022  37.874  1.00  0.00    -0.200 F 
ATOM     86  F   UNL A   1      38.974  36.207  39.805  1.00  0.00    -0.200 F 
ENDBRANCH  52  76
BRANCH  64  87
ATOM     87  C   UNL A   1      43.808  28.314  35.073  1.00  0.00     0.064 A 
ATOM     88  C   UNL A   1      45.147  28.729  35.116  1.00  0.00     0.173 A 
ATOM     89  C   UNL A   1      43.439  27.208  35.854  1.00  0.00     0.173 A 
ATOM     90  F   UNL A   1      45.555  29.773  34.378  1.00  0.00    -0.203 F 
ATOM     91  C   UNL A   1      46.082  28.050  35.893  1.00  0.00     0.198 A 
ATOM     92  C   UNL A   1      44.370  26.552  36.654  1.00  0.00     0.198 A 
ATOM     93  F   UNL A   1      42.169  26.775  35.858  1.00  0.00    -0.203 F 
ATOM     94  F   UNL A   1      47.365  28.439  35.885  1.00  0.00    -0.200 F 
ATOM     95  C   UNL A   1      45.692  26.969  36.668  1.00  0.00     0.200 A 
ATOM     96  F   UNL A   1      43.988  25.517  37.416  1.00  0.00    -0.200 F 
ATOM     97  F   UNL A   1      46.592  26.325  37.426  1.00  0.00    -0.200 F 
ENDBRANCH  64  87
ENDBRANCH  38  39
ENDBRANCH  31  33
ENDBRANCH  30  31
ENDBRANCH  29  30
ENDBRANCH  28  29
ENDBRANCH  27  28
ENDBRANCH  26  27
ENDBRANCH   1  26
TORSDOF 21
ENDMDL
MODEL 3
REMARK VINA RESULT:     -10.3      2.436      8.051
REMARK SMILES C[C@@](NC(=O)NCC(N)=O)(C(=O)OCCOCCOCCOC(=O)c1ccc(-c2c3nc(c(-c4c(F)c(F)c(F)c(F)c4F)c4ccc([nH]4)c(-c4c(F)c(F)c(F)c(F)c4F)c4nc(c(-c5c(F)c(F)c(F)c(F)c5F)c5ccc2[nH]5)C=C4)C=C3)cc1)C(F)(F)F
REMARK SMILES IDX 17 1 16 2 15 3 14 4 13 5 11 6 12 7 2 8 1 9 3 10 4 11 5 13
REMARK SMILES IDX 6 14 7 16 8 17 9 18 10 19 88 22 89 23 90 24 91 25 18 26
REMARK SMILES IDX 19 27 20 28 21 29 22 30 23 31 24 32 25 33 26 34 87 35 27 36
REMARK SMILES IDX 86 37 28 38 29 39 30 40 80 41 31 42 85 43 79 44 81 45 32 46
REMARK SMILES IDX 84 47 78 48 77 49 33 51 65 52 45 53 64 54 46 55 49 56 63 57
REMARK SMILES IDX 82 58 47 59 48 60 62 62 83 63 50 64 34 65 35 66 43 67 36 68
REMARK SMILES IDX 37 69 41 70 44 71 38 72 39 73 42 74 40 75 66 76 67 77 75 78
REMARK SMILES IDX 68 79 69 80 73 81 76 82 70 83 71 84 74 85 72 86 51 87 52 88
REMARK SMILES IDX 60 89 53 90 54 91 58 92 61 93 55 94 56 95 59 96 57 97
REMARK H PARENT 3 12 6 15 9 20 9 21 81 50 49 61
REMARK Flexibility Score: inf
ROOT
ATOM      1  C   UNL A   1      31.850  29.429  25.533  1.00  0.00     0.188 C 
ENDROOT
BRANCH   1   2
ATOM      2  O   UNL A   1      33.046  28.910  24.976  1.00  0.00    -0.376 OA
BRANCH   2   3
ATOM      3  C   UNL A   1      33.664  27.865  25.708  1.00  0.00     0.202 C 
BRANCH   3   4
ATOM      4  C   UNL A   1      32.712  26.742  26.130  1.00  0.00     0.261 C 
BRANCH   4   5
ATOM      5  O   UNL A   1      32.263  25.732  25.191  1.00  0.00    -0.461 OA
BRANCH   5   6
ATOM      6  C   UNL A   1      32.951  25.280  24.113  1.00  0.00     0.341 C 
ATOM      7  O   UNL A   1      34.075  25.649  23.804  1.00  0.00    -0.249 OA
BRANCH   6   8
ATOM      8  C   UNL A   1      32.138  24.279  23.317  1.00  0.00     0.232 C 
ATOM      9  C   UNL A   1      30.647  24.544  23.658  1.00  0.00     0.058 C 
BRANCH   8  10
ATOM     10  N   UNL A   1      32.335  24.516  21.853  1.00  0.00    -0.315 N 
ATOM     11  C   UNL A   1      32.445  25.578  21.045  1.00  0.00     0.316 C 
ATOM     12  H   UNL A   1      32.402  23.670  21.353  1.00  0.00     0.166 HD
ATOM     13  O   UNL A   1      32.909  25.364  19.923  1.00  0.00    -0.249 OA
ATOM     14  N   UNL A   1      32.052  26.823  21.335  1.00  0.00    -0.329 N 
ATOM     15  H   UNL A   1      32.330  27.489  20.665  1.00  0.00     0.165 HD
BRANCH  14  16
ATOM     16  C   UNL A   1      31.305  27.389  22.432  1.00  0.00     0.217 C 
BRANCH  16  17
ATOM     17  C   UNL A   1      30.397  28.592  22.205  1.00  0.00     0.236 C 
ATOM     18  N   UNL A   1      31.039  29.702  21.718  1.00  0.00    -0.368 N 
ATOM     19  O   UNL A   1      29.182  28.576  22.357  1.00  0.00    -0.273 OA
ATOM     20  H   UNL A   1      32.017  29.695  21.603  1.00  0.00     0.159 HD
ATOM     21  H   UNL A   1      30.522  30.506  21.482  1.00  0.00     0.159 HD
ENDBRANCH  16  17
ENDBRANCH  14  16
ENDBRANCH   8  10
BRANCH   8  22
ATOM     22  C   UNL A   1      32.449  22.857  23.814  1.00  0.00     0.422 C 
ATOM     23  F   UNL A   1      32.593  21.985  22.784  1.00  0.00    -0.168 F 
ATOM     24  F   UNL A   1      33.630  22.842  24.487  1.00  0.00    -0.168 F 
ATOM     25  F   UNL A   1      31.522  22.350  24.650  1.00  0.00    -0.168 F 
ENDBRANCH   8  22
ENDBRANCH   6   8
ENDBRANCH   5   6
ENDBRANCH   4   5
ENDBRANCH   3   4
ENDBRANCH   2   3
ENDBRANCH   1   2
BRANCH   1  26
ATOM     26  C   UNL A   1      32.076  30.373  26.722  1.00  0.00     0.188 C 
BRANCH  26  27
ATOM     27  O   UNL A   1      31.254  31.512  26.905  1.00  0.00    -0.376 OA
BRANCH  27  28
ATOM     28  C   UNL A   1      31.778  32.779  26.558  1.00  0.00     0.202 C 
BRANCH  28  29
ATOM     29  C   UNL A   1      32.733  33.500  27.533  1.00  0.00     0.261 C 
BRANCH  29  30
ATOM     30  O   UNL A   1      32.193  34.606  28.280  1.00  0.00    -0.460 OA
BRANCH  30  31
ATOM     31  C   UNL A   1      33.087  35.523  28.748  1.00  0.00     0.338 C 
ATOM     32  O   UNL A   1      32.963  36.721  28.754  1.00  0.00    -0.246 OA
BRANCH  31  33
ATOM     33  C   UNL A   1      34.166  34.790  29.481  1.00  0.00     0.060 A 
ATOM     34  C   UNL A   1      35.422  34.661  28.863  1.00  0.00     0.016 A 
ATOM     35  C   UNL A   1      33.974  34.278  30.764  1.00  0.00     0.016 A 
ATOM     36  C   UNL A   1      36.485  34.038  29.524  1.00  0.00     0.010 A 
ATOM     37  C   UNL A   1      35.024  33.603  31.404  1.00  0.00     0.010 A 
ATOM     38  C   UNL A   1      36.281  33.465  30.784  1.00  0.00    -0.014 A 
BRANCH  38  39
ATOM     39  C   UNL A   1      37.301  32.551  31.362  1.00  0.00     0.031 A 
ATOM     40  C   UNL A   1      37.822  32.852  32.742  1.00  0.00     0.074 A 
ATOM     41  C   UNL A   1      37.769  31.480  30.695  1.00  0.00     0.049 A 
ATOM     42  N   UNL A   1      38.804  32.296  33.404  1.00  0.00    -0.248 NA
ATOM     43  C   UNL A   1      37.137  33.931  33.474  1.00  0.00     0.031 C 
ATOM     44  C   UNL A   1      37.304  31.021  29.389  1.00  0.00     0.029 A 
ATOM     45  N   UNL A   1      38.765  30.590  31.029  1.00  0.00    -0.354 N 
ATOM     46  C   UNL A   1      38.867  32.967  34.619  1.00  0.00     0.074 A 
ATOM     47  C   UNL A   1      37.830  33.976  34.602  1.00  0.00     0.031 C 
ATOM     48  C   UNL A   1      38.039  29.957  29.014  1.00  0.00     0.029 A 
ATOM     49  C   UNL A   1      39.054  29.687  30.033  1.00  0.00     0.049 A 
ATOM     50  H   UNL A   1      39.228  30.599  31.898  1.00  0.00     0.167 HD
ATOM     51  C   UNL A   1      39.714  32.763  35.653  1.00  0.00     0.037 A 
ATOM     52  C   UNL A   1      40.049  28.781  29.938  1.00  0.00     0.037 A 
ATOM     53  C   UNL A   1      40.739  31.754  35.681  1.00  0.00     0.049 A 
ATOM     54  C   UNL A   1      41.047  28.644  31.066  1.00  0.00     0.074 A 
ATOM     55  C   UNL A   1      41.619  31.451  36.705  1.00  0.00     0.029 A 
ATOM     56  N   UNL A   1      41.027  30.891  34.636  1.00  0.00    -0.354 N 
ATOM     57  N   UNL A   1      41.090  29.266  32.219  1.00  0.00    -0.248 NA
ATOM     58  C   UNL A   1      42.145  27.682  30.871  1.00  0.00     0.031 C 
ATOM     59  C   UNL A   1      42.483  30.448  36.256  1.00  0.00     0.029 A 
ATOM     60  C   UNL A   1      42.102  30.086  34.975  1.00  0.00     0.049 A 
ATOM     61  H   UNL A   1      40.540  30.856  33.782  1.00  0.00     0.167 HD
ATOM     62  C   UNL A   1      42.196  28.757  32.891  1.00  0.00     0.074 A 
ATOM     63  C   UNL A   1      42.787  27.759  32.028  1.00  0.00     0.031 C 
ATOM     64  C   UNL A   1      42.681  29.090  34.112  1.00  0.00     0.037 A 
BRANCH  51  65
ATOM     65  C   UNL A   1      39.603  33.672  36.839  1.00  0.00     0.064 A 
ATOM     66  C   UNL A   1      40.227  34.927  36.870  1.00  0.00     0.173 A 
ATOM     67  C   UNL A   1      38.793  33.310  37.927  1.00  0.00     0.173 A 
ATOM     68  F   UNL A   1      41.023  35.311  35.861  1.00  0.00    -0.203 F 
ATOM     69  C   UNL A   1      40.048  35.785  37.953  1.00  0.00     0.198 A 
ATOM     70  C   UNL A   1      38.596  34.180  38.994  1.00  0.00     0.198 A 
ATOM     71  F   UNL A   1      38.174  32.120  37.942  1.00  0.00    -0.203 F 
ATOM     72  F   UNL A   1      40.674  36.970  37.976  1.00  0.00    -0.200 F 
ATOM     73  C   UNL A   1      39.225  35.416  39.007  1.00  0.00     0.200 A 
ATOM     74  F   UNL A   1      37.791  33.827  40.004  1.00  0.00    -0.200 F 
ATOM     75  F   UNL A   1      39.038  36.252  40.037  1.00  0.00    -0.200 F 
ENDBRANCH  51  65
BRANCH  52  76
ATOM     76  C   UNL A   1      40.214  27.966  28.702  1.00  0.00     0.064 A 
ATOM     77  C   UNL A   1      39.646  26.689  28.588  1.00  0.00     0.173 A 
ATOM     78  C   UNL A   1      41.013  28.418  27.640  1.00  0.00     0.173 A 
ATOM     79  F   UNL A   1      38.908  26.195  29.592  1.00  0.00    -0.203 F 
ATOM     80  C   UNL A   1      39.895  25.885  27.476  1.00  0.00     0.198 A 
ATOM     81  C   UNL A   1      41.233  27.627  26.514  1.00  0.00     0.198 A 
ATOM     82  F   UNL A   1      41.595  29.625  27.701  1.00  0.00    -0.203 F 
ATOM     83  F   UNL A   1      39.401  24.641  27.429  1.00  0.00    -0.200 F 
ATOM     84  C   UNL A   1      40.685  26.356  26.439  1.00  0.00     0.200 A 
ATOM     85  F   UNL A   1      41.996  28.089  25.513  1.00  0.00    -0.200 F 
ATOM     86  F   UNL A   1      40.937  25.578  25.378  1.00  0.00    -0.200 F 
ENDBRANCH  52  76
BRANCH  64  87
ATOM     87  C   UNL A   1      43.898  28.359  34.605  1.00  0.00     0.064 A 
ATOM     88  C   UNL A   1      43.795  27.128  35.269  1.00  0.00     0.173 A 
ATOM     89  C   UNL A   1      45.183  28.867  34.359  1.00  0.00     0.173 A 
ATOM     90  F   UNL A   1      42.590  26.606  35.541  1.00  0.00    -0.203 F 
ATOM     91  C   UNL A   1      44.933  26.444  35.689  1.00  0.00     0.198 A 
ATOM     92  C   UNL A   1      46.319  28.164  34.752  1.00  0.00     0.198 A 
ATOM     93  F   UNL A   1      45.339  30.035  33.718  1.00  0.00    -0.203 F 
ATOM     94  F   UNL A   1      44.809  25.290  36.360  1.00  0.00    -0.200 F 
ATOM     95  C   UNL A   1      46.193  26.957  35.423  1.00  0.00     0.200 A 
ATOM     96  F   UNL A   1      47.537  28.653  34.478  1.00  0.00    -0.200 F 
ATOM     97  F   UNL A   1      47.288  26.290  35.816  1.00  0.00    -0.200 F 
ENDBRANCH  64  87
ENDBRANCH  38  39
ENDBRANCH  31  33
ENDBRANCH  30  31
ENDBRANCH  29  30
ENDBRANCH  28  29
ENDBRANCH  27  28
ENDBRANCH  26  27
ENDBRANCH   1  26
TORSDOF 21
ENDMDL
