MODEL 1
REMARK VINA RESULT:     -10.9      0.000      0.000
REMARK SMILES COCC[C@@]1(C(=O)OCCOCCOCCOC(=O)c2ccc(-c3c4nc(c(-c5c(F)c(F)c(F)c(F)c5F)c5ccc([nH]5)c(-c5c(F)c(F)c(F)c(F)c5F)c5nc(c(-c6c(F)c(F)c(F)c(F)c6F)c6ccc3[nH]6)C=C5)C=C4)cc2)CCCN(C(=O)c2ccc3c(c2)CCCO3)C1
REMARK SMILES IDX 12 1 11 2 10 3 9 4 8 5 6 6 7 7 5 8 83 9 99 10 84 11 86 12
REMARK SMILES IDX 85 13 4 14 3 15 2 16 1 17 87 18 88 19 89 20 90 21 94 22
REMARK SMILES IDX 91 23 93 24 92 25 95 26 98 27 96 28 97 29 13 30 14 31 15 32
REMARK SMILES IDX 16 33 17 34 18 35 19 36 20 37 21 38 82 39 22 40 81 41 23 42
REMARK SMILES IDX 24 43 25 44 75 45 26 46 80 47 74 48 76 49 27 50 79 51 73 52
REMARK SMILES IDX 72 53 28 55 60 56 40 57 59 58 41 59 44 60 58 61 77 62 42 63
REMARK SMILES IDX 43 64 57 66 78 67 45 68 29 69 30 70 38 71 31 72 32 73 36 74
REMARK SMILES IDX 39 75 33 76 34 77 37 78 35 79 61 80 62 81 70 82 63 83 64 84
REMARK SMILES IDX 68 85 71 86 65 87 66 88 69 89 67 90 46 91 47 92 55 93 48 94
REMARK SMILES IDX 49 95 53 96 56 97 50 98 51 99 54 100 52 101
REMARK H PARENT 76 54 44 65
REMARK Flexibility Score: inf
ROOT
ATOM      1  C   UNL A   1      32.114  29.796  25.374  1.00  0.00     0.188 C 
ENDROOT
BRANCH   1   2
ATOM      2  O   UNL A   1      33.211  28.942  25.094  1.00  0.00    -0.376 OA
BRANCH   2   3
ATOM      3  C   UNL A   1      33.659  28.904  23.739  1.00  0.00     0.202 C 
BRANCH   3   4
ATOM      4  C   UNL A   1      34.016  27.496  23.258  1.00  0.00     0.261 C 
BRANCH   4   5
ATOM      5  O   UNL A   1      33.183  26.565  23.962  1.00  0.00    -0.463 OA
BRANCH   5   6
ATOM      6  C   UNL A   1      32.169  25.888  23.367  1.00  0.00     0.314 C 
ATOM      7  O   UNL A   1      32.232  25.318  22.287  1.00  0.00    -0.252 OA
BRANCH   6   8
ATOM      8  C   UNL A   1      30.985  25.861  24.349  1.00  0.00     0.088 C 
ATOM      9  C   UNL A   1      31.415  25.947  25.838  1.00  0.00     0.022 C 
ATOM     10  C   UNL A   1      30.282  24.487  24.132  1.00  0.00     0.138 C 
ATOM     11  C   UNL A   1      32.116  24.705  26.388  1.00  0.00     0.023 C 
ATOM     12  N   UNL A   1      31.120  23.384  24.621  1.00  0.00    -0.337 N 
ATOM     13  C   UNL A   1      31.357  23.430  26.056  1.00  0.00     0.120 C 
BRANCH   8  14
ATOM     14  C   UNL A   1      30.188  27.183  24.036  1.00  0.00     0.049 C 
BRANCH  14  15
ATOM     15  C   UNL A   1      30.282  27.804  22.647  1.00  0.00     0.161 C 
BRANCH  15  16
ATOM     16  O   UNL A   1      29.133  28.587  22.383  1.00  0.00    -0.385 OA
ATOM     17  C   UNL A   1      29.122  29.814  23.104  1.00  0.00     0.194 C 
ENDBRANCH  15  16
ENDBRANCH  14  15
ENDBRANCH   8  14
BRANCH  12  18
ATOM     18  C   UNL A   1      31.821  22.594  23.708  1.00  0.00     0.253 C 
ATOM     19  O   UNL A   1      31.387  22.283  22.601  1.00  0.00    -0.269 OA
BRANCH  18  20
ATOM     20  C   UNL A   1      33.184  22.132  24.036  1.00  0.00     0.040 A 
ATOM     21  C   UNL A   1      33.345  20.866  24.617  1.00  0.00     0.017 A 
ATOM     22  C   UNL A   1      34.289  22.963  23.821  1.00  0.00     0.021 A 
ATOM     23  C   UNL A   1      34.618  20.419  24.972  1.00  0.00     0.047 A 
ATOM     24  C   UNL A   1      35.562  22.507  24.164  1.00  0.00    -0.005 A 
ATOM     25  C   UNL A   1      35.711  21.254  24.764  1.00  0.00     0.122 A 
ATOM     26  C   UNL A   1      36.808  23.278  23.867  1.00  0.00     0.043 C 
ATOM     27  O   UNL A   1      36.956  20.811  25.118  1.00  0.00    -0.493 OA
ATOM     28  C   UNL A   1      37.706  23.218  25.089  1.00  0.00     0.046 C 
ATOM     29  C   UNL A   1      37.732  21.836  25.756  1.00  0.00     0.230 C 
ENDBRANCH  18  20
ENDBRANCH  12  18
ENDBRANCH   6   8
ENDBRANCH   5   6
ENDBRANCH   4   5
ENDBRANCH   3   4
ENDBRANCH   2   3
ENDBRANCH   1   2
BRANCH   1  30
ATOM     30  C   UNL A   1      32.052  30.338  26.820  1.00  0.00     0.188 C 
BRANCH  30  31
ATOM     31  O   UNL A   1      33.234  30.644  27.537  1.00  0.00    -0.376 OA
BRANCH  31  32
ATOM     32  C   UNL A   1      33.639  32.000  27.625  1.00  0.00     0.202 C 
BRANCH  32  33
ATOM     33  C   UNL A   1      32.545  33.076  27.689  1.00  0.00     0.261 C 
BRANCH  33  34
ATOM     34  O   UNL A   1      33.008  34.437  27.565  1.00  0.00    -0.460 OA
BRANCH  34  35
ATOM     35  C   UNL A   1      33.118  35.129  28.724  1.00  0.00     0.338 C 
ATOM     36  O   UNL A   1      32.350  35.976  29.161  1.00  0.00    -0.246 OA
BRANCH  35  37
ATOM     37  C   UNL A   1      34.245  34.619  29.531  1.00  0.00     0.060 A 
ATOM     38  C   UNL A   1      35.535  34.657  28.981  1.00  0.00     0.016 A 
ATOM     39  C   UNL A   1      34.029  34.009  30.768  1.00  0.00     0.016 A 
ATOM     40  C   UNL A   1      36.608  34.066  29.652  1.00  0.00     0.010 A 
ATOM     41  C   UNL A   1      35.102  33.396  31.429  1.00  0.00     0.010 A 
ATOM     42  C   UNL A   1      36.391  33.395  30.861  1.00  0.00    -0.014 A 
BRANCH  42  43
ATOM     43  C   UNL A   1      37.470  32.560  31.451  1.00  0.00     0.031 A 
ATOM     44  C   UNL A   1      38.010  32.919  32.809  1.00  0.00     0.074 A 
ATOM     45  C   UNL A   1      37.959  31.490  30.800  1.00  0.00     0.049 A 
ATOM     46  N   UNL A   1      38.987  32.371  33.489  1.00  0.00    -0.248 NA
ATOM     47  C   UNL A   1      37.361  34.049  33.491  1.00  0.00     0.031 C 
ATOM     48  C   UNL A   1      37.496  31.007  29.502  1.00  0.00     0.029 A 
ATOM     49  N   UNL A   1      38.969  30.624  31.144  1.00  0.00    -0.354 N 
ATOM     50  C   UNL A   1      39.074  33.094  34.672  1.00  0.00     0.074 A 
ATOM     51  C   UNL A   1      38.069  34.134  34.608  1.00  0.00     0.031 C 
ATOM     52  C   UNL A   1      38.234  29.940  29.147  1.00  0.00     0.029 A 
ATOM     53  C   UNL A   1      39.241  29.687  30.177  1.00  0.00     0.049 A 
ATOM     54  H   UNL A   1      39.451  30.670  32.001  1.00  0.00     0.167 HD
ATOM     55  C   UNL A   1      39.912  32.904  35.721  1.00  0.00     0.037 A 
ATOM     56  C   UNL A   1      40.210  28.751  30.120  1.00  0.00     0.037 A 
ATOM     57  C   UNL A   1      40.914  31.874  35.787  1.00  0.00     0.049 A 
ATOM     58  C   UNL A   1      41.183  28.611  31.264  1.00  0.00     0.074 A 
ATOM     59  C   UNL A   1      41.795  31.592  36.818  1.00  0.00     0.029 A 
ATOM     60  N   UNL A   1      41.181  30.964  34.775  1.00  0.00    -0.354 N 
ATOM     61  N   UNL A   1      41.240  29.278  32.390  1.00  0.00    -0.248 NA
ATOM     62  C   UNL A   1      42.225  27.582  31.126  1.00  0.00     0.031 C 
ATOM     63  C   UNL A   1      42.629  30.547  36.407  1.00  0.00     0.029 A 
ATOM     64  C   UNL A   1      42.231  30.138  35.145  1.00  0.00     0.049 A 
ATOM     65  H   UNL A   1      40.695  30.911  33.920  1.00  0.00     0.167 HD
ATOM     66  C   UNL A   1      42.299  28.733  33.106  1.00  0.00     0.074 A 
ATOM     67  C   UNL A   1      42.852  27.671  32.291  1.00  0.00     0.031 C 
ATOM     68  C   UNL A   1      42.769  29.078  34.331  1.00  0.00     0.037 A 
BRANCH  55  69
ATOM     69  C   UNL A   1      39.799  33.858  36.876  1.00  0.00     0.064 A 
ATOM     70  C   UNL A   1      38.993  33.578  37.988  1.00  0.00     0.173 A 
ATOM     71  C   UNL A   1      40.534  35.054  36.881  1.00  0.00     0.173 A 
ATOM     72  F   UNL A   1      38.262  32.453  38.027  1.00  0.00    -0.203 F 
ATOM     73  C   UNL A   1      38.904  34.472  39.052  1.00  0.00     0.198 A 
ATOM     74  C   UNL A   1      40.465  35.932  37.958  1.00  0.00     0.198 A 
ATOM     75  F   UNL A   1      41.324  35.367  35.843  1.00  0.00    -0.203 F 
ATOM     76  F   UNL A   1      38.091  34.208  40.083  1.00  0.00    -0.200 F 
ATOM     77  C   UNL A   1      39.645  35.646  39.039  1.00  0.00     0.200 A 
ATOM     78  F   UNL A   1      41.192  37.058  37.949  1.00  0.00    -0.200 F 
ATOM     79  F   UNL A   1      39.563  36.503  40.065  1.00  0.00    -0.200 F 
ENDBRANCH  55  69
BRANCH  56  80
ATOM     80  C   UNL A   1      40.324  27.875  28.924  1.00  0.00     0.064 A 
ATOM     81  C   UNL A   1      39.658  26.643  28.862  1.00  0.00     0.173 A 
ATOM     82  C   UNL A   1      41.119  28.243  27.827  1.00  0.00     0.173 A 
ATOM     83  F   UNL A   1      38.910  26.235  29.897  1.00  0.00    -0.203 F 
ATOM     84  C   UNL A   1      39.796  25.805  27.757  1.00  0.00     0.198 A 
ATOM     85  C   UNL A   1      41.233  27.417  26.711  1.00  0.00     0.198 A 
ATOM     86  F   UNL A   1      41.780  29.410  27.839  1.00  0.00    -0.203 F 
ATOM     87  F   UNL A   1      39.186  24.613  27.744  1.00  0.00    -0.200 F 
ATOM     88  C   UNL A   1      40.578  26.196  26.680  1.00  0.00     0.200 A 
ATOM     89  F   UNL A   1      41.981  27.804  25.669  1.00  0.00    -0.200 F 
ATOM     90  F   UNL A   1      40.706  25.392  25.615  1.00  0.00    -0.200 F 
ENDBRANCH  56  80
BRANCH  68  91
ATOM     91  C   UNL A   1      43.912  28.279  34.890  1.00  0.00     0.064 A 
ATOM     92  C   UNL A   1      43.703  27.097  35.617  1.00  0.00     0.173 A 
ATOM     93  C   UNL A   1      45.238  28.677  34.655  1.00  0.00     0.173 A 
ATOM     94  F   UNL A   1      42.456  26.679  35.882  1.00  0.00    -0.203 F 
ATOM     95  C   UNL A   1      44.777  26.357  36.106  1.00  0.00     0.198 A 
ATOM     96  C   UNL A   1      46.309  27.919  35.119  1.00  0.00     0.198 A 
ATOM     97  F   UNL A   1      45.494  29.796  33.960  1.00  0.00    -0.203 F 
ATOM     98  F   UNL A   1      44.552  25.256  36.836  1.00  0.00    -0.200 F 
ATOM     99  C   UNL A   1      46.078  26.764  35.850  1.00  0.00     0.200 A 
ATOM    100  F   UNL A   1      47.565  28.307  34.858  1.00  0.00    -0.200 F 
ATOM    101  F   UNL A   1      47.111  26.046  36.313  1.00  0.00    -0.200 F 
ENDBRANCH  68  91
ENDBRANCH  42  43
ENDBRANCH  35  37
ENDBRANCH  34  35
ENDBRANCH  33  34
ENDBRANCH  32  33
ENDBRANCH  31  32
ENDBRANCH  30  31
ENDBRANCH   1  30
TORSDOF 22
ENDMDL
MODEL 2
REMARK VINA RESULT:     -10.8      4.401      6.533
REMARK SMILES COCC[C@@]1(C(=O)OCCOCCOCCOC(=O)c2ccc(-c3c4nc(c(-c5c(F)c(F)c(F)c(F)c5F)c5ccc([nH]5)c(-c5c(F)c(F)c(F)c(F)c5F)c5nc(c(-c6c(F)c(F)c(F)c(F)c6F)c6ccc3[nH]6)C=C5)C=C4)cc2)CCCN(C(=O)c2ccc3c(c2)CCCO3)C1
REMARK SMILES IDX 12 1 11 2 10 3 9 4 8 5 6 6 7 7 5 8 83 9 99 10 84 11 86 12
REMARK SMILES IDX 85 13 4 14 3 15 2 16 1 17 87 18 88 19 89 20 90 21 94 22
REMARK SMILES IDX 91 23 93 24 92 25 95 26 98 27 96 28 97 29 13 30 14 31 15 32
REMARK SMILES IDX 16 33 17 34 18 35 19 36 20 37 21 38 82 39 22 40 81 41 23 42
REMARK SMILES IDX 24 43 25 44 75 45 26 46 80 47 74 48 76 49 27 50 79 51 73 52
REMARK SMILES IDX 72 53 28 55 60 56 40 57 59 58 41 59 44 60 58 61 77 62 42 63
REMARK SMILES IDX 43 64 57 66 78 67 45 68 29 69 30 70 38 71 31 72 32 73 36 74
REMARK SMILES IDX 39 75 33 76 34 77 37 78 35 79 61 80 62 81 70 82 63 83 64 84
REMARK SMILES IDX 68 85 71 86 65 87 66 88 69 89 67 90 46 91 47 92 55 93 48 94
REMARK SMILES IDX 49 95 53 96 56 97 50 98 51 99 54 100 52 101
REMARK H PARENT 76 54 44 65
REMARK Flexibility Score: inf
ROOT
ATOM      1  C   UNL A   1      34.191  30.870  27.254  1.00  0.00     0.188 C 
ENDROOT
BRANCH   1   2
ATOM      2  O   UNL A   1      33.091  30.385  26.502  1.00  0.00    -0.376 OA
BRANCH   2   3
ATOM      3  C   UNL A   1      31.927  30.016  27.243  1.00  0.00     0.202 C 
BRANCH   3   4
ATOM      4  C   UNL A   1      31.741  28.501  27.361  1.00  0.00     0.261 C 
BRANCH   4   5
ATOM      5  O   UNL A   1      31.921  27.932  26.058  1.00  0.00    -0.463 OA
BRANCH   5   6
ATOM      6  C   UNL A   1      31.159  26.913  25.586  1.00  0.00     0.314 C 
ATOM      7  O   UNL A   1      30.626  26.050  26.268  1.00  0.00    -0.252 OA
BRANCH   6   8
ATOM      8  C   UNL A   1      30.988  27.120  24.071  1.00  0.00     0.088 C 
ATOM      9  C   UNL A   1      30.069  26.063  23.402  1.00  0.00     0.022 C 
ATOM     10  C   UNL A   1      32.413  26.974  23.457  1.00  0.00     0.138 C 
ATOM     11  C   UNL A   1      30.654  24.653  23.313  1.00  0.00     0.023 C 
ATOM     12  N   UNL A   1      32.878  25.582  23.533  1.00  0.00    -0.337 N 
ATOM     13  C   UNL A   1      32.068  24.658  22.754  1.00  0.00     0.120 C 
BRANCH   8  14
ATOM     14  C   UNL A   1      30.243  28.503  23.948  1.00  0.00     0.049 C 
BRANCH  14  15
ATOM     15  C   UNL A   1      29.260  28.726  22.805  1.00  0.00     0.161 C 
BRANCH  15  16
ATOM     16  O   UNL A   1      29.457  30.006  22.234  1.00  0.00    -0.385 OA
ATOM     17  C   UNL A   1      28.375  30.413  21.404  1.00  0.00     0.194 C 
ENDBRANCH  15  16
ENDBRANCH  14  15
ENDBRANCH   8  14
BRANCH  12  18
ATOM     18  C   UNL A   1      33.814  25.220  24.504  1.00  0.00     0.253 C 
ATOM     19  O   UNL A   1      34.305  26.011  25.306  1.00  0.00    -0.269 OA
BRANCH  18  20
ATOM     20  C   UNL A   1      34.221  23.807  24.637  1.00  0.00     0.040 A 
ATOM     21  C   UNL A   1      35.422  23.393  24.042  1.00  0.00     0.017 A 
ATOM     22  C   UNL A   1      33.396  22.888  25.295  1.00  0.00     0.021 A 
ATOM     23  C   UNL A   1      35.812  22.055  24.120  1.00  0.00     0.047 A 
ATOM     24  C   UNL A   1      33.797  21.555  25.383  1.00  0.00    -0.005 A 
ATOM     25  C   UNL A   1      34.984  21.146  24.769  1.00  0.00     0.122 A 
ATOM     26  C   UNL A   1      33.039  20.529  26.163  1.00  0.00     0.043 C 
ATOM     27  O   UNL A   1      35.370  19.835  24.837  1.00  0.00    -0.493 OA
ATOM     28  C   UNL A   1      32.967  19.261  25.333  1.00  0.00     0.046 C 
ATOM     29  C   UNL A   1      34.276  18.937  24.602  1.00  0.00     0.230 C 
ENDBRANCH  18  20
ENDBRANCH  12  18
ENDBRANCH   6   8
ENDBRANCH   5   6
ENDBRANCH   4   5
ENDBRANCH   3   4
ENDBRANCH   2   3
ENDBRANCH   1   2
BRANCH   1  30
ATOM     30  C   UNL A   1      33.895  32.105  28.134  1.00  0.00     0.188 C 
BRANCH  30  31
ATOM     31  O   UNL A   1      34.137  33.416  27.658  1.00  0.00    -0.376 OA
BRANCH  31  32
ATOM     32  C   UNL A   1      34.618  34.389  28.572  1.00  0.00     0.202 C 
BRANCH  32  33
ATOM     33  C   UNL A   1      34.445  34.115  30.074  1.00  0.00     0.261 C 
BRANCH  33  34
ATOM     34  O   UNL A   1      35.651  33.750  30.778  1.00  0.00    -0.460 OA
BRANCH  34  35
ATOM     35  C   UNL A   1      35.617  32.562  31.426  1.00  0.00     0.338 C 
ATOM     36  O   UNL A   1      34.773  32.173  32.224  1.00  0.00    -0.246 OA
BRANCH  35  37
ATOM     37  C   UNL A   1      36.680  31.665  30.929  1.00  0.00     0.060 A 
ATOM     38  C   UNL A   1      37.444  30.950  31.862  1.00  0.00     0.016 A 
ATOM     39  C   UNL A   1      36.999  31.607  29.571  1.00  0.00     0.016 A 
ATOM     40  C   UNL A   1      38.544  30.194  31.447  1.00  0.00     0.010 A 
ATOM     41  C   UNL A   1      38.116  30.868  29.158  1.00  0.00     0.010 A 
ATOM     42  C   UNL A   1      38.912  30.182  30.096  1.00  0.00    -0.014 A 
BRANCH  42  43
ATOM     43  C   UNL A   1      40.211  29.588  29.685  1.00  0.00     0.031 A 
ATOM     44  C   UNL A   1      41.445  30.449  29.705  1.00  0.00     0.074 A 
ATOM     45  C   UNL A   1      40.301  28.301  29.309  1.00  0.00     0.049 A 
ATOM     46  N   UNL A   1      42.668  30.161  29.334  1.00  0.00    -0.248 NA
ATOM     47  C   UNL A   1      41.276  31.819  30.212  1.00  0.00     0.031 C 
ATOM     48  C   UNL A   1      39.195  27.348  29.286  1.00  0.00     0.029 A 
ATOM     49  N   UNL A   1      41.380  27.578  28.859  1.00  0.00    -0.354 N 
ATOM     50  C   UNL A   1      43.410  31.314  29.554  1.00  0.00     0.074 A 
ATOM     51  C   UNL A   1      42.497  32.313  30.068  1.00  0.00     0.031 C 
ATOM     52  C   UNL A   1      39.647  26.168  28.826  1.00  0.00     0.029 A 
ATOM     53  C   UNL A   1      41.065  26.293  28.491  1.00  0.00     0.049 A 
ATOM     54  H   UNL A   1      42.291  27.946  28.806  1.00  0.00     0.167 HD
ATOM     55  C   UNL A   1      44.735  31.520  29.352  1.00  0.00     0.037 A 
ATOM     56  C   UNL A   1      41.830  25.338  27.924  1.00  0.00     0.037 A 
ATOM     57  C   UNL A   1      45.644  30.532  28.838  1.00  0.00     0.049 A 
ATOM     58  C   UNL A   1      43.283  25.617  27.634  1.00  0.00     0.074 A 
ATOM     59  C   UNL A   1      47.008  30.643  28.620  1.00  0.00     0.029 A 
ATOM     60  N   UNL A   1      45.282  29.251  28.447  1.00  0.00    -0.354 N 
ATOM     61  N   UNL A   1      43.983  26.698  27.872  1.00  0.00    -0.248 NA
ATOM     62  C   UNL A   1      44.052  24.537  26.997  1.00  0.00     0.031 C 
ATOM     63  C   UNL A   1      47.458  29.449  28.047  1.00  0.00     0.029 A 
ATOM     64  C   UNL A   1      46.390  28.572  27.962  1.00  0.00     0.049 A 
ATOM     65  H   UNL A   1      44.373  28.879  28.506  1.00  0.00     0.167 HD
ATOM     66  C   UNL A   1      45.276  26.421  27.445  1.00  0.00     0.074 A 
ATOM     67  C   UNL A   1      45.267  25.063  26.941  1.00  0.00     0.031 C 
ATOM     68  C   UNL A   1      46.373  27.218  27.471  1.00  0.00     0.037 A 
BRANCH  55  69
ATOM     69  C   UNL A   1      45.275  32.887  29.661  1.00  0.00     0.064 A 
ATOM     70  C   UNL A   1      45.285  33.911  28.702  1.00  0.00     0.173 A 
ATOM     71  C   UNL A   1      45.760  33.184  30.944  1.00  0.00     0.173 A 
ATOM     72  F   UNL A   1      44.844  33.675  27.458  1.00  0.00    -0.203 F 
ATOM     73  C   UNL A   1      45.787  35.173  29.008  1.00  0.00     0.198 A 
ATOM     74  C   UNL A   1      46.233  34.455  31.255  1.00  0.00     0.198 A 
ATOM     75  F   UNL A   1      45.767  32.243  31.899  1.00  0.00    -0.203 F 
ATOM     76  F   UNL A   1      45.832  36.122  28.064  1.00  0.00    -0.200 F 
ATOM     77  C   UNL A   1      46.255  35.447  30.285  1.00  0.00     0.200 A 
ATOM     78  F   UNL A   1      46.673  34.720  32.493  1.00  0.00    -0.200 F 
ATOM     79  F   UNL A   1      46.732  36.664  30.580  1.00  0.00    -0.200 F 
ENDBRANCH  55  69
BRANCH  56  80
ATOM     80  C   UNL A   1      41.232  24.023  27.573  1.00  0.00     0.064 A 
ATOM     81  C   UNL A   1      41.648  22.845  28.209  1.00  0.00     0.173 A 
ATOM     82  C   UNL A   1      40.247  23.914  26.579  1.00  0.00     0.173 A 
ATOM     83  F   UNL A   1      42.606  22.893  29.145  1.00  0.00    -0.203 F 
ATOM     84  C   UNL A   1      41.114  21.607  27.853  1.00  0.00     0.198 A 
ATOM     85  C   UNL A   1      39.694  22.680  26.244  1.00  0.00     0.198 A 
ATOM     86  F   UNL A   1      39.818  25.011  25.937  1.00  0.00    -0.203 F 
ATOM     87  F   UNL A   1      41.563  20.493  28.444  1.00  0.00    -0.200 F 
ATOM     88  C   UNL A   1      40.133  21.527  26.875  1.00  0.00     0.200 A 
ATOM     89  F   UNL A   1      38.740  22.609  25.306  1.00  0.00    -0.200 F 
ATOM     90  F   UNL A   1      39.618  20.337  26.536  1.00  0.00    -0.200 F 
ENDBRANCH  56  80
BRANCH  68  91
ATOM     91  C   UNL A   1      47.669  26.637  26.982  1.00  0.00     0.064 A 
ATOM     92  C   UNL A   1      48.125  26.843  25.671  1.00  0.00     0.173 A 
ATOM     93  C   UNL A   1      48.490  25.901  27.852  1.00  0.00     0.173 A 
ATOM     94  F   UNL A   1      47.373  27.527  24.795  1.00  0.00    -0.203 F 
ATOM     95  C   UNL A   1      49.342  26.317  25.244  1.00  0.00     0.198 A 
ATOM     96  C   UNL A   1      49.720  25.402  27.430  1.00  0.00     0.198 A 
ATOM     97  F   UNL A   1      48.105  25.679  29.118  1.00  0.00    -0.203 F 
ATOM     98  F   UNL A   1      49.735  26.489  23.974  1.00  0.00    -0.200 F 
ATOM     99  C   UNL A   1      50.141  25.604  26.125  1.00  0.00     0.200 A 
ATOM    100  F   UNL A   1      50.496  24.726  28.288  1.00  0.00    -0.200 F 
ATOM    101  F   UNL A   1      51.316  25.106  25.715  1.00  0.00    -0.200 F 
ENDBRANCH  68  91
ENDBRANCH  42  43
ENDBRANCH  35  37
ENDBRANCH  34  35
ENDBRANCH  33  34
ENDBRANCH  32  33
ENDBRANCH  31  32
ENDBRANCH  30  31
ENDBRANCH   1  30
TORSDOF 22
ENDMDL
MODEL 3
REMARK VINA RESULT:     -10.6      2.051      7.567
REMARK SMILES COCC[C@@]1(C(=O)OCCOCCOCCOC(=O)c2ccc(-c3c4nc(c(-c5c(F)c(F)c(F)c(F)c5F)c5ccc([nH]5)c(-c5c(F)c(F)c(F)c(F)c5F)c5nc(c(-c6c(F)c(F)c(F)c(F)c6F)c6ccc3[nH]6)C=C5)C=C4)cc2)CCCN(C(=O)c2ccc3c(c2)CCCO3)C1
REMARK SMILES IDX 12 1 11 2 10 3 9 4 8 5 6 6 7 7 5 8 83 9 99 10 84 11 86 12
REMARK SMILES IDX 85 13 4 14 3 15 2 16 1 17 87 18 88 19 89 20 90 21 94 22
REMARK SMILES IDX 91 23 93 24 92 25 95 26 98 27 96 28 97 29 13 30 14 31 15 32
REMARK SMILES IDX 16 33 17 34 18 35 19 36 20 37 21 38 82 39 22 40 81 41 23 42
REMARK SMILES IDX 24 43 25 44 75 45 26 46 80 47 74 48 76 49 27 50 79 51 73 52
REMARK SMILES IDX 72 53 28 55 60 56 40 57 59 58 41 59 44 60 58 61 77 62 42 63
REMARK SMILES IDX 43 64 57 66 78 67 45 68 29 69 30 70 38 71 31 72 32 73 36 74
REMARK SMILES IDX 39 75 33 76 34 77 37 78 35 79 61 80 62 81 70 82 63 83 64 84
REMARK SMILES IDX 68 85 71 86 65 87 66 88 69 89 67 90 46 91 47 92 55 93 48 94
REMARK SMILES IDX 49 95 53 96 56 97 50 98 51 99 54 100 52 101
REMARK H PARENT 76 54 44 65
REMARK Flexibility Score: inf
ROOT
ATOM      1  C   UNL A   1      31.193  28.046  22.981  1.00  0.00     0.188 C 
ENDROOT
BRANCH   1   2
ATOM      2  O   UNL A   1      31.993  26.889  22.803  1.00  0.00    -0.376 OA
BRANCH   2   3
ATOM      3  C   UNL A   1      31.689  26.073  21.671  1.00  0.00     0.202 C 
BRANCH   3   4
ATOM      4  C   UNL A   1      32.644  24.889  21.503  1.00  0.00     0.261 C 
BRANCH   4   5
ATOM      5  O   UNL A   1      32.573  24.094  22.693  1.00  0.00    -0.463 OA
BRANCH   5   6
ATOM      6  C   UNL A   1      33.483  23.133  22.993  1.00  0.00     0.314 C 
ATOM      7  O   UNL A   1      34.642  23.107  22.608  1.00  0.00    -0.252 OA
BRANCH   6   8
ATOM      8  C   UNL A   1      32.828  22.167  23.996  1.00  0.00     0.088 C 
ATOM      9  C   UNL A   1      31.621  22.784  24.752  1.00  0.00     0.022 C 
ATOM     10  C   UNL A   1      33.931  21.832  25.046  1.00  0.00     0.138 C 
ATOM     11  C   UNL A   1      31.974  23.869  25.770  1.00  0.00     0.023 C 
ATOM     12  N   UNL A   1      34.230  23.000  25.885  1.00  0.00    -0.337 N 
ATOM     13  C   UNL A   1      33.102  23.437  26.693  1.00  0.00     0.120 C 
BRANCH   8  14
ATOM     14  C   UNL A   1      32.251  21.006  23.101  1.00  0.00     0.049 C 
BRANCH  14  15
ATOM     15  C   UNL A   1      32.521  19.557  23.486  1.00  0.00     0.161 C 
BRANCH  15  16
ATOM     16  O   UNL A   1      32.048  19.303  24.796  1.00  0.00    -0.385 OA
ATOM     17  C   UNL A   1      32.544  18.084  25.336  1.00  0.00     0.194 C 
ENDBRANCH  15  16
ENDBRANCH  14  15
ENDBRANCH   8  14
BRANCH  12  18
ATOM     18  C   UNL A   1      35.394  23.736  25.652  1.00  0.00     0.253 C 
ATOM     19  O   UNL A   1      35.402  24.939  25.402  1.00  0.00    -0.269 OA
BRANCH  18  20
ATOM     20  C   UNL A   1      36.710  23.075  25.754  1.00  0.00     0.040 A 
ATOM     21  C   UNL A   1      36.857  21.782  25.231  1.00  0.00     0.017 A 
ATOM     22  C   UNL A   1      37.774  23.704  26.410  1.00  0.00     0.021 A 
ATOM     23  C   UNL A   1      38.079  21.119  25.347  1.00  0.00     0.047 A 
ATOM     24  C   UNL A   1      38.998  23.043  26.511  1.00  0.00    -0.005 A 
ATOM     25  C   UNL A   1      39.130  21.746  26.007  1.00  0.00     0.122 A 
ATOM     26  C   UNL A   1      40.219  23.681  27.092  1.00  0.00     0.043 C 
ATOM     27  O   UNL A   1      40.324  21.088  26.122  1.00  0.00    -0.493 OA
ATOM     28  C   UNL A   1      40.897  22.670  27.999  1.00  0.00     0.046 C 
ATOM     29  C   UNL A   1      40.905  21.248  27.424  1.00  0.00     0.230 C 
ENDBRANCH  18  20
ENDBRANCH  12  18
ENDBRANCH   6   8
ENDBRANCH   5   6
ENDBRANCH   4   5
ENDBRANCH   3   4
ENDBRANCH   2   3
ENDBRANCH   1   2
BRANCH   1  30
ATOM     30  C   UNL A   1      31.327  28.733  24.359  1.00  0.00     0.188 C 
BRANCH  30  31
ATOM     31  O   UNL A   1      31.124  28.010  25.559  1.00  0.00    -0.376 OA
BRANCH  31  32
ATOM     32  C   UNL A   1      31.773  28.459  26.737  1.00  0.00     0.202 C 
BRANCH  32  33
ATOM     33  C   UNL A   1      32.032  29.966  26.887  1.00  0.00     0.261 C 
BRANCH  33  34
ATOM     34  O   UNL A   1      33.378  30.394  26.587  1.00  0.00    -0.460 OA
BRANCH  34  35
ATOM     35  C   UNL A   1      33.840  31.436  27.318  1.00  0.00     0.338 C 
ATOM     36  O   UNL A   1      33.231  32.450  27.637  1.00  0.00    -0.246 OA
BRANCH  35  37
ATOM     37  C   UNL A   1      35.184  31.141  27.856  1.00  0.00     0.060 A 
ATOM     38  C   UNL A   1      35.457  29.838  28.297  1.00  0.00     0.016 A 
ATOM     39  C   UNL A   1      36.130  32.152  28.028  1.00  0.00     0.016 A 
ATOM     40  C   UNL A   1      36.666  29.546  28.934  1.00  0.00     0.010 A 
ATOM     41  C   UNL A   1      37.333  31.863  28.687  1.00  0.00     0.010 A 
ATOM     42  C   UNL A   1      37.595  30.567  29.170  1.00  0.00    -0.014 A 
BRANCH  42  43
ATOM     43  C   UNL A   1      38.762  30.318  30.056  1.00  0.00     0.031 A 
ATOM     44  C   UNL A   1      39.911  29.497  29.537  1.00  0.00     0.074 A 
ATOM     45  C   UNL A   1      38.812  30.822  31.302  1.00  0.00     0.049 A 
ATOM     46  N   UNL A   1      41.000  29.105  30.150  1.00  0.00    -0.248 NA
ATOM     47  C   UNL A   1      39.818  29.058  28.136  1.00  0.00     0.031 C 
ATOM     48  C   UNL A   1      37.790  31.668  31.912  1.00  0.00     0.029 A 
ATOM     49  N   UNL A   1      39.763  30.678  32.283  1.00  0.00    -0.354 N 
ATOM     50  C   UNL A   1      41.716  28.369  29.215  1.00  0.00     0.074 A 
ATOM     51  C   UNL A   1      40.927  28.347  28.001  1.00  0.00     0.031 C 
ATOM     52  C   UNL A   1      38.159  31.954  33.174  1.00  0.00     0.029 A 
ATOM     53  C   UNL A   1      39.425  31.284  33.469  1.00  0.00     0.049 A 
ATOM     54  H   UNL A   1      40.606  30.188  32.149  1.00  0.00     0.167 HD
ATOM     55  C   UNL A   1      42.924  27.770  29.353  1.00  0.00     0.037 A 
ATOM     56  C   UNL A   1      40.054  31.275  34.661  1.00  0.00     0.037 A 
ATOM     57  C   UNL A   1      43.708  27.786  30.559  1.00  0.00     0.049 A 
ATOM     58  C   UNL A   1      41.358  30.533  34.814  1.00  0.00     0.074 A 
ATOM     59  C   UNL A   1      44.954  27.224  30.785  1.00  0.00     0.029 A 
ATOM     60  N   UNL A   1      43.318  28.383  31.747  1.00  0.00    -0.354 N 
ATOM     61  N   UNL A   1      42.042  29.865  33.918  1.00  0.00    -0.248 NA
ATOM     62  C   UNL A   1      41.978  30.550  36.147  1.00  0.00     0.031 C 
ATOM     63  C   UNL A   1      45.292  27.436  32.126  1.00  0.00     0.029 A 
ATOM     64  C   UNL A   1      44.286  28.179  32.720  1.00  0.00     0.049 A 
ATOM     65  H   UNL A   1      42.479  28.880  31.882  1.00  0.00     0.167 HD
ATOM     66  C   UNL A   1      43.183  29.408  34.566  1.00  0.00     0.074 A 
ATOM     67  C   UNL A   1      43.105  29.885  35.932  1.00  0.00     0.031 C 
ATOM     68  C   UNL A   1      44.205  28.665  34.074  1.00  0.00     0.037 A 
BRANCH  55  69
ATOM     69  C   UNL A   1      43.459  27.015  28.170  1.00  0.00     0.064 A 
ATOM     70  C   UNL A   1      43.347  25.620  28.073  1.00  0.00     0.173 A 
ATOM     71  C   UNL A   1      44.063  27.701  27.105  1.00  0.00     0.173 A 
ATOM     72  F   UNL A   1      42.789  24.916  29.069  1.00  0.00    -0.203 F 
ATOM     73  C   UNL A   1      43.846  24.937  26.966  1.00  0.00     0.198 A 
ATOM     74  C   UNL A   1      44.533  27.018  25.987  1.00  0.00     0.198 A 
ATOM     75  F   UNL A   1      44.189  29.035  27.145  1.00  0.00    -0.203 F 
ATOM     76  F   UNL A   1      43.772  23.600  26.916  1.00  0.00    -0.200 F 
ATOM     77  C   UNL A   1      44.433  25.636  25.922  1.00  0.00     0.200 A 
ATOM     78  F   UNL A   1      45.088  27.698  24.974  1.00  0.00    -0.200 F 
ATOM     79  F   UNL A   1      44.907  24.979  24.855  1.00  0.00    -0.200 F 
ENDBRANCH  55  69
BRANCH  56  80
ATOM     80  C   UNL A   1      39.449  31.980  35.822  1.00  0.00     0.064 A 
ATOM     81  C   UNL A   1      38.515  31.343  36.650  1.00  0.00     0.173 A 
ATOM     82  C   UNL A   1      39.777  33.313  36.114  1.00  0.00     0.173 A 
ATOM     83  F   UNL A   1      38.147  30.079  36.396  1.00  0.00    -0.203 F 
ATOM     84  C   UNL A   1      37.920  32.017  37.716  1.00  0.00     0.198 A 
ATOM     85  C   UNL A   1      39.204  33.976  37.196  1.00  0.00     0.198 A 
ATOM     86  F   UNL A   1      40.663  33.969  35.349  1.00  0.00    -0.203 F 
ATOM     87  F   UNL A   1      36.996  31.399  38.463  1.00  0.00    -0.200 F 
ATOM     88  C   UNL A   1      38.270  33.331  37.991  1.00  0.00     0.200 A 
ATOM     89  F   UNL A   1      39.552  35.242  37.464  1.00  0.00    -0.200 F 
ATOM     90  F   UNL A   1      37.701  33.977  39.019  1.00  0.00    -0.200 F 
ENDBRANCH  56  80
BRANCH  68  91
ATOM     91  C   UNL A   1      45.347  28.351  34.998  1.00  0.00     0.064 A 
ATOM     92  C   UNL A   1      45.377  27.178  35.766  1.00  0.00     0.173 A 
ATOM     93  C   UNL A   1      46.450  29.216  35.081  1.00  0.00     0.173 A 
ATOM     94  F   UNL A   1      44.342  26.324  35.735  1.00  0.00    -0.203 F 
ATOM     95  C   UNL A   1      46.457  26.893  36.598  1.00  0.00     0.198 A 
ATOM     96  C   UNL A   1      47.542  28.913  35.891  1.00  0.00     0.198 A 
ATOM     97  F   UNL A   1      46.476  30.349  34.363  1.00  0.00    -0.203 F 
ATOM     98  F   UNL A   1      46.443  25.787  37.357  1.00  0.00    -0.200 F 
ATOM     99  C   UNL A   1      47.541  27.755  36.654  1.00  0.00     0.200 A 
ATOM    100  F   UNL A   1      48.594  29.742  35.932  1.00  0.00    -0.200 F 
ATOM    101  F   UNL A   1      48.584  27.475  37.448  1.00  0.00    -0.200 F 
ENDBRANCH  68  91
ENDBRANCH  42  43
ENDBRANCH  35  37
ENDBRANCH  34  35
ENDBRANCH  33  34
ENDBRANCH  32  33
ENDBRANCH  31  32
ENDBRANCH  30  31
ENDBRANCH   1  30
TORSDOF 22
ENDMDL
