MODEL 1
REMARK VINA RESULT:     -11.0      0.000      0.000
REMARK SMILES CCc1cc(OC(F)(F)F)cc2c1O[C@@H](C(F)(F)F)C(C(=O)OCCOCCOCCOC(=O)c1ccc(-c3c4nc(c(-c5c(F)c(F)c(F)c(F)c5F)c5ccc([nH]5)c(-c5c(F)c(F)c(F)c(F)c5F)c5nc(c(-c6c(F)c(F)c(F)c(F)c6F)c6ccc3[nH]6)C=C5)C=C4)cc1)=C2
REMARK SMILES IDX 27 1 26 2 25 3 24 4 23 5 21 6 22 7 20 8 3 9 4 10 13 11 5 12
REMARK SMILES IDX 12 13 14 14 11 15 98 16 15 17 2 18 1 19 6 20 7 21 8 22 9 23
REMARK SMILES IDX 10 24 16 25 17 26 18 27 19 28 28 29 29 30 30 31 31 32 32 33
REMARK SMILES IDX 33 34 34 35 35 36 36 37 97 38 37 39 96 40 38 41 39 42 40 43
REMARK SMILES IDX 90 44 41 45 95 46 89 47 91 48 42 49 94 50 88 51 87 52 43 54
REMARK SMILES IDX 75 55 55 56 74 57 56 58 59 59 73 60 92 61 57 62 58 63 72 65
REMARK SMILES IDX 93 66 60 67 44 68 45 69 53 70 46 71 47 72 51 73 54 74 48 75
REMARK SMILES IDX 49 76 52 77 50 78 76 79 77 80 85 81 78 82 79 83 83 84 86 85
REMARK SMILES IDX 80 86 81 87 84 88 82 89 61 90 62 91 70 92 63 93 64 94 68 95
REMARK SMILES IDX 71 96 65 97 66 98 69 99 67 100
REMARK H PARENT 91 53 59 64
REMARK Flexibility Score: inf
ROOT
ATOM      1  C   UNL A   1      34.495  31.258  27.865  1.00  0.00     0.188 C 
ENDROOT
BRANCH   1   2
ATOM      2  O   UNL A   1      33.202  31.048  27.344  1.00  0.00    -0.376 OA
BRANCH   2   3
ATOM      3  C   UNL A   1      32.968  30.222  26.219  1.00  0.00     0.202 C 
BRANCH   3   4
ATOM      4  C   UNL A   1      33.454  28.771  26.098  1.00  0.00     0.261 C 
BRANCH   4   5
ATOM      5  O   UNL A   1      32.593  27.880  25.388  1.00  0.00    -0.460 OA
BRANCH   5   6
ATOM      6  C   UNL A   1      32.107  26.845  26.124  1.00  0.00     0.338 C 
ATOM      7  O   UNL A   1      31.333  26.915  27.050  1.00  0.00    -0.246 OA
BRANCH   6   8
ATOM      8  C   UNL A   1      32.568  25.563  25.561  1.00  0.00     0.087 C 
ATOM      9  C   UNL A   1      33.249  21.624  24.356  1.00  0.00    -0.002 A 
ATOM     10  C   UNL A   1      34.458  21.001  24.714  1.00  0.00     0.054 A 
ATOM     11  C   UNL A   1      33.022  22.939  24.779  1.00  0.00     0.131 A 
ATOM     12  C   UNL A   1      35.405  21.665  25.499  1.00  0.00     0.130 A 
ATOM     13  C   UNL A   1      33.966  23.620  25.564  1.00  0.00     0.021 A 
ATOM     14  O   UNL A   1      31.817  23.513  24.459  1.00  0.00    -0.475 OA
ATOM     15  C   UNL A   1      35.160  22.981  25.907  1.00  0.00     0.058 A 
ATOM     16  C   UNL A   1      33.632  24.943  26.094  1.00  0.00     0.027 C 
ATOM     17  C   UNL A   1      31.832  24.961  24.388  1.00  0.00     0.316 C 
BRANCH   9  18
ATOM     18  C   UNL A   1      32.230  20.861  23.541  1.00  0.00     0.036 C 
ATOM     19  C   UNL A   1      32.526  19.367  23.487  1.00  0.00     0.009 C 
ENDBRANCH   9  18
BRANCH  12  20
ATOM     20  O   UNL A   1      36.592  21.144  25.930  1.00  0.00    -0.406 OA
BRANCH  20  21
ATOM     21  C   UNL A   1      37.654  21.084  24.988  1.00  0.00     0.573 C 
ATOM     22  F   UNL A   1      37.362  21.787  23.872  1.00  0.00    -0.132 F 
ATOM     23  F   UNL A   1      38.802  21.549  25.527  1.00  0.00    -0.132 F 
ATOM     24  F   UNL A   1      37.848  19.795  24.633  1.00  0.00    -0.132 F 
ENDBRANCH  20  21
ENDBRANCH  12  20
BRANCH  17  25
ATOM     25  C   UNL A   1      30.399  25.439  24.092  1.00  0.00     0.430 C 
ATOM     26  F   UNL A   1      29.807  24.669  23.148  1.00  0.00    -0.167 F 
ATOM     27  F   UNL A   1      29.626  25.310  25.203  1.00  0.00    -0.167 F 
ATOM     28  F   UNL A   1      30.332  26.728  23.710  1.00  0.00    -0.167 F 
ENDBRANCH  17  25
ENDBRANCH   6   8
ENDBRANCH   5   6
ENDBRANCH   4   5
ENDBRANCH   3   4
ENDBRANCH   2   3
ENDBRANCH   1   2
BRANCH   1  29
ATOM     29  C   UNL A   1      35.082  32.679  27.991  1.00  0.00     0.188 C 
BRANCH  29  30
ATOM     30  O   UNL A   1      34.284  33.828  27.789  1.00  0.00    -0.376 OA
BRANCH  30  31
ATOM     31  C   UNL A   1      34.373  34.914  28.696  1.00  0.00     0.202 C 
BRANCH  31  32
ATOM     32  C   UNL A   1      33.108  35.594  29.229  1.00  0.00     0.261 C 
BRANCH  32  33
ATOM     33  O   UNL A   1      32.530  34.961  30.379  1.00  0.00    -0.460 OA
BRANCH  33  34
ATOM     34  C   UNL A   1      32.798  35.573  31.558  1.00  0.00     0.338 C 
ATOM     35  O   UNL A   1      32.154  36.454  32.102  1.00  0.00    -0.246 OA
BRANCH  34  36
ATOM     36  C   UNL A   1      33.930  34.906  32.225  1.00  0.00     0.060 A 
ATOM     37  C   UNL A   1      35.151  35.589  32.270  1.00  0.00     0.016 A 
ATOM     38  C   UNL A   1      33.826  33.601  32.711  1.00  0.00     0.016 A 
ATOM     39  C   UNL A   1      36.287  34.953  32.765  1.00  0.00     0.010 A 
ATOM     40  C   UNL A   1      34.972  32.957  33.191  1.00  0.00     0.010 A 
ATOM     41  C   UNL A   1      36.213  33.618  33.185  1.00  0.00    -0.014 A 
BRANCH  41  42
ATOM     42  C   UNL A   1      37.472  32.881  33.451  1.00  0.00     0.031 A 
ATOM     43  C   UNL A   1      38.217  33.151  34.729  1.00  0.00     0.074 A 
ATOM     44  C   UNL A   1      37.913  31.939  32.600  1.00  0.00     0.049 A 
ATOM     45  N   UNL A   1      39.304  32.589  35.194  1.00  0.00    -0.248 NA
ATOM     46  C   UNL A   1      37.657  34.193  35.605  1.00  0.00     0.031 C 
ATOM     47  C   UNL A   1      37.265  31.561  31.347  1.00  0.00     0.029 A 
ATOM     48  N   UNL A   1      39.016  31.124  32.672  1.00  0.00    -0.354 N 
ATOM     49  C   UNL A   1      39.553  33.201  36.415  1.00  0.00     0.074 A 
ATOM     50  C   UNL A   1      38.527  34.203  36.604  1.00  0.00     0.031 C 
ATOM     51  C   UNL A   1      37.985  30.588  30.762  1.00  0.00     0.029 A 
ATOM     52  C   UNL A   1      39.153  30.290  31.590  1.00  0.00     0.049 A 
ATOM     53  H   UNL A   1      39.648  31.136  33.427  1.00  0.00     0.167 HD
ATOM     54  C   UNL A   1      40.541  32.943  37.306  1.00  0.00     0.037 A 
ATOM     55  C   UNL A   1      40.118  29.395  31.301  1.00  0.00     0.037 A 
ATOM     56  C   UNL A   1      41.568  31.953  37.117  1.00  0.00     0.049 A 
ATOM     57  C   UNL A   1      41.242  29.173  32.279  1.00  0.00     0.074 A 
ATOM     58  C   UNL A   1      42.602  31.607  37.972  1.00  0.00     0.029 A 
ATOM     59  N   UNL A   1      41.698  31.155  35.991  1.00  0.00    -0.354 N 
ATOM     60  N   UNL A   1      41.448  29.726  33.450  1.00  0.00    -0.248 NA
ATOM     61  C   UNL A   1      42.268  28.190  31.896  1.00  0.00     0.031 C 
ATOM     62  C   UNL A   1      43.385  30.635  37.340  1.00  0.00     0.029 A 
ATOM     63  C   UNL A   1      42.809  30.337  36.116  1.00  0.00     0.049 A 
ATOM     64  H   UNL A   1      41.089  31.169  35.217  1.00  0.00     0.167 HD
ATOM     65  C   UNL A   1      42.603  29.141  33.954  1.00  0.00     0.074 A 
ATOM     66  C   UNL A   1      43.046  28.178  32.969  1.00  0.00     0.031 C 
ATOM     67  C   UNL A   1      43.238  29.379  35.129  1.00  0.00     0.037 A 
BRANCH  54  68
ATOM     68  C   UNL A   1      40.567  33.763  38.562  1.00  0.00     0.064 A 
ATOM     69  C   UNL A   1      41.367  34.910  38.675  1.00  0.00     0.173 A 
ATOM     70  C   UNL A   1      39.760  33.415  39.654  1.00  0.00     0.173 A 
ATOM     71  F   UNL A   1      42.168  35.277  37.663  1.00  0.00    -0.203 F 
ATOM     72  C   UNL A   1      41.375  35.665  39.845  1.00  0.00     0.198 A 
ATOM     73  C   UNL A   1      39.750  34.187  40.813  1.00  0.00     0.198 A 
ATOM     74  F   UNL A   1      38.974  32.329  39.596  1.00  0.00    -0.203 F 
ATOM     75  F   UNL A   1      42.180  36.732  39.946  1.00  0.00    -0.200 F 
ATOM     76  C   UNL A   1      40.563  35.307  40.910  1.00  0.00     0.200 A 
ATOM     77  F   UNL A   1      38.956  33.846  41.837  1.00  0.00    -0.200 F 
ATOM     78  F   UNL A   1      40.566  36.037  42.033  1.00  0.00    -0.200 F 
ENDBRANCH  54  68
BRANCH  55  79
ATOM     79  C   UNL A   1      40.065  28.635  30.026  1.00  0.00     0.064 A 
ATOM     80  C   UNL A   1      39.445  27.379  29.955  1.00  0.00     0.173 A 
ATOM     81  C   UNL A   1      40.662  29.136  28.860  1.00  0.00     0.173 A 
ATOM     82  F   UNL A   1      38.888  26.845  31.053  1.00  0.00    -0.203 F 
ATOM     83  C   UNL A   1      39.441  26.646  28.771  1.00  0.00     0.198 A 
ATOM     84  C   UNL A   1      40.633  28.413  27.669  1.00  0.00     0.198 A 
ATOM     85  F   UNL A   1      41.275  30.329  28.878  1.00  0.00    -0.203 F 
ATOM     86  F   UNL A   1      38.889  25.426  28.743  1.00  0.00    -0.200 F 
ATOM     87  C   UNL A   1      40.031  27.165  27.628  1.00  0.00     0.200 A 
ATOM     88  F   UNL A   1      41.201  28.920  26.567  1.00  0.00    -0.200 F 
ATOM     89  F   UNL A   1      40.031  26.457  26.490  1.00  0.00    -0.200 F 
ENDBRANCH  55  79
BRANCH  67  90
ATOM     90  C   UNL A   1      44.463  28.562  35.427  1.00  0.00     0.064 A 
ATOM     91  C   UNL A   1      45.747  28.999  35.066  1.00  0.00     0.173 A 
ATOM     92  C   UNL A   1      44.353  27.339  36.106  1.00  0.00     0.173 A 
ATOM     93  F   UNL A   1      45.906  30.155  34.404  1.00  0.00    -0.203 F 
ATOM     94  C   UNL A   1      46.871  28.226  35.347  1.00  0.00     0.198 A 
ATOM     95  C   UNL A   1      45.483  26.584  36.412  1.00  0.00     0.198 A 
ATOM     96  F   UNL A   1      43.150  26.880  36.482  1.00  0.00    -0.203 F 
ATOM     97  F   UNL A   1      48.083  28.637  34.946  1.00  0.00    -0.200 F 
ATOM     98  C   UNL A   1      46.739  27.022  36.024  1.00  0.00     0.200 A 
ATOM     99  F   UNL A   1      45.353  25.428  37.079  1.00  0.00    -0.200 F 
ATOM    100  F   UNL A   1      47.822  26.282  36.294  1.00  0.00    -0.200 F 
ENDBRANCH  67  90
ENDBRANCH  41  42
ENDBRANCH  34  36
ENDBRANCH  33  34
ENDBRANCH  32  33
ENDBRANCH  31  32
ENDBRANCH  30  31
ENDBRANCH  29  30
ENDBRANCH   1  29
TORSDOF 21
ENDMDL
MODEL 2
REMARK VINA RESULT:     -10.5      0.919      2.176
REMARK SMILES CCc1cc(OC(F)(F)F)cc2c1O[C@@H](C(F)(F)F)C(C(=O)OCCOCCOCCOC(=O)c1ccc(-c3c4nc(c(-c5c(F)c(F)c(F)c(F)c5F)c5ccc([nH]5)c(-c5c(F)c(F)c(F)c(F)c5F)c5nc(c(-c6c(F)c(F)c(F)c(F)c6F)c6ccc3[nH]6)C=C5)C=C4)cc1)=C2
REMARK SMILES IDX 27 1 26 2 25 3 24 4 23 5 21 6 22 7 20 8 3 9 4 10 13 11 5 12
REMARK SMILES IDX 12 13 14 14 11 15 98 16 15 17 2 18 1 19 6 20 7 21 8 22 9 23
REMARK SMILES IDX 10 24 16 25 17 26 18 27 19 28 28 29 29 30 30 31 31 32 32 33
REMARK SMILES IDX 33 34 34 35 35 36 36 37 97 38 37 39 96 40 38 41 39 42 40 43
REMARK SMILES IDX 90 44 41 45 95 46 89 47 91 48 42 49 94 50 88 51 87 52 43 54
REMARK SMILES IDX 75 55 55 56 74 57 56 58 59 59 73 60 92 61 57 62 58 63 72 65
REMARK SMILES IDX 93 66 60 67 44 68 45 69 53 70 46 71 47 72 51 73 54 74 48 75
REMARK SMILES IDX 49 76 52 77 50 78 76 79 77 80 85 81 78 82 79 83 83 84 86 85
REMARK SMILES IDX 80 86 81 87 84 88 82 89 61 90 62 91 70 92 63 93 64 94 68 95
REMARK SMILES IDX 71 96 65 97 66 98 69 99 67 100
REMARK H PARENT 91 53 59 64
REMARK Flexibility Score: inf
ROOT
ATOM      1  C   UNL A   1      35.028  32.647  28.533  1.00  0.00     0.188 C 
ENDROOT
BRANCH   1   2
ATOM      2  O   UNL A   1      34.292  31.446  28.493  1.00  0.00    -0.376 OA
BRANCH   2   3
ATOM      3  C   UNL A   1      33.927  30.826  27.274  1.00  0.00     0.202 C 
BRANCH   3   4
ATOM      4  C   UNL A   1      33.989  29.313  27.023  1.00  0.00     0.261 C 
BRANCH   4   5
ATOM      5  O   UNL A   1      33.015  28.789  26.119  1.00  0.00    -0.460 OA
BRANCH   5   6
ATOM      6  C   UNL A   1      32.295  27.739  26.598  1.00  0.00     0.338 C 
ATOM      7  O   UNL A   1      31.436  27.778  27.448  1.00  0.00    -0.246 OA
BRANCH   6   8
ATOM      8  C   UNL A   1      32.621  26.516  25.844  1.00  0.00     0.087 C 
ATOM      9  C   UNL A   1      32.883  22.756  24.047  1.00  0.00    -0.002 A 
ATOM     10  C   UNL A   1      34.010  21.955  24.305  1.00  0.00     0.054 A 
ATOM     11  C   UNL A   1      32.796  24.008  24.667  1.00  0.00     0.131 A 
ATOM     12  C   UNL A   1      35.011  22.381  25.182  1.00  0.00     0.130 A 
ATOM     13  C   UNL A   1      33.796  24.451  25.548  1.00  0.00     0.021 A 
ATOM     14  O   UNL A   1      31.668  24.755  24.440  1.00  0.00    -0.475 OA
ATOM     15  C   UNL A   1      34.906  23.638  25.789  1.00  0.00     0.058 A 
ATOM     16  C   UNL A   1      33.601  25.706  26.276  1.00  0.00     0.027 C 
ATOM     17  C   UNL A   1      31.843  26.186  24.593  1.00  0.00     0.316 C 
BRANCH   9  18
ATOM     18  C   UNL A   1      31.800  22.245  23.124  1.00  0.00     0.036 C 
ATOM     19  C   UNL A   1      32.155  20.903  22.496  1.00  0.00     0.009 C 
ENDBRANCH   9  18
BRANCH  12  20
ATOM     20  O   UNL A   1      36.126  21.670  25.528  1.00  0.00    -0.406 OA
BRANCH  20  21
ATOM     21  C   UNL A   1      37.345  22.024  24.889  1.00  0.00     0.573 C 
ATOM     22  F   UNL A   1      37.788  23.229  25.310  1.00  0.00    -0.132 F 
ATOM     23  F   UNL A   1      38.294  21.091  25.111  1.00  0.00    -0.132 F 
ATOM     24  F   UNL A   1      37.131  22.098  23.557  1.00  0.00    -0.132 F 
ENDBRANCH  20  21
ENDBRANCH  12  20
BRANCH  17  25
ATOM     25  C   UNL A   1      30.477  26.860  24.374  1.00  0.00     0.430 C 
ATOM     26  F   UNL A   1      29.923  26.482  23.197  1.00  0.00    -0.167 F 
ATOM     27  F   UNL A   1      29.601  26.460  25.334  1.00  0.00    -0.167 F 
ATOM     28  F   UNL A   1      30.529  28.205  24.421  1.00  0.00    -0.167 F 
ENDBRANCH  17  25
ENDBRANCH   6   8
ENDBRANCH   5   6
ENDBRANCH   4   5
ENDBRANCH   3   4
ENDBRANCH   2   3
ENDBRANCH   1   2
BRANCH   1  29
ATOM     29  C   UNL A   1      34.394  33.985  28.100  1.00  0.00     0.188 C 
BRANCH  29  30
ATOM     30  O   UNL A   1      33.166  34.429  28.642  1.00  0.00    -0.376 OA
BRANCH  30  31
ATOM     31  C   UNL A   1      32.903  35.819  28.743  1.00  0.00     0.202 C 
BRANCH  31  32
ATOM     32  C   UNL A   1      32.545  36.451  30.091  1.00  0.00     0.261 C 
BRANCH  32  33
ATOM     33  O   UNL A   1      32.259  35.510  31.136  1.00  0.00    -0.460 OA
BRANCH  33  34
ATOM     34  C   UNL A   1      33.016  35.653  32.250  1.00  0.00     0.338 C 
ATOM     35  O   UNL A   1      32.757  36.308  33.246  1.00  0.00    -0.246 OA
BRANCH  34  36
ATOM     36  C   UNL A   1      34.178  34.750  32.189  1.00  0.00     0.060 A 
ATOM     37  C   UNL A   1      34.122  33.568  32.938  1.00  0.00     0.016 A 
ATOM     38  C   UNL A   1      35.337  35.096  31.492  1.00  0.00     0.016 A 
ATOM     39  C   UNL A   1      35.242  32.745  33.027  1.00  0.00     0.010 A 
ATOM     40  C   UNL A   1      36.468  34.277  31.596  1.00  0.00     0.010 A 
ATOM     41  C   UNL A   1      36.435  33.119  32.394  1.00  0.00    -0.014 A 
BRANCH  41  42
ATOM     42  C   UNL A   1      37.679  32.380  32.718  1.00  0.00     0.031 A 
ATOM     43  C   UNL A   1      38.415  32.714  33.986  1.00  0.00     0.074 A 
ATOM     44  C   UNL A   1      38.115  31.383  31.929  1.00  0.00     0.049 A 
ATOM     45  N   UNL A   1      39.489  32.165  34.496  1.00  0.00    -0.248 NA
ATOM     46  C   UNL A   1      37.862  33.813  34.793  1.00  0.00     0.031 C 
ATOM     47  C   UNL A   1      37.475  30.942  30.692  1.00  0.00     0.029 A 
ATOM     48  N   UNL A   1      39.204  30.558  32.061  1.00  0.00    -0.354 N 
ATOM     49  C   UNL A   1      39.734  32.843  35.682  1.00  0.00     0.074 A 
ATOM     50  C   UNL A   1      38.721  33.870  35.800  1.00  0.00     0.031 C 
ATOM     51  C   UNL A   1      38.186  29.926  30.174  1.00  0.00     0.029 A 
ATOM     52  C   UNL A   1      39.339  29.660  31.032  1.00  0.00     0.049 A 
ATOM     53  H   UNL A   1      39.828  30.604  32.821  1.00  0.00     0.167 HD
ATOM     54  C   UNL A   1      40.708  32.624  36.597  1.00  0.00     0.037 A 
ATOM     55  C   UNL A   1      40.294  28.735  30.807  1.00  0.00     0.037 A 
ATOM     56  C   UNL A   1      41.721  31.609  36.479  1.00  0.00     0.049 A 
ATOM     57  C   UNL A   1      41.404  28.554  31.809  1.00  0.00     0.074 A 
ATOM     58  C   UNL A   1      42.741  31.299  37.364  1.00  0.00     0.029 A 
ATOM     59  N   UNL A   1      41.851  30.745  35.403  1.00  0.00    -0.354 N 
ATOM     60  N   UNL A   1      41.606  29.172  32.948  1.00  0.00    -0.248 NA
ATOM     61  C   UNL A   1      42.418  27.536  31.496  1.00  0.00     0.031 C 
ATOM     62  C   UNL A   1      43.516  30.279  36.799  1.00  0.00     0.029 A 
ATOM     63  C   UNL A   1      42.948  29.918  35.588  1.00  0.00     0.049 A 
ATOM     64  H   UNL A   1      41.251  30.722  34.622  1.00  0.00     0.167 HD
ATOM     65  C   UNL A   1      42.747  28.601  33.499  1.00  0.00     0.074 A 
ATOM     66  C   UNL A   1      43.185  27.575  32.577  1.00  0.00     0.031 C 
ATOM     67  C   UNL A   1      43.373  28.898  34.664  1.00  0.00     0.037 A 
BRANCH  54  68
ATOM     68  C   UNL A   1      40.733  33.515  37.803  1.00  0.00     0.064 A 
ATOM     69  C   UNL A   1      39.856  33.320  38.881  1.00  0.00     0.173 A 
ATOM     70  C   UNL A   1      41.667  34.557  37.897  1.00  0.00     0.173 A 
ATOM     71  F   UNL A   1      38.934  32.345  38.834  1.00  0.00    -0.203 F 
ATOM     72  C   UNL A   1      39.897  34.151  39.998  1.00  0.00     0.198 A 
ATOM     73  C   UNL A   1      41.722  35.370  39.026  1.00  0.00     0.198 A 
ATOM     74  F   UNL A   1      42.530  34.784  36.896  1.00  0.00    -0.203 F 
ATOM     75  F   UNL A   1      39.020  33.974  40.996  1.00  0.00    -0.200 F 
ATOM     76  C   UNL A   1      40.833  35.171  40.072  1.00  0.00     0.200 A 
ATOM     77  F   UNL A   1      42.636  36.348  39.101  1.00  0.00    -0.200 F 
ATOM     78  F   UNL A   1      40.876  35.966  41.149  1.00  0.00    -0.200 F 
ENDBRANCH  54  68
BRANCH  55  79
ATOM     79  C   UNL A   1      40.243  27.902  29.578  1.00  0.00     0.064 A 
ATOM     80  C   UNL A   1      40.937  28.278  28.419  1.00  0.00     0.173 A 
ATOM     81  C   UNL A   1      39.475  26.730  29.529  1.00  0.00     0.173 A 
ATOM     82  F   UNL A   1      41.660  29.408  28.408  1.00  0.00    -0.203 F 
ATOM     83  C   UNL A   1      40.847  27.523  27.252  1.00  0.00     0.198 A 
ATOM     84  C   UNL A   1      39.408  25.961  28.369  1.00  0.00     0.198 A 
ATOM     85  F   UNL A   1      38.786  26.332  30.609  1.00  0.00    -0.203 F 
ATOM     86  F   UNL A   1      41.477  27.932  26.142  1.00  0.00    -0.200 F 
ATOM     87  C   UNL A   1      40.087  26.363  27.228  1.00  0.00     0.200 A 
ATOM     88  F   UNL A   1      38.676  24.840  28.352  1.00  0.00    -0.200 F 
ATOM     89  F   UNL A   1      39.998  25.640  26.104  1.00  0.00    -0.200 F 
ENDBRANCH  55  79
BRANCH  67  90
ATOM     90  C   UNL A   1      44.582  28.082  35.024  1.00  0.00     0.064 A 
ATOM     91  C   UNL A   1      44.477  26.895  35.765  1.00  0.00     0.173 A 
ATOM     92  C   UNL A   1      45.859  28.479  34.601  1.00  0.00     0.173 A 
ATOM     93  F   UNL A   1      43.280  26.478  36.205  1.00  0.00    -0.203 F 
ATOM     94  C   UNL A   1      45.608  26.154  36.094  1.00  0.00     0.198 A 
ATOM     95  C   UNL A   1      46.985  27.719  34.906  1.00  0.00     0.198 A 
ATOM     96  F   UNL A   1      46.015  29.602  33.882  1.00  0.00    -0.203 F 
ATOM     97  F   UNL A   1      45.490  25.051  36.848  1.00  0.00    -0.200 F 
ATOM     98  C   UNL A   1      46.860  26.563  35.660  1.00  0.00     0.200 A 
ATOM     99  F   UNL A   1      48.192  28.109  34.473  1.00  0.00    -0.200 F 
ATOM    100  F   UNL A   1      47.948  25.847  35.977  1.00  0.00    -0.200 F 
ENDBRANCH  67  90
ENDBRANCH  41  42
ENDBRANCH  34  36
ENDBRANCH  33  34
ENDBRANCH  32  33
ENDBRANCH  31  32
ENDBRANCH  30  31
ENDBRANCH  29  30
ENDBRANCH   1  29
TORSDOF 21
ENDMDL
MODEL 3
REMARK VINA RESULT:     -10.3      1.279      7.256
REMARK SMILES CCc1cc(OC(F)(F)F)cc2c1O[C@@H](C(F)(F)F)C(C(=O)OCCOCCOCCOC(=O)c1ccc(-c3c4nc(c(-c5c(F)c(F)c(F)c(F)c5F)c5ccc([nH]5)c(-c5c(F)c(F)c(F)c(F)c5F)c5nc(c(-c6c(F)c(F)c(F)c(F)c6F)c6ccc3[nH]6)C=C5)C=C4)cc1)=C2
REMARK SMILES IDX 27 1 26 2 25 3 24 4 23 5 21 6 22 7 20 8 3 9 4 10 13 11 5 12
REMARK SMILES IDX 12 13 14 14 11 15 98 16 15 17 2 18 1 19 6 20 7 21 8 22 9 23
REMARK SMILES IDX 10 24 16 25 17 26 18 27 19 28 28 29 29 30 30 31 31 32 32 33
REMARK SMILES IDX 33 34 34 35 35 36 36 37 97 38 37 39 96 40 38 41 39 42 40 43
REMARK SMILES IDX 90 44 41 45 95 46 89 47 91 48 42 49 94 50 88 51 87 52 43 54
REMARK SMILES IDX 75 55 55 56 74 57 56 58 59 59 73 60 92 61 57 62 58 63 72 65
REMARK SMILES IDX 93 66 60 67 44 68 45 69 53 70 46 71 47 72 51 73 54 74 48 75
REMARK SMILES IDX 49 76 52 77 50 78 76 79 77 80 85 81 78 82 79 83 83 84 86 85
REMARK SMILES IDX 80 86 81 87 84 88 82 89 61 90 62 91 70 92 63 93 64 94 68 95
REMARK SMILES IDX 71 96 65 97 66 98 69 99 67 100
REMARK H PARENT 91 53 59 64
REMARK Flexibility Score: inf
ROOT
ATOM      1  C   UNL A   1      35.787  32.959  29.172  1.00  0.00     0.188 C 
ENDROOT
BRANCH   1   2
ATOM      2  O   UNL A   1      35.168  31.699  29.050  1.00  0.00    -0.376 OA
BRANCH   2   3
ATOM      3  C   UNL A   1      34.678  31.217  27.812  1.00  0.00     0.202 C 
BRANCH   3   4
ATOM      4  C   UNL A   1      34.492  29.731  27.478  1.00  0.00     0.261 C 
BRANCH   4   5
ATOM      5  O   UNL A   1      33.591  29.439  26.409  1.00  0.00    -0.460 OA
BRANCH   5   6
ATOM      6  C   UNL A   1      32.849  28.311  26.577  1.00  0.00     0.338 C 
ATOM      7  O   UNL A   1      31.953  28.146  27.372  1.00  0.00    -0.246 OA
BRANCH   6   8
ATOM      8  C   UNL A   1      33.207  27.312  25.555  1.00  0.00     0.087 C 
ATOM      9  C   UNL A   1      33.474  24.218  22.764  1.00  0.00    -0.002 A 
ATOM     10  C   UNL A   1      34.427  23.203  22.962  1.00  0.00     0.054 A 
ATOM     11  C   UNL A   1      33.380  25.243  23.714  1.00  0.00     0.131 A 
ATOM     12  C   UNL A   1      35.246  23.194  24.094  1.00  0.00     0.130 A 
ATOM     13  C   UNL A   1      34.199  25.249  24.854  1.00  0.00     0.021 A 
ATOM     14  O   UNL A   1      32.413  26.199  23.528  1.00  0.00    -0.475 OA
ATOM     15  C   UNL A   1      35.139  24.230  25.029  1.00  0.00     0.058 A 
ATOM     16  C   UNL A   1      33.977  26.264  25.886  1.00  0.00     0.027 C 
ATOM     17  C   UNL A   1      32.697  27.480  24.144  1.00  0.00     0.316 C 
BRANCH   9  18
ATOM     18  C   UNL A   1      32.577  24.173  21.548  1.00  0.00     0.036 C 
ATOM     19  C   UNL A   1      32.784  25.368  20.626  1.00  0.00     0.009 C 
ENDBRANCH   9  18
BRANCH  12  20
ATOM     20  O   UNL A   1      36.177  22.242  24.399  1.00  0.00    -0.406 OA
BRANCH  20  21
ATOM     21  C   UNL A   1      35.729  21.108  25.127  1.00  0.00     0.573 C 
ATOM     22  F   UNL A   1      35.575  21.395  26.438  1.00  0.00    -0.132 F 
ATOM     23  F   UNL A   1      34.565  20.641  24.627  1.00  0.00    -0.132 F 
ATOM     24  F   UNL A   1      36.655  20.129  25.019  1.00  0.00    -0.132 F 
ENDBRANCH  20  21
ENDBRANCH  12  20
BRANCH  17  25
ATOM     25  C   UNL A   1      31.491  28.404  23.900  1.00  0.00     0.430 C 
ATOM     26  F   UNL A   1      31.806  29.700  24.134  1.00  0.00    -0.167 F 
ATOM     27  F   UNL A   1      31.121  28.351  22.592  1.00  0.00    -0.167 F 
ATOM     28  F   UNL A   1      30.408  28.078  24.630  1.00  0.00    -0.167 F 
ENDBRANCH  17  25
ENDBRANCH   6   8
ENDBRANCH   5   6
ENDBRANCH   4   5
ENDBRANCH   3   4
ENDBRANCH   2   3
ENDBRANCH   1   2
BRANCH   1  29
ATOM     29  C   UNL A   1      34.989  34.262  28.961  1.00  0.00     0.188 C 
BRANCH  29  30
ATOM     30  O   UNL A   1      33.603  34.331  29.230  1.00  0.00    -0.376 OA
BRANCH  30  31
ATOM     31  C   UNL A   1      32.917  35.563  29.079  1.00  0.00     0.202 C 
BRANCH  31  32
ATOM     32  C   UNL A   1      32.526  36.396  30.303  1.00  0.00     0.261 C 
BRANCH  32  33
ATOM     33  O   UNL A   1      32.301  35.634  31.497  1.00  0.00    -0.460 OA
BRANCH  33  34
ATOM     34  C   UNL A   1      33.058  36.004  32.558  1.00  0.00     0.338 C 
ATOM     35  O   UNL A   1      32.782  36.820  33.420  1.00  0.00    -0.246 OA
BRANCH  34  36
ATOM     36  C   UNL A   1      34.252  35.145  32.647  1.00  0.00     0.060 A 
ATOM     37  C   UNL A   1      34.118  33.912  33.297  1.00  0.00     0.016 A 
ATOM     38  C   UNL A   1      35.499  35.576  32.192  1.00  0.00     0.016 A 
ATOM     39  C   UNL A   1      35.240  33.122  33.531  1.00  0.00     0.010 A 
ATOM     40  C   UNL A   1      36.629  34.790  32.444  1.00  0.00     0.010 A 
ATOM     41  C   UNL A   1      36.508  33.578  33.147  1.00  0.00    -0.014 A 
BRANCH  41  42
ATOM     42  C   UNL A   1      37.707  32.858  33.639  1.00  0.00     0.031 A 
ATOM     43  C   UNL A   1      38.325  31.795  32.773  1.00  0.00     0.074 A 
ATOM     44  C   UNL A   1      38.279  33.188  34.810  1.00  0.00     0.049 A 
ATOM     45  N   UNL A   1      39.401  31.077  32.975  1.00  0.00    -0.248 NA
ATOM     46  C   UNL A   1      37.638  31.505  31.504  1.00  0.00     0.031 C 
ATOM     47  C   UNL A   1      37.797  34.221  35.724  1.00  0.00     0.029 A 
ATOM     48  N   UNL A   1      39.397  32.684  35.426  1.00  0.00    -0.354 N 
ATOM     49  C   UNL A   1      39.525  30.260  31.860  1.00  0.00     0.074 A 
ATOM     50  C   UNL A   1      38.395  30.541  31.001  1.00  0.00     0.031 C 
ATOM     51  C   UNL A   1      38.614  34.273  36.790  1.00  0.00     0.029 A 
ATOM     52  C   UNL A   1      39.663  33.265  36.641  1.00  0.00     0.049 A 
ATOM     53  H   UNL A   1      39.956  31.975  35.034  1.00  0.00     0.167 HD
ATOM     54  C   UNL A   1      40.499  29.364  31.570  1.00  0.00     0.037 A 
ATOM     55  C   UNL A   1      40.639  33.003  37.533  1.00  0.00     0.037 A 
ATOM     56  C   UNL A   1      41.619  29.076  32.425  1.00  0.00     0.049 A 
ATOM     57  C   UNL A   1      41.674  31.955  37.216  1.00  0.00     0.074 A 
ATOM     58  C   UNL A   1      42.667  28.196  32.210  1.00  0.00     0.029 A 
ATOM     59  N   UNL A   1      41.834  29.654  33.667  1.00  0.00    -0.354 N 
ATOM     60  N   UNL A   1      41.807  31.216  36.141  1.00  0.00    -0.248 NA
ATOM     61  C   UNL A   1      42.703  31.712  38.238  1.00  0.00     0.031 C 
ATOM     62  C   UNL A   1      43.488  28.206  33.343  1.00  0.00     0.029 A 
ATOM     63  C   UNL A   1      42.981  29.132  34.241  1.00  0.00     0.049 A 
ATOM     64  H   UNL A   1      41.255  30.336  34.079  1.00  0.00     0.167 HD
ATOM     65  C   UNL A   1      42.945  30.444  36.344  1.00  0.00     0.074 A 
ATOM     66  C   UNL A   1      43.475  30.816  37.638  1.00  0.00     0.031 C 
ATOM     67  C   UNL A   1      43.501  29.513  35.530  1.00  0.00     0.037 A 
BRANCH  54  68
ATOM     68  C   UNL A   1      40.382  28.614  30.276  1.00  0.00     0.064 A 
ATOM     69  C   UNL A   1      39.585  27.465  30.161  1.00  0.00     0.173 A 
ATOM     70  C   UNL A   1      41.050  29.067  29.129  1.00  0.00     0.173 A 
ATOM     71  F   UNL A   1      38.937  26.982  31.233  1.00  0.00    -0.203 F 
ATOM     72  C   UNL A   1      39.481  26.783  28.951  1.00  0.00     0.198 A 
ATOM     73  C   UNL A   1      40.923  28.398  27.915  1.00  0.00     0.198 A 
ATOM     74  F   UNL A   1      41.822  30.162  29.185  1.00  0.00    -0.203 F 
ATOM     75  F   UNL A   1      38.749  25.663  28.876  1.00  0.00    -0.200 F 
ATOM     76  C   UNL A   1      40.144  27.254  27.828  1.00  0.00     0.200 A 
ATOM     77  F   UNL A   1      41.556  28.861  26.828  1.00  0.00    -0.200 F 
ATOM     78  F   UNL A   1      40.039  26.601  26.663  1.00  0.00    -0.200 F 
ENDBRANCH  54  68
BRANCH  55  79
ATOM     79  C   UNL A   1      40.688  33.749  38.817  1.00  0.00     0.064 A 
ATOM     80  C   UNL A   1      39.888  33.371  39.905  1.00  0.00     0.173 A 
ATOM     81  C   UNL A   1      41.513  34.872  38.970  1.00  0.00     0.173 A 
ATOM     82  F   UNL A   1      39.060  32.322  39.795  1.00  0.00    -0.203 F 
ATOM     83  C   UNL A   1      39.899  34.102  41.091  1.00  0.00     0.198 A 
ATOM     84  C   UNL A   1      41.542  35.585  40.167  1.00  0.00     0.198 A 
ATOM     85  F   UNL A   1      42.291  35.278  37.956  1.00  0.00    -0.203 F 
ATOM     86  F   UNL A   1      39.085  33.752  42.097  1.00  0.00    -0.200 F 
ATOM     87  C   UNL A   1      40.728  35.206  41.223  1.00  0.00     0.200 A 
ATOM     88  F   UNL A   1      42.348  36.649  40.291  1.00  0.00    -0.200 F 
ATOM     89  F   UNL A   1      40.733  35.910  42.363  1.00  0.00    -0.200 F 
ENDBRANCH  55  79
BRANCH  67  90
ATOM     90  C   UNL A   1      44.767  28.855  36.000  1.00  0.00     0.064 A 
ATOM     91  C   UNL A   1      44.755  27.602  36.634  1.00  0.00     0.173 A 
ATOM     92  C   UNL A   1      46.010  29.472  35.792  1.00  0.00     0.173 A 
ATOM     93  F   UNL A   1      43.593  26.976  36.869  1.00  0.00    -0.203 F 
ATOM     94  C   UNL A   1      45.937  27.009  37.068  1.00  0.00     0.198 A 
ATOM     95  C   UNL A   1      47.192  28.861  36.200  1.00  0.00     0.198 A 
ATOM     96  F   UNL A   1      46.078  30.666  35.182  1.00  0.00    -0.203 F 
ATOM     97  F   UNL A   1      45.898  25.837  37.719  1.00  0.00    -0.200 F 
ATOM     98  C   UNL A   1      47.155  27.636  36.847  1.00  0.00     0.200 A 
ATOM     99  F   UNL A   1      48.369  29.462  35.971  1.00  0.00    -0.200 F 
ATOM    100  F   UNL A   1      48.291  27.061  37.264  1.00  0.00    -0.200 F 
ENDBRANCH  67  90
ENDBRANCH  41  42
ENDBRANCH  34  36
ENDBRANCH  33  34
ENDBRANCH  32  33
ENDBRANCH  31  32
ENDBRANCH  30  31
ENDBRANCH  29  30
ENDBRANCH   1  29
TORSDOF 21
ENDMDL
