MODEL 1
REMARK VINA RESULT:     -11.1      0.000      0.000
REMARK SMILES CC(C)(C)C[N@H+]1[C@@H](C(=O)OCCOCCOCCOC(=O)c2ccc(-c3c4nc(c(-c5c(F)c(F)c(F)c(F)c5F)c5ccc([nH]5)c(-c5c(F)c(F)c(F)c(F)c5F)c5nc(c(-c6c(F)c(F)c(F)c(F)c6F)c6ccc3[nH]6)C=C5)C=C4)cc2)CC[C@H]2CCCC[C@@H]21
REMARK SMILES IDX 14 1 13 2 12 3 11 4 10 5 8 6 9 7 7 8 6 9 92 10 85 12 87 13
REMARK SMILES IDX 91 14 86 15 88 16 90 17 89 18 5 19 2 20 1 21 3 22 4 23 15 24
REMARK SMILES IDX 16 25 17 26 18 27 19 28 20 29 21 30 22 31 23 32 84 33 24 34
REMARK SMILES IDX 83 35 25 36 26 37 27 38 77 39 28 40 82 41 76 42 78 43 29 44
REMARK SMILES IDX 81 45 75 46 74 47 30 49 62 50 42 51 61 52 43 53 46 54 60 55
REMARK SMILES IDX 79 56 44 57 45 58 59 60 80 61 47 62 31 63 32 64 40 65 33 66
REMARK SMILES IDX 34 67 38 68 41 69 35 70 36 71 39 72 37 73 63 74 64 75 72 76
REMARK SMILES IDX 65 77 66 78 70 79 73 80 67 81 68 82 71 83 69 84 48 85 49 86
REMARK SMILES IDX 57 87 50 88 51 89 55 90 58 91 52 92 53 93 56 94 54 95
REMARK H PARENT 6 11 78 48 46 59
REMARK Flexibility Score: inf
ROOT
ATOM      1  C   UNL A   1      39.830  21.774  26.785  1.00  0.00     0.188 C 
ENDROOT
BRANCH   1   2
ATOM      2  O   UNL A   1      38.774  21.785  25.824  1.00  0.00    -0.376 OA
BRANCH   2   3
ATOM      3  C   UNL A   1      37.984  22.972  25.744  1.00  0.00     0.202 C 
BRANCH   3   4
ATOM      4  C   UNL A   1      36.516  22.745  25.370  1.00  0.00     0.261 C 
BRANCH   4   5
ATOM      5  O   UNL A   1      35.852  23.997  25.114  1.00  0.00    -0.459 OA
BRANCH   5   6
ATOM      6  C   UNL A   1      35.274  24.081  23.885  1.00  0.00     0.364 C 
ATOM      7  O   UNL A   1      35.544  23.331  22.953  1.00  0.00    -0.245 OA
BRANCH   6   8
ATOM      8  C   UNL A   1      34.162  25.145  23.837  1.00  0.00     0.295 C 
ATOM      9  N   UNL A   1      33.015  24.844  24.704  1.00  0.00    -0.320 N 
ATOM     10  C   UNL A   1      32.204  26.027  25.003  1.00  0.00     0.187 C 
ATOM     11  H   UNL A   1      33.442  24.605  25.599  1.00  0.00     0.349 HD
ATOM     12  C   UNL A   1      33.696  25.641  22.465  1.00  0.00     0.078 C 
ATOM     13  C   UNL A   1      32.369  27.150  23.949  1.00  0.00     0.048 C 
ATOM     14  C   UNL A   1      32.569  26.665  26.356  1.00  0.00     0.065 C 
ATOM     15  C   UNL A   1      32.456  26.561  22.557  1.00  0.00     0.016 C 
ATOM     16  C   UNL A   1      31.268  28.186  24.147  1.00  0.00     0.010 C 
ATOM     17  C   UNL A   1      31.631  27.846  26.660  1.00  0.00     0.006 C 
ATOM     18  C   UNL A   1      31.475  28.852  25.510  1.00  0.00     0.001 C 
BRANCH   9  19
ATOM     19  C   UNL A   1      32.343  23.541  24.564  1.00  0.00     0.269 C 
BRANCH  19  20
ATOM     20  C   UNL A   1      31.967  22.496  25.694  1.00  0.00     0.011 C 
ATOM     21  C   UNL A   1      30.579  22.723  26.314  1.00  0.00     0.017 C 
ATOM     22  C   UNL A   1      32.998  22.703  26.839  1.00  0.00     0.017 C 
ATOM     23  C   UNL A   1      32.104  21.019  25.285  1.00  0.00     0.017 C 
ENDBRANCH  19  20
ENDBRANCH   9  19
ENDBRANCH   6   8
ENDBRANCH   5   6
ENDBRANCH   4   5
ENDBRANCH   3   4
ENDBRANCH   2   3
ENDBRANCH   1   2
BRANCH   1  24
ATOM     24  C   UNL A   1      40.717  20.525  26.811  1.00  0.00     0.188 C 
BRANCH  24  25
ATOM     25  O   UNL A   1      41.420  20.380  25.579  1.00  0.00    -0.376 OA
BRANCH  25  26
ATOM     26  C   UNL A   1      42.821  20.165  25.777  1.00  0.00     0.202 C 
BRANCH  26  27
ATOM     27  C   UNL A   1      43.568  21.503  25.737  1.00  0.00     0.261 C 
BRANCH  27  28
ATOM     28  O   UNL A   1      42.831  22.553  25.074  1.00  0.00    -0.460 OA
BRANCH  28  29
ATOM     29  C   UNL A   1      43.446  23.747  25.021  1.00  0.00     0.338 C 
ATOM     30  O   UNL A   1      44.394  24.061  24.304  1.00  0.00    -0.246 OA
BRANCH  29  31
ATOM     31  C   UNL A   1      42.737  24.714  25.871  1.00  0.00     0.060 A 
ATOM     32  C   UNL A   1      42.945  26.068  25.626  1.00  0.00     0.016 A 
ATOM     33  C   UNL A   1      41.998  24.318  26.982  1.00  0.00     0.016 A 
ATOM     34  C   UNL A   1      42.488  27.035  26.524  1.00  0.00     0.010 A 
ATOM     35  C   UNL A   1      41.506  25.293  27.866  1.00  0.00     0.010 A 
ATOM     36  C   UNL A   1      41.784  26.662  27.674  1.00  0.00    -0.014 A 
BRANCH  36  37
ATOM     37  C   UNL A   1      41.468  27.665  28.736  1.00  0.00     0.031 A 
ATOM     38  C   UNL A   1      42.396  27.801  29.917  1.00  0.00     0.074 A 
ATOM     39  C   UNL A   1      40.414  28.503  28.659  1.00  0.00     0.049 A 
ATOM     40  N   UNL A   1      42.194  28.369  31.079  1.00  0.00    -0.248 NA
ATOM     41  C   UNL A   1      43.735  27.210  29.764  1.00  0.00     0.031 C 
ATOM     42  C   UNL A   1      39.487  28.609  27.534  1.00  0.00     0.029 A 
ATOM     43  N   UNL A   1      39.950  29.437  29.558  1.00  0.00    -0.354 N 
ATOM     44  C   UNL A   1      43.339  28.122  31.825  1.00  0.00     0.074 A 
ATOM     45  C   UNL A   1      44.248  27.386  30.974  1.00  0.00     0.031 C 
ATOM     46  C   UNL A   1      38.587  29.572  27.795  1.00  0.00     0.029 A 
ATOM     47  C   UNL A   1      38.806  30.080  29.146  1.00  0.00     0.049 A 
ATOM     48  H   UNL A   1      40.395  29.627  30.416  1.00  0.00     0.167 HD
ATOM     49  C   UNL A   1      43.598  28.463  33.111  1.00  0.00     0.037 A 
ATOM     50  C   UNL A   1      37.993  30.933  29.800  1.00  0.00     0.037 A 
ATOM     51  C   UNL A   1      42.731  29.268  33.930  1.00  0.00     0.049 A 
ATOM     52  C   UNL A   1      38.274  31.275  31.240  1.00  0.00     0.074 A 
ATOM     53  C   UNL A   1      42.885  29.635  35.256  1.00  0.00     0.029 A 
ATOM     54  N   UNL A   1      41.562  29.863  33.484  1.00  0.00    -0.354 N 
ATOM     55  N   UNL A   1      39.277  30.905  31.999  1.00  0.00    -0.248 NA
ATOM     56  C   UNL A   1      37.287  32.123  31.927  1.00  0.00     0.031 C 
ATOM     57  C   UNL A   1      41.798  30.440  35.618  1.00  0.00     0.029 A 
ATOM     58  C   UNL A   1      40.986  30.599  34.507  1.00  0.00     0.049 A 
ATOM     59  H   UNL A   1      41.195  29.776  32.575  1.00  0.00     0.167 HD
ATOM     60  C   UNL A   1      39.043  31.473  33.245  1.00  0.00     0.074 A 
ATOM     61  C   UNL A   1      37.817  32.235  33.136  1.00  0.00     0.031 C 
ATOM     62  C   UNL A   1      39.773  31.361  34.381  1.00  0.00     0.037 A 
BRANCH  49  63
ATOM     63  C   UNL A   1      44.844  27.909  33.734  1.00  0.00     0.064 A 
ATOM     64  C   UNL A   1      46.049  28.623  33.762  1.00  0.00     0.173 A 
ATOM     65  C   UNL A   1      44.816  26.641  34.335  1.00  0.00     0.173 A 
ATOM     66  F   UNL A   1      46.131  29.831  33.184  1.00  0.00    -0.203 F 
ATOM     67  C   UNL A   1      47.188  28.076  34.349  1.00  0.00     0.198 A 
ATOM     68  C   UNL A   1      45.949  26.108  34.943  1.00  0.00     0.198 A 
ATOM     69  F   UNL A   1      43.685  25.919  34.338  1.00  0.00    -0.203 F 
ATOM     70  F   UNL A   1      48.343  28.757  34.325  1.00  0.00    -0.200 F 
ATOM     71  C   UNL A   1      47.137  26.824  34.943  1.00  0.00     0.200 A 
ATOM     72  F   UNL A   1      45.893  24.902  35.524  1.00  0.00    -0.200 F 
ATOM     73  F   UNL A   1      48.233  26.302  35.509  1.00  0.00    -0.200 F 
ENDBRANCH  49  63
BRANCH  50  74
ATOM     74  C   UNL A   1      36.783  31.474  29.124  1.00  0.00     0.064 A 
ATOM     75  C   UNL A   1      35.676  30.656  28.862  1.00  0.00     0.173 A 
ATOM     76  C   UNL A   1      36.714  32.815  28.715  1.00  0.00     0.173 A 
ATOM     77  F   UNL A   1      35.707  29.359  29.200  1.00  0.00    -0.203 F 
ATOM     78  C   UNL A   1      34.549  31.157  28.211  1.00  0.00     0.198 A 
ATOM     79  C   UNL A   1      35.575  33.322  28.093  1.00  0.00     0.198 A 
ATOM     80  F   UNL A   1      37.752  33.636  28.930  1.00  0.00    -0.203 F 
ATOM     81  F   UNL A   1      33.520  30.343  27.935  1.00  0.00    -0.200 F 
ATOM     82  C   UNL A   1      34.496  32.491  27.837  1.00  0.00     0.200 A 
ATOM     83  F   UNL A   1      35.525  34.614  27.742  1.00  0.00    -0.200 F 
ATOM     84  F   UNL A   1      33.409  32.975  27.221  1.00  0.00    -0.200 F 
ENDBRANCH  50  74
BRANCH  62  85
ATOM     85  C   UNL A   1      39.283  32.098  35.591  1.00  0.00     0.064 A 
ATOM     86  C   UNL A   1      39.607  33.446  35.806  1.00  0.00     0.173 A 
ATOM     87  C   UNL A   1      38.442  31.465  36.517  1.00  0.00     0.173 A 
ATOM     88  F   UNL A   1      40.419  34.088  34.954  1.00  0.00    -0.203 F 
ATOM     89  C   UNL A   1      39.117  34.129  36.915  1.00  0.00     0.198 A 
ATOM     90  C   UNL A   1      37.939  32.157  37.615  1.00  0.00     0.198 A 
ATOM     91  F   UNL A   1      38.101  30.178  36.352  1.00  0.00    -0.203 F 
ATOM     92  F   UNL A   1      39.464  35.408  37.120  1.00  0.00    -0.200 F 
ATOM     93  C   UNL A   1      38.279  33.487  37.816  1.00  0.00     0.200 A 
ATOM     94  F   UNL A   1      37.124  31.538  38.481  1.00  0.00    -0.200 F 
ATOM     95  F   UNL A   1      37.805  34.148  38.881  1.00  0.00    -0.200 F 
ENDBRANCH  62  85
ENDBRANCH  36  37
ENDBRANCH  29  31
ENDBRANCH  28  29
ENDBRANCH  27  28
ENDBRANCH  26  27
ENDBRANCH  25  26
ENDBRANCH  24  25
ENDBRANCH   1  24
TORSDOF 19
ENDMDL
MODEL 2
REMARK VINA RESULT:     -10.7      4.996     10.230
REMARK SMILES CC(C)(C)C[N@H+]1[C@@H](C(=O)OCCOCCOCCOC(=O)c2ccc(-c3c4nc(c(-c5c(F)c(F)c(F)c(F)c5F)c5ccc([nH]5)c(-c5c(F)c(F)c(F)c(F)c5F)c5nc(c(-c6c(F)c(F)c(F)c(F)c6F)c6ccc3[nH]6)C=C5)C=C4)cc2)CC[C@H]2CCCC[C@@H]21
REMARK SMILES IDX 14 1 13 2 12 3 11 4 10 5 8 6 9 7 7 8 6 9 92 10 85 12 87 13
REMARK SMILES IDX 91 14 86 15 88 16 90 17 89 18 5 19 2 20 1 21 3 22 4 23 15 24
REMARK SMILES IDX 16 25 17 26 18 27 19 28 20 29 21 30 22 31 23 32 84 33 24 34
REMARK SMILES IDX 83 35 25 36 26 37 27 38 77 39 28 40 82 41 76 42 78 43 29 44
REMARK SMILES IDX 81 45 75 46 74 47 30 49 62 50 42 51 61 52 43 53 46 54 60 55
REMARK SMILES IDX 79 56 44 57 45 58 59 60 80 61 47 62 31 63 32 64 40 65 33 66
REMARK SMILES IDX 34 67 38 68 41 69 35 70 36 71 39 72 37 73 63 74 64 75 72 76
REMARK SMILES IDX 65 77 66 78 70 79 73 80 67 81 68 82 71 83 69 84 48 85 49 86
REMARK SMILES IDX 57 87 50 88 51 89 55 90 58 91 52 92 53 93 56 94 54 95
REMARK H PARENT 6 11 78 48 46 59
REMARK Flexibility Score: inf
ROOT
ATOM      1  C   UNL A   1      32.750  32.582  27.799  1.00  0.00     0.188 C 
ENDROOT
BRANCH   1   2
ATOM      2  O   UNL A   1      33.716  31.568  27.521  1.00  0.00    -0.376 OA
BRANCH   2   3
ATOM      3  C   UNL A   1      33.217  30.277  27.172  1.00  0.00     0.202 C 
BRANCH   3   4
ATOM      4  C   UNL A   1      34.216  29.130  27.346  1.00  0.00     0.261 C 
BRANCH   4   5
ATOM      5  O   UNL A   1      34.658  28.635  26.068  1.00  0.00    -0.459 OA
BRANCH   5   6
ATOM      6  C   UNL A   1      33.653  28.203  25.259  1.00  0.00     0.364 C 
ATOM      7  O   UNL A   1      33.258  28.823  24.277  1.00  0.00    -0.245 OA
BRANCH   6   8
ATOM      8  C   UNL A   1      33.154  26.800  25.648  1.00  0.00     0.295 C 
ATOM      9  N   UNL A   1      33.689  25.725  24.802  1.00  0.00    -0.320 N 
ATOM     10  C   UNL A   1      33.590  24.405  25.431  1.00  0.00     0.187 C 
ATOM     11  H   UNL A   1      34.692  25.911  24.776  1.00  0.00     0.349 HD
ATOM     12  C   UNL A   1      31.654  26.609  25.893  1.00  0.00     0.078 C 
ATOM     13  C   UNL A   1      32.492  24.342  26.522  1.00  0.00     0.048 C 
ATOM     14  C   UNL A   1      34.897  23.985  26.127  1.00  0.00     0.065 C 
ATOM     15  C   UNL A   1      31.270  25.124  26.090  1.00  0.00     0.016 C 
ATOM     16  C   UNL A   1      32.233  22.883  26.885  1.00  0.00     0.010 C 
ATOM     17  C   UNL A   1      34.767  22.560  26.693  1.00  0.00     0.006 C 
ATOM     18  C   UNL A   1      33.501  22.317  27.528  1.00  0.00     0.001 C 
BRANCH   9  19
ATOM     19  C   UNL A   1      33.531  25.826  23.341  1.00  0.00     0.269 C 
BRANCH  19  20
ATOM     20  C   UNL A   1      32.581  24.991  22.388  1.00  0.00     0.011 C 
ATOM     21  C   UNL A   1      31.202  24.687  22.997  1.00  0.00     0.017 C 
ATOM     22  C   UNL A   1      33.277  23.618  22.173  1.00  0.00     0.017 C 
ATOM     23  C   UNL A   1      32.394  25.578  20.979  1.00  0.00     0.017 C 
ENDBRANCH  19  20
ENDBRANCH   9  19
ENDBRANCH   6   8
ENDBRANCH   5   6
ENDBRANCH   4   5
ENDBRANCH   3   4
ENDBRANCH   2   3
ENDBRANCH   1   2
BRANCH   1  24
ATOM     24  C   UNL A   1      33.289  34.003  28.001  1.00  0.00     0.188 C 
BRANCH  24  25
ATOM     25  O   UNL A   1      32.744  34.584  29.184  1.00  0.00    -0.376 OA
BRANCH  25  26
ATOM     26  C   UNL A   1      33.748  35.196  29.999  1.00  0.00     0.202 C 
BRANCH  26  27
ATOM     27  C   UNL A   1      34.055  34.308  31.210  1.00  0.00     0.261 C 
BRANCH  27  28
ATOM     28  O   UNL A   1      34.485  32.976  30.851  1.00  0.00    -0.460 OA
BRANCH  28  29
ATOM     29  C   UNL A   1      35.205  32.329  31.784  1.00  0.00     0.338 C 
ATOM     30  O   UNL A   1      35.011  32.325  32.998  1.00  0.00    -0.246 OA
BRANCH  29  31
ATOM     31  C   UNL A   1      36.222  31.488  31.138  1.00  0.00     0.060 A 
ATOM     32  C   UNL A   1      36.920  30.586  31.936  1.00  0.00     0.016 A 
ATOM     33  C   UNL A   1      36.599  31.674  29.810  1.00  0.00     0.016 A 
ATOM     34  C   UNL A   1      38.044  29.920  31.444  1.00  0.00     0.010 A 
ATOM     35  C   UNL A   1      37.708  30.975  29.305  1.00  0.00     0.010 A 
ATOM     36  C   UNL A   1      38.474  30.123  30.129  1.00  0.00    -0.014 A 
BRANCH  36  37
ATOM     37  C   UNL A   1      39.782  29.575  29.657  1.00  0.00     0.031 A 
ATOM     38  C   UNL A   1      41.006  30.454  29.706  1.00  0.00     0.074 A 
ATOM     39  C   UNL A   1      39.932  28.300  29.242  1.00  0.00     0.049 A 
ATOM     40  N   UNL A   1      42.159  30.317  29.099  1.00  0.00    -0.248 NA
ATOM     41  C   UNL A   1      40.914  31.654  30.553  1.00  0.00     0.031 C 
ATOM     42  C   UNL A   1      38.896  27.270  29.252  1.00  0.00     0.029 A 
ATOM     43  N   UNL A   1      41.036  27.654  28.731  1.00  0.00    -0.354 N 
ATOM     44  C   UNL A   1      42.890  31.455  29.416  1.00  0.00     0.074 A 
ATOM     45  C   UNL A   1      42.067  32.255  30.297  1.00  0.00     0.031 C 
ATOM     46  C   UNL A   1      39.418  26.117  28.801  1.00  0.00     0.029 A 
ATOM     47  C   UNL A   1      40.794  26.349  28.372  1.00  0.00     0.049 A 
ATOM     48  H   UNL A   1      41.916  28.085  28.633  1.00  0.00     0.167 HD
ATOM     49  C   UNL A   1      44.127  31.808  28.991  1.00  0.00     0.037 A 
ATOM     50  C   UNL A   1      41.567  25.459  27.717  1.00  0.00     0.037 A 
ATOM     51  C   UNL A   1      44.979  30.975  28.184  1.00  0.00     0.049 A 
ATOM     52  C   UNL A   1      42.927  25.877  27.220  1.00  0.00     0.074 A 
ATOM     53  C   UNL A   1      46.233  31.257  27.670  1.00  0.00     0.029 A 
ATOM     54  N   UNL A   1      44.676  29.676  27.807  1.00  0.00    -0.354 N 
ATOM     55  N   UNL A   1      43.552  27.018  27.379  1.00  0.00    -0.248 NA
ATOM     56  C   UNL A   1      43.672  24.894  26.419  1.00  0.00     0.031 C 
ATOM     57  C   UNL A   1      46.682  30.133  26.966  1.00  0.00     0.029 A 
ATOM     58  C   UNL A   1      45.721  29.141  27.071  1.00  0.00     0.049 A 
ATOM     59  H   UNL A   1      43.842  29.203  28.031  1.00  0.00     0.167 HD
ATOM     60  C   UNL A   1      44.758  26.889  26.702  1.00  0.00     0.074 A 
ATOM     61  C   UNL A   1      44.791  25.552  26.151  1.00  0.00     0.031 C 
ATOM     62  C   UNL A   1      45.745  27.805  26.540  1.00  0.00     0.037 A 
BRANCH  49  63
ATOM     63  C   UNL A   1      44.610  33.184  29.338  1.00  0.00     0.064 A 
ATOM     64  C   UNL A   1      45.376  33.444  30.480  1.00  0.00     0.173 A 
ATOM     65  C   UNL A   1      44.311  34.260  28.486  1.00  0.00     0.173 A 
ATOM     66  F   UNL A   1      45.671  32.452  31.335  1.00  0.00    -0.203 F 
ATOM     67  C   UNL A   1      45.806  34.737  30.772  1.00  0.00     0.198 A 
ATOM     68  C   UNL A   1      44.764  35.546  28.766  1.00  0.00     0.198 A 
ATOM     69  F   UNL A   1      43.583  34.062  27.376  1.00  0.00    -0.203 F 
ATOM     70  F   UNL A   1      46.500  34.973  31.895  1.00  0.00    -0.200 F 
ATOM     71  C   UNL A   1      45.505  35.784  29.914  1.00  0.00     0.200 A 
ATOM     72  F   UNL A   1      44.479  36.553  27.930  1.00  0.00    -0.200 F 
ATOM     73  F   UNL A   1      45.922  37.026  30.196  1.00  0.00    -0.200 F 
ENDBRANCH  49  63
BRANCH  50  74
ATOM     74  C   UNL A   1      41.048  24.096  27.423  1.00  0.00     0.064 A 
ATOM     75  C   UNL A   1      41.595  22.966  28.044  1.00  0.00     0.173 A 
ATOM     76  C   UNL A   1      40.005  23.895  26.505  1.00  0.00     0.173 A 
ATOM     77  F   UNL A   1      42.617  23.102  28.902  1.00  0.00    -0.203 F 
ATOM     78  C   UNL A   1      41.123  21.686  27.755  1.00  0.00     0.198 A 
ATOM     79  C   UNL A   1      39.514  22.619  26.240  1.00  0.00     0.198 A 
ATOM     80  F   UNL A   1      39.457  24.942  25.873  1.00  0.00    -0.203 F 
ATOM     81  F   UNL A   1      41.691  20.618  28.332  1.00  0.00    -0.200 F 
ATOM     82  C   UNL A   1      40.076  21.515  26.861  1.00  0.00     0.200 A 
ATOM     83  F   UNL A   1      38.496  22.460  25.383  1.00  0.00    -0.200 F 
ATOM     84  F   UNL A   1      39.616  20.286  26.591  1.00  0.00    -0.200 F 
ENDBRANCH  50  74
BRANCH  62  85
ATOM     85  C   UNL A   1      46.953  27.386  25.759  1.00  0.00     0.064 A 
ATOM     86  C   UNL A   1      47.055  27.633  24.383  1.00  0.00     0.173 A 
ATOM     87  C   UNL A   1      48.039  26.775  26.403  1.00  0.00     0.173 A 
ATOM     88  F   UNL A   1      46.037  28.202  23.722  1.00  0.00    -0.203 F 
ATOM     89  C   UNL A   1      48.198  27.269  23.675  1.00  0.00     0.198 A 
ATOM     90  C   UNL A   1      49.187  26.430  25.696  1.00  0.00     0.198 A 
ATOM     91  F   UNL A   1      47.989  26.522  27.720  1.00  0.00    -0.203 F 
ATOM     92  F   UNL A   1      48.263  27.486  22.354  1.00  0.00    -0.200 F 
ATOM     93  C   UNL A   1      49.265  26.674  24.333  1.00  0.00     0.200 A 
ATOM     94  F   UNL A   1      50.221  25.861  26.333  1.00  0.00    -0.200 F 
ATOM     95  F   UNL A   1      50.366  26.329  23.650  1.00  0.00    -0.200 F 
ENDBRANCH  62  85
ENDBRANCH  36  37
ENDBRANCH  29  31
ENDBRANCH  28  29
ENDBRANCH  27  28
ENDBRANCH  26  27
ENDBRANCH  25  26
ENDBRANCH  24  25
ENDBRANCH   1  24
TORSDOF 19
ENDMDL
MODEL 3
REMARK VINA RESULT:     -10.7      5.326     10.607
REMARK SMILES CC(C)(C)C[N@H+]1[C@@H](C(=O)OCCOCCOCCOC(=O)c2ccc(-c3c4nc(c(-c5c(F)c(F)c(F)c(F)c5F)c5ccc([nH]5)c(-c5c(F)c(F)c(F)c(F)c5F)c5nc(c(-c6c(F)c(F)c(F)c(F)c6F)c6ccc3[nH]6)C=C5)C=C4)cc2)CC[C@H]2CCCC[C@@H]21
REMARK SMILES IDX 14 1 13 2 12 3 11 4 10 5 8 6 9 7 7 8 6 9 92 10 85 12 87 13
REMARK SMILES IDX 91 14 86 15 88 16 90 17 89 18 5 19 2 20 1 21 3 22 4 23 15 24
REMARK SMILES IDX 16 25 17 26 18 27 19 28 20 29 21 30 22 31 23 32 84 33 24 34
REMARK SMILES IDX 83 35 25 36 26 37 27 38 77 39 28 40 82 41 76 42 78 43 29 44
REMARK SMILES IDX 81 45 75 46 74 47 30 49 62 50 42 51 61 52 43 53 46 54 60 55
REMARK SMILES IDX 79 56 44 57 45 58 59 60 80 61 47 62 31 63 32 64 40 65 33 66
REMARK SMILES IDX 34 67 38 68 41 69 35 70 36 71 39 72 37 73 63 74 64 75 72 76
REMARK SMILES IDX 65 77 66 78 70 79 73 80 67 81 68 82 71 83 69 84 48 85 49 86
REMARK SMILES IDX 57 87 50 88 51 89 55 90 58 91 52 92 53 93 56 94 54 95
REMARK H PARENT 6 11 78 48 46 59
REMARK Flexibility Score: inf
ROOT
ATOM      1  C   UNL A   1      33.299  33.739  28.050  1.00  0.00     0.188 C 
ENDROOT
BRANCH   1   2
ATOM      2  O   UNL A   1      34.385  32.871  27.725  1.00  0.00    -0.376 OA
BRANCH   2   3
ATOM      3  C   UNL A   1      34.418  31.604  28.382  1.00  0.00     0.202 C 
BRANCH   3   4
ATOM      4  C   UNL A   1      34.626  30.402  27.456  1.00  0.00     0.261 C 
BRANCH   4   5
ATOM      5  O   UNL A   1      33.731  30.461  26.329  1.00  0.00    -0.459 OA
BRANCH   5   6
ATOM      6  C   UNL A   1      32.486  29.972  26.578  1.00  0.00     0.364 C 
ATOM      7  O   UNL A   1      31.649  30.557  27.258  1.00  0.00    -0.245 OA
BRANCH   6   8
ATOM      8  C   UNL A   1      32.211  28.664  25.815  1.00  0.00     0.295 C 
ATOM      9  N   UNL A   1      31.729  28.869  24.443  1.00  0.00    -0.320 N 
ATOM     10  C   UNL A   1      31.904  27.684  23.597  1.00  0.00     0.187 C 
ATOM     11  H   UNL A   1      32.382  29.549  24.053  1.00  0.00     0.349 HD
ATOM     12  C   UNL A   1      31.403  27.571  26.522  1.00  0.00     0.078 C 
ATOM     13  C   UNL A   1      32.009  26.373  24.415  1.00  0.00     0.048 C 
ATOM     14  C   UNL A   1      33.186  27.752  22.747  1.00  0.00     0.065 C 
ATOM     15  C   UNL A   1      31.044  26.398  25.581  1.00  0.00     0.016 C 
ATOM     16  C   UNL A   1      31.859  25.184  23.473  1.00  0.00     0.010 C 
ATOM     17  C   UNL A   1      33.275  26.530  21.817  1.00  0.00     0.006 C 
ATOM     18  C   UNL A   1      33.050  25.179  22.512  1.00  0.00     0.001 C 
BRANCH   9  19
ATOM     19  C   UNL A   1      30.551  29.727  24.224  1.00  0.00     0.269 C 
BRANCH  19  20
ATOM     20  C   UNL A   1      29.446  29.620  23.095  1.00  0.00     0.011 C 
ATOM     21  C   UNL A   1      29.987  29.848  21.673  1.00  0.00     0.017 C 
ATOM     22  C   UNL A   1      28.433  30.767  23.367  1.00  0.00     0.017 C 
ATOM     23  C   UNL A   1      28.614  28.327  23.119  1.00  0.00     0.017 C 
ENDBRANCH  19  20
ENDBRANCH   9  19
ENDBRANCH   6   8
ENDBRANCH   5   6
ENDBRANCH   4   5
ENDBRANCH   3   4
ENDBRANCH   2   3
ENDBRANCH   1   2
BRANCH   1  24
ATOM     24  C   UNL A   1      33.635  34.960  28.913  1.00  0.00     0.188 C 
BRANCH  24  25
ATOM     25  O   UNL A   1      33.064  34.828  30.214  1.00  0.00    -0.376 OA
BRANCH  25  26
ATOM     26  C   UNL A   1      33.931  35.327  31.237  1.00  0.00     0.202 C 
BRANCH  26  27
ATOM     27  C   UNL A   1      34.360  34.185  32.165  1.00  0.00     0.261 C 
BRANCH  27  28
ATOM     28  O   UNL A   1      35.227  33.222  31.527  1.00  0.00    -0.460 OA
BRANCH  28  29
ATOM     29  C   UNL A   1      35.944  32.447  32.359  1.00  0.00     0.338 C 
ATOM     30  O   UNL A   1      35.787  32.321  33.572  1.00  0.00    -0.246 OA
BRANCH  29  31
ATOM     31  C   UNL A   1      36.901  31.638  31.591  1.00  0.00     0.060 A 
ATOM     32  C   UNL A   1      37.586  30.632  32.265  1.00  0.00     0.016 A 
ATOM     33  C   UNL A   1      37.238  31.944  30.275  1.00  0.00     0.016 A 
ATOM     34  C   UNL A   1      38.663  29.976  31.664  1.00  0.00     0.010 A 
ATOM     35  C   UNL A   1      38.298  31.258  29.659  1.00  0.00     0.010 A 
ATOM     36  C   UNL A   1      39.054  30.296  30.360  1.00  0.00    -0.014 A 
BRANCH  36  37
ATOM     37  C   UNL A   1      40.320  29.748  29.784  1.00  0.00     0.031 A 
ATOM     38  C   UNL A   1      41.539  30.633  29.717  1.00  0.00     0.074 A 
ATOM     39  C   UNL A   1      40.441  28.469  29.373  1.00  0.00     0.049 A 
ATOM     40  N   UNL A   1      42.636  30.494  29.015  1.00  0.00    -0.248 NA
ATOM     41  C   UNL A   1      41.513  31.843  30.554  1.00  0.00     0.031 C 
ATOM     42  C   UNL A   1      39.416  27.434  29.485  1.00  0.00     0.029 A 
ATOM     43  N   UNL A   1      41.500  27.821  28.777  1.00  0.00    -0.354 N 
ATOM     44  C   UNL A   1      43.385  31.639  29.254  1.00  0.00     0.074 A 
ATOM     45  C   UNL A   1      42.637  32.446  30.193  1.00  0.00     0.031 C 
ATOM     46  C   UNL A   1      39.903  26.278  29.004  1.00  0.00     0.029 A 
ATOM     47  C   UNL A   1      41.235  26.511  28.455  1.00  0.00     0.049 A 
ATOM     48  H   UNL A   1      42.366  28.255  28.598  1.00  0.00     0.167 HD
ATOM     49  C   UNL A   1      44.579  31.992  28.720  1.00  0.00     0.037 A 
ATOM     50  C   UNL A   1      41.954  25.617  27.747  1.00  0.00     0.037 A 
ATOM     51  C   UNL A   1      45.363  31.153  27.853  1.00  0.00     0.049 A 
ATOM     52  C   UNL A   1      43.264  26.034  27.130  1.00  0.00     0.074 A 
ATOM     53  C   UNL A   1      46.566  31.435  27.229  1.00  0.00     0.029 A 
ATOM     54  N   UNL A   1      45.036  29.848  27.519  1.00  0.00    -0.354 N 
ATOM     55  N   UNL A   1      43.894  27.180  27.220  1.00  0.00    -0.248 NA
ATOM     56  C   UNL A   1      43.943  25.045  26.279  1.00  0.00     0.031 C 
ATOM     57  C   UNL A   1      46.959  30.304  26.502  1.00  0.00     0.029 A 
ATOM     58  C   UNL A   1      46.016  29.310  26.702  1.00  0.00     0.049 A 
ATOM     59  H   UNL A   1      44.227  29.375  27.819  1.00  0.00     0.167 HD
ATOM     60  C   UNL A   1      45.038  27.049  26.444  1.00  0.00     0.074 A 
ATOM     61  C   UNL A   1      45.031  25.705  25.908  1.00  0.00     0.031 C 
ATOM     62  C   UNL A   1      46.002  27.967  26.186  1.00  0.00     0.037 A 
BRANCH  49  63
ATOM     63  C   UNL A   1      45.082  33.375  29.007  1.00  0.00     0.064 A 
ATOM     64  C   UNL A   1      45.939  33.653  30.079  1.00  0.00     0.173 A 
ATOM     65  C   UNL A   1      44.708  34.438  28.169  1.00  0.00     0.173 A 
ATOM     66  F   UNL A   1      46.309  32.674  30.918  1.00  0.00    -0.203 F 
ATOM     67  C   UNL A   1      46.385  34.952  30.317  1.00  0.00     0.198 A 
ATOM     68  C   UNL A   1      45.176  35.729  28.394  1.00  0.00     0.198 A 
ATOM     69  F   UNL A   1      43.892  34.223  27.127  1.00  0.00    -0.203 F 
ATOM     70  F   UNL A   1      47.169  35.205  31.375  1.00  0.00    -0.200 F 
ATOM     71  C   UNL A   1      46.009  35.986  29.473  1.00  0.00     0.200 A 
ATOM     72  F   UNL A   1      44.819  36.725  27.571  1.00  0.00    -0.200 F 
ATOM     73  F   UNL A   1      46.442  37.233  29.703  1.00  0.00    -0.200 F 
ENDBRANCH  49  63
BRANCH  50  74
ATOM     74  C   UNL A   1      41.419  24.248  27.515  1.00  0.00     0.064 A 
ATOM     75  C   UNL A   1      42.035  23.126  28.085  1.00  0.00     0.173 A 
ATOM     76  C   UNL A   1      40.292  24.033  26.708  1.00  0.00     0.173 A 
ATOM     77  F   UNL A   1      43.137  23.276  28.835  1.00  0.00    -0.203 F 
ATOM     78  C   UNL A   1      41.547  21.841  27.853  1.00  0.00     0.198 A 
ATOM     79  C   UNL A   1      39.787  22.751  26.502  1.00  0.00     0.198 A 
ATOM     80  F   UNL A   1      39.674  25.071  26.127  1.00  0.00    -0.203 F 
ATOM     81  F   UNL A   1      42.179  20.781  28.377  1.00  0.00    -0.200 F 
ATOM     82  C   UNL A   1      40.417  21.656  27.070  1.00  0.00     0.200 A 
ATOM     83  F   UNL A   1      38.690  22.579  25.752  1.00  0.00    -0.200 F 
ATOM     84  F   UNL A   1      39.942  20.422  26.855  1.00  0.00    -0.200 F 
ENDBRANCH  50  74
BRANCH  62  85
ATOM     85  C   UNL A   1      47.141  27.544  25.309  1.00  0.00     0.064 A 
ATOM     86  C   UNL A   1      47.148  27.824  23.935  1.00  0.00     0.173 A 
ATOM     87  C   UNL A   1      48.258  26.895  25.857  1.00  0.00     0.173 A 
ATOM     88  F   UNL A   1      46.097  28.430  23.365  1.00  0.00    -0.203 F 
ATOM     89  C   UNL A   1      48.228  27.455  23.137  1.00  0.00     0.198 A 
ATOM     90  C   UNL A   1      49.343  26.546  25.059  1.00  0.00     0.198 A 
ATOM     91  F   UNL A   1      48.298  26.610  27.167  1.00  0.00    -0.203 F 
ATOM     92  F   UNL A   1      48.202  27.704  21.820  1.00  0.00    -0.200 F 
ATOM     93  C   UNL A   1      49.327  26.822  23.701  1.00  0.00     0.200 A 
ATOM     94  F   UNL A   1      50.408  25.941  25.606  1.00  0.00    -0.200 F 
ATOM     95  F   UNL A   1      50.367  26.473  22.931  1.00  0.00    -0.200 F 
ENDBRANCH  62  85
ENDBRANCH  36  37
ENDBRANCH  29  31
ENDBRANCH  28  29
ENDBRANCH  27  28
ENDBRANCH  26  27
ENDBRANCH  25  26
ENDBRANCH  24  25
ENDBRANCH   1  24
TORSDOF 19
ENDMDL
