MODEL 1
REMARK VINA RESULT:     -11.1      0.000      0.000
REMARK SMILES C[C@@H](C(=O)OCCOCCOCCOC(=O)c1ccc(-c2c3nc(c(-c4c(F)c(F)c(F)c(F)c4F)c4ccc([nH]4)c(-c4c(F)c(F)c(F)c(F)c4F)c4nc(c(-c5c(F)c(F)c(F)c(F)c5F)c5ccc2[nH]5)C=C4)C=C3)cc1)c1ccc(C[C@H]2CCCC2=O)c(-c2ccc(F)cc2)c1
REMARK SMILES IDX 9 1 8 2 7 3 6 4 5 5 3 6 4 7 2 8 1 9 80 10 81 11 99 12 82 13
REMARK SMILES IDX 91 14 83 15 92 16 93 17 98 18 94 19 97 20 95 21 96 22 84 23
REMARK SMILES IDX 85 24 86 25 89 26 87 27 88 28 90 29 10 30 11 31 12 32 13 33
REMARK SMILES IDX 14 34 15 35 16 36 17 37 18 38 79 39 19 40 78 41 20 42 21 43
REMARK SMILES IDX 22 44 72 45 23 46 77 47 71 48 73 49 24 50 76 51 70 52 69 53
REMARK SMILES IDX 25 55 57 56 37 57 56 58 38 59 41 60 55 61 74 62 39 63 40 64
REMARK SMILES IDX 54 66 75 67 42 68 26 69 27 70 35 71 28 72 29 73 33 74 36 75
REMARK SMILES IDX 30 76 31 77 34 78 32 79 58 80 59 81 67 82 60 83 61 84 65 85
REMARK SMILES IDX 68 86 62 87 63 88 66 89 64 90 43 91 44 92 52 93 45 94 46 95
REMARK SMILES IDX 50 96 53 97 47 98 48 99 51 100 49 101
REMARK H PARENT 73 54 41 65
REMARK Flexibility Score: inf
ROOT
ATOM      1  C   UNL A   1      41.242  21.741  26.872  1.00  0.00     0.188 C 
ENDROOT
BRANCH   1   2
ATOM      2  O   UNL A   1      40.306  22.520  26.157  1.00  0.00    -0.376 OA
BRANCH   2   3
ATOM      3  C   UNL A   1      39.199  23.069  26.861  1.00  0.00     0.202 C 
BRANCH   3   4
ATOM      4  C   UNL A   1      38.007  23.711  26.122  1.00  0.00     0.261 C 
BRANCH   4   5
ATOM      5  O   UNL A   1      37.410  22.896  25.092  1.00  0.00    -0.463 OA
BRANCH   5   6
ATOM      6  C   UNL A   1      36.316  22.172  25.458  1.00  0.00     0.313 C 
ATOM      7  O   UNL A   1      36.197  20.969  25.241  1.00  0.00    -0.252 OA
BRANCH   6   8
ATOM      8  C   UNL A   1      35.269  22.958  26.269  1.00  0.00     0.126 C 
ATOM      9  C   UNL A   1      34.378  22.135  27.209  1.00  0.00     0.025 C 
BRANCH   8  10
ATOM     10  C   UNL A   1      34.474  23.976  25.443  1.00  0.00    -0.033 A 
ATOM     11  C   UNL A   1      34.185  23.791  24.092  1.00  0.00     0.005 A 
ATOM     12  C   UNL A   1      34.067  25.192  26.021  1.00  0.00     0.013 A 
ATOM     13  C   UNL A   1      33.520  24.760  23.348  1.00  0.00     0.004 A 
ATOM     14  C   UNL A   1      33.491  26.245  25.261  1.00  0.00    -0.015 A 
ATOM     15  C   UNL A   1      33.244  26.023  23.886  1.00  0.00    -0.039 A 
BRANCH  14  16
ATOM     16  C   UNL A   1      33.287  27.550  25.926  1.00  0.00    -0.018 A 
ATOM     17  C   UNL A   1      32.022  28.150  26.037  1.00  0.00     0.012 A 
ATOM     18  C   UNL A   1      34.396  28.236  26.461  1.00  0.00     0.012 A 
ATOM     19  C   UNL A   1      31.879  29.419  26.610  1.00  0.00     0.040 A 
ATOM     20  C   UNL A   1      34.253  29.494  27.048  1.00  0.00     0.040 A 
ATOM     21  C   UNL A   1      32.997  30.079  27.105  1.00  0.00     0.123 A 
ATOM     22  F   UNL A   1      32.863  31.299  27.640  1.00  0.00    -0.207 F 
ENDBRANCH  14  16
BRANCH  15  23
ATOM     23  C   UNL A   1      32.808  27.095  22.902  1.00  0.00     0.047 C 
BRANCH  23  24
ATOM     24  C   UNL A   1      31.391  26.953  22.315  1.00  0.00     0.060 C 
ATOM     25  C   UNL A   1      30.538  25.823  22.898  1.00  0.00     0.012 C 
ATOM     26  C   UNL A   1      30.469  28.139  22.516  1.00  0.00     0.136 C 
ATOM     27  C   UNL A   1      29.630  26.463  23.942  1.00  0.00     0.009 C 
ATOM     28  C   UNL A   1      29.291  27.838  23.395  1.00  0.00     0.076 C 
ATOM     29  O   UNL A   1      30.614  29.226  21.971  1.00  0.00    -0.299 OA
ENDBRANCH  23  24
ENDBRANCH  15  23
ENDBRANCH   8  10
ENDBRANCH   6   8
ENDBRANCH   5   6
ENDBRANCH   4   5
ENDBRANCH   3   4
ENDBRANCH   2   3
ENDBRANCH   1   2
BRANCH   1  30
ATOM     30  C   UNL A   1      41.557  20.316  26.401  1.00  0.00     0.188 C 
BRANCH  30  31
ATOM     31  O   UNL A   1      42.111  19.393  27.302  1.00  0.00    -0.376 OA
BRANCH  31  32
ATOM     32  C   UNL A   1      42.973  18.373  26.831  1.00  0.00     0.202 C 
BRANCH  32  33
ATOM     33  C   UNL A   1      43.452  18.215  25.374  1.00  0.00     0.261 C 
BRANCH  33  34
ATOM     34  O   UNL A   1      44.777  18.638  25.034  1.00  0.00    -0.460 OA
BRANCH  34  35
ATOM     35  C   UNL A   1      44.869  19.540  24.029  1.00  0.00     0.338 C 
ATOM     36  O   UNL A   1      44.906  19.309  22.826  1.00  0.00    -0.246 OA
BRANCH  35  37
ATOM     37  C   UNL A   1      44.744  20.899  24.589  1.00  0.00     0.060 A 
ATOM     38  C   UNL A   1      44.222  21.928  23.790  1.00  0.00     0.016 A 
ATOM     39  C   UNL A   1      45.184  21.168  25.886  1.00  0.00     0.016 A 
ATOM     40  C   UNL A   1      44.167  23.235  24.276  1.00  0.00     0.010 A 
ATOM     41  C   UNL A   1      45.155  22.482  26.360  1.00  0.00     0.010 A 
ATOM     42  C   UNL A   1      44.678  23.527  25.549  1.00  0.00    -0.014 A 
BRANCH  42  43
ATOM     43  C   UNL A   1      44.856  24.935  25.978  1.00  0.00     0.031 A 
ATOM     44  C   UNL A   1      46.188  25.595  25.787  1.00  0.00     0.074 A 
ATOM     45  C   UNL A   1      43.874  25.607  26.599  1.00  0.00     0.049 A 
ATOM     46  N   UNL A   1      46.582  26.788  26.154  1.00  0.00    -0.248 NA
ATOM     47  C   UNL A   1      47.228  24.785  25.138  1.00  0.00     0.031 C 
ATOM     48  C   UNL A   1      42.577  25.042  26.939  1.00  0.00     0.029 A 
ATOM     49  N   UNL A   1      43.825  26.894  27.081  1.00  0.00    -0.354 N 
ATOM     50  C   UNL A   1      47.928  26.853  25.831  1.00  0.00     0.074 A 
ATOM     51  C   UNL A   1      48.282  25.581  25.234  1.00  0.00     0.031 C 
ATOM     52  C   UNL A   1      41.855  25.983  27.566  1.00  0.00     0.029 A 
ATOM     53  C   UNL A   1      42.617  27.222  27.647  1.00  0.00     0.049 A 
ATOM     54  H   UNL A   1      44.582  27.521  27.023  1.00  0.00     0.167 HD
ATOM     55  C   UNL A   1      48.794  27.874  26.036  1.00  0.00     0.037 A 
ATOM     56  C   UNL A   1      42.173  28.384  28.166  1.00  0.00     0.037 A 
ATOM     57  C   UNL A   1      48.444  29.135  26.638  1.00  0.00     0.049 A 
ATOM     58  C   UNL A   1      43.133  29.539  28.298  1.00  0.00     0.074 A 
ATOM     59  C   UNL A   1      49.251  30.238  26.853  1.00  0.00     0.029 A 
ATOM     60  N   UNL A   1      47.188  29.459  27.131  1.00  0.00    -0.354 N 
ATOM     61  N   UNL A   1      44.391  29.614  27.940  1.00  0.00    -0.248 NA
ATOM     62  C   UNL A   1      42.622  30.756  28.948  1.00  0.00     0.031 C 
ATOM     63  C   UNL A   1      48.502  31.208  27.525  1.00  0.00     0.029 A 
ATOM     64  C   UNL A   1      47.206  30.740  27.667  1.00  0.00     0.049 A 
ATOM     65  H   UNL A   1      46.401  28.869  27.105  1.00  0.00     0.167 HD
ATOM     66  C   UNL A   1      44.824  30.874  28.329  1.00  0.00     0.074 A 
ATOM     67  C   UNL A   1      43.681  31.552  28.902  1.00  0.00     0.031 C 
ATOM     68  C   UNL A   1      46.067  31.409  28.242  1.00  0.00     0.037 A 
BRANCH  55  69
ATOM     69  C   UNL A   1      50.224  27.648  25.643  1.00  0.00     0.064 A 
ATOM     70  C   UNL A   1      50.663  27.807  24.320  1.00  0.00     0.173 A 
ATOM     71  C   UNL A   1      51.174  27.292  26.612  1.00  0.00     0.173 A 
ATOM     72  F   UNL A   1      49.790  28.130  23.353  1.00  0.00    -0.203 F 
ATOM     73  C   UNL A   1      51.995  27.588  23.977  1.00  0.00     0.198 A 
ATOM     74  C   UNL A   1      52.511  27.109  26.272  1.00  0.00     0.198 A 
ATOM     75  F   UNL A   1      50.807  27.127  27.892  1.00  0.00    -0.203 F 
ATOM     76  F   UNL A   1      52.380  27.692  22.699  1.00  0.00    -0.200 F 
ATOM     77  C   UNL A   1      52.918  27.249  24.954  1.00  0.00     0.200 A 
ATOM     78  F   UNL A   1      53.405  26.794  27.220  1.00  0.00    -0.200 F 
ATOM     79  F   UNL A   1      54.201  27.048  24.624  1.00  0.00    -0.200 F 
ENDBRANCH  55  69
BRANCH  56  80
ATOM     80  C   UNL A   1      40.746  28.540  28.568  1.00  0.00     0.064 A 
ATOM     81  C   UNL A   1      39.798  29.006  27.643  1.00  0.00     0.173 A 
ATOM     82  C   UNL A   1      40.295  28.253  29.863  1.00  0.00     0.173 A 
ATOM     83  F   UNL A   1      40.178  29.324  26.395  1.00  0.00    -0.203 F 
ATOM     84  C   UNL A   1      38.465  29.198  28.002  1.00  0.00     0.198 A 
ATOM     85  C   UNL A   1      38.952  28.404  30.211  1.00  0.00     0.198 A 
ATOM     86  F   UNL A   1      41.158  27.826  30.796  1.00  0.00    -0.203 F 
ATOM     87  F   UNL A   1      37.600  29.707  27.115  1.00  0.00    -0.200 F 
ATOM     88  C   UNL A   1      38.041  28.887  29.284  1.00  0.00     0.200 A 
ATOM     89  F   UNL A   1      38.545  28.099  31.451  1.00  0.00    -0.200 F 
ATOM     90  F   UNL A   1      36.760  29.073  29.630  1.00  0.00    -0.200 F 
ENDBRANCH  56  80
BRANCH  68  91
ATOM     91  C   UNL A   1      46.257  32.804  28.768  1.00  0.00     0.064 A 
ATOM     92  C   UNL A   1      46.648  33.047  30.094  1.00  0.00     0.173 A 
ATOM     93  C   UNL A   1      46.077  33.912  27.926  1.00  0.00     0.173 A 
ATOM     94  F   UNL A   1      46.821  32.025  30.945  1.00  0.00    -0.203 F 
ATOM     95  C   UNL A   1      46.822  34.346  30.564  1.00  0.00     0.198 A 
ATOM     96  C   UNL A   1      46.285  35.208  28.390  1.00  0.00     0.198 A 
ATOM     97  F   UNL A   1      45.711  33.737  26.647  1.00  0.00    -0.203 F 
ATOM     98  F   UNL A   1      47.142  34.556  31.848  1.00  0.00    -0.200 F 
ATOM     99  C   UNL A   1      46.647  35.426  29.710  1.00  0.00     0.200 A 
ATOM    100  F   UNL A   1      46.131  36.248  27.559  1.00  0.00    -0.200 F 
ATOM    101  F   UNL A   1      46.821  36.674  30.162  1.00  0.00    -0.200 F 
ENDBRANCH  68  91
ENDBRANCH  42  43
ENDBRANCH  35  37
ENDBRANCH  34  35
ENDBRANCH  33  34
ENDBRANCH  32  33
ENDBRANCH  31  32
ENDBRANCH  30  31
ENDBRANCH   1  30
TORSDOF 21
ENDMDL
MODEL 2
REMARK VINA RESULT:     -10.9      1.537      7.350
REMARK SMILES C[C@@H](C(=O)OCCOCCOCCOC(=O)c1ccc(-c2c3nc(c(-c4c(F)c(F)c(F)c(F)c4F)c4ccc([nH]4)c(-c4c(F)c(F)c(F)c(F)c4F)c4nc(c(-c5c(F)c(F)c(F)c(F)c5F)c5ccc2[nH]5)C=C4)C=C3)cc1)c1ccc(C[C@H]2CCCC2=O)c(-c2ccc(F)cc2)c1
REMARK SMILES IDX 9 1 8 2 7 3 6 4 5 5 3 6 4 7 2 8 1 9 80 10 81 11 99 12 82 13
REMARK SMILES IDX 91 14 83 15 92 16 93 17 98 18 94 19 97 20 95 21 96 22 84 23
REMARK SMILES IDX 85 24 86 25 89 26 87 27 88 28 90 29 10 30 11 31 12 32 13 33
REMARK SMILES IDX 14 34 15 35 16 36 17 37 18 38 79 39 19 40 78 41 20 42 21 43
REMARK SMILES IDX 22 44 72 45 23 46 77 47 71 48 73 49 24 50 76 51 70 52 69 53
REMARK SMILES IDX 25 55 57 56 37 57 56 58 38 59 41 60 55 61 74 62 39 63 40 64
REMARK SMILES IDX 54 66 75 67 42 68 26 69 27 70 35 71 28 72 29 73 33 74 36 75
REMARK SMILES IDX 30 76 31 77 34 78 32 79 58 80 59 81 67 82 60 83 61 84 65 85
REMARK SMILES IDX 68 86 62 87 63 88 66 89 64 90 43 91 44 92 52 93 45 94 46 95
REMARK SMILES IDX 50 96 53 97 47 98 48 99 51 100 49 101
REMARK H PARENT 73 54 41 65
REMARK Flexibility Score: inf
ROOT
ATOM      1  C   UNL A   1      36.884  22.140  24.235  1.00  0.00     0.188 C 
ENDROOT
BRANCH   1   2
ATOM      2  O   UNL A   1      35.739  22.934  24.467  1.00  0.00    -0.376 OA
BRANCH   2   3
ATOM      3  C   UNL A   1      35.685  23.720  25.652  1.00  0.00     0.202 C 
BRANCH   3   4
ATOM      4  C   UNL A   1      35.132  23.153  26.975  1.00  0.00     0.261 C 
BRANCH   4   5
ATOM      5  O   UNL A   1      34.306  21.978  26.844  1.00  0.00    -0.463 OA
BRANCH   5   6
ATOM      6  C   UNL A   1      32.965  22.169  26.975  1.00  0.00     0.313 C 
ATOM      7  O   UNL A   1      32.430  22.523  28.023  1.00  0.00    -0.252 OA
BRANCH   6   8
ATOM      8  C   UNL A   1      32.164  22.010  25.669  1.00  0.00     0.126 C 
ATOM      9  C   UNL A   1      32.759  21.064  24.617  1.00  0.00     0.025 C 
BRANCH   8  10
ATOM     10  C   UNL A   1      31.680  23.334  25.067  1.00  0.00    -0.033 A 
ATOM     11  C   UNL A   1      30.993  23.405  23.856  1.00  0.00     0.005 A 
ATOM     12  C   UNL A   1      31.989  24.552  25.697  1.00  0.00     0.013 A 
ATOM     13  C   UNL A   1      30.624  24.624  23.297  1.00  0.00     0.004 A 
ATOM     14  C   UNL A   1      31.728  25.812  25.096  1.00  0.00    -0.015 A 
ATOM     15  C   UNL A   1      31.056  25.836  23.852  1.00  0.00    -0.039 A 
BRANCH  14  16
ATOM     16  C   UNL A   1      32.274  27.020  25.751  1.00  0.00    -0.018 A 
ATOM     17  C   UNL A   1      33.542  27.540  25.438  1.00  0.00     0.012 A 
ATOM     18  C   UNL A   1      31.513  27.679  26.736  1.00  0.00     0.012 A 
ATOM     19  C   UNL A   1      34.054  28.643  26.129  1.00  0.00     0.040 A 
ATOM     20  C   UNL A   1      32.015  28.790  27.416  1.00  0.00     0.040 A 
ATOM     21  C   UNL A   1      33.287  29.254  27.114  1.00  0.00     0.123 A 
ATOM     22  F   UNL A   1      33.781  30.301  27.786  1.00  0.00    -0.207 F 
ENDBRANCH  14  16
BRANCH  15  23
ATOM     23  C   UNL A   1      30.865  27.076  22.995  1.00  0.00     0.047 C 
BRANCH  23  24
ATOM     24  C   UNL A   1      29.998  28.199  23.596  1.00  0.00     0.060 C 
ATOM     25  C   UNL A   1      30.394  29.626  23.209  1.00  0.00     0.012 C 
ATOM     26  C   UNL A   1      28.536  28.191  23.200  1.00  0.00     0.136 C 
ATOM     27  C   UNL A   1      29.466  30.037  22.072  1.00  0.00     0.009 C 
ATOM     28  C   UNL A   1      28.132  29.383  22.382  1.00  0.00     0.076 C 
ATOM     29  O   UNL A   1      27.728  27.343  23.556  1.00  0.00    -0.299 OA
ENDBRANCH  23  24
ENDBRANCH  15  23
ENDBRANCH   8  10
ENDBRANCH   6   8
ENDBRANCH   5   6
ENDBRANCH   4   5
ENDBRANCH   3   4
ENDBRANCH   2   3
ENDBRANCH   1   2
BRANCH   1  30
ATOM     30  C   UNL A   1      37.022  20.787  24.942  1.00  0.00     0.188 C 
BRANCH  30  31
ATOM     31  O   UNL A   1      38.074  19.925  24.594  1.00  0.00    -0.376 OA
BRANCH  31  32
ATOM     32  C   UNL A   1      38.794  19.240  25.603  1.00  0.00     0.202 C 
BRANCH  32  33
ATOM     33  C   UNL A   1      40.241  19.557  26.033  1.00  0.00     0.261 C 
BRANCH  33  34
ATOM     34  O   UNL A   1      41.291  18.673  25.622  1.00  0.00    -0.460 OA
BRANCH  34  35
ATOM     35  C   UNL A   1      42.505  18.901  26.175  1.00  0.00     0.338 C 
ATOM     36  O   UNL A   1      43.412  18.092  26.332  1.00  0.00    -0.246 OA
BRANCH  35  37
ATOM     37  C   UNL A   1      42.660  20.348  26.416  1.00  0.00     0.060 A 
ATOM     38  C   UNL A   1      43.003  21.191  25.347  1.00  0.00     0.016 A 
ATOM     39  C   UNL A   1      42.513  20.866  27.704  1.00  0.00     0.016 A 
ATOM     40  C   UNL A   1      43.230  22.550  25.571  1.00  0.00     0.010 A 
ATOM     41  C   UNL A   1      42.768  22.221  27.930  1.00  0.00     0.010 A 
ATOM     42  C   UNL A   1      43.159  23.063  26.873  1.00  0.00    -0.014 A 
BRANCH  42  43
ATOM     43  C   UNL A   1      43.637  24.437  27.163  1.00  0.00     0.031 A 
ATOM     44  C   UNL A   1      42.689  25.431  27.762  1.00  0.00     0.074 A 
ATOM     45  C   UNL A   1      44.878  24.829  26.835  1.00  0.00     0.049 A 
ATOM     46  N   UNL A   1      42.876  26.699  28.026  1.00  0.00    -0.248 NA
ATOM     47  C   UNL A   1      41.334  24.942  28.056  1.00  0.00     0.031 C 
ATOM     48  C   UNL A   1      45.854  23.992  26.154  1.00  0.00     0.029 A 
ATOM     49  N   UNL A   1      45.517  26.036  27.002  1.00  0.00    -0.354 N 
ATOM     50  C   UNL A   1      41.650  27.174  28.467  1.00  0.00     0.074 A 
ATOM     51  C   UNL A   1      40.728  26.056  28.438  1.00  0.00     0.031 C 
ATOM     52  C   UNL A   1      46.973  24.709  25.969  1.00  0.00     0.029 A 
ATOM     53  C   UNL A   1      46.812  26.038  26.542  1.00  0.00     0.049 A 
ATOM     54  H   UNL A   1      45.089  26.821  27.413  1.00  0.00     0.167 HD
ATOM     55  C   UNL A   1      41.321  28.433  28.840  1.00  0.00     0.037 A 
ATOM     56  C   UNL A   1      47.760  26.996  26.581  1.00  0.00     0.037 A 
ATOM     57  C   UNL A   1      42.235  29.545  28.860  1.00  0.00     0.049 A 
ATOM     58  C   UNL A   1      47.392  28.367  27.088  1.00  0.00     0.074 A 
ATOM     59  C   UNL A   1      41.993  30.849  29.256  1.00  0.00     0.029 A 
ATOM     60  N   UNL A   1      43.562  29.492  28.458  1.00  0.00    -0.354 N 
ATOM     61  N   UNL A   1      46.246  28.796  27.556  1.00  0.00    -0.248 NA
ATOM     62  C   UNL A   1      48.439  29.399  27.031  1.00  0.00     0.031 C 
ATOM     63  C   UNL A   1      43.155  31.598  29.043  1.00  0.00     0.029 A 
ATOM     64  C   UNL A   1      44.145  30.746  28.580  1.00  0.00     0.049 A 
ATOM     65  H   UNL A   1      44.022  28.684  28.135  1.00  0.00     0.167 HD
ATOM     66  C   UNL A   1      46.429  30.143  27.837  1.00  0.00     0.074 A 
ATOM     67  C   UNL A   1      47.811  30.450  27.539  1.00  0.00     0.031 C 
ATOM     68  C   UNL A   1      45.520  31.049  28.277  1.00  0.00     0.037 A 
BRANCH  55  69
ATOM     69  C   UNL A   1      39.890  28.684  29.215  1.00  0.00     0.064 A 
ATOM     70  C   UNL A   1      39.423  28.495  30.524  1.00  0.00     0.173 A 
ATOM     71  C   UNL A   1      38.978  29.144  28.253  1.00  0.00     0.173 A 
ATOM     72  F   UNL A   1      40.251  28.039  31.477  1.00  0.00    -0.203 F 
ATOM     73  C   UNL A   1      38.090  28.730  30.849  1.00  0.00     0.198 A 
ATOM     74  C   UNL A   1      37.655  29.412  28.589  1.00  0.00     0.198 A 
ATOM     75  F   UNL A   1      39.374  29.341  26.985  1.00  0.00    -0.203 F 
ATOM     76  F   UNL A   1      37.654  28.490  32.093  1.00  0.00    -0.200 F 
ATOM     77  C   UNL A   1      37.210  29.197  29.884  1.00  0.00     0.200 A 
ATOM     78  F   UNL A   1      36.809  29.876  27.659  1.00  0.00    -0.200 F 
ATOM     79  F   UNL A   1      35.929  29.431  30.201  1.00  0.00    -0.200 F 
ENDBRANCH  55  69
BRANCH  56  80
ATOM     80  C   UNL A   1      49.160  26.696  26.166  1.00  0.00     0.064 A 
ATOM     81  C   UNL A   1      50.077  26.176  27.094  1.00  0.00     0.173 A 
ATOM     82  C   UNL A   1      49.624  26.929  24.864  1.00  0.00     0.173 A 
ATOM     83  F   UNL A   1      49.696  25.959  28.363  1.00  0.00    -0.203 F 
ATOM     84  C   UNL A   1      51.401  25.923  26.744  1.00  0.00     0.198 A 
ATOM     85  C   UNL A   1      50.938  26.636  24.502  1.00  0.00     0.198 A 
ATOM     86  F   UNL A   1      48.801  27.446  23.941  1.00  0.00    -0.203 F 
ATOM     87  F   UNL A   1      52.267  25.490  27.669  1.00  0.00    -0.200 F 
ATOM     88  C   UNL A   1      51.829  26.144  25.444  1.00  0.00     0.200 A 
ATOM     89  F   UNL A   1      51.348  26.848  23.244  1.00  0.00    -0.200 F 
ATOM     90  F   UNL A   1      53.103  25.902  25.107  1.00  0.00    -0.200 F 
ENDBRANCH  56  80
BRANCH  68  91
ATOM     91  C   UNL A   1      45.995  32.461  28.477  1.00  0.00     0.064 A 
ATOM     92  C   UNL A   1      46.576  32.881  29.683  1.00  0.00     0.173 A 
ATOM     93  C   UNL A   1      45.898  33.397  27.436  1.00  0.00     0.173 A 
ATOM     94  F   UNL A   1      46.682  32.031  30.714  1.00  0.00    -0.203 F 
ATOM     95  C   UNL A   1      47.014  34.193  29.849  1.00  0.00     0.198 A 
ATOM     96  C   UNL A   1      46.367  34.699  27.594  1.00  0.00     0.198 A 
ATOM     97  F   UNL A   1      45.358  33.047  26.259  1.00  0.00    -0.203 F 
ATOM     98  F   UNL A   1      47.515  34.587  31.028  1.00  0.00    -0.200 F 
ATOM     99  C   UNL A   1      46.915  35.099  28.803  1.00  0.00     0.200 A 
ATOM    100  F   UNL A   1      46.286  35.567  26.577  1.00  0.00    -0.200 F 
ATOM    101  F   UNL A   1      47.342  36.358  28.963  1.00  0.00    -0.200 F 
ENDBRANCH  68  91
ENDBRANCH  42  43
ENDBRANCH  35  37
ENDBRANCH  34  35
ENDBRANCH  33  34
ENDBRANCH  32  33
ENDBRANCH  31  32
ENDBRANCH  30  31
ENDBRANCH   1  30
TORSDOF 21
ENDMDL
MODEL 3
REMARK VINA RESULT:     -10.8      6.121     11.012
REMARK SMILES C[C@@H](C(=O)OCCOCCOCCOC(=O)c1ccc(-c2c3nc(c(-c4c(F)c(F)c(F)c(F)c4F)c4ccc([nH]4)c(-c4c(F)c(F)c(F)c(F)c4F)c4nc(c(-c5c(F)c(F)c(F)c(F)c5F)c5ccc2[nH]5)C=C4)C=C3)cc1)c1ccc(C[C@H]2CCCC2=O)c(-c2ccc(F)cc2)c1
REMARK SMILES IDX 9 1 8 2 7 3 6 4 5 5 3 6 4 7 2 8 1 9 80 10 81 11 99 12 82 13
REMARK SMILES IDX 91 14 83 15 92 16 93 17 98 18 94 19 97 20 95 21 96 22 84 23
REMARK SMILES IDX 85 24 86 25 89 26 87 27 88 28 90 29 10 30 11 31 12 32 13 33
REMARK SMILES IDX 14 34 15 35 16 36 17 37 18 38 79 39 19 40 78 41 20 42 21 43
REMARK SMILES IDX 22 44 72 45 23 46 77 47 71 48 73 49 24 50 76 51 70 52 69 53
REMARK SMILES IDX 25 55 57 56 37 57 56 58 38 59 41 60 55 61 74 62 39 63 40 64
REMARK SMILES IDX 54 66 75 67 42 68 26 69 27 70 35 71 28 72 29 73 33 74 36 75
REMARK SMILES IDX 30 76 31 77 34 78 32 79 58 80 59 81 67 82 60 83 61 84 65 85
REMARK SMILES IDX 68 86 62 87 63 88 66 89 64 90 43 91 44 92 52 93 45 94 46 95
REMARK SMILES IDX 50 96 53 97 47 98 48 99 51 100 49 101
REMARK H PARENT 73 54 41 65
REMARK Flexibility Score: inf
ROOT
ATOM      1  C   UNL A   1      31.423  29.525  25.015  1.00  0.00     0.188 C 
ENDROOT
BRANCH   1   2
ATOM      2  O   UNL A   1      31.831  29.164  23.711  1.00  0.00    -0.376 OA
BRANCH   2   3
ATOM      3  C   UNL A   1      33.185  28.783  23.503  1.00  0.00     0.202 C 
BRANCH   3   4
ATOM      4  C   UNL A   1      33.615  27.968  22.267  1.00  0.00     0.261 C 
BRANCH   4   5
ATOM      5  O   UNL A   1      33.749  26.547  22.481  1.00  0.00    -0.463 OA
BRANCH   5   6
ATOM      6  C   UNL A   1      32.997  25.745  21.679  1.00  0.00     0.313 C 
ATOM      7  O   UNL A   1      33.167  25.649  20.466  1.00  0.00    -0.252 OA
BRANCH   6   8
ATOM      8  C   UNL A   1      31.970  24.873  22.426  1.00  0.00     0.126 C 
ATOM      9  C   UNL A   1      31.136  25.577  23.505  1.00  0.00     0.025 C 
BRANCH   8  10
ATOM     10  C   UNL A   1      32.521  23.521  22.894  1.00  0.00    -0.033 A 
ATOM     11  C   UNL A   1      31.750  22.361  22.918  1.00  0.00     0.005 A 
ATOM     12  C   UNL A   1      33.830  23.427  23.397  1.00  0.00     0.013 A 
ATOM     13  C   UNL A   1      32.253  21.161  23.410  1.00  0.00     0.004 A 
ATOM     14  C   UNL A   1      34.331  22.249  24.012  1.00  0.00    -0.015 A 
ATOM     15  C   UNL A   1      33.503  21.103  24.040  1.00  0.00    -0.039 A 
BRANCH  14  16
ATOM     16  C   UNL A   1      35.645  22.321  24.686  1.00  0.00    -0.018 A 
ATOM     17  C   UNL A   1      36.038  23.430  25.455  1.00  0.00     0.012 A 
ATOM     18  C   UNL A   1      36.554  21.253  24.550  1.00  0.00     0.012 A 
ATOM     19  C   UNL A   1      37.317  23.493  26.018  1.00  0.00     0.040 A 
ATOM     20  C   UNL A   1      37.824  21.307  25.126  1.00  0.00     0.040 A 
ATOM     21  C   UNL A   1      38.198  22.433  25.844  1.00  0.00     0.123 A 
ATOM     22  F   UNL A   1      39.428  22.498  26.371  1.00  0.00    -0.207 F 
ENDBRANCH  14  16
BRANCH  15  23
ATOM     23  C   UNL A   1      33.811  19.831  24.812  1.00  0.00     0.047 C 
BRANCH  23  24
ATOM     24  C   UNL A   1      34.275  18.619  23.982  1.00  0.00     0.060 C 
ATOM     25  C   UNL A   1      35.229  17.653  24.689  1.00  0.00     0.012 C 
ATOM     26  C   UNL A   1      33.186  17.668  23.532  1.00  0.00     0.136 C 
ATOM     27  C   UNL A   1      34.373  16.497  25.195  1.00  0.00     0.009 C 
ATOM     28  C   UNL A   1      33.295  16.302  24.145  1.00  0.00     0.076 C 
ATOM     29  O   UNL A   1      32.329  17.941  22.701  1.00  0.00    -0.299 OA
ENDBRANCH  23  24
ENDBRANCH  15  23
ENDBRANCH   8  10
ENDBRANCH   6   8
ENDBRANCH   5   6
ENDBRANCH   4   5
ENDBRANCH   3   4
ENDBRANCH   2   3
ENDBRANCH   1   2
BRANCH   1  30
ATOM     30  C   UNL A   1      32.382  29.312  26.192  1.00  0.00     0.188 C 
BRANCH  30  31
ATOM     31  O   UNL A   1      33.294  30.321  26.537  1.00  0.00    -0.376 OA
BRANCH  31  32
ATOM     32  C   UNL A   1      32.979  31.242  27.565  1.00  0.00     0.202 C 
BRANCH  32  33
ATOM     33  C   UNL A   1      32.477  32.684  27.345  1.00  0.00     0.261 C 
BRANCH  33  34
ATOM     34  O   UNL A   1      33.415  33.762  27.439  1.00  0.00    -0.460 OA
BRANCH  34  35
ATOM     35  C   UNL A   1      33.349  34.505  28.568  1.00  0.00     0.338 C 
ATOM     36  O   UNL A   1      32.451  35.269  28.902  1.00  0.00    -0.246 OA
BRANCH  35  37
ATOM     37  C   UNL A   1      34.465  34.130  29.457  1.00  0.00     0.060 A 
ATOM     38  C   UNL A   1      35.767  34.552  29.144  1.00  0.00     0.016 A 
ATOM     39  C   UNL A   1      34.235  33.323  30.572  1.00  0.00     0.016 A 
ATOM     40  C   UNL A   1      36.845  34.143  29.929  1.00  0.00     0.010 A 
ATOM     41  C   UNL A   1      35.319  32.891  31.340  1.00  0.00     0.010 A 
ATOM     42  C   UNL A   1      36.632  33.271  31.006  1.00  0.00    -0.014 A 
BRANCH  42  43
ATOM     43  C   UNL A   1      37.782  32.632  31.691  1.00  0.00     0.031 A 
ATOM     44  C   UNL A   1      38.501  31.505  31.016  1.00  0.00     0.074 A 
ATOM     45  C   UNL A   1      38.146  32.994  32.931  1.00  0.00     0.049 A 
ATOM     46  N   UNL A   1      39.480  30.760  31.463  1.00  0.00    -0.248 NA
ATOM     47  C   UNL A   1      38.020  31.135  29.677  1.00  0.00     0.031 C 
ATOM     48  C   UNL A   1      37.461  33.998  33.731  1.00  0.00     0.029 A 
ATOM     49  N   UNL A   1      39.159  32.539  33.743  1.00  0.00    -0.354 N 
ATOM     50  C   UNL A   1      39.698  29.801  30.487  1.00  0.00     0.074 A 
ATOM     51  C   UNL A   1      38.751  30.060  29.421  1.00  0.00     0.031 C 
ATOM     52  C   UNL A   1      38.079  34.089  34.918  1.00  0.00     0.029 A 
ATOM     53  C   UNL A   1      39.218  33.182  34.957  1.00  0.00     0.049 A 
ATOM     54  H   UNL A   1      39.781  31.824  33.480  1.00  0.00     0.167 HD
ATOM     55  C   UNL A   1      40.591  28.784  30.491  1.00  0.00     0.037 A 
ATOM     56  C   UNL A   1      40.090  33.059  35.977  1.00  0.00     0.037 A 
ATOM     57  C   UNL A   1      41.525  28.520  31.555  1.00  0.00     0.049 A 
ATOM     58  C   UNL A   1      41.136  31.976  35.917  1.00  0.00     0.074 A 
ATOM     59  C   UNL A   1      42.490  27.530  31.626  1.00  0.00     0.029 A 
ATOM     60  N   UNL A   1      41.608  29.241  32.737  1.00  0.00    -0.354 N 
ATOM     61  N   UNL A   1      41.374  31.107  34.966  1.00  0.00    -0.248 NA
ATOM     62  C   UNL A   1      42.009  31.829  37.093  1.00  0.00     0.031 C 
ATOM     63  C   UNL A   1      43.118  27.616  32.873  1.00  0.00     0.029 A 
ATOM     64  C   UNL A   1      42.596  28.704  33.552  1.00  0.00     0.049 A 
ATOM     65  H   UNL A   1      41.050  30.019  32.965  1.00  0.00     0.167 HD
ATOM     66  C   UNL A   1      42.409  30.307  35.430  1.00  0.00     0.074 A 
ATOM     67  C   UNL A   1      42.792  30.826  36.725  1.00  0.00     0.031 C 
ATOM     68  C   UNL A   1      42.970  29.221  34.843  1.00  0.00     0.037 A 
BRANCH  55  69
ATOM     69  C   UNL A   1      40.567  27.846  29.320  1.00  0.00     0.064 A 
ATOM     70  C   UNL A   1      41.407  28.024  28.211  1.00  0.00     0.173 A 
ATOM     71  C   UNL A   1      39.706  26.738  29.320  1.00  0.00     0.173 A 
ATOM     72  F   UNL A   1      42.236  29.078  28.154  1.00  0.00    -0.203 F 
ATOM     73  C   UNL A   1      41.365  27.144  27.133  1.00  0.00     0.198 A 
ATOM     74  C   UNL A   1      39.693  25.840  28.258  1.00  0.00     0.198 A 
ATOM     75  F   UNL A   1      38.882  26.521  30.357  1.00  0.00    -0.203 F 
ATOM     76  F   UNL A   1      42.137  27.365  26.061  1.00  0.00    -0.200 F 
ATOM     77  C   UNL A   1      40.515  26.049  27.161  1.00  0.00     0.200 A 
ATOM     78  F   UNL A   1      38.880  24.775  28.292  1.00  0.00    -0.200 F 
ATOM     79  F   UNL A   1      40.483  25.197  26.127  1.00  0.00    -0.200 F 
ENDBRANCH  55  69
BRANCH  56  80
ATOM     80  C   UNL A   1      40.046  34.003  37.131  1.00  0.00     0.064 A 
ATOM     81  C   UNL A   1      39.258  33.709  38.255  1.00  0.00     0.173 A 
ATOM     82  C   UNL A   1      40.759  35.209  37.141  1.00  0.00     0.173 A 
ATOM     83  F   UNL A   1      38.531  32.581  38.290  1.00  0.00    -0.203 F 
ATOM     84  C   UNL A   1      39.168  34.592  39.330  1.00  0.00     0.198 A 
ATOM     85  C   UNL A   1      40.704  36.072  38.235  1.00  0.00     0.198 A 
ATOM     86  F   UNL A   1      41.511  35.553  36.085  1.00  0.00    -0.203 F 
ATOM     87  F   UNL A   1      38.356  34.313  40.358  1.00  0.00    -0.200 F 
ATOM     88  C   UNL A   1      39.900  35.769  39.323  1.00  0.00     0.200 A 
ATOM     89  F   UNL A   1      41.414  37.208  38.227  1.00  0.00    -0.200 F 
ATOM     90  F   UNL A   1      39.813  36.618  40.356  1.00  0.00    -0.200 F 
ENDBRANCH  56  80
BRANCH  68  91
ATOM     91  C   UNL A   1      44.072  28.524  35.592  1.00  0.00     0.064 A 
ATOM     92  C   UNL A   1      43.807  27.490  36.504  1.00  0.00     0.173 A 
ATOM     93  C   UNL A   1      45.413  28.873  35.370  1.00  0.00     0.173 A 
ATOM     94  F   UNL A   1      42.543  27.125  36.763  1.00  0.00    -0.203 F 
ATOM     95  C   UNL A   1      44.841  26.854  37.186  1.00  0.00     0.198 A 
ATOM     96  C   UNL A   1      46.447  28.212  36.029  1.00  0.00     0.198 A 
ATOM     97  F   UNL A   1      45.724  29.849  34.503  1.00  0.00    -0.203 F 
ATOM     98  F   UNL A   1      44.561  25.907  38.092  1.00  0.00    -0.200 F 
ATOM     99  C   UNL A   1      46.160  27.210  36.943  1.00  0.00     0.200 A 
ATOM    100  F   UNL A   1      47.720  28.546  35.780  1.00  0.00    -0.200 F 
ATOM    101  F   UNL A   1      47.153  26.593  37.596  1.00  0.00    -0.200 F 
ENDBRANCH  68  91
ENDBRANCH  42  43
ENDBRANCH  35  37
ENDBRANCH  34  35
ENDBRANCH  33  34
ENDBRANCH  32  33
ENDBRANCH  31  32
ENDBRANCH  30  31
ENDBRANCH   1  30
TORSDOF 21
ENDMDL
