MODEL 1
REMARK VINA RESULT:     -11.7      0.000      0.000
REMARK SMILES Cc1c(C)c2c(c(C)c1O)CC[C@@](C)(C(=O)OCCOCCOCCOC(=O)c1ccc(-c3c4nc(c(-c5c(F)c(F)c(F)c(F)c5F)c5ccc([nH]5)c(-c5c(F)c(F)c(F)c(F)c5F)c5nc(c(-c6c(F)c(F)c(F)c(F)c6F)c6ccc3[nH]6)C=C5)C=C4)cc1)O2
REMARK SMILES IDX 22 1 21 2 20 3 19 4 18 5 17 6 15 7 16 8 13 9 1 10 2 11 3 12
REMARK SMILES IDX 9 13 4 14 5 15 7 16 6 17 92 18 8 19 11 20 12 21 14 22 10 23
REMARK SMILES IDX 23 25 24 26 25 27 26 28 27 29 28 30 29 31 30 32 91 33 31 34
REMARK SMILES IDX 90 35 32 36 33 37 34 38 84 39 35 40 89 41 83 42 85 43 36 44
REMARK SMILES IDX 88 45 82 46 81 47 37 49 69 50 49 51 68 52 50 53 53 54 67 55
REMARK SMILES IDX 86 56 51 57 52 58 66 60 87 61 54 62 38 63 39 64 47 65 40 66
REMARK SMILES IDX 41 67 45 68 48 69 42 70 43 71 46 72 44 73 70 74 71 75 79 76
REMARK SMILES IDX 72 77 73 78 77 79 80 80 74 81 75 82 78 83 76 84 55 85 56 86
REMARK SMILES IDX 64 87 57 88 58 89 62 90 65 91 59 92 60 93 63 94 61 95
REMARK H PARENT 10 24 85 48 53 59
REMARK Flexibility Score: inf
ROOT
ATOM      1  C   UNL A   1      40.074  20.586  26.188  1.00  0.00     0.188 C 
ENDROOT
BRANCH   1   2
ATOM      2  C   UNL A   1      38.714  21.285  26.061  1.00  0.00     0.188 C 
BRANCH   2   3
ATOM      3  O   UNL A   1      37.925  21.066  24.898  1.00  0.00    -0.376 OA
BRANCH   3   4
ATOM      4  C   UNL A   1      36.608  21.593  24.831  1.00  0.00     0.202 C 
BRANCH   4   5
ATOM      5  C   UNL A   1      35.412  20.640  25.001  1.00  0.00     0.261 C 
BRANCH   5   6
ATOM      6  O   UNL A   1      34.099  21.222  25.183  1.00  0.00    -0.460 OA
BRANCH   6   7
ATOM      7  C   UNL A   1      33.978  22.103  26.218  1.00  0.00     0.350 C 
ATOM      8  O   UNL A   1      34.208  21.795  27.386  1.00  0.00    -0.247 OA
BRANCH   7   9
ATOM      9  C   UNL A   1      33.459  23.510  25.814  1.00  0.00     0.203 C 
ATOM     10  C   UNL A   1      32.409  25.578  20.104  1.00  0.00     0.049 C 
ATOM     11  C   UNL A   1      32.208  25.487  21.596  1.00  0.00    -0.002 A 
ATOM     12  C   UNL A   1      32.674  24.376  22.335  1.00  0.00    -0.002 A 
ATOM     13  C   UNL A   1      31.572  26.537  22.290  1.00  0.00     0.122 A 
ATOM     14  C   UNL A   1      33.278  23.179  21.637  1.00  0.00     0.049 C 
ATOM     15  C   UNL A   1      32.596  24.403  23.743  1.00  0.00     0.127 A 
ATOM     16  C   UNL A   1      31.407  26.519  23.687  1.00  0.00    -0.002 A 
ATOM     17  C   UNL A   1      31.927  25.433  24.423  1.00  0.00     0.001 A 
ATOM     18  O   UNL A   1      33.217  23.369  24.398  1.00  0.00    -0.475 OA
ATOM     19  C   UNL A   1      30.675  27.635  24.388  1.00  0.00     0.049 C 
ATOM     20  C   UNL A   1      31.796  25.389  25.927  1.00  0.00     0.044 C 
ATOM     21  C   UNL A   1      32.173  24.015  26.471  1.00  0.00     0.065 C 
ATOM     22  C   UNL A   1      34.648  24.453  26.067  1.00  0.00     0.069 C 
BRANCH  13  23
ATOM     23  O   UNL A   1      31.083  27.632  21.626  1.00  0.00    -0.507 OA
ATOM     24  H   UNL A   1      30.171  27.841  21.674  1.00  0.00     0.293 HD
ENDBRANCH  13  23
ENDBRANCH   7   9
ENDBRANCH   6   7
ENDBRANCH   5   6
ENDBRANCH   4   5
ENDBRANCH   3   4
ENDBRANCH   2   3
ENDBRANCH   1   2
BRANCH   1  25
ATOM     25  O   UNL A   1      41.180  21.460  26.156  1.00  0.00    -0.376 OA
BRANCH  25  26
ATOM     26  C   UNL A   1      42.461  20.899  25.965  1.00  0.00     0.202 C 
BRANCH  26  27
ATOM     27  C   UNL A   1      43.517  21.835  25.365  1.00  0.00     0.261 C 
BRANCH  27  28
ATOM     28  O   UNL A   1      43.026  23.091  24.859  1.00  0.00    -0.460 OA
BRANCH  28  29
ATOM     29  C   UNL A   1      43.815  24.175  25.030  1.00  0.00     0.338 C 
ATOM     30  O   UNL A   1      44.833  24.446  24.411  1.00  0.00    -0.246 OA
BRANCH  29  31
ATOM     31  C   UNL A   1      43.109  25.112  25.935  1.00  0.00     0.060 A 
ATOM     32  C   UNL A   1      43.514  26.455  25.972  1.00  0.00     0.016 A 
ATOM     33  C   UNL A   1      42.046  24.677  26.729  1.00  0.00     0.016 A 
ATOM     34  C   UNL A   1      42.877  27.360  26.823  1.00  0.00     0.010 A 
ATOM     35  C   UNL A   1      41.429  25.576  27.604  1.00  0.00     0.010 A 
ATOM     36  C   UNL A   1      41.864  26.913  27.680  1.00  0.00    -0.014 A 
BRANCH  36  37
ATOM     37  C   UNL A   1      41.421  27.769  28.810  1.00  0.00     0.031 A 
ATOM     38  C   UNL A   1      42.187  27.686  30.101  1.00  0.00     0.074 A 
ATOM     39  C   UNL A   1      40.375  28.606  28.706  1.00  0.00     0.049 A 
ATOM     40  N   UNL A   1      41.954  28.268  31.250  1.00  0.00    -0.248 NA
ATOM     41  C   UNL A   1      43.379  26.824  30.092  1.00  0.00     0.031 C 
ATOM     42  C   UNL A   1      39.582  28.825  27.501  1.00  0.00     0.029 A 
ATOM     43  N   UNL A   1      39.796  29.421  29.649  1.00  0.00    -0.354 N 
ATOM     44  C   UNL A   1      42.960  27.830  32.101  1.00  0.00     0.074 A 
ATOM     45  C   UNL A   1      43.787  26.914  31.347  1.00  0.00     0.031 C 
ATOM     46  C   UNL A   1      38.603  29.703  27.782  1.00  0.00     0.029 A 
ATOM     47  C   UNL A   1      38.681  30.080  29.195  1.00  0.00     0.049 A 
ATOM     48  H   UNL A   1      40.147  29.523  30.564  1.00  0.00     0.167 HD
ATOM     49  C   UNL A   1      43.180  28.167  33.394  1.00  0.00     0.037 A 
ATOM     50  C   UNL A   1      37.810  30.874  29.849  1.00  0.00     0.037 A 
ATOM     51  C   UNL A   1      42.357  29.078  34.145  1.00  0.00     0.049 A 
ATOM     52  C   UNL A   1      38.021  31.176  31.312  1.00  0.00     0.074 A 
ATOM     53  C   UNL A   1      42.517  29.504  35.451  1.00  0.00     0.029 A 
ATOM     54  N   UNL A   1      41.211  29.691  33.661  1.00  0.00    -0.354 N 
ATOM     55  N   UNL A   1      38.985  30.778  32.108  1.00  0.00    -0.248 NA
ATOM     56  C   UNL A   1      37.026  32.038  31.966  1.00  0.00     0.031 C 
ATOM     57  C   UNL A   1      41.431  30.319  35.782  1.00  0.00     0.029 A 
ATOM     58  C   UNL A   1      40.631  30.462  34.657  1.00  0.00     0.049 A 
ATOM     59  H   UNL A   1      40.861  29.595  32.746  1.00  0.00     0.167 HD
ATOM     60  C   UNL A   1      38.724  31.353  33.346  1.00  0.00     0.074 A 
ATOM     61  C   UNL A   1      37.520  32.142  33.193  1.00  0.00     0.031 C 
ATOM     62  C   UNL A   1      39.424  31.237  34.504  1.00  0.00     0.037 A 
BRANCH  49  63
ATOM     63  C   UNL A   1      44.337  27.513  34.092  1.00  0.00     0.064 A 
ATOM     64  C   UNL A   1      45.611  28.101  34.129  1.00  0.00     0.173 A 
ATOM     65  C   UNL A   1      44.163  26.286  34.752  1.00  0.00     0.173 A 
ATOM     66  F   UNL A   1      45.837  29.265  33.501  1.00  0.00    -0.203 F 
ATOM     67  C   UNL A   1      46.672  27.471  34.776  1.00  0.00     0.198 A 
ATOM     68  C   UNL A   1      45.216  25.678  35.427  1.00  0.00     0.198 A 
ATOM     69  F   UNL A   1      42.965  25.681  34.748  1.00  0.00    -0.203 F 
ATOM     70  F   UNL A   1      47.892  28.025  34.751  1.00  0.00    -0.200 F 
ATOM     71  C   UNL A   1      46.473  26.265  35.430  1.00  0.00     0.200 A 
ATOM     72  F   UNL A   1      45.017  24.520  36.071  1.00  0.00    -0.200 F 
ATOM     73  F   UNL A   1      47.492  25.665  36.058  1.00  0.00    -0.200 F 
ENDBRANCH  49  63
BRANCH  50  74
ATOM     74  C   UNL A   1      36.650  31.438  29.110  1.00  0.00     0.064 A 
ATOM     75  C   UNL A   1      35.547  30.639  28.779  1.00  0.00     0.173 A 
ATOM     76  C   UNL A   1      36.600  32.797  28.765  1.00  0.00     0.173 A 
ATOM     77  F   UNL A   1      35.563  29.328  29.059  1.00  0.00    -0.203 F 
ATOM     78  C   UNL A   1      34.434  31.181  28.142  1.00  0.00     0.198 A 
ATOM     79  C   UNL A   1      35.474  33.343  28.152  1.00  0.00     0.198 A 
ATOM     80  F   UNL A   1      37.635  33.601  29.051  1.00  0.00    -0.203 F 
ATOM     81  F   UNL A   1      33.400  30.392  27.818  1.00  0.00    -0.200 F 
ATOM     82  C   UNL A   1      34.391  32.535  27.841  1.00  0.00     0.200 A 
ATOM     83  F   UNL A   1      35.435  34.653  27.872  1.00  0.00    -0.200 F 
ATOM     84  F   UNL A   1      33.308  33.059  27.251  1.00  0.00    -0.200 F 
ENDBRANCH  50  74
BRANCH  62  85
ATOM     85  C   UNL A   1      38.922  31.987  35.709  1.00  0.00     0.064 A 
ATOM     86  C   UNL A   1      38.157  31.358  36.701  1.00  0.00     0.173 A 
ATOM     87  C   UNL A   1      39.278  33.330  35.912  1.00  0.00     0.173 A 
ATOM     88  F   UNL A   1      37.780  30.078  36.555  1.00  0.00    -0.203 F 
ATOM     89  C   UNL A   1      37.750  32.049  37.840  1.00  0.00     0.198 A 
ATOM     90  C   UNL A   1      38.900  34.008  37.068  1.00  0.00     0.198 A 
ATOM     91  F   UNL A   1      40.020  33.979  35.001  1.00  0.00    -0.203 F 
ATOM     92  F   UNL A   1      36.985  31.438  38.756  1.00  0.00    -0.200 F 
ATOM     93  C   UNL A   1      38.131  33.370  38.028  1.00  0.00     0.200 A 
ATOM     94  F   UNL A   1      39.286  35.278  37.256  1.00  0.00    -0.200 F 
ATOM     95  F   UNL A   1      37.754  34.027  39.133  1.00  0.00    -0.200 F 
ENDBRANCH  62  85
ENDBRANCH  36  37
ENDBRANCH  29  31
ENDBRANCH  28  29
ENDBRANCH  27  28
ENDBRANCH  26  27
ENDBRANCH  25  26
ENDBRANCH   1  25
TORSDOF 18
ENDMDL
MODEL 2
REMARK VINA RESULT:     -11.5      2.699      8.754
REMARK SMILES Cc1c(C)c2c(c(C)c1O)CC[C@@](C)(C(=O)OCCOCCOCCOC(=O)c1ccc(-c3c4nc(c(-c5c(F)c(F)c(F)c(F)c5F)c5ccc([nH]5)c(-c5c(F)c(F)c(F)c(F)c5F)c5nc(c(-c6c(F)c(F)c(F)c(F)c6F)c6ccc3[nH]6)C=C5)C=C4)cc1)O2
REMARK SMILES IDX 22 1 21 2 20 3 19 4 18 5 17 6 15 7 16 8 13 9 1 10 2 11 3 12
REMARK SMILES IDX 9 13 4 14 5 15 7 16 6 17 92 18 8 19 11 20 12 21 14 22 10 23
REMARK SMILES IDX 23 25 24 26 25 27 26 28 27 29 28 30 29 31 30 32 91 33 31 34
REMARK SMILES IDX 90 35 32 36 33 37 34 38 84 39 35 40 89 41 83 42 85 43 36 44
REMARK SMILES IDX 88 45 82 46 81 47 37 49 69 50 49 51 68 52 50 53 53 54 67 55
REMARK SMILES IDX 86 56 51 57 52 58 66 60 87 61 54 62 38 63 39 64 47 65 40 66
REMARK SMILES IDX 41 67 45 68 48 69 42 70 43 71 46 72 44 73 70 74 71 75 79 76
REMARK SMILES IDX 72 77 73 78 77 79 80 80 74 81 75 82 78 83 76 84 55 85 56 86
REMARK SMILES IDX 64 87 57 88 58 89 62 90 65 91 59 92 60 93 63 94 61 95
REMARK H PARENT 10 24 85 48 53 59
REMARK Flexibility Score: inf
ROOT
ATOM      1  C   UNL A   1      31.915  29.123  26.113  1.00  0.00     0.188 C 
ENDROOT
BRANCH   1   2
ATOM      2  C   UNL A   1      31.694  29.360  24.613  1.00  0.00     0.188 C 
BRANCH   2   3
ATOM      3  O   UNL A   1      30.542  28.813  23.984  1.00  0.00    -0.376 OA
BRANCH   3   4
ATOM      4  C   UNL A   1      30.668  28.152  22.733  1.00  0.00     0.202 C 
BRANCH   4   5
ATOM      5  C   UNL A   1      30.847  26.624  22.710  1.00  0.00     0.261 C 
BRANCH   5   6
ATOM      6  O   UNL A   1      32.076  26.075  23.244  1.00  0.00    -0.460 OA
BRANCH   6   7
ATOM      7  C   UNL A   1      31.941  25.265  24.332  1.00  0.00     0.350 C 
ATOM      8  O   UNL A   1      31.507  25.664  25.411  1.00  0.00    -0.247 OA
BRANCH   7   9
ATOM      9  C   UNL A   1      32.446  23.810  24.124  1.00  0.00     0.203 C 
ATOM     10  C   UNL A   1      38.043  21.601  25.458  1.00  0.00     0.049 C 
ATOM     11  C   UNL A   1      36.549  21.542  25.257  1.00  0.00    -0.002 A 
ATOM     12  C   UNL A   1      35.760  22.714  25.260  1.00  0.00    -0.002 A 
ATOM     13  C   UNL A   1      35.915  20.304  25.027  1.00  0.00     0.122 A 
ATOM     14  C   UNL A   1      36.367  24.057  25.594  1.00  0.00     0.049 C 
ATOM     15  C   UNL A   1      34.394  22.625  24.922  1.00  0.00     0.127 A 
ATOM     16  C   UNL A   1      34.533  20.205  24.785  1.00  0.00    -0.002 A 
ATOM     17  C   UNL A   1      33.762  21.385  24.733  1.00  0.00     0.001 A 
ATOM     18  O   UNL A   1      33.731  23.819  24.783  1.00  0.00    -0.475 OA
ATOM     19  C   UNL A   1      33.880  18.858  24.596  1.00  0.00     0.049 C 
ATOM     20  C   UNL A   1      32.280  21.325  24.448  1.00  0.00     0.044 C 
ATOM     21  C   UNL A   1      31.614  22.671  24.715  1.00  0.00     0.065 C 
ATOM     22  C   UNL A   1      32.622  23.672  22.602  1.00  0.00     0.069 C 
BRANCH  13  23
ATOM     23  O   UNL A   1      36.625  19.131  25.030  1.00  0.00    -0.507 OA
ATOM     24  H   UNL A   1      36.738  18.653  25.828  1.00  0.00     0.293 HD
ENDBRANCH  13  23
ENDBRANCH   7   9
ENDBRANCH   6   7
ENDBRANCH   5   6
ENDBRANCH   4   5
ENDBRANCH   3   4
ENDBRANCH   2   3
ENDBRANCH   1   2
BRANCH   1  25
ATOM     25  O   UNL A   1      31.909  30.297  26.894  1.00  0.00    -0.376 OA
BRANCH  25  26
ATOM     26  C   UNL A   1      31.385  31.473  26.317  1.00  0.00     0.202 C 
BRANCH  26  27
ATOM     27  C   UNL A   1      31.745  32.783  27.028  1.00  0.00     0.261 C 
BRANCH  27  28
ATOM     28  O   UNL A   1      33.128  33.178  26.951  1.00  0.00    -0.460 OA
BRANCH  28  29
ATOM     29  C   UNL A   1      33.668  33.752  28.050  1.00  0.00     0.338 C 
ATOM     30  O   UNL A   1      33.172  34.632  28.736  1.00  0.00    -0.246 OA
BRANCH  29  31
ATOM     31  C   UNL A   1      34.865  32.966  28.431  1.00  0.00     0.060 A 
ATOM     32  C   UNL A   1      34.720  31.597  28.704  1.00  0.00     0.016 A 
ATOM     33  C   UNL A   1      36.123  33.567  28.502  1.00  0.00     0.016 A 
ATOM     34  C   UNL A   1      35.827  30.833  29.076  1.00  0.00     0.010 A 
ATOM     35  C   UNL A   1      37.226  32.808  28.905  1.00  0.00     0.010 A 
ATOM     36  C   UNL A   1      37.077  31.445  29.228  1.00  0.00    -0.014 A 
BRANCH  36  37
ATOM     37  C   UNL A   1      38.168  30.732  29.939  1.00  0.00     0.031 A 
ATOM     38  C   UNL A   1      38.400  31.062  31.387  1.00  0.00     0.074 A 
ATOM     39  C   UNL A   1      38.935  29.810  29.333  1.00  0.00     0.049 A 
ATOM     40  N   UNL A   1      39.333  30.639  32.202  1.00  0.00    -0.248 NA
ATOM     41  C   UNL A   1      37.448  32.004  31.997  1.00  0.00     0.031 C 
ATOM     42  C   UNL A   1      38.783  29.357  27.954  1.00  0.00     0.029 A 
ATOM     43  N   UNL A   1      40.010  29.100  29.810  1.00  0.00    -0.354 N 
ATOM     44  C   UNL A   1      39.087  31.273  33.413  1.00  0.00     0.074 A 
ATOM     45  C   UNL A   1      37.938  32.130  33.219  1.00  0.00     0.031 C 
ATOM     46  C   UNL A   1      39.745  28.456  27.688  1.00  0.00     0.029 A 
ATOM     47  C   UNL A   1      40.600  28.297  28.866  1.00  0.00     0.049 A 
ATOM     48  H   UNL A   1      40.327  29.160  30.740  1.00  0.00     0.167 HD
ATOM     49  C   UNL A   1      39.755  31.148  34.584  1.00  0.00     0.037 A 
ATOM     50  C   UNL A   1      41.715  27.543  28.936  1.00  0.00     0.037 A 
ATOM     51  C   UNL A   1      40.898  30.295  34.777  1.00  0.00     0.049 A 
ATOM     52  C   UNL A   1      42.496  27.475  30.225  1.00  0.00     0.074 A 
ATOM     53  C   UNL A   1      41.623  30.079  35.935  1.00  0.00     0.029 A 
ATOM     54  N   UNL A   1      41.492  29.531  33.783  1.00  0.00    -0.354 N 
ATOM     55  N   UNL A   1      42.249  28.059  31.374  1.00  0.00    -0.248 NA
ATOM     56  C   UNL A   1      43.708  26.644  30.227  1.00  0.00     0.031 C 
ATOM     57  C   UNL A   1      42.698  29.239  35.627  1.00  0.00     0.029 A 
ATOM     58  C   UNL A   1      42.600  28.871  34.293  1.00  0.00     0.049 A 
ATOM     59  H   UNL A   1      41.174  29.464  32.854  1.00  0.00     0.167 HD
ATOM     60  C   UNL A   1      43.260  27.652  32.237  1.00  0.00     0.074 A 
ATOM     61  C   UNL A   1      44.116  26.759  31.485  1.00  0.00     0.031 C 
ATOM     62  C   UNL A   1      43.456  27.991  33.537  1.00  0.00     0.037 A 
BRANCH  49  63
ATOM     63  C   UNL A   1      39.288  31.984  35.740  1.00  0.00     0.064 A 
ATOM     64  C   UNL A   1      39.717  33.308  35.921  1.00  0.00     0.173 A 
ATOM     65  C   UNL A   1      38.378  31.458  36.670  1.00  0.00     0.173 A 
ATOM     66  F   UNL A   1      40.598  33.855  35.070  1.00  0.00    -0.203 F 
ATOM     67  C   UNL A   1      39.276  34.062  37.006  1.00  0.00     0.198 A 
ATOM     68  C   UNL A   1      37.913  32.226  37.733  1.00  0.00     0.198 A 
ATOM     69  F   UNL A   1      37.935  30.197  36.544  1.00  0.00    -0.203 F 
ATOM     70  F   UNL A   1      39.743  35.305  37.189  1.00  0.00    -0.200 F 
ATOM     71  C   UNL A   1      38.369  33.524  37.906  1.00  0.00     0.200 A 
ATOM     72  F   UNL A   1      37.025  31.709  38.593  1.00  0.00    -0.200 F 
ATOM     73  F   UNL A   1      37.940  34.253  38.944  1.00  0.00    -0.200 F 
ENDBRANCH  49  63
BRANCH  50  74
ATOM     74  C   UNL A   1      42.154  26.788  27.734  1.00  0.00     0.064 A 
ATOM     75  C   UNL A   1      43.098  27.326  26.848  1.00  0.00     0.173 A 
ATOM     76  C   UNL A   1      41.677  25.495  27.473  1.00  0.00     0.173 A 
ATOM     77  F   UNL A   1      43.558  28.572  27.038  1.00  0.00    -0.203 F 
ATOM     78  C   UNL A   1      43.556  26.595  25.755  1.00  0.00     0.198 A 
ATOM     79  C   UNL A   1      42.157  24.754  26.394  1.00  0.00     0.198 A 
ATOM     80  F   UNL A   1      40.765  24.939  28.285  1.00  0.00    -0.203 F 
ATOM     81  F   UNL A   1      44.444  27.140  24.912  1.00  0.00    -0.200 F 
ATOM     82  C   UNL A   1      43.097  25.305  25.536  1.00  0.00     0.200 A 
ATOM     83  F   UNL A   1      41.716  23.505  26.193  1.00  0.00    -0.200 F 
ATOM     84  F   UNL A   1      43.558  24.593  24.499  1.00  0.00    -0.200 F 
ENDBRANCH  50  74
BRANCH  62  85
ATOM     85  C   UNL A   1      44.637  27.389  34.251  1.00  0.00     0.064 A 
ATOM     86  C   UNL A   1      45.863  28.063  34.344  1.00  0.00     0.173 A 
ATOM     87  C   UNL A   1      44.517  26.159  34.917  1.00  0.00     0.173 A 
ATOM     88  F   UNL A   1      46.038  29.239  33.720  1.00  0.00    -0.203 F 
ATOM     89  C   UNL A   1      46.929  27.521  35.059  1.00  0.00     0.198 A 
ATOM     90  C   UNL A   1      45.572  25.635  35.660  1.00  0.00     0.198 A 
ATOM     91  F   UNL A   1      43.363  25.475  34.872  1.00  0.00    -0.203 F 
ATOM     92  F   UNL A   1      48.104  28.165  35.100  1.00  0.00    -0.200 F 
ATOM     93  C   UNL A   1      46.779  26.313  35.725  1.00  0.00     0.200 A 
ATOM     94  F   UNL A   1      45.418  24.478  36.319  1.00  0.00    -0.200 F 
ATOM     95  F   UNL A   1      47.800  25.802  36.427  1.00  0.00    -0.200 F 
ENDBRANCH  62  85
ENDBRANCH  36  37
ENDBRANCH  29  31
ENDBRANCH  28  29
ENDBRANCH  27  28
ENDBRANCH  26  27
ENDBRANCH  25  26
ENDBRANCH   1  25
TORSDOF 18
ENDMDL
MODEL 3
REMARK VINA RESULT:     -11.4      0.902      2.129
REMARK SMILES Cc1c(C)c2c(c(C)c1O)CC[C@@](C)(C(=O)OCCOCCOCCOC(=O)c1ccc(-c3c4nc(c(-c5c(F)c(F)c(F)c(F)c5F)c5ccc([nH]5)c(-c5c(F)c(F)c(F)c(F)c5F)c5nc(c(-c6c(F)c(F)c(F)c(F)c6F)c6ccc3[nH]6)C=C5)C=C4)cc1)O2
REMARK SMILES IDX 22 1 21 2 20 3 19 4 18 5 17 6 15 7 16 8 13 9 1 10 2 11 3 12
REMARK SMILES IDX 9 13 4 14 5 15 7 16 6 17 92 18 8 19 11 20 12 21 14 22 10 23
REMARK SMILES IDX 23 25 24 26 25 27 26 28 27 29 28 30 29 31 30 32 91 33 31 34
REMARK SMILES IDX 90 35 32 36 33 37 34 38 84 39 35 40 89 41 83 42 85 43 36 44
REMARK SMILES IDX 88 45 82 46 81 47 37 49 69 50 49 51 68 52 50 53 53 54 67 55
REMARK SMILES IDX 86 56 51 57 52 58 66 60 87 61 54 62 38 63 39 64 47 65 40 66
REMARK SMILES IDX 41 67 45 68 48 69 42 70 43 71 46 72 44 73 70 74 71 75 79 76
REMARK SMILES IDX 72 77 73 78 77 79 80 80 74 81 75 82 78 83 76 84 55 85 56 86
REMARK SMILES IDX 64 87 57 88 58 89 62 90 65 91 59 92 60 93 63 94 61 95
REMARK H PARENT 10 24 85 48 53 59
REMARK Flexibility Score: inf
ROOT
ATOM      1  C   UNL A   1      39.599  21.551  26.348  1.00  0.00     0.188 C 
ENDROOT
BRANCH   1   2
ATOM      2  C   UNL A   1      38.323  22.134  25.727  1.00  0.00     0.188 C 
BRANCH   2   3
ATOM      3  O   UNL A   1      37.110  21.394  25.806  1.00  0.00    -0.376 OA
BRANCH   3   4
ATOM      4  C   UNL A   1      35.966  21.838  25.091  1.00  0.00     0.202 C 
BRANCH   4   5
ATOM      5  C   UNL A   1      34.568  21.450  25.604  1.00  0.00     0.261 C 
BRANCH   5   6
ATOM      6  O   UNL A   1      33.734  22.494  26.160  1.00  0.00    -0.460 OA
BRANCH   6   7
ATOM      7  C   UNL A   1      32.673  22.878  25.392  1.00  0.00     0.350 C 
ATOM      8  O   UNL A   1      31.602  22.274  25.384  1.00  0.00    -0.247 OA
BRANCH   7   9
ATOM      9  C   UNL A   1      32.948  24.100  24.473  1.00  0.00     0.203 C 
ATOM     10  C   UNL A   1      28.963  28.535  22.911  1.00  0.00     0.049 C 
ATOM     11  C   UNL A   1      30.317  27.939  23.204  1.00  0.00    -0.002 A 
ATOM     12  C   UNL A   1      30.448  26.733  23.929  1.00  0.00    -0.002 A 
ATOM     13  C   UNL A   1      31.485  28.567  22.726  1.00  0.00     0.122 A 
ATOM     14  C   UNL A   1      29.242  26.065  24.547  1.00  0.00     0.049 C 
ATOM     15  C   UNL A   1      31.721  26.138  24.051  1.00  0.00     0.127 A 
ATOM     16  C   UNL A   1      32.765  28.022  22.932  1.00  0.00    -0.002 A 
ATOM     17  C   UNL A   1      32.883  26.789  23.606  1.00  0.00     0.001 A 
ATOM     18  O   UNL A   1      31.747  24.890  24.621  1.00  0.00    -0.475 OA
ATOM     19  C   UNL A   1      33.996  28.749  22.452  1.00  0.00     0.049 C 
ATOM     20  C   UNL A   1      34.237  26.155  23.823  1.00  0.00     0.044 C 
ATOM     21  C   UNL A   1      34.148  24.990  24.802  1.00  0.00     0.065 C 
ATOM     22  C   UNL A   1      33.034  23.511  23.055  1.00  0.00     0.069 C 
BRANCH  13  23
ATOM     23  O   UNL A   1      31.423  29.748  22.032  1.00  0.00    -0.507 OA
ATOM     24  H   UNL A   1      31.016  30.498  22.419  1.00  0.00     0.293 HD
ENDBRANCH  13  23
ENDBRANCH   7   9
ENDBRANCH   6   7
ENDBRANCH   5   6
ENDBRANCH   4   5
ENDBRANCH   3   4
ENDBRANCH   2   3
ENDBRANCH   1   2
BRANCH   1  25
ATOM     25  O   UNL A   1      40.792  22.145  25.887  1.00  0.00    -0.376 OA
BRANCH  25  26
ATOM     26  C   UNL A   1      41.971  21.370  25.914  1.00  0.00     0.202 C 
BRANCH  26  27
ATOM     27  C   UNL A   1      43.252  22.089  25.474  1.00  0.00     0.261 C 
BRANCH  27  28
ATOM     28  O   UNL A   1      43.067  23.364  24.831  1.00  0.00    -0.460 OA
BRANCH  28  29
ATOM     29  C   UNL A   1      43.920  24.356  25.170  1.00  0.00     0.338 C 
ATOM     30  O   UNL A   1      45.009  24.590  24.669  1.00  0.00    -0.246 OA
BRANCH  29  31
ATOM     31  C   UNL A   1      43.210  25.268  26.097  1.00  0.00     0.060 A 
ATOM     32  C   UNL A   1      43.508  26.639  26.061  1.00  0.00     0.016 A 
ATOM     33  C   UNL A   1      42.245  24.782  26.982  1.00  0.00     0.016 A 
ATOM     34  C   UNL A   1      42.864  27.523  26.929  1.00  0.00     0.010 A 
ATOM     35  C   UNL A   1      41.623  25.663  27.872  1.00  0.00     0.010 A 
ATOM     36  C   UNL A   1      41.955  27.032  27.874  1.00  0.00    -0.014 A 
BRANCH  36  37
ATOM     37  C   UNL A   1      41.529  27.892  29.006  1.00  0.00     0.031 A 
ATOM     38  C   UNL A   1      42.305  27.804  30.291  1.00  0.00     0.074 A 
ATOM     39  C   UNL A   1      40.489  28.738  28.911  1.00  0.00     0.049 A 
ATOM     40  N   UNL A   1      42.087  28.388  31.441  1.00  0.00    -0.248 NA
ATOM     41  C   UNL A   1      43.490  26.931  30.272  1.00  0.00     0.031 C 
ATOM     42  C   UNL A   1      39.688  28.962  27.712  1.00  0.00     0.029 A 
ATOM     43  N   UNL A   1      39.925  29.558  29.858  1.00  0.00    -0.354 N 
ATOM     44  C   UNL A   1      43.096  27.943  32.285  1.00  0.00     0.074 A 
ATOM     45  C   UNL A   1      43.910  27.019  31.524  1.00  0.00     0.031 C 
ATOM     46  C   UNL A   1      38.719  29.849  28.001  1.00  0.00     0.029 A 
ATOM     47  C   UNL A   1      38.812  30.227  29.412  1.00  0.00     0.049 A 
ATOM     48  H   UNL A   1      40.284  29.658  30.769  1.00  0.00     0.167 HD
ATOM     49  C   UNL A   1      43.330  28.279  33.575  1.00  0.00     0.037 A 
ATOM     50  C   UNL A   1      37.952  31.028  30.074  1.00  0.00     0.037 A 
ATOM     51  C   UNL A   1      42.521  29.197  34.332  1.00  0.00     0.049 A 
ATOM     52  C   UNL A   1      38.179  31.329  31.534  1.00  0.00     0.074 A 
ATOM     53  C   UNL A   1      42.696  29.623  35.637  1.00  0.00     0.029 A 
ATOM     54  N   UNL A   1      41.376  29.820  33.858  1.00  0.00    -0.354 N 
ATOM     55  N   UNL A   1      39.147  30.924  32.322  1.00  0.00    -0.248 NA
ATOM     56  C   UNL A   1      37.197  32.200  32.195  1.00  0.00     0.031 C 
ATOM     57  C   UNL A   1      41.619  30.448  35.975  1.00  0.00     0.029 A 
ATOM     58  C   UNL A   1      40.811  30.596  34.858  1.00  0.00     0.049 A 
ATOM     59  H   UNL A   1      41.017  29.726  32.946  1.00  0.00     0.167 HD
ATOM     60  C   UNL A   1      38.901  31.503  33.562  1.00  0.00     0.074 A 
ATOM     61  C   UNL A   1      37.702  32.301  33.419  1.00  0.00     0.031 C 
ATOM     62  C   UNL A   1      39.610  31.382  34.714  1.00  0.00     0.037 A 
BRANCH  49  63
ATOM     63  C   UNL A   1      44.488  27.616  34.264  1.00  0.00     0.064 A 
ATOM     64  C   UNL A   1      44.399  26.315  34.783  1.00  0.00     0.173 A 
ATOM     65  C   UNL A   1      45.714  28.287  34.387  1.00  0.00     0.173 A 
ATOM     66  F   UNL A   1      43.245  25.634  34.706  1.00  0.00    -0.203 F 
ATOM     67  C   UNL A   1      45.484  25.724  35.425  1.00  0.00     0.198 A 
ATOM     68  C   UNL A   1      46.807  27.680  34.998  1.00  0.00     0.198 A 
ATOM     69  F   UNL A   1      45.855  29.533  33.907  1.00  0.00    -0.203 F 
ATOM     70  F   UNL A   1      45.358  24.502  35.962  1.00  0.00    -0.200 F 
ATOM     71  C   UNL A   1      46.689  26.403  35.525  1.00  0.00     0.200 A 
ATOM     72  F   UNL A   1      47.975  28.332  35.080  1.00  0.00    -0.200 F 
ATOM     73  F   UNL A   1      47.734  25.830  36.135  1.00  0.00    -0.200 F 
ENDBRANCH  49  63
BRANCH  50  74
ATOM     74  C   UNL A   1      36.792  31.601  29.344  1.00  0.00     0.064 A 
ATOM     75  C   UNL A   1      35.696  30.802  28.989  1.00  0.00     0.173 A 
ATOM     76  C   UNL A   1      36.732  32.967  29.031  1.00  0.00     0.173 A 
ATOM     77  F   UNL A   1      35.721  29.485  29.238  1.00  0.00    -0.203 F 
ATOM     78  C   UNL A   1      34.581  31.351  28.361  1.00  0.00     0.198 A 
ATOM     79  C   UNL A   1      35.605  33.520  28.427  1.00  0.00     0.198 A 
ATOM     80  F   UNL A   1      37.760  33.772  29.341  1.00  0.00    -0.203 F 
ATOM     81  F   UNL A   1      33.554  30.562  28.014  1.00  0.00    -0.200 F 
ATOM     82  C   UNL A   1      34.529  32.711  28.093  1.00  0.00     0.200 A 
ATOM     83  F   UNL A   1      35.557  34.835  28.179  1.00  0.00    -0.200 F 
ATOM     84  F   UNL A   1      33.445  33.242  27.512  1.00  0.00    -0.200 F 
ENDBRANCH  50  74
BRANCH  62  85
ATOM     85  C   UNL A   1      39.124  32.136  35.922  1.00  0.00     0.064 A 
ATOM     86  C   UNL A   1      39.455  33.483  36.132  1.00  0.00     0.173 A 
ATOM     87  C   UNL A   1      38.254  31.527  36.841  1.00  0.00     0.173 A 
ATOM     88  F   UNL A   1      40.290  34.113  35.291  1.00  0.00    -0.203 F 
ATOM     89  C   UNL A   1      38.949  34.185  37.223  1.00  0.00     0.198 A 
ATOM     90  C   UNL A   1      37.722  32.241  37.912  1.00  0.00     0.198 A 
ATOM     91  F   UNL A   1      37.894  30.244  36.684  1.00  0.00    -0.203 F 
ATOM     92  F   UNL A   1      39.312  35.460  37.424  1.00  0.00    -0.200 F 
ATOM     93  C   UNL A   1      38.075  33.568  38.106  1.00  0.00     0.200 A 
ATOM     94  F   UNL A   1      36.862  31.648  38.751  1.00  0.00    -0.200 F 
ATOM     95  F   UNL A   1      37.575  34.250  39.145  1.00  0.00    -0.200 F 
ENDBRANCH  62  85
ENDBRANCH  36  37
ENDBRANCH  29  31
ENDBRANCH  28  29
ENDBRANCH  27  28
ENDBRANCH  26  27
ENDBRANCH  25  26
ENDBRANCH   1  25
TORSDOF 18
ENDMDL
