MODEL 1
REMARK VINA RESULT:     -10.6      0.000      0.000
REMARK SMILES O=C(Nc1ccc(C(=O)OCCOCCOCCOC(=O)c2ccc(-c3c4nc(c(-c5c(F)c(F)c(F)c(F)c5F)c5ccc([nH]5)c(-c5c(F)c(F)c(F)c(F)c5F)c5nc(c(-c6c(F)c(F)c(F)c(F)c6F)c6ccc3[nH]6)C=C5)C=C4)cc2)cc1)c1cc(F)cc(Br)c1
REMARK SMILES IDX 14 1 13 2 12 3 11 4 10 5 8 6 9 7 7 8 4 9 5 10 86 11 6 12
REMARK SMILES IDX 85 13 3 14 1 15 2 16 87 18 88 19 94 20 89 21 92 22 90 23
REMARK SMILES IDX 91 24 93 25 15 26 16 27 17 28 18 29 19 30 20 31 21 32 22 33
REMARK SMILES IDX 23 34 84 35 24 36 83 37 25 38 26 39 27 40 77 41 28 42 82 43
REMARK SMILES IDX 76 44 78 45 29 46 81 47 75 48 74 49 30 51 62 52 42 53 61 54
REMARK SMILES IDX 43 55 46 56 60 57 79 58 44 59 45 60 59 62 80 63 47 64 31 65
REMARK SMILES IDX 32 66 40 67 33 68 34 69 38 70 41 71 35 72 36 73 39 74 37 75
REMARK SMILES IDX 63 76 64 77 72 78 65 79 66 80 70 81 73 82 67 83 68 84 71 85
REMARK SMILES IDX 69 86 48 87 49 88 57 89 50 90 51 91 55 92 58 93 52 94 53 95
REMARK SMILES IDX 56 96 54 97
REMARK H PARENT 3 17 78 50 46 61
REMARK Flexibility Score: inf
ROOT
ATOM      1  C   UNL A   1      35.415  31.960  28.193  1.00  0.00     0.188 C 
ENDROOT
BRANCH   1   2
ATOM      2  O   UNL A   1      34.582  31.066  27.477  1.00  0.00    -0.376 OA
BRANCH   2   3
ATOM      3  C   UNL A   1      33.221  31.394  27.239  1.00  0.00     0.202 C 
BRANCH   3   4
ATOM      4  C   UNL A   1      32.207  30.295  26.918  1.00  0.00     0.261 C 
BRANCH   4   5
ATOM      5  O   UNL A   1      32.735  28.972  27.080  1.00  0.00    -0.460 OA
BRANCH   5   6
ATOM      6  C   UNL A   1      31.803  28.002  27.240  1.00  0.00     0.338 C 
ATOM      7  O   UNL A   1      31.011  27.886  28.160  1.00  0.00    -0.246 OA
BRANCH   6   8
ATOM      8  C   UNL A   1      31.735  27.156  26.029  1.00  0.00     0.060 A 
ATOM      9  C   UNL A   1      31.654  25.300  23.963  1.00  0.00     0.041 A 
ATOM     10  C   UNL A   1      30.593  25.363  24.863  1.00  0.00     0.027 A 
ATOM     11  C   UNL A   1      32.654  26.282  23.987  1.00  0.00     0.027 A 
ATOM     12  C   UNL A   1      30.652  26.272  25.918  1.00  0.00     0.018 A 
ATOM     13  C   UNL A   1      32.705  27.208  25.028  1.00  0.00     0.018 A 
BRANCH   9  14
ATOM     14  N   UNL A   1      31.742  24.160  23.148  1.00  0.00    -0.322 N 
ATOM     15  O   UNL A   1      32.650  22.195  22.455  1.00  0.00    -0.269 OA
ATOM     16  C   UNL A   1      32.571  23.066  23.317  1.00  0.00     0.255 C 
ATOM     17  H   UNL A   1      31.146  24.137  22.365  1.00  0.00     0.170 HD
BRANCH  16  18
ATOM     18  C   UNL A   1      33.315  22.885  24.591  1.00  0.00     0.044 A 
ATOM     19  C   UNL A   1      32.668  22.438  25.752  1.00  0.00     0.053 A 
ATOM     20  C   UNL A   1      34.673  23.211  24.625  1.00  0.00     0.029 A 
ATOM     21  C   UNL A   1      33.358  22.438  26.957  1.00  0.00     0.125 A 
ATOM     22  C   UNL A   1      35.351  23.176  25.844  1.00  0.00     0.021 A 
ATOM     23  F   UNL A   1      32.714  22.103  28.082  1.00  0.00    -0.207 F 
ATOM     24  C   UNL A   1      34.693  22.813  27.019  1.00  0.00     0.055 A 
ATOM     25  Br  UNL A   1      37.175  23.663  25.912  1.00  0.00    -0.051 Br
ENDBRANCH  16  18
ENDBRANCH   9  14
ENDBRANCH   6   8
ENDBRANCH   5   6
ENDBRANCH   4   5
ENDBRANCH   3   4
ENDBRANCH   2   3
ENDBRANCH   1   2
BRANCH   1  26
ATOM     26  C   UNL A   1      34.834  32.922  29.249  1.00  0.00     0.188 C 
BRANCH  26  27
ATOM     27  O   UNL A   1      35.112  34.299  29.173  1.00  0.00    -0.376 OA
BRANCH  27  28
ATOM     28  C   UNL A   1      34.120  35.238  28.797  1.00  0.00     0.202 C 
BRANCH  28  29
ATOM     29  C   UNL A   1      32.941  35.700  29.669  1.00  0.00     0.261 C 
BRANCH  29  30
ATOM     30  O   UNL A   1      33.243  36.280  30.938  1.00  0.00    -0.460 OA
BRANCH  30  31
ATOM     31  C   UNL A   1      32.845  35.548  32.008  1.00  0.00     0.338 C 
ATOM     32  O   UNL A   1      31.708  35.320  32.375  1.00  0.00    -0.246 OA
BRANCH  31  33
ATOM     33  C   UNL A   1      34.025  34.898  32.602  1.00  0.00     0.060 A 
ATOM     34  C   UNL A   1      35.269  35.529  32.472  1.00  0.00     0.016 A 
ATOM     35  C   UNL A   1      33.914  33.657  33.232  1.00  0.00     0.016 A 
ATOM     36  C   UNL A   1      36.418  34.902  32.949  1.00  0.00     0.010 A 
ATOM     37  C   UNL A   1      35.069  33.022  33.691  1.00  0.00     0.010 A 
ATOM     38  C   UNL A   1      36.328  33.627  33.523  1.00  0.00    -0.014 A 
BRANCH  38  39
ATOM     39  C   UNL A   1      37.561  32.847  33.778  1.00  0.00     0.031 A 
ATOM     40  C   UNL A   1      38.327  33.108  35.043  1.00  0.00     0.074 A 
ATOM     41  C   UNL A   1      37.988  31.916  32.908  1.00  0.00     0.049 A 
ATOM     42  N   UNL A   1      39.453  32.587  35.459  1.00  0.00    -0.248 NA
ATOM     43  C   UNL A   1      37.744  34.098  35.964  1.00  0.00     0.031 C 
ATOM     44  C   UNL A   1      37.311  31.544  31.669  1.00  0.00     0.029 A 
ATOM     45  N   UNL A   1      39.105  31.119  32.939  1.00  0.00    -0.354 N 
ATOM     46  C   UNL A   1      39.714  33.187  36.684  1.00  0.00     0.074 A 
ATOM     47  C   UNL A   1      38.647  34.133  36.931  1.00  0.00     0.031 C 
ATOM     48  C   UNL A   1      38.038  30.599  31.046  1.00  0.00     0.029 A 
ATOM     49  C   UNL A   1      39.241  30.324  31.829  1.00  0.00     0.049 A 
ATOM     50  H   UNL A   1      39.748  31.120  33.684  1.00  0.00     0.167 HD
ATOM     51  C   UNL A   1      40.747  32.965  37.531  1.00  0.00     0.037 A 
ATOM     52  C   UNL A   1      40.238  29.487  31.480  1.00  0.00     0.037 A 
ATOM     53  C   UNL A   1      41.813  32.032  37.279  1.00  0.00     0.049 A 
ATOM     54  C   UNL A   1      41.420  29.315  32.401  1.00  0.00     0.074 A 
ATOM     55  C   UNL A   1      42.897  31.722  38.081  1.00  0.00     0.029 A 
ATOM     56  N   UNL A   1      41.935  31.266  36.128  1.00  0.00    -0.354 N 
ATOM     57  N   UNL A   1      41.646  29.861  33.571  1.00  0.00    -0.248 NA
ATOM     58  C   UNL A   1      42.484  28.407  31.949  1.00  0.00     0.031 C 
ATOM     59  C   UNL A   1      43.702  30.809  37.393  1.00  0.00     0.029 A 
ATOM     60  C   UNL A   1      43.092  30.506  36.186  1.00  0.00     0.049 A 
ATOM     61  H   UNL A   1      41.295  31.265  35.381  1.00  0.00     0.167 HD
ATOM     62  C   UNL A   1      42.859  29.342  34.008  1.00  0.00     0.074 A 
ATOM     63  C   UNL A   1      43.316  28.430  32.982  1.00  0.00     0.031 C 
ATOM     64  C   UNL A   1      43.531  29.595  35.160  1.00  0.00     0.037 A 
BRANCH  51  65
ATOM     65  C   UNL A   1      40.786  33.774  38.793  1.00  0.00     0.064 A 
ATOM     66  C   UNL A   1      40.059  33.399  39.932  1.00  0.00     0.173 A 
ATOM     67  C   UNL A   1      41.568  34.936  38.866  1.00  0.00     0.173 A 
ATOM     68  F   UNL A   1      39.282  32.306  39.908  1.00  0.00    -0.203 F 
ATOM     69  C   UNL A   1      40.088  34.176  41.088  1.00  0.00     0.198 A 
ATOM     70  C   UNL A   1      41.620  35.694  40.033  1.00  0.00     0.198 A 
ATOM     71  F   UNL A   1      42.285  35.338  37.805  1.00  0.00    -0.203 F 
ATOM     72  F   UNL A   1      39.342  33.829  42.145  1.00  0.00    -0.200 F 
ATOM     73  C   UNL A   1      40.872  35.319  41.139  1.00  0.00     0.200 A 
ATOM     74  F   UNL A   1      42.385  36.792  40.084  1.00  0.00    -0.200 F 
ATOM     75  F   UNL A   1      40.900  36.065  42.252  1.00  0.00    -0.200 F 
ENDBRANCH  51  65
BRANCH  52  76
ATOM     76  C   UNL A   1      40.167  28.747  30.193  1.00  0.00     0.064 A 
ATOM     77  C   UNL A   1      39.510  27.512  30.108  1.00  0.00     0.173 A 
ATOM     78  C   UNL A   1      40.768  29.250  29.030  1.00  0.00     0.173 A 
ATOM     79  F   UNL A   1      38.945  26.977  31.199  1.00  0.00    -0.203 F 
ATOM     80  C   UNL A   1      39.469  26.802  28.909  1.00  0.00     0.198 A 
ATOM     81  C   UNL A   1      40.702  28.552  27.827  1.00  0.00     0.198 A 
ATOM     82  F   UNL A   1      41.413  30.425  29.062  1.00  0.00    -0.203 F 
ATOM     83  F   UNL A   1      38.870  25.604  28.865  1.00  0.00    -0.200 F 
ATOM     84  C   UNL A   1      40.059  27.325  27.768  1.00  0.00     0.200 A 
ATOM     85  F   UNL A   1      41.267  29.065  26.726  1.00  0.00    -0.200 F 
ATOM     86  F   UNL A   1      40.015  26.644  26.615  1.00  0.00    -0.200 F 
ENDBRANCH  52  76
BRANCH  64  87
ATOM     87  C   UNL A   1      44.812  28.846  35.394  1.00  0.00     0.064 A 
ATOM     88  C   UNL A   1      46.055  29.371  35.010  1.00  0.00     0.173 A 
ATOM     89  C   UNL A   1      44.798  27.608  36.056  1.00  0.00     0.173 A 
ATOM     90  F   UNL A   1      46.122  30.542  34.361  1.00  0.00    -0.203 F 
ATOM     91  C   UNL A   1      47.234  28.671  35.259  1.00  0.00     0.198 A 
ATOM     92  C   UNL A   1      45.981  26.927  36.330  1.00  0.00     0.198 A 
ATOM     93  F   UNL A   1      43.637  27.067  36.452  1.00  0.00    -0.203 F 
ATOM     94  F   UNL A   1      48.407  29.170  34.843  1.00  0.00    -0.200 F 
ATOM     95  C   UNL A   1      47.197  27.456  35.926  1.00  0.00     0.200 A 
ATOM     96  F   UNL A   1      45.944  25.761  36.988  1.00  0.00    -0.200 F 
ATOM     97  F   UNL A   1      48.333  26.790  36.172  1.00  0.00    -0.200 F 
ENDBRANCH  64  87
ENDBRANCH  38  39
ENDBRANCH  31  33
ENDBRANCH  30  31
ENDBRANCH  29  30
ENDBRANCH  28  29
ENDBRANCH  27  28
ENDBRANCH  26  27
ENDBRANCH   1  26
TORSDOF 19
ENDMDL
MODEL 2
REMARK VINA RESULT:     -10.6      3.759      9.842
REMARK SMILES O=C(Nc1ccc(C(=O)OCCOCCOCCOC(=O)c2ccc(-c3c4nc(c(-c5c(F)c(F)c(F)c(F)c5F)c5ccc([nH]5)c(-c5c(F)c(F)c(F)c(F)c5F)c5nc(c(-c6c(F)c(F)c(F)c(F)c6F)c6ccc3[nH]6)C=C5)C=C4)cc2)cc1)c1cc(F)cc(Br)c1
REMARK SMILES IDX 14 1 13 2 12 3 11 4 10 5 8 6 9 7 7 8 4 9 5 10 86 11 6 12
REMARK SMILES IDX 85 13 3 14 1 15 2 16 87 18 88 19 94 20 89 21 92 22 90 23
REMARK SMILES IDX 91 24 93 25 15 26 16 27 17 28 18 29 19 30 20 31 21 32 22 33
REMARK SMILES IDX 23 34 84 35 24 36 83 37 25 38 26 39 27 40 77 41 28 42 82 43
REMARK SMILES IDX 76 44 78 45 29 46 81 47 75 48 74 49 30 51 62 52 42 53 61 54
REMARK SMILES IDX 43 55 46 56 60 57 79 58 44 59 45 60 59 62 80 63 47 64 31 65
REMARK SMILES IDX 32 66 40 67 33 68 34 69 38 70 41 71 35 72 36 73 39 74 37 75
REMARK SMILES IDX 63 76 64 77 72 78 65 79 66 80 70 81 73 82 67 83 68 84 71 85
REMARK SMILES IDX 69 86 48 87 49 88 57 89 50 90 51 91 55 92 58 93 52 94 53 95
REMARK SMILES IDX 56 96 54 97
REMARK H PARENT 3 17 78 50 46 61
REMARK Flexibility Score: inf
ROOT
ATOM      1  C   UNL A   1      41.329  21.014  26.887  1.00  0.00     0.188 C 
ENDROOT
BRANCH   1   2
ATOM      2  O   UNL A   1      40.783  19.930  26.156  1.00  0.00    -0.376 OA
BRANCH   2   3
ATOM      3  C   UNL A   1      39.399  19.908  25.841  1.00  0.00     0.202 C 
BRANCH   3   4
ATOM      4  C   UNL A   1      38.686  21.189  25.403  1.00  0.00     0.261 C 
BRANCH   4   5
ATOM      5  O   UNL A   1      37.518  20.945  24.610  1.00  0.00    -0.460 OA
BRANCH   5   6
ATOM      6  C   UNL A   1      36.737  22.032  24.398  1.00  0.00     0.338 C 
ATOM      7  O   UNL A   1      36.893  22.899  23.555  1.00  0.00    -0.246 OA
BRANCH   6   8
ATOM      8  C   UNL A   1      35.519  21.954  25.232  1.00  0.00     0.060 A 
ATOM      9  C   UNL A   1      33.070  21.974  26.546  1.00  0.00     0.041 A 
ATOM     10  C   UNL A   1      33.236  21.159  25.429  1.00  0.00     0.027 A 
ATOM     11  C   UNL A   1      34.175  22.628  27.109  1.00  0.00     0.027 A 
ATOM     12  C   UNL A   1      34.454  21.177  24.753  1.00  0.00     0.018 A 
ATOM     13  C   UNL A   1      35.403  22.629  26.447  1.00  0.00     0.018 A 
BRANCH   9  14
ATOM     14  N   UNL A   1      31.757  22.213  26.983  1.00  0.00    -0.322 N 
ATOM     15  O   UNL A   1      29.901  23.482  27.315  1.00  0.00    -0.269 OA
ATOM     16  C   UNL A   1      30.987  23.341  26.761  1.00  0.00     0.255 C 
ATOM     17  H   UNL A   1      31.335  21.495  27.507  1.00  0.00     0.170 HD
BRANCH  16  18
ATOM     18  C   UNL A   1      31.429  24.362  25.776  1.00  0.00     0.044 A 
ATOM     19  C   UNL A   1      31.162  24.214  24.408  1.00  0.00     0.053 A 
ATOM     20  C   UNL A   1      32.160  25.461  26.233  1.00  0.00     0.029 A 
ATOM     21  C   UNL A   1      31.730  25.102  23.504  1.00  0.00     0.125 A 
ATOM     22  C   UNL A   1      32.698  26.355  25.307  1.00  0.00     0.021 A 
ATOM     23  F   UNL A   1      31.554  24.906  22.192  1.00  0.00    -0.207 F 
ATOM     24  C   UNL A   1      32.506  26.168  23.939  1.00  0.00     0.055 A 
ATOM     25  Br  UNL A   1      33.730  27.818  25.911  1.00  0.00    -0.051 Br
ENDBRANCH  16  18
ENDBRANCH   9  14
ENDBRANCH   6   8
ENDBRANCH   5   6
ENDBRANCH   4   5
ENDBRANCH   3   4
ENDBRANCH   2   3
ENDBRANCH   1   2
BRANCH   1  26
ATOM     26  C   UNL A   1      42.202  22.084  26.197  1.00  0.00     0.188 C 
BRANCH  26  27
ATOM     27  O   UNL A   1      42.909  21.764  25.025  1.00  0.00    -0.376 OA
BRANCH  27  28
ATOM     28  C   UNL A   1      44.260  22.151  24.842  1.00  0.00     0.202 C 
BRANCH  28  29
ATOM     29  C   UNL A   1      44.762  23.587  24.617  1.00  0.00     0.261 C 
BRANCH  29  30
ATOM     30  O   UNL A   1      43.853  24.656  24.882  1.00  0.00    -0.460 OA
BRANCH  30  31
ATOM     31  C   UNL A   1      44.439  25.833  25.211  1.00  0.00     0.338 C 
ATOM     32  O   UNL A   1      45.382  26.376  24.665  1.00  0.00    -0.246 OA
BRANCH  31  33
ATOM     33  C   UNL A   1      43.643  26.480  26.267  1.00  0.00     0.060 A 
ATOM     34  C   UNL A   1      43.829  27.849  26.497  1.00  0.00     0.016 A 
ATOM     35  C   UNL A   1      42.764  25.734  27.055  1.00  0.00     0.016 A 
ATOM     36  C   UNL A   1      43.155  28.475  27.544  1.00  0.00     0.010 A 
ATOM     37  C   UNL A   1      42.105  26.359  28.115  1.00  0.00     0.010 A 
ATOM     38  C   UNL A   1      42.322  27.723  28.383  1.00  0.00    -0.014 A 
BRANCH  38  39
ATOM     39  C   UNL A   1      41.824  28.315  29.646  1.00  0.00     0.031 A 
ATOM     40  C   UNL A   1      40.564  29.132  29.609  1.00  0.00     0.074 A 
ATOM     41  C   UNL A   1      42.472  28.122  30.807  1.00  0.00     0.049 A 
ATOM     42  N   UNL A   1      39.965  29.784  30.572  1.00  0.00    -0.248 NA
ATOM     43  C   UNL A   1      39.891  29.230  28.304  1.00  0.00     0.031 C 
ATOM     44  C   UNL A   1      43.679  27.318  30.979  1.00  0.00     0.029 A 
ATOM     45  N   UNL A   1      42.202  28.602  32.064  1.00  0.00    -0.354 N 
ATOM     46  C   UNL A   1      38.849  30.372  29.990  1.00  0.00     0.074 A 
ATOM     47  C   UNL A   1      38.871  30.024  28.585  1.00  0.00     0.031 C 
ATOM     48  C   UNL A   1      44.056  27.372  32.268  1.00  0.00     0.029 A 
ATOM     49  C   UNL A   1      43.134  28.238  33.002  1.00  0.00     0.049 A 
ATOM     50  H   UNL A   1      41.415  29.156  32.273  1.00  0.00     0.167 HD
ATOM     51  C   UNL A   1      37.890  31.127  30.574  1.00  0.00     0.037 A 
ATOM     52  C   UNL A   1      43.240  28.585  34.300  1.00  0.00     0.037 A 
ATOM     53  C   UNL A   1      37.876  31.481  31.969  1.00  0.00     0.049 A 
ATOM     54  C   UNL A   1      42.203  29.493  34.912  1.00  0.00     0.074 A 
ATOM     55  C   UNL A   1      36.940  32.228  32.661  1.00  0.00     0.029 A 
ATOM     56  N   UNL A   1      38.856  31.120  32.883  1.00  0.00    -0.354 N 
ATOM     57  N   UNL A   1      41.135  30.020  34.365  1.00  0.00    -0.248 NA
ATOM     58  C   UNL A   1      42.390  29.853  36.325  1.00  0.00     0.031 C 
ATOM     59  C   UNL A   1      37.380  32.363  33.982  1.00  0.00     0.029 A 
ATOM     60  C   UNL A   1      38.561  31.653  34.127  1.00  0.00     0.049 A 
ATOM     61  H   UNL A   1      39.644  30.568  32.677  1.00  0.00     0.167 HD
ATOM     62  C   UNL A   1      40.507  30.746  35.370  1.00  0.00     0.074 A 
ATOM     63  C   UNL A   1      41.309  30.585  36.564  1.00  0.00     0.031 C 
ATOM     64  C   UNL A   1      39.366  31.478  35.310  1.00  0.00     0.037 A 
BRANCH  51  65
ATOM     65  C   UNL A   1      36.795  31.649  29.692  1.00  0.00     0.064 A 
ATOM     66  C   UNL A   1      36.752  32.990  29.283  1.00  0.00     0.173 A 
ATOM     67  C   UNL A   1      35.778  30.793  29.244  1.00  0.00     0.173 A 
ATOM     68  F   UNL A   1      37.692  33.852  29.698  1.00  0.00    -0.203 F 
ATOM     69  C   UNL A   1      35.714  33.462  28.484  1.00  0.00     0.198 A 
ATOM     70  C   UNL A   1      34.757  31.261  28.420  1.00  0.00     0.198 A 
ATOM     71  F   UNL A   1      35.772  29.501  29.605  1.00  0.00    -0.203 F 
ATOM     72  F   UNL A   1      35.664  34.759  28.151  1.00  0.00    -0.200 F 
ATOM     73  C   UNL A   1      34.721  32.597  28.049  1.00  0.00     0.200 A 
ATOM     74  F   UNL A   1      33.805  30.422  27.993  1.00  0.00    -0.200 F 
ATOM     75  F   UNL A   1      33.724  33.053  27.279  1.00  0.00    -0.200 F 
ENDBRANCH  51  65
BRANCH  52  76
ATOM     76  C   UNL A   1      44.374  28.075  35.114  1.00  0.00     0.064 A 
ATOM     77  C   UNL A   1      45.639  28.674  35.042  1.00  0.00     0.173 A 
ATOM     78  C   UNL A   1      44.220  26.971  35.964  1.00  0.00     0.173 A 
ATOM     79  F   UNL A   1      45.841  29.714  34.222  1.00  0.00    -0.203 F 
ATOM     80  C   UNL A   1      46.711  28.178  35.781  1.00  0.00     0.198 A 
ATOM     81  C   UNL A   1      45.286  26.493  36.723  1.00  0.00     0.198 A 
ATOM     82  F   UNL A   1      43.031  26.360  36.063  1.00  0.00    -0.203 F 
ATOM     83  F   UNL A   1      47.921  28.743  35.662  1.00  0.00    -0.200 F 
ATOM     84  C   UNL A   1      46.533  27.092  36.626  1.00  0.00     0.200 A 
ATOM     85  F   UNL A   1      45.107  25.449  37.543  1.00  0.00    -0.200 F 
ATOM     86  F   UNL A   1      47.564  26.619  37.339  1.00  0.00    -0.200 F 
ENDBRANCH  52  76
BRANCH  64  87
ATOM     87  C   UNL A   1      38.890  32.126  36.578  1.00  0.00     0.064 A 
ATOM     88  C   UNL A   1      39.295  33.419  36.945  1.00  0.00     0.173 A 
ATOM     89  C   UNL A   1      37.978  31.462  37.415  1.00  0.00     0.173 A 
ATOM     90  F   UNL A   1      40.175  34.090  36.188  1.00  0.00    -0.203 F 
ATOM     91  C   UNL A   1      38.822  34.012  38.113  1.00  0.00     0.198 A 
ATOM     92  C   UNL A   1      37.485  32.071  38.565  1.00  0.00     0.198 A 
ATOM     93  F   UNL A   1      37.553  30.228  37.106  1.00  0.00    -0.203 F 
ATOM     94  F   UNL A   1      39.256  35.230  38.466  1.00  0.00    -0.200 F 
ATOM     95  C   UNL A   1      37.911  33.342  38.917  1.00  0.00     0.200 A 
ATOM     96  F   UNL A   1      36.595  31.428  39.332  1.00  0.00    -0.200 F 
ATOM     97  F   UNL A   1      37.452  33.919  40.035  1.00  0.00    -0.200 F 
ENDBRANCH  64  87
ENDBRANCH  38  39
ENDBRANCH  31  33
ENDBRANCH  30  31
ENDBRANCH  29  30
ENDBRANCH  28  29
ENDBRANCH  27  28
ENDBRANCH  26  27
ENDBRANCH   1  26
TORSDOF 19
ENDMDL
MODEL 3
REMARK VINA RESULT:     -10.5      1.706      7.488
REMARK SMILES O=C(Nc1ccc(C(=O)OCCOCCOCCOC(=O)c2ccc(-c3c4nc(c(-c5c(F)c(F)c(F)c(F)c5F)c5ccc([nH]5)c(-c5c(F)c(F)c(F)c(F)c5F)c5nc(c(-c6c(F)c(F)c(F)c(F)c6F)c6ccc3[nH]6)C=C5)C=C4)cc2)cc1)c1cc(F)cc(Br)c1
REMARK SMILES IDX 14 1 13 2 12 3 11 4 10 5 8 6 9 7 7 8 4 9 5 10 86 11 6 12
REMARK SMILES IDX 85 13 3 14 1 15 2 16 87 18 88 19 94 20 89 21 92 22 90 23
REMARK SMILES IDX 91 24 93 25 15 26 16 27 17 28 18 29 19 30 20 31 21 32 22 33
REMARK SMILES IDX 23 34 84 35 24 36 83 37 25 38 26 39 27 40 77 41 28 42 82 43
REMARK SMILES IDX 76 44 78 45 29 46 81 47 75 48 74 49 30 51 62 52 42 53 61 54
REMARK SMILES IDX 43 55 46 56 60 57 79 58 44 59 45 60 59 62 80 63 47 64 31 65
REMARK SMILES IDX 32 66 40 67 33 68 34 69 38 70 41 71 35 72 36 73 39 74 37 75
REMARK SMILES IDX 63 76 64 77 72 78 65 79 66 80 70 81 73 82 67 83 68 84 71 85
REMARK SMILES IDX 69 86 48 87 49 88 57 89 50 90 51 91 55 92 58 93 52 94 53 95
REMARK SMILES IDX 56 96 54 97
REMARK H PARENT 3 17 78 50 46 61
REMARK Flexibility Score: inf
ROOT
ATOM      1  C   UNL A   1      32.280  29.134  27.046  1.00  0.00     0.188 C 
ENDROOT
BRANCH   1   2
ATOM      2  O   UNL A   1      32.671  28.380  25.913  1.00  0.00    -0.376 OA
BRANCH   2   3
ATOM      3  C   UNL A   1      33.318  29.016  24.821  1.00  0.00     0.202 C 
BRANCH   3   4
ATOM      4  C   UNL A   1      33.644  28.227  23.551  1.00  0.00     0.261 C 
BRANCH   4   5
ATOM      5  O   UNL A   1      33.297  26.839  23.643  1.00  0.00    -0.460 OA
BRANCH   5   6
ATOM      6  C   UNL A   1      32.138  26.500  23.030  1.00  0.00     0.338 C 
ATOM      7  O   UNL A   1      31.308  27.256  22.554  1.00  0.00    -0.246 OA
BRANCH   6   8
ATOM      8  C   UNL A   1      32.070  25.035  22.841  1.00  0.00     0.060 A 
ATOM      9  C   UNL A   1      32.029  22.257  22.816  1.00  0.00     0.041 A 
ATOM     10  C   UNL A   1      31.028  22.946  23.497  1.00  0.00     0.027 A 
ATOM     11  C   UNL A   1      32.931  22.953  22.000  1.00  0.00     0.027 A 
ATOM     12  C   UNL A   1      31.071  24.338  23.535  1.00  0.00     0.018 A 
ATOM     13  C   UNL A   1      32.963  24.348  22.018  1.00  0.00     0.018 A 
BRANCH   9  14
ATOM     14  N   UNL A   1      32.170  20.887  23.089  1.00  0.00    -0.322 N 
ATOM     15  O   UNL A   1      33.114  19.079  24.093  1.00  0.00    -0.269 OA
ATOM     16  C   UNL A   1      32.976  20.298  24.047  1.00  0.00     0.255 C 
ATOM     17  H   UNL A   1      31.634  20.274  22.536  1.00  0.00     0.170 HD
BRANCH  16  18
ATOM     18  C   UNL A   1      33.622  21.134  25.093  1.00  0.00     0.044 A 
ATOM     19  C   UNL A   1      32.994  21.368  26.325  1.00  0.00     0.053 A 
ATOM     20  C   UNL A   1      34.856  21.723  24.812  1.00  0.00     0.029 A 
ATOM     21  C   UNL A   1      33.551  22.282  27.209  1.00  0.00     0.125 A 
ATOM     22  C   UNL A   1      35.409  22.618  25.729  1.00  0.00     0.021 A 
ATOM     23  F   UNL A   1      32.903  22.578  28.342  1.00  0.00    -0.207 F 
ATOM     24  C   UNL A   1      34.750  22.920  26.919  1.00  0.00     0.055 A 
ATOM     25  Br  UNL A   1      37.055  23.459  25.337  1.00  0.00    -0.051 Br
ENDBRANCH  16  18
ENDBRANCH   9  14
ENDBRANCH   6   8
ENDBRANCH   5   6
ENDBRANCH   4   5
ENDBRANCH   3   4
ENDBRANCH   2   3
ENDBRANCH   1   2
BRANCH   1  26
ATOM     26  C   UNL A   1      32.569  30.647  27.138  1.00  0.00     0.188 C 
BRANCH  26  27
ATOM     27  O   UNL A   1      31.662  31.570  26.588  1.00  0.00    -0.376 OA
BRANCH  27  28
ATOM     28  C   UNL A   1      31.774  32.961  26.837  1.00  0.00     0.202 C 
BRANCH  28  29
ATOM     29  C   UNL A   1      32.692  33.617  27.881  1.00  0.00     0.261 C 
BRANCH  29  30
ATOM     30  O   UNL A   1      32.583  35.029  28.065  1.00  0.00    -0.460 OA
BRANCH  30  31
ATOM     31  C   UNL A   1      33.014  35.481  29.268  1.00  0.00     0.338 C 
ATOM     32  O   UNL A   1      32.529  36.365  29.950  1.00  0.00    -0.246 OA
BRANCH  31  33
ATOM     33  C   UNL A   1      34.102  34.610  29.740  1.00  0.00     0.060 A 
ATOM     34  C   UNL A   1      33.884  33.830  30.883  1.00  0.00     0.016 A 
ATOM     35  C   UNL A   1      35.341  34.604  29.095  1.00  0.00     0.016 A 
ATOM     36  C   UNL A   1      34.920  33.059  31.406  1.00  0.00     0.010 A 
ATOM     37  C   UNL A   1      36.383  33.845  29.632  1.00  0.00     0.010 A 
ATOM     38  C   UNL A   1      36.185  33.095  30.806  1.00  0.00    -0.014 A 
BRANCH  38  39
ATOM     39  C   UNL A   1      37.348  32.503  31.506  1.00  0.00     0.031 A 
ATOM     40  C   UNL A   1      38.072  31.359  30.855  1.00  0.00     0.074 A 
ATOM     41  C   UNL A   1      37.761  32.977  32.693  1.00  0.00     0.049 A 
ATOM     42  N   UNL A   1      39.081  30.652  31.295  1.00  0.00    -0.248 NA
ATOM     43  C   UNL A   1      37.586  30.955  29.525  1.00  0.00     0.031 C 
ATOM     44  C   UNL A   1      37.168  34.106  33.406  1.00  0.00     0.029 A 
ATOM     45  N   UNL A   1      38.779  32.555  33.512  1.00  0.00    -0.354 N 
ATOM     46  C   UNL A   1      39.348  29.719  30.301  1.00  0.00     0.074 A 
ATOM     47  C   UNL A   1      38.376  29.930  29.248  1.00  0.00     0.031 C 
ATOM     48  C   UNL A   1      37.824  34.278  34.567  1.00  0.00     0.029 A 
ATOM     49  C   UNL A   1      38.861  33.254  34.689  1.00  0.00     0.049 A 
ATOM     50  H   UNL A   1      39.390  31.820  33.277  1.00  0.00     0.167 HD
ATOM     51  C   UNL A   1      40.318  28.777  30.265  1.00  0.00     0.037 A 
ATOM     52  C   UNL A   1      39.670  33.071  35.752  1.00  0.00     0.037 A 
ATOM     53  C   UNL A   1      41.276  28.561  31.316  1.00  0.00     0.049 A 
ATOM     54  C   UNL A   1      40.692  31.962  35.724  1.00  0.00     0.074 A 
ATOM     55  C   UNL A   1      42.310  27.643  31.369  1.00  0.00     0.029 A 
ATOM     56  N   UNL A   1      41.309  29.269  32.510  1.00  0.00    -0.354 N 
ATOM     57  N   UNL A   1      40.959  31.104  34.770  1.00  0.00    -0.248 NA
ATOM     58  C   UNL A   1      41.525  31.800  36.924  1.00  0.00     0.031 C 
ATOM     59  C   UNL A   1      42.934  27.759  32.615  1.00  0.00     0.029 A 
ATOM     60  C   UNL A   1      42.326  28.788  33.317  1.00  0.00     0.049 A 
ATOM     61  H   UNL A   1      40.699  30.002  32.748  1.00  0.00     0.167 HD
ATOM     62  C   UNL A   1      42.008  30.323  35.240  1.00  0.00     0.074 A 
ATOM     63  C   UNL A   1      42.334  30.814  36.561  1.00  0.00     0.031 C 
ATOM     64  C   UNL A   1      42.646  29.292  34.629  1.00  0.00     0.037 A 
BRANCH  51  65
ATOM     65  C   UNL A   1      40.366  27.886  29.059  1.00  0.00     0.064 A 
ATOM     66  C   UNL A   1      41.127  28.215  27.927  1.00  0.00     0.173 A 
ATOM     67  C   UNL A   1      39.646  26.682  29.039  1.00  0.00     0.173 A 
ATOM     68  F   UNL A   1      41.819  29.363  27.890  1.00  0.00    -0.203 F 
ATOM     69  C   UNL A   1      41.139  27.388  26.807  1.00  0.00     0.198 A 
ATOM     70  C   UNL A   1      39.685  25.841  27.929  1.00  0.00     0.198 A 
ATOM     71  F   UNL A   1      38.903  26.319  30.096  1.00  0.00    -0.203 F 
ATOM     72  F   UNL A   1      41.829  27.749  25.717  1.00  0.00    -0.200 F 
ATOM     73  C   UNL A   1      40.423  26.199  26.811  1.00  0.00     0.200 A 
ATOM     74  F   UNL A   1      39.000  24.690  27.938  1.00  0.00    -0.200 F 
ATOM     75  F   UNL A   1      40.437  25.404  25.733  1.00  0.00    -0.200 F 
ENDBRANCH  51  65
BRANCH  52  76
ATOM     76  C   UNL A   1      39.545  33.955  36.939  1.00  0.00     0.064 A 
ATOM     77  C   UNL A   1      38.762  33.579  38.039  1.00  0.00     0.173 A 
ATOM     78  C   UNL A   1      40.190  35.199  36.990  1.00  0.00     0.173 A 
ATOM     79  F   UNL A   1      38.104  32.412  38.024  1.00  0.00    -0.203 F 
ATOM     80  C   UNL A   1      38.620  34.421  39.140  1.00  0.00     0.198 A 
ATOM     81  C   UNL A   1      40.068  36.028  38.103  1.00  0.00     0.198 A 
ATOM     82  F   UNL A   1      40.945  35.607  35.960  1.00  0.00    -0.203 F 
ATOM     83  F   UNL A   1      37.831  34.056  40.161  1.00  0.00    -0.200 F 
ATOM     84  C   UNL A   1      39.278  35.641  39.175  1.00  0.00     0.200 A 
ATOM     85  F   UNL A   1      40.712  37.202  38.135  1.00  0.00    -0.200 F 
ATOM     86  F   UNL A   1      39.143  36.448  40.236  1.00  0.00    -0.200 F 
ENDBRANCH  52  76
BRANCH  64  87
ATOM     87  C   UNL A   1      43.790  28.652  35.362  1.00  0.00     0.064 A 
ATOM     88  C   UNL A   1      45.114  29.082  35.186  1.00  0.00     0.173 A 
ATOM     89  C   UNL A   1      43.551  27.626  36.291  1.00  0.00     0.173 A 
ATOM     90  F   UNL A   1      45.397  30.048  34.301  1.00  0.00    -0.203 F 
ATOM     91  C   UNL A   1      46.157  28.491  35.895  1.00  0.00     0.198 A 
ATOM     92  C   UNL A   1      44.593  27.060  37.019  1.00  0.00     0.198 A 
ATOM     93  F   UNL A   1      42.302  27.184  36.503  1.00  0.00    -0.203 F 
ATOM     94  F   UNL A   1      47.420  28.886  35.678  1.00  0.00    -0.200 F 
ATOM     95  C   UNL A   1      45.895  27.488  36.817  1.00  0.00     0.200 A 
ATOM     96  F   UNL A   1      44.335  26.101  37.919  1.00  0.00    -0.200 F 
ATOM     97  F   UNL A   1      46.900  26.928  37.503  1.00  0.00    -0.200 F 
ENDBRANCH  64  87
ENDBRANCH  38  39
ENDBRANCH  31  33
ENDBRANCH  30  31
ENDBRANCH  29  30
ENDBRANCH  28  29
ENDBRANCH  27  28
ENDBRANCH  26  27
ENDBRANCH   1  26
TORSDOF 19
ENDMDL
