MODEL 1
REMARK VINA RESULT:      -9.6      0.000      0.000
REMARK SMILES O=C(OCCOCCOCCOC(=O)C(Cl)(c1ccccc1)c1ccccc1)c1ccc(-c2c3nc(c(-c4c(F)c(F)c(F)c(F)c4F)c4ccc([nH]4)c(-c4c(F)c(F)c(F)c(F)c4F)c4nc(c(-c5c(F)c(F)c(F)c(F)c5F)c5ccc2[nH]5)C=C4)C=C3)cc1
REMARK SMILES IDX 7 1 6 2 5 3 4 4 3 5 2 6 1 7 29 8 30 9 91 10 31 11 90 12
REMARK SMILES IDX 32 13 33 14 34 15 84 16 35 17 89 18 83 19 85 20 36 21 88 22
REMARK SMILES IDX 82 23 81 24 37 26 69 27 49 28 68 29 50 30 53 31 67 32 86 33
REMARK SMILES IDX 51 34 52 35 66 37 87 38 54 39 38 40 39 41 47 42 40 43 41 44
REMARK SMILES IDX 45 45 48 46 42 47 43 48 46 49 44 50 70 51 71 52 79 53 72 54
REMARK SMILES IDX 73 55 77 56 80 57 74 58 75 59 78 60 76 61 55 62 56 63 64 64
REMARK SMILES IDX 57 65 58 66 62 67 65 68 59 69 60 70 63 71 61 72 8 73 9 74
REMARK SMILES IDX 10 75 11 76 12 77 13 78 14 79 15 80 16 81 17 82 18 83 22 84
REMARK SMILES IDX 19 85 21 86 20 87 23 88 24 89 28 90 25 91 27 92 26 93
REMARK H PARENT 85 25 53 36
REMARK Flexibility Score: inf
ROOT
ATOM      1  C   UNL A   1      32.975  35.607  29.664  1.00  0.00     0.188 C 
ENDROOT
BRANCH   1   2
ATOM      2  O   UNL A   1      33.347  34.259  29.358  1.00  0.00    -0.376 OA
BRANCH   2   3
ATOM      3  C   UNL A   1      33.197  33.946  27.967  1.00  0.00     0.202 C 
BRANCH   3   4
ATOM      4  C   UNL A   1      33.127  32.444  27.641  1.00  0.00     0.261 C 
BRANCH   4   5
ATOM      5  O   UNL A   1      34.189  31.670  28.226  1.00  0.00    -0.460 OA
BRANCH   5   6
ATOM      6  C   UNL A   1      34.712  30.492  27.814  1.00  0.00     0.338 C 
ATOM      7  O   UNL A   1      34.013  29.767  27.093  1.00  0.00    -0.246 OA
BRANCH   6   8
ATOM      8  C   UNL A   1      36.080  30.000  28.168  1.00  0.00     0.060 A 
ATOM      9  C   UNL A   1      36.419  29.351  29.356  1.00  0.00     0.016 A 
ATOM     10  C   UNL A   1      37.089  30.137  27.198  1.00  0.00     0.016 A 
ATOM     11  C   UNL A   1      37.710  28.904  29.613  1.00  0.00     0.010 A 
ATOM     12  C   UNL A   1      38.381  29.648  27.426  1.00  0.00     0.010 A 
ATOM     13  C   UNL A   1      38.699  29.040  28.648  1.00  0.00    -0.014 A 
BRANCH  13  14
ATOM     14  C   UNL A   1      40.082  28.642  28.977  1.00  0.00     0.031 A 
ATOM     15  C   UNL A   1      40.971  29.653  29.620  1.00  0.00     0.074 A 
ATOM     16  C   UNL A   1      40.508  27.379  28.789  1.00  0.00     0.049 A 
ATOM     17  N   UNL A   1      42.232  29.551  29.941  1.00  0.00    -0.248 NA
ATOM     18  C   UNL A   1      40.345  30.927  30.013  1.00  0.00     0.031 C 
ATOM     19  C   UNL A   1      39.668  26.257  28.391  1.00  0.00     0.029 A 
ATOM     20  N   UNL A   1      41.755  26.820  28.889  1.00  0.00    -0.354 N 
ATOM     21  C   UNL A   1      42.544  30.732  30.592  1.00  0.00     0.074 A 
ATOM     22  C   UNL A   1      41.356  31.557  30.592  1.00  0.00     0.031 C 
ATOM     23  C   UNL A   1      40.427  25.180  28.145  1.00  0.00     0.029 A 
ATOM     24  C   UNL A   1      41.811  25.540  28.387  1.00  0.00     0.049 A 
ATOM     25  H   UNL A   1      42.530  27.285  29.280  1.00  0.00     0.167 HD
ATOM     26  C   UNL A   1      43.722  31.075  31.155  1.00  0.00     0.037 A 
ATOM     27  C   UNL A   1      42.872  24.763  28.120  1.00  0.00     0.037 A 
ATOM     28  C   UNL A   1      44.886  30.234  31.128  1.00  0.00     0.049 A 
ATOM     29  C   UNL A   1      44.214  25.258  28.555  1.00  0.00     0.074 A 
ATOM     30  C   UNL A   1      46.138  30.474  31.661  1.00  0.00     0.029 A 
ATOM     31  N   UNL A   1      44.942  28.989  30.512  1.00  0.00    -0.354 N 
ATOM     32  N   UNL A   1      44.513  26.375  29.169  1.00  0.00    -0.248 NA
ATOM     33  C   UNL A   1      45.356  24.372  28.306  1.00  0.00     0.031 C 
ATOM     34  C   UNL A   1      46.970  29.407  31.306  1.00  0.00     0.029 A 
ATOM     35  C   UNL A   1      46.224  28.476  30.600  1.00  0.00     0.049 A 
ATOM     36  H   UNL A   1      44.182  28.540  30.077  1.00  0.00     0.167 HD
ATOM     37  C   UNL A   1      45.871  26.314  29.419  1.00  0.00     0.074 A 
ATOM     38  C   UNL A   1      46.335  25.045  28.890  1.00  0.00     0.031 C 
ATOM     39  C   UNL A   1      46.658  27.220  30.044  1.00  0.00     0.037 A 
BRANCH  26  40
ATOM     40  C   UNL A   1      43.815  32.427  31.787  1.00  0.00     0.064 A 
ATOM     41  C   UNL A   1      44.302  33.541  31.090  1.00  0.00     0.173 A 
ATOM     42  C   UNL A   1      43.396  32.608  33.112  1.00  0.00     0.173 A 
ATOM     43  F   UNL A   1      44.744  33.411  29.829  1.00  0.00    -0.203 F 
ATOM     44  C   UNL A   1      44.372  34.791  31.701  1.00  0.00     0.198 A 
ATOM     45  C   UNL A   1      43.446  33.862  33.713  1.00  0.00     0.198 A 
ATOM     46  F   UNL A   1      42.936  31.568  33.823  1.00  0.00    -0.203 F 
ATOM     47  F   UNL A   1      44.875  35.837  31.031  1.00  0.00    -0.200 F 
ATOM     48  C   UNL A   1      43.936  34.951  33.009  1.00  0.00     0.200 A 
ATOM     49  F   UNL A   1      43.023  34.015  34.976  1.00  0.00    -0.200 F 
ATOM     50  F   UNL A   1      43.999  36.155  33.595  1.00  0.00    -0.200 F 
ENDBRANCH  26  40
BRANCH  27  51
ATOM     51  C   UNL A   1      42.736  23.494  27.366  1.00  0.00     0.064 A 
ATOM     52  C   UNL A   1      42.280  22.319  27.975  1.00  0.00     0.173 A 
ATOM     53  C   UNL A   1      43.158  23.420  26.031  1.00  0.00     0.173 A 
ATOM     54  F   UNL A   1      41.897  22.336  29.259  1.00  0.00    -0.203 F 
ATOM     55  C   UNL A   1      42.276  21.107  27.283  1.00  0.00     0.198 A 
ATOM     56  C   UNL A   1      43.156  22.209  25.343  1.00  0.00     0.198 A 
ATOM     57  F   UNL A   1      43.582  24.522  25.396  1.00  0.00    -0.203 F 
ATOM     58  F   UNL A   1      41.874  19.988  27.898  1.00  0.00    -0.200 F 
ATOM     59  C   UNL A   1      42.716  21.054  25.969  1.00  0.00     0.200 A 
ATOM     60  F   UNL A   1      43.548  22.168  24.061  1.00  0.00    -0.200 F 
ATOM     61  F   UNL A   1      42.710  19.890  25.303  1.00  0.00    -0.200 F 
ENDBRANCH  27  51
BRANCH  39  62
ATOM     62  C   UNL A   1      48.099  26.854  30.187  1.00  0.00     0.064 A 
ATOM     63  C   UNL A   1      49.061  27.315  29.277  1.00  0.00     0.173 A 
ATOM     64  C   UNL A   1      48.521  26.050  31.254  1.00  0.00     0.173 A 
ATOM     65  F   UNL A   1      48.693  28.062  28.225  1.00  0.00    -0.203 F 
ATOM     66  C   UNL A   1      50.397  26.961  29.419  1.00  0.00     0.198 A 
ATOM     67  C   UNL A   1      49.863  25.728  31.413  1.00  0.00     0.198 A 
ATOM     68  F   UNL A   1      47.633  25.584  32.145  1.00  0.00    -0.203 F 
ATOM     69  F   UNL A   1      51.293  27.362  28.507  1.00  0.00    -0.200 F 
ATOM     70  C   UNL A   1      50.798  26.177  30.492  1.00  0.00     0.200 A 
ATOM     71  F   UNL A   1      50.252  24.980  32.455  1.00  0.00    -0.200 F 
ATOM     72  F   UNL A   1      52.088  25.844  30.632  1.00  0.00    -0.200 F 
ENDBRANCH  39  62
ENDBRANCH  13  14
ENDBRANCH   6   8
ENDBRANCH   5   6
ENDBRANCH   4   5
ENDBRANCH   3   4
ENDBRANCH   2   3
ENDBRANCH   1   2
BRANCH   1  73
ATOM     73  C   UNL A   1      33.028  35.925  31.158  1.00  0.00     0.188 C 
BRANCH  73  74
ATOM     74  O   UNL A   1      33.138  34.830  32.060  1.00  0.00    -0.376 OA
BRANCH  74  75
ATOM     75  C   UNL A   1      34.301  34.756  32.872  1.00  0.00     0.202 C 
BRANCH  75  76
ATOM     76  C   UNL A   1      34.593  33.450  33.623  1.00  0.00     0.261 C 
BRANCH  76  77
ATOM     77  O   UNL A   1      35.692  32.664  33.141  1.00  0.00    -0.461 OA
BRANCH  77  78
ATOM     78  C   UNL A   1      36.766  32.543  33.989  1.00  0.00     0.336 C 
ATOM     79  O   UNL A   1      36.682  32.724  35.206  1.00  0.00    -0.249 OA
BRANCH  78  80
ATOM     80  C   UNL A   1      38.117  32.328  33.242  1.00  0.00     0.191 C 
ATOM     81  Cl  UNL A   1      39.430  33.213  34.139  1.00  0.00    -0.096 Cl
BRANCH  80  82
ATOM     82  C   UNL A   1      38.483  30.814  33.268  1.00  0.00    -0.011 A 
ATOM     83  C   UNL A   1      39.799  30.382  33.499  1.00  0.00     0.006 A 
ATOM     84  C   UNL A   1      37.525  29.814  32.987  1.00  0.00     0.006 A 
ATOM     85  C   UNL A   1      40.173  29.062  33.231  1.00  0.00     0.000 A 
ATOM     86  C   UNL A   1      37.889  28.479  32.798  1.00  0.00     0.000 A 
ATOM     87  C   UNL A   1      39.223  28.110  32.876  1.00  0.00     0.000 A 
ENDBRANCH  80  82
BRANCH  80  88
ATOM     88  C   UNL A   1      38.057  33.007  31.842  1.00  0.00    -0.011 A 
ATOM     89  C   UNL A   1      38.805  34.184  31.601  1.00  0.00     0.006 A 
ATOM     90  C   UNL A   1      37.306  32.508  30.763  1.00  0.00     0.006 A 
ATOM     91  C   UNL A   1      38.840  34.790  30.345  1.00  0.00     0.000 A 
ATOM     92  C   UNL A   1      37.375  33.089  29.493  1.00  0.00     0.000 A 
ATOM     93  C   UNL A   1      38.139  34.230  29.284  1.00  0.00     0.000 A 
ENDBRANCH  80  88
ENDBRANCH  78  80
ENDBRANCH  77  78
ENDBRANCH  76  77
ENDBRANCH  75  76
ENDBRANCH  74  75
ENDBRANCH  73  74
ENDBRANCH   1  73
TORSDOF 19
ENDMDL
MODEL 2
REMARK VINA RESULT:      -9.1      4.547      7.781
REMARK SMILES O=C(OCCOCCOCCOC(=O)C(Cl)(c1ccccc1)c1ccccc1)c1ccc(-c2c3nc(c(-c4c(F)c(F)c(F)c(F)c4F)c4ccc([nH]4)c(-c4c(F)c(F)c(F)c(F)c4F)c4nc(c(-c5c(F)c(F)c(F)c(F)c5F)c5ccc2[nH]5)C=C4)C=C3)cc1
REMARK SMILES IDX 7 1 6 2 5 3 4 4 3 5 2 6 1 7 29 8 30 9 91 10 31 11 90 12
REMARK SMILES IDX 32 13 33 14 34 15 84 16 35 17 89 18 83 19 85 20 36 21 88 22
REMARK SMILES IDX 82 23 81 24 37 26 69 27 49 28 68 29 50 30 53 31 67 32 86 33
REMARK SMILES IDX 51 34 52 35 66 37 87 38 54 39 38 40 39 41 47 42 40 43 41 44
REMARK SMILES IDX 45 45 48 46 42 47 43 48 46 49 44 50 70 51 71 52 79 53 72 54
REMARK SMILES IDX 73 55 77 56 80 57 74 58 75 59 78 60 76 61 55 62 56 63 64 64
REMARK SMILES IDX 57 65 58 66 62 67 65 68 59 69 60 70 63 71 61 72 8 73 9 74
REMARK SMILES IDX 10 75 11 76 12 77 13 78 14 79 15 80 16 81 17 82 18 83 22 84
REMARK SMILES IDX 19 85 21 86 20 87 23 88 24 89 28 90 25 91 27 92 26 93
REMARK H PARENT 85 25 53 36
REMARK Flexibility Score: inf
ROOT
ATOM      1  C   UNL A   1      34.956  33.946  28.138  1.00  0.00     0.188 C 
ENDROOT
BRANCH   1   2
ATOM      2  O   UNL A   1      34.337  35.236  28.171  1.00  0.00    -0.376 OA
BRANCH   2   3
ATOM      3  C   UNL A   1      33.239  35.300  29.089  1.00  0.00     0.202 C 
BRANCH   3   4
ATOM      4  C   UNL A   1      32.903  36.710  29.607  1.00  0.00     0.261 C 
BRANCH   4   5
ATOM      5  O   UNL A   1      32.530  36.747  30.996  1.00  0.00    -0.460 OA
BRANCH   5   6
ATOM      6  C   UNL A   1      32.573  35.756  31.917  1.00  0.00     0.338 C 
ATOM      7  O   UNL A   1      31.514  35.433  32.471  1.00  0.00    -0.246 OA
BRANCH   6   8
ATOM      8  C   UNL A   1      33.814  35.022  32.315  1.00  0.00     0.060 A 
ATOM      9  C   UNL A   1      35.117  35.487  32.134  1.00  0.00     0.016 A 
ATOM     10  C   UNL A   1      33.654  33.799  32.991  1.00  0.00     0.016 A 
ATOM     11  C   UNL A   1      36.227  34.757  32.546  1.00  0.00     0.010 A 
ATOM     12  C   UNL A   1      34.762  33.078  33.453  1.00  0.00     0.010 A 
ATOM     13  C   UNL A   1      36.059  33.553  33.216  1.00  0.00    -0.014 A 
BRANCH  13  14
ATOM     14  C   UNL A   1      37.251  32.753  33.562  1.00  0.00     0.031 A 
ATOM     15  C   UNL A   1      38.011  33.117  34.793  1.00  0.00     0.074 A 
ATOM     16  C   UNL A   1      37.595  31.669  32.842  1.00  0.00     0.049 A 
ATOM     17  N   UNL A   1      39.114  32.601  35.259  1.00  0.00    -0.248 NA
ATOM     18  C   UNL A   1      37.418  34.160  35.649  1.00  0.00     0.031 C 
ATOM     19  C   UNL A   1      36.804  31.083  31.769  1.00  0.00     0.029 A 
ATOM     20  N   UNL A   1      38.707  30.869  32.887  1.00  0.00    -0.354 N 
ATOM     21  C   UNL A   1      39.336  33.236  36.470  1.00  0.00     0.074 A 
ATOM     22  C   UNL A   1      38.278  34.202  36.656  1.00  0.00     0.031 C 
ATOM     23  C   UNL A   1      37.499  30.111  31.163  1.00  0.00     0.029 A 
ATOM     24  C   UNL A   1      38.786  29.999  31.824  1.00  0.00     0.049 A 
ATOM     25  H   UNL A   1      39.379  30.911  33.606  1.00  0.00     0.167 HD
ATOM     26  C   UNL A   1      40.334  33.003  37.350  1.00  0.00     0.037 A 
ATOM     27  C   UNL A   1      39.803  29.227  31.414  1.00  0.00     0.037 A 
ATOM     28  C   UNL A   1      41.377  32.040  37.127  1.00  0.00     0.049 A 
ATOM     29  C   UNL A   1      41.007  29.148  32.297  1.00  0.00     0.074 A 
ATOM     30  C   UNL A   1      42.443  31.717  37.944  1.00  0.00     0.029 A 
ATOM     31  N   UNL A   1      41.490  31.254  35.986  1.00  0.00    -0.354 N 
ATOM     32  N   UNL A   1      41.221  29.747  33.441  1.00  0.00    -0.248 NA
ATOM     33  C   UNL A   1      42.087  28.256  31.862  1.00  0.00     0.031 C 
ATOM     34  C   UNL A   1      43.241  30.790  37.267  1.00  0.00     0.029 A 
ATOM     35  C   UNL A   1      42.643  30.492  36.052  1.00  0.00     0.049 A 
ATOM     36  H   UNL A   1      40.846  31.243  35.242  1.00  0.00     0.167 HD
ATOM     37  C   UNL A   1      42.442  29.278  33.888  1.00  0.00     0.074 A 
ATOM     38  C   UNL A   1      42.919  28.340  32.889  1.00  0.00     0.031 C 
ATOM     39  C   UNL A   1      43.100  29.584  35.030  1.00  0.00     0.037 A 
BRANCH  26  40
ATOM     40  C   UNL A   1      40.368  33.840  38.588  1.00  0.00     0.064 A 
ATOM     41  C   UNL A   1      41.120  35.020  38.667  1.00  0.00     0.173 A 
ATOM     42  C   UNL A   1      39.620  33.457  39.710  1.00  0.00     0.173 A 
ATOM     43  F   UNL A   1      41.877  35.411  37.630  1.00  0.00    -0.203 F 
ATOM     44  C   UNL A   1      41.129  35.783  39.832  1.00  0.00     0.198 A 
ATOM     45  C   UNL A   1      39.612  34.234  40.864  1.00  0.00     0.198 A 
ATOM     46  F   UNL A   1      38.896  32.329  39.685  1.00  0.00    -0.203 F 
ATOM     47  F   UNL A   1      41.885  36.889  39.903  1.00  0.00    -0.200 F 
ATOM     48  C   UNL A   1      40.369  35.395  40.925  1.00  0.00     0.200 A 
ATOM     49  F   UNL A   1      38.876  33.856  41.919  1.00  0.00    -0.200 F 
ATOM     50  F   UNL A   1      40.373  36.133  42.044  1.00  0.00    -0.200 F 
ENDBRANCH  26  40
BRANCH  27  51
ATOM     51  C   UNL A   1      39.770  28.527  30.108  1.00  0.00     0.064 A 
ATOM     52  C   UNL A   1      39.265  27.228  29.977  1.00  0.00     0.173 A 
ATOM     53  C   UNL A   1      40.341  29.126  28.975  1.00  0.00     0.173 A 
ATOM     54  F   UNL A   1      38.741  26.605  31.041  1.00  0.00    -0.203 F 
ATOM     55  C   UNL A   1      39.357  26.541  28.767  1.00  0.00     0.198 A 
ATOM     56  C   UNL A   1      40.433  28.436  27.768  1.00  0.00     0.198 A 
ATOM     57  F   UNL A   1      40.818  30.377  29.041  1.00  0.00    -0.203 F 
ATOM     58  F   UNL A   1      38.904  25.284  28.676  1.00  0.00    -0.200 F 
ATOM     59  C   UNL A   1      39.942  27.145  27.664  1.00  0.00     0.200 A 
ATOM     60  F   UNL A   1      40.966  29.037  26.694  1.00  0.00    -0.200 F 
ATOM     61  F   UNL A   1      40.027  26.485  26.501  1.00  0.00    -0.200 F 
ENDBRANCH  27  51
BRANCH  39  62
ATOM     62  C   UNL A   1      44.402  28.886  35.249  1.00  0.00     0.064 A 
ATOM     63  C   UNL A   1      45.611  29.451  34.822  1.00  0.00     0.173 A 
ATOM     64  C   UNL A   1      44.439  27.649  35.907  1.00  0.00     0.173 A 
ATOM     65  F   UNL A   1      45.615  30.619  34.161  1.00  0.00    -0.203 F 
ATOM     66  C   UNL A   1      46.814  28.787  35.025  1.00  0.00     0.198 A 
ATOM     67  C   UNL A   1      45.647  27.005  36.140  1.00  0.00     0.198 A 
ATOM     68  F   UNL A   1      43.304  27.071  36.327  1.00  0.00    -0.203 F 
ATOM     69  F   UNL A   1      47.955  29.315  34.559  1.00  0.00    -0.200 F 
ATOM     70  C   UNL A   1      46.832  27.571  35.693  1.00  0.00     0.200 A 
ATOM     71  F   UNL A   1      45.666  25.836  36.795  1.00  0.00    -0.200 F 
ATOM     72  F   UNL A   1      47.995  26.936  35.897  1.00  0.00    -0.200 F 
ENDBRANCH  39  62
ENDBRANCH  13  14
ENDBRANCH   6   8
ENDBRANCH   5   6
ENDBRANCH   4   5
ENDBRANCH   3   4
ENDBRANCH   2   3
ENDBRANCH   1   2
BRANCH   1  73
ATOM     73  C   UNL A   1      34.493  33.023  29.264  1.00  0.00     0.188 C 
BRANCH  73  74
ATOM     74  O   UNL A   1      34.475  31.625  29.002  1.00  0.00    -0.376 OA
BRANCH  74  75
ATOM     75  C   UNL A   1      34.353  31.206  27.650  1.00  0.00     0.202 C 
BRANCH  75  76
ATOM     76  C   UNL A   1      33.162  30.322  27.258  1.00  0.00     0.261 C 
BRANCH  76  77
ATOM     77  O   UNL A   1      33.404  28.909  27.193  1.00  0.00    -0.461 OA
BRANCH  77  78
ATOM     78  C   UNL A   1      32.304  28.116  26.978  1.00  0.00     0.336 C 
ATOM     79  O   UNL A   1      31.443  27.918  27.839  1.00  0.00    -0.249 OA
BRANCH  78  80
ATOM     80  C   UNL A   1      32.346  27.364  25.614  1.00  0.00     0.191 C 
ATOM     81  Cl  UNL A   1      33.783  27.949  24.665  1.00  0.00    -0.096 Cl
BRANCH  80  82
ATOM     82  C   UNL A   1      32.555  25.842  25.873  1.00  0.00    -0.011 A 
ATOM     83  C   UNL A   1      31.521  25.035  26.373  1.00  0.00     0.006 A 
ATOM     84  C   UNL A   1      33.813  25.224  25.689  1.00  0.00     0.006 A 
ATOM     85  C   UNL A   1      31.792  23.760  26.876  1.00  0.00     0.000 A 
ATOM     86  C   UNL A   1      34.061  23.919  26.120  1.00  0.00     0.000 A 
ATOM     87  C   UNL A   1      33.061  23.201  26.757  1.00  0.00     0.000 A 
ENDBRANCH  80  82
BRANCH  80  88
ATOM     88  C   UNL A   1      31.108  27.762  24.757  1.00  0.00    -0.011 A 
ATOM     89  C   UNL A   1      30.964  29.097  24.311  1.00  0.00     0.006 A 
ATOM     90  C   UNL A   1      30.105  26.857  24.367  1.00  0.00     0.006 A 
ATOM     91  C   UNL A   1      29.911  29.488  23.482  1.00  0.00     0.000 A 
ATOM     92  C   UNL A   1      29.074  27.238  23.501  1.00  0.00     0.000 A 
ATOM     93  C   UNL A   1      28.976  28.552  23.061  1.00  0.00     0.000 A 
ENDBRANCH  80  88
ENDBRANCH  78  80
ENDBRANCH  77  78
ENDBRANCH  76  77
ENDBRANCH  75  76
ENDBRANCH  74  75
ENDBRANCH  73  74
ENDBRANCH   1  73
TORSDOF 19
ENDMDL
MODEL 3
REMARK VINA RESULT:      -8.9      4.877     10.499
REMARK SMILES O=C(OCCOCCOCCOC(=O)C(Cl)(c1ccccc1)c1ccccc1)c1ccc(-c2c3nc(c(-c4c(F)c(F)c(F)c(F)c4F)c4ccc([nH]4)c(-c4c(F)c(F)c(F)c(F)c4F)c4nc(c(-c5c(F)c(F)c(F)c(F)c5F)c5ccc2[nH]5)C=C4)C=C3)cc1
REMARK SMILES IDX 7 1 6 2 5 3 4 4 3 5 2 6 1 7 29 8 30 9 91 10 31 11 90 12
REMARK SMILES IDX 32 13 33 14 34 15 84 16 35 17 89 18 83 19 85 20 36 21 88 22
REMARK SMILES IDX 82 23 81 24 37 26 69 27 49 28 68 29 50 30 53 31 67 32 86 33
REMARK SMILES IDX 51 34 52 35 66 37 87 38 54 39 38 40 39 41 47 42 40 43 41 44
REMARK SMILES IDX 45 45 48 46 42 47 43 48 46 49 44 50 70 51 71 52 79 53 72 54
REMARK SMILES IDX 73 55 77 56 80 57 74 58 75 59 78 60 76 61 55 62 56 63 64 64
REMARK SMILES IDX 57 65 58 66 62 67 65 68 59 69 60 70 63 71 61 72 8 73 9 74
REMARK SMILES IDX 10 75 11 76 12 77 13 78 14 79 15 80 16 81 17 82 18 83 22 84
REMARK SMILES IDX 19 85 21 86 20 87 23 88 24 89 28 90 25 91 27 92 26 93
REMARK H PARENT 85 25 53 36
REMARK Flexibility Score: inf
ROOT
ATOM      1  C   UNL A   1      32.713  29.378  25.097  1.00  0.00     0.188 C 
ENDROOT
BRANCH   1   2
ATOM      2  O   UNL A   1      31.859  30.417  25.585  1.00  0.00    -0.376 OA
BRANCH   2   3
ATOM      3  C   UNL A   1      32.360  31.030  26.780  1.00  0.00     0.202 C 
BRANCH   3   4
ATOM      4  C   UNL A   1      31.570  32.259  27.263  1.00  0.00     0.261 C 
BRANCH   4   5
ATOM      5  O   UNL A   1      32.305  33.494  27.180  1.00  0.00    -0.460 OA
BRANCH   5   6
ATOM      6  C   UNL A   1      32.949  34.170  28.160  1.00  0.00     0.338 C 
ATOM      7  O   UNL A   1      32.466  35.245  28.536  1.00  0.00    -0.246 OA
BRANCH   6   8
ATOM      8  C   UNL A   1      34.208  33.708  28.822  1.00  0.00     0.060 A 
ATOM      9  C   UNL A   1      35.492  34.158  28.512  1.00  0.00     0.016 A 
ATOM     10  C   UNL A   1      34.083  32.803  29.892  1.00  0.00     0.016 A 
ATOM     11  C   UNL A   1      36.620  33.697  29.182  1.00  0.00     0.010 A 
ATOM     12  C   UNL A   1      35.207  32.369  30.605  1.00  0.00     0.010 A 
ATOM     13  C   UNL A   1      36.487  32.807  30.239  1.00  0.00    -0.014 A 
BRANCH  13  14
ATOM     14  C   UNL A   1      37.702  32.262  30.876  1.00  0.00     0.031 A 
ATOM     15  C   UNL A   1      38.409  31.137  30.195  1.00  0.00     0.074 A 
ATOM     16  C   UNL A   1      38.216  32.817  31.989  1.00  0.00     0.049 A 
ATOM     17  N   UNL A   1      39.451  30.463  30.594  1.00  0.00    -0.248 NA
ATOM     18  C   UNL A   1      37.916  30.761  28.859  1.00  0.00     0.031 C 
ATOM     19  C   UNL A   1      37.752  34.052  32.606  1.00  0.00     0.029 A 
ATOM     20  N   UNL A   1      39.231  32.413  32.816  1.00  0.00    -0.354 N 
ATOM     21  C   UNL A   1      39.754  29.601  29.553  1.00  0.00     0.074 A 
ATOM     22  C   UNL A   1      38.767  29.806  28.517  1.00  0.00     0.031 C 
ATOM     23  C   UNL A   1      38.373  34.242  33.778  1.00  0.00     0.029 A 
ATOM     24  C   UNL A   1      39.294  33.140  33.983  1.00  0.00     0.049 A 
ATOM     25  H   UNL A   1      39.851  31.680  32.599  1.00  0.00     0.167 HD
ATOM     26  C   UNL A   1      40.786  28.734  29.476  1.00  0.00     0.037 A 
ATOM     27  C   UNL A   1      39.995  32.914  35.104  1.00  0.00     0.037 A 
ATOM     28  C   UNL A   1      41.744  28.549  30.531  1.00  0.00     0.049 A 
ATOM     29  C   UNL A   1      40.988  31.797  35.081  1.00  0.00     0.074 A 
ATOM     30  C   UNL A   1      42.831  27.697  30.571  1.00  0.00     0.029 A 
ATOM     31  N   UNL A   1      41.713  29.221  31.747  1.00  0.00    -0.354 N 
ATOM     32  N   UNL A   1      41.276  30.980  34.100  1.00  0.00    -0.248 NA
ATOM     33  C   UNL A   1      41.786  31.600  36.296  1.00  0.00     0.031 C 
ATOM     34  C   UNL A   1      43.415  27.801  31.837  1.00  0.00     0.029 A 
ATOM     35  C   UNL A   1      42.727  28.759  32.567  1.00  0.00     0.049 A 
ATOM     36  H   UNL A   1      41.066  29.922  31.989  1.00  0.00     0.167 HD
ATOM     37  C   UNL A   1      42.315  30.194  34.558  1.00  0.00     0.074 A 
ATOM     38  C   UNL A   1      42.609  30.637  35.909  1.00  0.00     0.031 C 
ATOM     39  C   UNL A   1      42.977  29.205  33.914  1.00  0.00     0.037 A 
BRANCH  26  40
ATOM     40  C   UNL A   1      40.887  27.892  28.245  1.00  0.00     0.064 A 
ATOM     41  C   UNL A   1      41.624  28.298  27.125  1.00  0.00     0.173 A 
ATOM     42  C   UNL A   1      40.242  26.648  28.196  1.00  0.00     0.173 A 
ATOM     43  F   UNL A   1      42.233  29.494  27.112  1.00  0.00    -0.203 F 
ATOM     44  C   UNL A   1      41.706  27.490  25.993  1.00  0.00     0.198 A 
ATOM     45  C   UNL A   1      40.344  25.833  27.073  1.00  0.00     0.198 A 
ATOM     46  F   UNL A   1      39.514  26.224  29.239  1.00  0.00    -0.203 F 
ATOM     47  F   UNL A   1      42.384  27.912  24.916  1.00  0.00    -0.200 F 
ATOM     48  C   UNL A   1      41.073  26.256  25.971  1.00  0.00     0.200 A 
ATOM     49  F   UNL A   1      39.733  24.641  27.056  1.00  0.00    -0.200 F 
ATOM     50  F   UNL A   1      41.157  25.476  24.884  1.00  0.00    -0.200 F 
ENDBRANCH  26  40
BRANCH  27  51
ATOM     51  C   UNL A   1      39.753  33.694  36.341  1.00  0.00     0.064 A 
ATOM     52  C   UNL A   1      38.847  33.267  37.319  1.00  0.00     0.173 A 
ATOM     53  C   UNL A   1      40.366  34.943  36.517  1.00  0.00     0.173 A 
ATOM     54  F   UNL A   1      38.213  32.095  37.177  1.00  0.00    -0.203 F 
ATOM     55  C   UNL A   1      38.541  34.073  38.415  1.00  0.00     0.198 A 
ATOM     56  C   UNL A   1      40.058  35.748  37.611  1.00  0.00     0.198 A 
ATOM     57  F   UNL A   1      41.259  35.388  35.620  1.00  0.00    -0.203 F 
ATOM     58  F   UNL A   1      37.640  33.662  39.317  1.00  0.00    -0.200 F 
ATOM     59  C   UNL A   1      39.145  35.313  38.559  1.00  0.00     0.200 A 
ATOM     60  F   UNL A   1      40.671  36.930  37.765  1.00  0.00    -0.200 F 
ATOM     61  F   UNL A   1      38.853  36.087  39.614  1.00  0.00    -0.200 F 
ENDBRANCH  27  51
BRANCH  39  62
ATOM     62  C   UNL A   1      44.085  28.549  34.672  1.00  0.00     0.064 A 
ATOM     63  C   UNL A   1      43.851  27.423  35.474  1.00  0.00     0.173 A 
ATOM     64  C   UNL A   1      45.393  29.043  34.581  1.00  0.00     0.173 A 
ATOM     65  F   UNL A   1      42.607  26.939  35.611  1.00  0.00    -0.203 F 
ATOM     66  C   UNL A   1      44.889  26.828  36.179  1.00  0.00     0.198 A 
ATOM     67  C   UNL A   1      46.435  28.423  35.260  1.00  0.00     0.198 A 
ATOM     68  F   UNL A   1      45.660  30.121  33.829  1.00  0.00    -0.203 F 
ATOM     69  F   UNL A   1      44.637  25.788  36.986  1.00  0.00    -0.200 F 
ATOM     70  C   UNL A   1      46.181  27.321  36.063  1.00  0.00     0.200 A 
ATOM     71  F   UNL A   1      47.684  28.893  35.139  1.00  0.00    -0.200 F 
ATOM     72  F   UNL A   1      47.182  26.740  36.737  1.00  0.00    -0.200 F 
ENDBRANCH  39  62
ENDBRANCH  13  14
ENDBRANCH   6   8
ENDBRANCH   5   6
ENDBRANCH   4   5
ENDBRANCH   3   4
ENDBRANCH   2   3
ENDBRANCH   1   2
BRANCH   1  73
ATOM     73  C   UNL A   1      31.949  28.177  24.540  1.00  0.00     0.188 C 
BRANCH  73  74
ATOM     74  O   UNL A   1      31.530  28.238  23.182  1.00  0.00    -0.376 OA
BRANCH  74  75
ATOM     75  C   UNL A   1      31.752  27.094  22.369  1.00  0.00     0.202 C 
BRANCH  75  76
ATOM     76  C   UNL A   1      33.196  26.710  22.017  1.00  0.00     0.261 C 
BRANCH  76  77
ATOM     77  O   UNL A   1      33.749  25.584  22.713  1.00  0.00    -0.461 OA
BRANCH  77  78
ATOM     78  C   UNL A   1      33.450  24.347  22.196  1.00  0.00     0.336 C 
ATOM     79  O   UNL A   1      33.293  24.147  20.989  1.00  0.00    -0.249 OA
BRANCH  78  80
ATOM     80  C   UNL A   1      33.161  23.276  23.290  1.00  0.00     0.191 C 
ATOM     81  Cl  UNL A   1      32.075  21.998  22.587  1.00  0.00    -0.096 Cl
BRANCH  80  82
ATOM     82  C   UNL A   1      34.494  22.578  23.690  1.00  0.00    -0.011 A 
ATOM     83  C   UNL A   1      34.511  21.468  24.549  1.00  0.00     0.006 A 
ATOM     84  C   UNL A   1      35.748  23.074  23.267  1.00  0.00     0.006 A 
ATOM     85  C   UNL A   1      35.706  21.036  25.133  1.00  0.00     0.000 A 
ATOM     86  C   UNL A   1      36.947  22.586  23.791  1.00  0.00     0.000 A 
ATOM     87  C   UNL A   1      36.924  21.595  24.760  1.00  0.00     0.000 A 
ENDBRANCH  80  82
BRANCH  80  88
ATOM     88  C   UNL A   1      32.335  23.917  24.445  1.00  0.00    -0.011 A 
ATOM     89  C   UNL A   1      33.001  24.428  25.584  1.00  0.00     0.006 A 
ATOM     90  C   UNL A   1      30.934  24.044  24.425  1.00  0.00     0.006 A 
ATOM     91  C   UNL A   1      32.312  25.074  26.612  1.00  0.00     0.000 A 
ATOM     92  C   UNL A   1      30.249  24.729  25.434  1.00  0.00     0.000 A 
ATOM     93  C   UNL A   1      30.936  25.242  26.527  1.00  0.00     0.000 A 
ENDBRANCH  80  88
ENDBRANCH  78  80
ENDBRANCH  77  78
ENDBRANCH  76  77
ENDBRANCH  75  76
ENDBRANCH  74  75
ENDBRANCH  73  74
ENDBRANCH   1  73
TORSDOF 19
ENDMDL
