MODEL 1
REMARK VINA RESULT:     -11.7      0.000      0.000
REMARK SMILES O=C1NC(=S)S/C1=C\c1ccc(OCc2cn(-c3ccc(C(=O)OCCOCCOCCOC(=O)c4ccc(-c5c6nc(c(-c7c(F)c(F)c(F)c(F)c7F)c7ccc([nH]7)c(-c7c(F)c(F)c(F)c(F)c7F)c7nc(c(-c8c(F)c(F)c(F)c(F)c8F)c8ccc5[nH]8)C=C7)C=C6)cc4)cc3)nn2)cc1
REMARK SMILES IDX 27 1 26 2 25 3 24 4 22 5 23 6 21 7 18 8 19 9 100 10 20 11
REMARK SMILES IDX 99 12 17 13 15 14 16 15 102 16 101 17 14 18 13 19 12 20 9 21
REMARK SMILES IDX 10 22 104 23 11 24 103 25 8 26 1 27 2 28 3 29 7 30 4 31 6 33
REMARK SMILES IDX 5 34 28 35 29 36 30 37 31 38 32 39 33 40 34 41 35 42 36 43
REMARK SMILES IDX 37 44 98 45 38 46 97 47 39 48 40 49 41 50 91 51 42 52 96 53
REMARK SMILES IDX 90 54 92 55 43 56 95 57 89 58 88 59 44 61 76 62 56 63 75 64
REMARK SMILES IDX 57 65 60 66 74 67 93 68 58 69 59 70 73 72 94 73 61 74 45 75
REMARK SMILES IDX 46 76 54 77 47 78 48 79 52 80 55 81 49 82 50 83 53 84 51 85
REMARK SMILES IDX 77 86 78 87 86 88 79 89 80 90 84 91 87 92 81 93 82 94 85 95
REMARK SMILES IDX 83 96 62 97 63 98 71 99 64 100 65 101 69 102 72 103 66 104
REMARK SMILES IDX 67 105 70 106 68 107
REMARK H PARENT 3 32 92 60 60 71
REMARK Flexibility Score: inf
ROOT
ATOM      1  O   UNL A   1      44.296  19.003  25.400  1.00  0.00    -0.376 OA
ENDROOT
BRANCH   1   2
ATOM      2  C   UNL A   1      42.968  19.491  25.494  1.00  0.00     0.202 C 
BRANCH   2   3
ATOM      3  C   UNL A   1      42.541  20.759  26.270  1.00  0.00     0.261 C 
BRANCH   3   4
ATOM      4  O   UNL A   1      41.429  21.510  25.780  1.00  0.00    -0.460 OA
BRANCH   4   5
ATOM      5  C   UNL A   1      40.603  22.031  26.716  1.00  0.00     0.338 C 
ATOM      6  O   UNL A   1      40.919  22.458  27.816  1.00  0.00    -0.246 OA
BRANCH   5   7
ATOM      7  C   UNL A   1      39.254  22.201  26.138  1.00  0.00     0.060 A 
ATOM      8  C   UNL A   1      36.763  22.445  24.910  1.00  0.00     0.066 A 
ATOM      9  C   UNL A   1      37.401  21.196  24.955  1.00  0.00     0.029 A 
ATOM     10  C   UNL A   1      37.331  23.551  25.558  1.00  0.00     0.029 A 
ATOM     11  C   UNL A   1      38.662  21.086  25.535  1.00  0.00     0.018 A 
ATOM     12  C   UNL A   1      38.570  23.420  26.197  1.00  0.00     0.018 A 
BRANCH   8  13
ATOM     13  N   UNL A   1      35.603  22.579  24.111  1.00  0.00    -0.220 N 
ATOM     14  C   UNL A   1      33.533  22.820  23.458  1.00  0.00     0.120 A 
ATOM     15  C   UNL A   1      34.314  22.197  24.411  1.00  0.00     0.144 A 
ATOM     16  N   UNL A   1      34.356  23.478  22.583  1.00  0.00    -0.131 NA
ATOM     17  N   UNL A   1      35.605  23.323  22.981  1.00  0.00    -0.062 NA
BRANCH  14  18
ATOM     18  C   UNL A   1      32.050  22.960  23.354  1.00  0.00     0.289 C 
BRANCH  18  19
ATOM     19  O   UNL A   1      31.593  24.047  22.536  1.00  0.00    -0.487 OA
BRANCH  19  20
ATOM     20  C   UNL A   1      31.356  25.252  23.140  1.00  0.00     0.119 A 
ATOM     21  C   UNL A   1      31.263  27.795  24.324  1.00  0.00    -0.024 A 
ATOM     22  C   UNL A   1      31.861  27.626  23.073  1.00  0.00     0.012 A 
ATOM     23  C   UNL A   1      30.630  26.707  24.930  1.00  0.00     0.012 A 
ATOM     24  C   UNL A   1      31.907  26.357  22.487  1.00  0.00     0.047 A 
ATOM     25  C   UNL A   1      30.660  25.447  24.330  1.00  0.00     0.047 A 
BRANCH  21  26
ATOM     26  C   UNL A   1      31.319  29.085  25.014  1.00  0.00     0.029 C 
ATOM     27  O   UNL A   1      31.402  31.590  26.498  1.00  0.00    -0.268 OA
ATOM     28  C   UNL A   1      32.300  30.766  26.543  1.00  0.00     0.263 C 
ATOM     29  N   UNL A   1      33.433  30.888  27.299  1.00  0.00    -0.307 N 
ATOM     30  C   UNL A   1      32.326  29.475  25.808  1.00  0.00     0.080 C 
ATOM     31  C   UNL A   1      34.349  29.882  27.252  1.00  0.00     0.145 C 
ATOM     32  H   UNL A   1      33.583  31.682  27.861  1.00  0.00     0.171 HD
ATOM     33  S   UNL A   1      33.792  28.630  26.169  1.00  0.00    -0.055 SA
ATOM     34  S   UNL A   1      35.762  29.887  28.114  1.00  0.00    -0.052 S 
ENDBRANCH  21  26
ENDBRANCH  19  20
ENDBRANCH  18  19
ENDBRANCH  14  18
ENDBRANCH   8  13
ENDBRANCH   5   7
ENDBRANCH   4   5
ENDBRANCH   3   4
ENDBRANCH   2   3
ENDBRANCH   1   2
BRANCH   1  35
ATOM     35  C   UNL A   1      45.148  19.473  24.380  1.00  0.00     0.188 C 
BRANCH  35  36
ATOM     36  C   UNL A   1      46.219  20.475  24.858  1.00  0.00     0.188 C 
BRANCH  36  37
ATOM     37  O   UNL A   1      45.902  21.536  25.748  1.00  0.00    -0.376 OA
BRANCH  37  38
ATOM     38  C   UNL A   1      45.765  22.882  25.317  1.00  0.00     0.202 C 
BRANCH  38  39
ATOM     39  C   UNL A   1      45.395  24.029  26.252  1.00  0.00     0.261 C 
BRANCH  39  40
ATOM     40  O   UNL A   1      44.117  23.949  26.848  1.00  0.00    -0.460 OA
BRANCH  40  41
ATOM     41  C   UNL A   1      43.182  24.667  26.198  1.00  0.00     0.338 C 
ATOM     42  O   UNL A   1      42.953  24.688  25.001  1.00  0.00    -0.246 OA
BRANCH  41  43
ATOM     43  C   UNL A   1      42.554  25.574  27.155  1.00  0.00     0.060 A 
ATOM     44  C   UNL A   1      41.442  26.287  26.705  1.00  0.00     0.016 A 
ATOM     45  C   UNL A   1      43.282  25.945  28.295  1.00  0.00     0.016 A 
ATOM     46  C   UNL A   1      41.190  27.511  27.276  1.00  0.00     0.010 A 
ATOM     47  C   UNL A   1      43.051  27.181  28.840  1.00  0.00     0.010 A 
ATOM     48  C   UNL A   1      42.061  27.976  28.268  1.00  0.00    -0.014 A 
BRANCH  48  49
ATOM     49  C   UNL A   1      41.854  29.311  28.775  1.00  0.00     0.031 A 
ATOM     50  C   UNL A   1      42.884  30.256  28.305  1.00  0.00     0.074 A 
ATOM     51  C   UNL A   1      40.773  29.640  29.503  1.00  0.00     0.049 A 
ATOM     52  N   UNL A   1      43.777  30.858  29.012  1.00  0.00    -0.248 NA
ATOM     53  C   UNL A   1      43.052  30.414  26.851  1.00  0.00     0.031 C 
ATOM     54  C   UNL A   1      39.577  28.827  29.747  1.00  0.00     0.029 A 
ATOM     55  N   UNL A   1      40.464  30.826  30.091  1.00  0.00    -0.354 N 
ATOM     56  C   UNL A   1      44.494  31.635  28.111  1.00  0.00     0.074 A 
ATOM     57  C   UNL A   1      44.153  31.162  26.797  1.00  0.00     0.031 C 
ATOM     58  C   UNL A   1      38.595  29.622  30.230  1.00  0.00     0.029 A 
ATOM     59  C   UNL A   1      39.126  30.960  30.435  1.00  0.00     0.049 A 
ATOM     60  H   UNL A   1      41.131  31.531  30.256  1.00  0.00     0.167 HD
ATOM     61  C   UNL A   1      45.060  32.801  28.515  1.00  0.00     0.037 A 
ATOM     62  C   UNL A   1      38.500  32.113  30.777  1.00  0.00     0.037 A 
ATOM     63  C   UNL A   1      45.210  32.829  29.949  1.00  0.00     0.049 A 
ATOM     64  C   UNL A   1      39.549  33.099  31.143  1.00  0.00     0.074 A 
ATOM     65  C   UNL A   1      45.886  32.060  30.876  1.00  0.00     0.029 A 
ATOM     66  N   UNL A   1      44.288  33.557  30.657  1.00  0.00    -0.354 N 
ATOM     67  N   UNL A   1      40.275  33.030  32.222  1.00  0.00    -0.248 NA
ATOM     68  C   UNL A   1      40.074  33.962  30.095  1.00  0.00     0.031 C 
ATOM     69  C   UNL A   1      45.062  32.058  32.040  1.00  0.00     0.029 A 
ATOM     70  C   UNL A   1      43.951  32.862  31.786  1.00  0.00     0.049 A 
ATOM     71  H   UNL A   1      43.928  34.435  30.396  1.00  0.00     0.167 HD
ATOM     72  C   UNL A   1      41.532  33.458  31.824  1.00  0.00     0.074 A 
ATOM     73  C   UNL A   1      41.314  34.144  30.555  1.00  0.00     0.031 C 
ATOM     74  C   UNL A   1      42.653  32.953  32.416  1.00  0.00     0.037 A 
BRANCH  61  75
ATOM     75  C   UNL A   1      45.041  34.066  27.683  1.00  0.00     0.064 A 
ATOM     76  C   UNL A   1      46.246  34.777  27.522  1.00  0.00     0.173 A 
ATOM     77  C   UNL A   1      43.870  34.771  27.320  1.00  0.00     0.173 A 
ATOM     78  F   UNL A   1      47.421  34.214  27.846  1.00  0.00    -0.203 F 
ATOM     79  C   UNL A   1      46.266  36.118  27.132  1.00  0.00     0.198 A 
ATOM     80  C   UNL A   1      43.899  36.090  26.877  1.00  0.00     0.198 A 
ATOM     81  F   UNL A   1      42.642  34.269  27.484  1.00  0.00    -0.203 F 
ATOM     82  F   UNL A   1      47.422  36.794  27.137  1.00  0.00    -0.200 F 
ATOM     83  C   UNL A   1      45.090  36.777  26.819  1.00  0.00     0.200 A 
ATOM     84  F   UNL A   1      42.746  36.714  26.596  1.00  0.00    -0.200 F 
ATOM     85  F   UNL A   1      45.099  38.081  26.514  1.00  0.00    -0.200 F 
ENDBRANCH  61  75
BRANCH  62  86
ATOM     86  C   UNL A   1      37.095  32.524  30.543  1.00  0.00     0.064 A 
ATOM     87  C   UNL A   1      36.166  32.537  31.598  1.00  0.00     0.173 A 
ATOM     88  C   UNL A   1      36.702  33.179  29.360  1.00  0.00     0.173 A 
ATOM     89  F   UNL A   1      36.473  31.971  32.775  1.00  0.00    -0.203 F 
ATOM     90  C   UNL A   1      34.938  33.197  31.490  1.00  0.00     0.198 A 
ATOM     91  C   UNL A   1      35.471  33.828  29.249  1.00  0.00     0.198 A 
ATOM     92  F   UNL A   1      37.542  33.292  28.321  1.00  0.00    -0.203 F 
ATOM     93  F   UNL A   1      34.112  33.250  32.544  1.00  0.00    -0.200 F 
ATOM     94  C   UNL A   1      34.596  33.852  30.319  1.00  0.00     0.200 A 
ATOM     95  F   UNL A   1      35.167  34.486  28.122  1.00  0.00    -0.200 F 
ATOM     96  F   UNL A   1      33.449  34.540  30.235  1.00  0.00    -0.200 F 
ENDBRANCH  62  86
BRANCH  74  97
ATOM     97  C   UNL A   1      42.485  32.251  33.733  1.00  0.00     0.064 A 
ATOM     98  C   UNL A   1      42.149  30.893  33.879  1.00  0.00     0.173 A 
ATOM     99  C   UNL A   1      42.779  32.973  34.899  1.00  0.00     0.173 A 
ATOM    100  F   UNL A   1      41.952  30.111  32.810  1.00  0.00    -0.203 F 
ATOM    101  C   UNL A   1      42.058  30.308  35.140  1.00  0.00     0.198 A 
ATOM    102  C   UNL A   1      42.730  32.373  36.152  1.00  0.00     0.198 A 
ATOM    103  F   UNL A   1      43.154  34.259  34.817  1.00  0.00    -0.203 F 
ATOM    104  F   UNL A   1      41.706  29.018  35.259  1.00  0.00    -0.200 F 
ATOM    105  C   UNL A   1      42.354  31.045  36.274  1.00  0.00     0.200 A 
ATOM    106  F   UNL A   1      43.065  33.079  37.241  1.00  0.00    -0.200 F 
ATOM    107  F   UNL A   1      42.300  30.473  37.485  1.00  0.00    -0.200 F 
ENDBRANCH  74  97
ENDBRANCH  48  49
ENDBRANCH  41  43
ENDBRANCH  40  41
ENDBRANCH  39  40
ENDBRANCH  38  39
ENDBRANCH  37  38
ENDBRANCH  36  37
ENDBRANCH  35  36
ENDBRANCH   1  35
TORSDOF 22
ENDMDL
MODEL 2
REMARK VINA RESULT:     -10.9      5.193     11.124
REMARK SMILES O=C1NC(=S)S/C1=C\c1ccc(OCc2cn(-c3ccc(C(=O)OCCOCCOCCOC(=O)c4ccc(-c5c6nc(c(-c7c(F)c(F)c(F)c(F)c7F)c7ccc([nH]7)c(-c7c(F)c(F)c(F)c(F)c7F)c7nc(c(-c8c(F)c(F)c(F)c(F)c8F)c8ccc5[nH]8)C=C7)C=C6)cc4)cc3)nn2)cc1
REMARK SMILES IDX 27 1 26 2 25 3 24 4 22 5 23 6 21 7 18 8 19 9 100 10 20 11
REMARK SMILES IDX 99 12 17 13 15 14 16 15 102 16 101 17 14 18 13 19 12 20 9 21
REMARK SMILES IDX 10 22 104 23 11 24 103 25 8 26 1 27 2 28 3 29 7 30 4 31 6 33
REMARK SMILES IDX 5 34 28 35 29 36 30 37 31 38 32 39 33 40 34 41 35 42 36 43
REMARK SMILES IDX 37 44 98 45 38 46 97 47 39 48 40 49 41 50 91 51 42 52 96 53
REMARK SMILES IDX 90 54 92 55 43 56 95 57 89 58 88 59 44 61 76 62 56 63 75 64
REMARK SMILES IDX 57 65 60 66 74 67 93 68 58 69 59 70 73 72 94 73 61 74 45 75
REMARK SMILES IDX 46 76 54 77 47 78 48 79 52 80 55 81 49 82 50 83 53 84 51 85
REMARK SMILES IDX 77 86 78 87 86 88 79 89 80 90 84 91 87 92 81 93 82 94 85 95
REMARK SMILES IDX 83 96 62 97 63 98 71 99 64 100 65 101 69 102 72 103 66 104
REMARK SMILES IDX 67 105 70 106 68 107
REMARK H PARENT 3 32 92 60 60 71
REMARK Flexibility Score: inf
ROOT
ATOM      1  O   UNL A   1      33.708  34.147  31.564  1.00  0.00    -0.376 OA
ENDROOT
BRANCH   1   2
ATOM      2  C   UNL A   1      34.173  34.603  30.304  1.00  0.00     0.202 C 
BRANCH   2   3
ATOM      3  C   UNL A   1      33.639  34.127  28.934  1.00  0.00     0.261 C 
BRANCH   3   4
ATOM      4  O   UNL A   1      34.542  33.461  28.049  1.00  0.00    -0.460 OA
BRANCH   4   5
ATOM      5  C   UNL A   1      34.893  32.201  28.393  1.00  0.00     0.338 C 
ATOM      6  O   UNL A   1      35.673  31.873  29.274  1.00  0.00    -0.246 OA
BRANCH   5   7
ATOM      7  C   UNL A   1      34.034  31.239  27.673  1.00  0.00     0.060 A 
ATOM      8  C   UNL A   1      32.546  29.387  26.214  1.00  0.00     0.066 A 
ATOM      9  C   UNL A   1      33.791  29.019  26.746  1.00  0.00     0.029 A 
ATOM     10  C   UNL A   1      32.006  30.651  26.489  1.00  0.00     0.029 A 
ATOM     11  C   UNL A   1      34.549  29.959  27.440  1.00  0.00     0.018 A 
ATOM     12  C   UNL A   1      32.744  31.572  27.243  1.00  0.00     0.018 A 
BRANCH   8  13
ATOM     13  N   UNL A   1      31.910  28.497  25.316  1.00  0.00    -0.220 N 
ATOM     14  C   UNL A   1      30.861  26.779  24.470  1.00  0.00     0.120 A 
ATOM     15  C   UNL A   1      31.829  27.124  25.392  1.00  0.00     0.144 A 
ATOM     16  N   UNL A   1      30.452  27.914  23.822  1.00  0.00    -0.131 NA
ATOM     17  N   UNL A   1      31.095  28.947  24.334  1.00  0.00    -0.062 NA
BRANCH  14  18
ATOM     18  C   UNL A   1      30.180  25.474  24.214  1.00  0.00     0.289 C 
BRANCH  18  19
ATOM     19  O   UNL A   1      30.330  24.493  25.251  1.00  0.00    -0.487 OA
BRANCH  19  20
ATOM     20  C   UNL A   1      31.439  23.692  25.223  1.00  0.00     0.119 A 
ATOM     21  C   UNL A   1      33.503  21.817  24.909  1.00  0.00    -0.024 A 
ATOM     22  C   UNL A   1      32.875  22.360  23.787  1.00  0.00     0.012 A 
ATOM     23  C   UNL A   1      33.160  22.287  26.179  1.00  0.00     0.012 A 
ATOM     24  C   UNL A   1      31.845  23.293  23.947  1.00  0.00     0.047 A 
ATOM     25  C   UNL A   1      32.146  23.235  26.332  1.00  0.00     0.047 A 
BRANCH  21  26
ATOM     26  C   UNL A   1      34.490  20.744  24.770  1.00  0.00     0.029 C 
ATOM     27  O   UNL A   1      36.451  18.595  24.621  1.00  0.00    -0.268 OA
ATOM     28  C   UNL A   1      35.262  18.392  24.801  1.00  0.00     0.263 C 
ATOM     29  N   UNL A   1      34.699  17.159  24.979  1.00  0.00    -0.307 N 
ATOM     30  C   UNL A   1      34.208  19.438  24.879  1.00  0.00     0.080 C 
ATOM     31  C   UNL A   1      33.353  17.088  25.174  1.00  0.00     0.145 C 
ATOM     32  H   UNL A   1      35.252  16.344  24.966  1.00  0.00     0.171 HD
ATOM     33  S   UNL A   1      32.669  18.695  25.140  1.00  0.00    -0.055 SA
ATOM     34  S   UNL A   1      32.534  15.669  25.408  1.00  0.00    -0.052 S 
ENDBRANCH  21  26
ENDBRANCH  19  20
ENDBRANCH  18  19
ENDBRANCH  14  18
ENDBRANCH   8  13
ENDBRANCH   5   7
ENDBRANCH   4   5
ENDBRANCH   3   4
ENDBRANCH   2   3
ENDBRANCH   1   2
BRANCH   1  35
ATOM     35  C   UNL A   1      34.311  33.029  32.173  1.00  0.00     0.188 C 
BRANCH  35  36
ATOM     36  C   UNL A   1      34.892  33.307  33.576  1.00  0.00     0.188 C 
BRANCH  36  37
ATOM     37  O   UNL A   1      36.134  32.755  33.990  1.00  0.00    -0.376 OA
BRANCH  37  38
ATOM     38  C   UNL A   1      37.084  32.233  33.073  1.00  0.00     0.202 C 
BRANCH  38  39
ATOM     39  C   UNL A   1      38.453  32.862  32.835  1.00  0.00     0.261 C 
BRANCH  39  40
ATOM     40  O   UNL A   1      39.340  32.117  32.027  1.00  0.00    -0.460 OA
BRANCH  40  41
ATOM     41  C   UNL A   1      39.283  32.454  30.724  1.00  0.00     0.338 C 
ATOM     42  O   UNL A   1      38.653  33.365  30.214  1.00  0.00    -0.246 OA
BRANCH  41  43
ATOM     43  C   UNL A   1      39.991  31.435  29.955  1.00  0.00     0.060 A 
ATOM     44  C   UNL A   1      39.289  30.260  29.679  1.00  0.00     0.016 A 
ATOM     45  C   UNL A   1      41.387  31.524  29.861  1.00  0.00     0.016 A 
ATOM     46  C   UNL A   1      40.012  29.103  29.519  1.00  0.00     0.010 A 
ATOM     47  C   UNL A   1      42.106  30.363  29.736  1.00  0.00     0.010 A 
ATOM     48  C   UNL A   1      41.405  29.164  29.648  1.00  0.00    -0.014 A 
BRANCH  48  49
ATOM     49  C   UNL A   1      42.141  27.923  29.596  1.00  0.00     0.031 A 
ATOM     50  C   UNL A   1      42.814  27.616  30.872  1.00  0.00     0.074 A 
ATOM     51  C   UNL A   1      42.105  27.115  28.522  1.00  0.00     0.049 A 
ATOM     52  N   UNL A   1      44.082  27.571  31.099  1.00  0.00    -0.248 NA
ATOM     53  C   UNL A   1      41.977  27.520  32.079  1.00  0.00     0.031 C 
ATOM     54  C   UNL A   1      41.225  27.218  27.354  1.00  0.00     0.029 A 
ATOM     55  N   UNL A   1      42.777  25.954  28.301  1.00  0.00    -0.354 N 
ATOM     56  C   UNL A   1      44.201  27.237  32.441  1.00  0.00     0.074 A 
ATOM     57  C   UNL A   1      42.905  27.431  33.031  1.00  0.00     0.031 C 
ATOM     58  C   UNL A   1      41.261  26.051  26.672  1.00  0.00     0.029 A 
ATOM     59  C   UNL A   1      42.243  25.172  27.286  1.00  0.00     0.049 A 
ATOM     60  H   UNL A   1      43.572  25.690  28.818  1.00  0.00     0.167 HD
ATOM     61  C   UNL A   1      45.276  26.531  32.876  1.00  0.00     0.037 A 
ATOM     62  C   UNL A   1      42.539  23.872  27.040  1.00  0.00     0.037 A 
ATOM     63  C   UNL A   1      46.367  26.626  31.937  1.00  0.00     0.049 A 
ATOM     64  C   UNL A   1      43.815  23.565  27.734  1.00  0.00     0.074 A 
ATOM     65  C   UNL A   1      47.123  27.660  31.421  1.00  0.00     0.029 A 
ATOM     66  N   UNL A   1      46.569  25.554  31.106  1.00  0.00    -0.354 N 
ATOM     67  N   UNL A   1      44.978  24.024  27.369  1.00  0.00    -0.248 NA
ATOM     68  C   UNL A   1      43.749  23.054  29.096  1.00  0.00     0.031 C 
ATOM     69  C   UNL A   1      47.418  27.280  30.078  1.00  0.00     0.029 A 
ATOM     70  C   UNL A   1      46.871  26.017  29.854  1.00  0.00     0.049 A 
ATOM     71  H   UNL A   1      46.506  24.607  31.367  1.00  0.00     0.167 HD
ATOM     72  C   UNL A   1      45.641  24.280  28.560  1.00  0.00     0.074 A 
ATOM     73  C   UNL A   1      44.898  23.540  29.573  1.00  0.00     0.031 C 
ATOM     74  C   UNL A   1      46.543  25.301  28.643  1.00  0.00     0.037 A 
BRANCH  61  75
ATOM     75  C   UNL A   1      45.179  25.405  33.884  1.00  0.00     0.064 A 
ATOM     76  C   UNL A   1      46.050  25.424  34.991  1.00  0.00     0.173 A 
ATOM     77  C   UNL A   1      44.520  24.175  33.654  1.00  0.00     0.173 A 
ATOM     78  F   UNL A   1      46.739  26.533  35.300  1.00  0.00    -0.203 F 
ATOM     79  C   UNL A   1      46.319  24.275  35.739  1.00  0.00     0.198 A 
ATOM     80  C   UNL A   1      44.749  23.047  34.437  1.00  0.00     0.198 A 
ATOM     81  F   UNL A   1      43.723  23.966  32.603  1.00  0.00    -0.203 F 
ATOM     82  F   UNL A   1      47.265  24.306  36.686  1.00  0.00    -0.200 F 
ATOM     83  C   UNL A   1      45.675  23.085  35.454  1.00  0.00     0.200 A 
ATOM     84  F   UNL A   1      44.127  21.900  34.132  1.00  0.00    -0.200 F 
ATOM     85  F   UNL A   1      45.983  21.966  36.123  1.00  0.00    -0.200 F 
ENDBRANCH  61  75
BRANCH  62  86
ATOM     86  C   UNL A   1      41.672  22.799  26.494  1.00  0.00     0.064 A 
ATOM     87  C   UNL A   1      42.214  21.553  26.135  1.00  0.00     0.173 A 
ATOM     88  C   UNL A   1      40.269  22.866  26.580  1.00  0.00     0.173 A 
ATOM     89  F   UNL A   1      43.544  21.388  26.068  1.00  0.00    -0.203 F 
ATOM     90  C   UNL A   1      41.405  20.434  25.912  1.00  0.00     0.198 A 
ATOM     91  C   UNL A   1      39.461  21.752  26.346  1.00  0.00     0.198 A 
ATOM     92  F   UNL A   1      39.654  23.985  26.989  1.00  0.00    -0.203 F 
ATOM     93  F   UNL A   1      41.965  19.246  25.644  1.00  0.00    -0.200 F 
ATOM     94  C   UNL A   1      40.029  20.532  26.029  1.00  0.00     0.200 A 
ATOM     95  F   UNL A   1      38.133  21.852  26.496  1.00  0.00    -0.200 F 
ATOM     96  F   UNL A   1      39.256  19.448  25.882  1.00  0.00    -0.200 F 
ENDBRANCH  62  86
BRANCH  74  97
ATOM     97  C   UNL A   1      47.076  25.861  27.355  1.00  0.00     0.064 A 
ATOM     98  C   UNL A   1      46.430  26.842  26.581  1.00  0.00     0.173 A 
ATOM     99  C   UNL A   1      48.352  25.451  26.944  1.00  0.00     0.173 A 
ATOM    100  F   UNL A   1      45.254  27.359  26.961  1.00  0.00    -0.203 F 
ATOM    101  C   UNL A   1      47.017  27.341  25.420  1.00  0.00     0.198 A 
ATOM    102  C   UNL A   1      48.953  25.985  25.810  1.00  0.00     0.198 A 
ATOM    103  F   UNL A   1      49.037  24.554  27.672  1.00  0.00    -0.203 F 
ATOM    104  F   UNL A   1      46.371  28.255  24.680  1.00  0.00    -0.200 F 
ATOM    105  C   UNL A   1      48.279  26.918  25.039  1.00  0.00     0.200 A 
ATOM    106  F   UNL A   1      50.194  25.607  25.474  1.00  0.00    -0.200 F 
ATOM    107  F   UNL A   1      48.858  27.424  23.942  1.00  0.00    -0.200 F 
ENDBRANCH  74  97
ENDBRANCH  48  49
ENDBRANCH  41  43
ENDBRANCH  40  41
ENDBRANCH  39  40
ENDBRANCH  38  39
ENDBRANCH  37  38
ENDBRANCH  36  37
ENDBRANCH  35  36
ENDBRANCH   1  35
TORSDOF 22
ENDMDL
MODEL 3
REMARK VINA RESULT:     -10.8      4.566     10.656
REMARK SMILES O=C1NC(=S)S/C1=C\c1ccc(OCc2cn(-c3ccc(C(=O)OCCOCCOCCOC(=O)c4ccc(-c5c6nc(c(-c7c(F)c(F)c(F)c(F)c7F)c7ccc([nH]7)c(-c7c(F)c(F)c(F)c(F)c7F)c7nc(c(-c8c(F)c(F)c(F)c(F)c8F)c8ccc5[nH]8)C=C7)C=C6)cc4)cc3)nn2)cc1
REMARK SMILES IDX 27 1 26 2 25 3 24 4 22 5 23 6 21 7 18 8 19 9 100 10 20 11
REMARK SMILES IDX 99 12 17 13 15 14 16 15 102 16 101 17 14 18 13 19 12 20 9 21
REMARK SMILES IDX 10 22 104 23 11 24 103 25 8 26 1 27 2 28 3 29 7 30 4 31 6 33
REMARK SMILES IDX 5 34 28 35 29 36 30 37 31 38 32 39 33 40 34 41 35 42 36 43
REMARK SMILES IDX 37 44 98 45 38 46 97 47 39 48 40 49 41 50 91 51 42 52 96 53
REMARK SMILES IDX 90 54 92 55 43 56 95 57 89 58 88 59 44 61 76 62 56 63 75 64
REMARK SMILES IDX 57 65 60 66 74 67 93 68 58 69 59 70 73 72 94 73 61 74 45 75
REMARK SMILES IDX 46 76 54 77 47 78 48 79 52 80 55 81 49 82 50 83 53 84 51 85
REMARK SMILES IDX 77 86 78 87 86 88 79 89 80 90 84 91 87 92 81 93 82 94 85 95
REMARK SMILES IDX 83 96 62 97 63 98 71 99 64 100 65 101 69 102 72 103 66 104
REMARK SMILES IDX 67 105 70 106 68 107
REMARK H PARENT 3 32 92 60 60 71
REMARK Flexibility Score: inf
ROOT
ATOM      1  O   UNL A   1      34.012  33.314  32.091  1.00  0.00    -0.376 OA
ENDROOT
BRANCH   1   2
ATOM      2  C   UNL A   1      34.981  32.330  31.769  1.00  0.00     0.202 C 
BRANCH   2   3
ATOM      3  C   UNL A   1      35.882  32.348  30.513  1.00  0.00     0.261 C 
BRANCH   3   4
ATOM      4  O   UNL A   1      35.433  31.656  29.347  1.00  0.00    -0.460 OA
BRANCH   4   5
ATOM      5  C   UNL A   1      34.598  32.340  28.533  1.00  0.00     0.338 C 
ATOM      6  O   UNL A   1      34.614  33.541  28.308  1.00  0.00    -0.246 OA
BRANCH   5   7
ATOM      7  C   UNL A   1      33.762  31.387  27.776  1.00  0.00     0.060 A 
ATOM      8  C   UNL A   1      32.320  29.544  26.260  1.00  0.00     0.066 A 
ATOM      9  C   UNL A   1      33.514  29.153  26.883  1.00  0.00     0.029 A 
ATOM     10  C   UNL A   1      31.801  30.830  26.470  1.00  0.00     0.029 A 
ATOM     11  C   UNL A   1      34.251  30.087  27.607  1.00  0.00     0.018 A 
ATOM     12  C   UNL A   1      32.514  31.746  27.253  1.00  0.00     0.018 A 
BRANCH   8  13
ATOM     13  N   UNL A   1      31.719  28.652  25.339  1.00  0.00    -0.220 N 
ATOM     14  C   UNL A   1      30.755  26.908  24.446  1.00  0.00     0.120 A 
ATOM     15  C   UNL A   1      31.718  27.275  25.365  1.00  0.00     0.144 A 
ATOM     16  N   UNL A   1      30.270  28.040  23.848  1.00  0.00    -0.131 NA
ATOM     17  N   UNL A   1      30.862  29.089  24.389  1.00  0.00    -0.062 NA
BRANCH  14  18
ATOM     18  C   UNL A   1      30.146  25.576  24.154  1.00  0.00     0.289 C 
BRANCH  18  19
ATOM     19  O   UNL A   1      30.653  24.915  22.985  1.00  0.00    -0.487 OA
BRANCH  19  20
ATOM     20  C   UNL A   1      31.705  24.053  23.140  1.00  0.00     0.119 A 
ATOM     21  C   UNL A   1      33.858  22.397  23.847  1.00  0.00    -0.024 A 
ATOM     22  C   UNL A   1      32.680  22.373  24.597  1.00  0.00     0.012 A 
ATOM     23  C   UNL A   1      33.915  23.180  22.691  1.00  0.00     0.012 A 
ATOM     24  C   UNL A   1      31.609  23.201  24.242  1.00  0.00     0.047 A 
ATOM     25  C   UNL A   1      32.836  23.989  22.330  1.00  0.00     0.047 A 
BRANCH  21  26
ATOM     26  C   UNL A   1      35.035  21.639  24.274  1.00  0.00     0.029 C 
ATOM     27  O   UNL A   1      37.444  20.186  25.030  1.00  0.00    -0.268 OA
ATOM     28  C   UNL A   1      37.277  21.366  25.287  1.00  0.00     0.263 C 
ATOM     29  N   UNL A   1      38.186  22.161  25.929  1.00  0.00    -0.307 N 
ATOM     30  C   UNL A   1      36.073  22.165  24.940  1.00  0.00     0.080 C 
ATOM     31  C   UNL A   1      37.862  23.465  26.144  1.00  0.00     0.145 C 
ATOM     32  H   UNL A   1      39.052  21.799  26.228  1.00  0.00     0.171 HD
ATOM     33  S   UNL A   1      36.270  23.789  25.502  1.00  0.00    -0.055 SA
ATOM     34  S   UNL A   1      38.861  24.547  26.902  1.00  0.00    -0.052 S 
ENDBRANCH  21  26
ENDBRANCH  19  20
ENDBRANCH  18  19
ENDBRANCH  14  18
ENDBRANCH   8  13
ENDBRANCH   5   7
ENDBRANCH   4   5
ENDBRANCH   3   4
ENDBRANCH   2   3
ENDBRANCH   1   2
BRANCH   1  35
ATOM     35  C   UNL A   1      34.412  34.644  32.329  1.00  0.00     0.188 C 
BRANCH  35  36
ATOM     36  C   UNL A   1      35.064  34.874  33.709  1.00  0.00     0.188 C 
BRANCH  36  37
ATOM     37  O   UNL A   1      36.453  35.141  33.841  1.00  0.00    -0.376 OA
BRANCH  37  38
ATOM     38  C   UNL A   1      37.437  34.119  33.795  1.00  0.00     0.202 C 
BRANCH  38  39
ATOM     39  C   UNL A   1      38.740  34.244  33.012  1.00  0.00     0.261 C 
BRANCH  39  40
ATOM     40  O   UNL A   1      39.060  33.153  32.174  1.00  0.00    -0.460 OA
BRANCH  40  41
ATOM     41  C   UNL A   1      39.332  33.518  30.907  1.00  0.00     0.338 C 
ATOM     42  O   UNL A   1      38.895  34.478  30.295  1.00  0.00    -0.246 OA
BRANCH  41  43
ATOM     43  C   UNL A   1      40.140  32.469  30.291  1.00  0.00     0.060 A 
ATOM     44  C   UNL A   1      39.530  31.225  30.124  1.00  0.00     0.016 A 
ATOM     45  C   UNL A   1      41.531  32.644  30.243  1.00  0.00     0.016 A 
ATOM     46  C   UNL A   1      40.332  30.111  30.130  1.00  0.00     0.010 A 
ATOM     47  C   UNL A   1      42.328  31.529  30.283  1.00  0.00     0.010 A 
ATOM     48  C   UNL A   1      41.710  30.282  30.307  1.00  0.00    -0.014 A 
BRANCH  48  49
ATOM     49  C   UNL A   1      42.526  29.097  30.430  1.00  0.00     0.031 A 
ATOM     50  C   UNL A   1      42.884  28.805  31.830  1.00  0.00     0.074 A 
ATOM     51  C   UNL A   1      42.816  28.317  29.374  1.00  0.00     0.049 A 
ATOM     52  N   UNL A   1      44.056  28.842  32.364  1.00  0.00    -0.248 NA
ATOM     53  C   UNL A   1      41.784  28.619  32.792  1.00  0.00     0.031 C 
ATOM     54  C   UNL A   1      42.247  28.388  28.025  1.00  0.00     0.029 A 
ATOM     55  N   UNL A   1      43.606  27.212  29.318  1.00  0.00    -0.354 N 
ATOM     56  C   UNL A   1      43.864  28.482  33.692  1.00  0.00     0.074 A 
ATOM     57  C   UNL A   1      42.453  28.570  33.943  1.00  0.00     0.031 C 
ATOM     58  C   UNL A   1      42.536  27.245  27.364  1.00  0.00     0.029 A 
ATOM     59  C   UNL A   1      43.399  26.421  28.196  1.00  0.00     0.049 A 
ATOM     60  H   UNL A   1      44.266  26.990  30.013  1.00  0.00     0.167 HD
ATOM     61  C   UNL A   1      44.848  27.842  34.374  1.00  0.00     0.037 A 
ATOM     62  C   UNL A   1      43.842  25.151  28.020  1.00  0.00     0.037 A 
ATOM     63  C   UNL A   1      46.127  28.037  33.736  1.00  0.00     0.049 A 
ATOM     64  C   UNL A   1      44.926  24.916  29.007  1.00  0.00     0.074 A 
ATOM     65  C   UNL A   1      46.909  29.134  33.432  1.00  0.00     0.029 A 
ATOM     66  N   UNL A   1      46.606  27.004  32.972  1.00  0.00    -0.354 N 
ATOM     67  N   UNL A   1      46.106  25.465  28.946  1.00  0.00    -0.248 NA
ATOM     68  C   UNL A   1      44.563  24.367  30.306  1.00  0.00     0.031 C 
ATOM     69  C   UNL A   1      47.553  28.812  32.202  1.00  0.00     0.029 A 
ATOM     70  C   UNL A   1      47.173  27.519  31.839  1.00  0.00     0.049 A 
ATOM     71  H   UNL A   1      46.551  26.048  33.202  1.00  0.00     0.167 HD
ATOM     72  C   UNL A   1      46.433  25.735  30.266  1.00  0.00     0.074 A 
ATOM     73  C   UNL A   1      45.520  24.919  31.057  1.00  0.00     0.031 C 
ATOM     74  C   UNL A   1      47.209  26.814  30.578  1.00  0.00     0.037 A 
BRANCH  61  75
ATOM     75  C   UNL A   1      44.589  26.686  35.318  1.00  0.00     0.064 A 
ATOM     76  C   UNL A   1      45.208  26.706  36.583  1.00  0.00     0.173 A 
ATOM     77  C   UNL A   1      44.044  25.440  34.931  1.00  0.00     0.173 A 
ATOM     78  F   UNL A   1      45.771  27.831  37.051  1.00  0.00    -0.203 F 
ATOM     79  C   UNL A   1      45.361  25.548  37.348  1.00  0.00     0.198 A 
ATOM     80  C   UNL A   1      44.150  24.300  35.722  1.00  0.00     0.198 A 
ATOM     81  F   UNL A   1      43.493  25.232  33.731  1.00  0.00    -0.203 F 
ATOM     82  F   UNL A   1      46.086  25.587  38.474  1.00  0.00    -0.200 F 
ATOM     83  C   UNL A   1      44.840  24.343  36.912  1.00  0.00     0.200 A 
ATOM     84  F   UNL A   1      43.653  23.140  35.272  1.00  0.00    -0.200 F 
ATOM     85  F   UNL A   1      45.047  23.218  37.609  1.00  0.00    -0.200 F 
ENDBRANCH  61  75
BRANCH  62  86
ATOM     86  C   UNL A   1      43.218  24.035  27.268  1.00  0.00     0.064 A 
ATOM     87  C   UNL A   1      43.861  23.478  26.149  1.00  0.00     0.173 A 
ATOM     88  C   UNL A   1      42.132  23.307  27.789  1.00  0.00     0.173 A 
ATOM     89  F   UNL A   1      44.930  24.085  25.612  1.00  0.00    -0.203 F 
ATOM     90  C   UNL A   1      43.465  22.250  25.609  1.00  0.00     0.198 A 
ATOM     91  C   UNL A   1      41.731  22.087  27.242  1.00  0.00     0.198 A 
ATOM     92  F   UNL A   1      41.500  23.710  28.900  1.00  0.00    -0.203 F 
ATOM     93  F   UNL A   1      44.151  21.717  24.588  1.00  0.00    -0.200 F 
ATOM     94  C   UNL A   1      42.408  21.550  26.163  1.00  0.00     0.200 A 
ATOM     95  F   UNL A   1      40.727  21.404  27.810  1.00  0.00    -0.200 F 
ATOM     96  F   UNL A   1      42.070  20.343  25.690  1.00  0.00    -0.200 F 
ENDBRANCH  62  86
BRANCH  74  97
ATOM     97  C   UNL A   1      48.000  27.443  29.467  1.00  0.00     0.064 A 
ATOM     98  C   UNL A   1      49.276  27.017  29.055  1.00  0.00     0.173 A 
ATOM     99  C   UNL A   1      47.387  28.461  28.724  1.00  0.00     0.173 A 
ATOM    100  F   UNL A   1      49.887  25.984  29.648  1.00  0.00    -0.203 F 
ATOM    101  C   UNL A   1      49.924  27.628  27.982  1.00  0.00     0.198 A 
ATOM    102  C   UNL A   1      48.018  29.036  27.628  1.00  0.00     0.198 A 
ATOM    103  F   UNL A   1      46.149  28.872  29.042  1.00  0.00    -0.203 F 
ATOM    104  F   UNL A   1      51.153  27.228  27.623  1.00  0.00    -0.200 F 
ATOM    105  C   UNL A   1      49.292  28.632  27.266  1.00  0.00     0.200 A 
ATOM    106  F   UNL A   1      47.382  29.973  26.910  1.00  0.00    -0.200 F 
ATOM    107  F   UNL A   1      49.901  29.195  26.214  1.00  0.00    -0.200 F 
ENDBRANCH  74  97
ENDBRANCH  48  49
ENDBRANCH  41  43
ENDBRANCH  40  41
ENDBRANCH  39  40
ENDBRANCH  38  39
ENDBRANCH  37  38
ENDBRANCH  36  37
ENDBRANCH  35  36
ENDBRANCH   1  35
TORSDOF 22
ENDMDL
