MODEL 1
REMARK VINA RESULT:     -11.3      0.000      0.000
REMARK SMILES O=C(OCCOCCOCCOC(=O)C1(NC(=O)c2nc(C3CC3)n[nH]2)CCCCC1)c1ccc(-c2c3nc(c(-c4c(F)c(F)c(F)c(F)c4F)c4ccc([nH]4)c(-c4c(F)c(F)c(F)c(F)c4F)c4nc(c(-c5c(F)c(F)c(F)c(F)c5F)c5ccc2[nH]5)C=C4)C=C3)cc1
REMARK SMILES IDX 8 1 7 2 6 3 5 4 4 5 3 6 2 7 1 8 32 9 33 10 94 11 34 12 93 13
REMARK SMILES IDX 35 14 36 15 37 16 87 17 38 18 92 19 86 20 88 21 39 22 91 23
REMARK SMILES IDX 85 24 84 25 40 27 72 28 52 29 71 30 53 31 56 32 70 33 89 34
REMARK SMILES IDX 54 35 55 36 69 38 90 39 57 40 41 41 42 42 50 43 43 44 44 45
REMARK SMILES IDX 48 46 51 47 45 48 46 49 49 50 47 51 73 52 74 53 82 54 75 55
REMARK SMILES IDX 76 56 80 57 83 58 77 59 78 60 81 61 79 62 58 63 59 64 67 65
REMARK SMILES IDX 60 66 61 67 65 68 68 69 62 70 63 71 66 72 64 73 9 74 10 75
REMARK SMILES IDX 11 76 12 77 13 78 14 79 15 80 27 81 31 82 28 83 30 84 29 85
REMARK SMILES IDX 16 86 17 87 18 89 19 90 20 91 26 92 21 93 25 94 22 96 23 97
REMARK SMILES IDX 24 98
REMARK H PARENT 88 26 56 37 16 88 26 95
REMARK Flexibility Score: inf
ROOT
ATOM      1  C   UNL A   1      40.314  20.973  26.508  1.00  0.00     0.188 C 
ENDROOT
BRANCH   1   2
ATOM      2  C   UNL A   1      41.617  21.150  27.220  1.00  0.00     0.188 C 
BRANCH   2   3
ATOM      3  O   UNL A   1      42.214  19.875  27.144  1.00  0.00    -0.376 OA
BRANCH   3   4
ATOM      4  C   UNL A   1      42.125  19.285  25.870  1.00  0.00     0.202 C 
BRANCH   4   5
ATOM      5  C   UNL A   1      43.285  18.318  25.717  1.00  0.00     0.261 C 
BRANCH   5   6
ATOM      6  O   UNL A   1      44.084  18.592  24.540  1.00  0.00    -0.460 OA
BRANCH   6   7
ATOM      7  C   UNL A   1      45.035  19.519  24.269  1.00  0.00     0.338 C 
ATOM      8  O   UNL A   1      46.035  19.142  23.655  1.00  0.00    -0.246 OA
BRANCH   7   9
ATOM      9  C   UNL A   1      45.043  20.951  24.739  1.00  0.00     0.060 A 
ATOM     10  C   UNL A   1      44.699  22.063  23.970  1.00  0.00     0.016 A 
ATOM     11  C   UNL A   1      45.312  21.177  26.107  1.00  0.00     0.016 A 
ATOM     12  C   UNL A   1      44.425  23.296  24.550  1.00  0.00     0.010 A 
ATOM     13  C   UNL A   1      45.180  22.450  26.679  1.00  0.00     0.010 A 
ATOM     14  C   UNL A   1      44.713  23.508  25.893  1.00  0.00    -0.014 A 
BRANCH  14  15
ATOM     15  C   UNL A   1      44.850  24.911  26.308  1.00  0.00     0.031 A 
ATOM     16  C   UNL A   1      46.228  25.487  26.217  1.00  0.00     0.074 A 
ATOM     17  C   UNL A   1      43.781  25.686  26.553  1.00  0.00     0.049 A 
ATOM     18  N   UNL A   1      46.631  26.704  26.436  1.00  0.00    -0.248 NA
ATOM     19  C   UNL A   1      47.281  24.582  25.713  1.00  0.00     0.031 C 
ATOM     20  C   UNL A   1      42.395  25.271  26.382  1.00  0.00     0.029 A 
ATOM     21  N   UNL A   1      43.686  26.975  26.996  1.00  0.00    -0.354 N 
ATOM     22  C   UNL A   1      47.959  26.725  26.038  1.00  0.00     0.074 A 
ATOM     23  C   UNL A   1      48.307  25.401  25.588  1.00  0.00     0.031 C 
ATOM     24  C   UNL A   1      41.580  26.239  26.834  1.00  0.00     0.029 A 
ATOM     25  C   UNL A   1      42.400  27.342  27.317  1.00  0.00     0.049 A 
ATOM     26  H   UNL A   1      44.458  27.580  27.076  1.00  0.00     0.167 HD
ATOM     27  C   UNL A   1      48.806  27.776  26.053  1.00  0.00     0.037 A 
ATOM     28  C   UNL A   1      41.968  28.436  27.971  1.00  0.00     0.037 A 
ATOM     29  C   UNL A   1      48.440  29.044  26.611  1.00  0.00     0.049 A 
ATOM     30  C   UNL A   1      42.995  29.497  28.265  1.00  0.00     0.074 A 
ATOM     31  C   UNL A   1      49.225  30.158  26.827  1.00  0.00     0.029 A 
ATOM     32  N   UNL A   1      47.166  29.344  27.085  1.00  0.00    -0.354 N 
ATOM     33  N   UNL A   1      44.270  29.510  27.951  1.00  0.00    -0.248 NA
ATOM     34  C   UNL A   1      42.534  30.702  28.962  1.00  0.00     0.031 C 
ATOM     35  C   UNL A   1      48.445  31.101  27.505  1.00  0.00     0.029 A 
ATOM     36  C   UNL A   1      47.151  30.611  27.635  1.00  0.00     0.049 A 
ATOM     37  H   UNL A   1      46.388  28.742  27.034  1.00  0.00     0.167 HD
ATOM     38  C   UNL A   1      44.754  30.745  28.350  1.00  0.00     0.074 A 
ATOM     39  C   UNL A   1      43.631  31.447  28.944  1.00  0.00     0.031 C 
ATOM     40  C   UNL A   1      46.001  31.263  28.215  1.00  0.00     0.037 A 
BRANCH  27  41
ATOM     41  C   UNL A   1      50.201  27.515  25.574  1.00  0.00     0.064 A 
ATOM     42  C   UNL A   1      50.530  27.516  24.208  1.00  0.00     0.173 A 
ATOM     43  C   UNL A   1      51.200  27.158  26.489  1.00  0.00     0.173 A 
ATOM     44  F   UNL A   1      49.596  27.801  23.288  1.00  0.00    -0.203 F 
ATOM     45  C   UNL A   1      51.801  27.140  23.778  1.00  0.00     0.198 A 
ATOM     46  C   UNL A   1      52.477  26.810  26.057  1.00  0.00     0.198 A 
ATOM     47  F   UNL A   1      50.928  27.112  27.802  1.00  0.00    -0.203 F 
ATOM     48  F   UNL A   1      52.072  27.076  22.467  1.00  0.00    -0.200 F 
ATOM     49  C   UNL A   1      52.773  26.790  24.703  1.00  0.00     0.200 A 
ATOM     50  F   UNL A   1      53.411  26.463  26.952  1.00  0.00    -0.200 F 
ATOM     51  F   UNL A   1      53.989  26.411  24.288  1.00  0.00    -0.200 F 
ENDBRANCH  27  41
BRANCH  28  52
ATOM     52  C   UNL A   1      40.552  28.555  28.413  1.00  0.00     0.064 A 
ATOM     53  C   UNL A   1      39.557  29.084  27.582  1.00  0.00     0.173 A 
ATOM     54  C   UNL A   1      40.171  28.172  29.711  1.00  0.00     0.173 A 
ATOM     55  F   UNL A   1      39.865  29.476  26.337  1.00  0.00    -0.203 F 
ATOM     56  C   UNL A   1      38.248  29.255  28.037  1.00  0.00     0.198 A 
ATOM     57  C   UNL A   1      38.858  28.321  30.158  1.00  0.00     0.198 A 
ATOM     58  F   UNL A   1      41.078  27.654  30.554  1.00  0.00    -0.203 F 
ATOM     59  F   UNL A   1      37.329  29.807  27.233  1.00  0.00    -0.200 F 
ATOM     60  C   UNL A   1      37.899  28.873  29.324  1.00  0.00     0.200 A 
ATOM     61  F   UNL A   1      38.525  27.938  31.398  1.00  0.00    -0.200 F 
ATOM     62  F   UNL A   1      36.645  29.046  29.762  1.00  0.00    -0.200 F 
ENDBRANCH  28  52
BRANCH  40  63
ATOM     63  C   UNL A   1      46.192  32.677  28.670  1.00  0.00     0.064 A 
ATOM     64  C   UNL A   1      46.026  33.763  27.802  1.00  0.00     0.173 A 
ATOM     65  C   UNL A   1      46.488  32.939  30.017  1.00  0.00     0.173 A 
ATOM     66  F   UNL A   1      45.759  33.557  26.504  1.00  0.00    -0.203 F 
ATOM     67  C   UNL A   1      46.176  35.066  28.263  1.00  0.00     0.198 A 
ATOM     68  C   UNL A   1      46.594  34.244  30.481  1.00  0.00     0.198 A 
ATOM     69  F   UNL A   1      46.648  31.928  30.886  1.00  0.00    -0.203 F 
ATOM     70  F   UNL A   1      46.068  36.091  27.407  1.00  0.00    -0.200 F 
ATOM     71  C   UNL A   1      46.447  35.306  29.602  1.00  0.00     0.200 A 
ATOM     72  F   UNL A   1      46.833  34.473  31.779  1.00  0.00    -0.200 F 
ATOM     73  F   UNL A   1      46.572  36.563  30.046  1.00  0.00    -0.200 F 
ENDBRANCH  40  63
ENDBRANCH  14  15
ENDBRANCH   7   9
ENDBRANCH   6   7
ENDBRANCH   5   6
ENDBRANCH   4   5
ENDBRANCH   3   4
ENDBRANCH   2   3
ENDBRANCH   1   2
BRANCH   1  74
ATOM     74  O   UNL A   1      39.632  22.188  26.245  1.00  0.00    -0.376 OA
BRANCH  74  75
ATOM     75  C   UNL A   1      38.311  21.951  25.759  1.00  0.00     0.202 C 
BRANCH  75  76
ATOM     76  C   UNL A   1      37.425  23.210  25.765  1.00  0.00     0.261 C 
BRANCH  76  77
ATOM     77  O   UNL A   1      36.208  22.959  25.024  1.00  0.00    -0.461 OA
BRANCH  77  78
ATOM     78  C   UNL A   1      35.072  22.677  25.726  1.00  0.00     0.331 C 
ATOM     79  O   UNL A   1      34.996  21.830  26.616  1.00  0.00    -0.249 OA
BRANCH  78  80
ATOM     80  C   UNL A   1      33.863  23.576  25.275  1.00  0.00     0.138 C 
ATOM     81  C   UNL A   1      33.883  25.002  25.931  1.00  0.00     0.040 C 
ATOM     82  C   UNL A   1      34.056  23.679  23.731  1.00  0.00     0.040 C 
ATOM     83  C   UNL A   1      33.280  26.154  25.128  1.00  0.00     0.003 C 
ATOM     84  C   UNL A   1      33.504  24.923  23.030  1.00  0.00     0.003 C 
ATOM     85  C   UNL A   1      33.893  26.201  23.749  1.00  0.00     0.000 C 
BRANCH  80  86
ATOM     86  N   UNL A   1      32.501  22.995  25.572  1.00  0.00    -0.333 N 
ATOM     87  C   UNL A   1      31.795  21.814  25.425  1.00  0.00     0.289 C 
ATOM     88  H   UNL A   1      31.935  23.672  26.011  1.00  0.00     0.165 HD
ATOM     89  O   UNL A   1      30.639  21.888  25.861  1.00  0.00    -0.266 OA
BRANCH  87  90
ATOM     90  C   UNL A   1      32.234  20.587  24.773  1.00  0.00     0.214 A 
ATOM     91  N   UNL A   1      32.466  19.381  25.284  1.00  0.00    -0.207 NA
ATOM     92  N   UNL A   1      32.178  20.439  23.416  1.00  0.00    -0.255 N 
ATOM     93  C   UNL A   1      32.630  18.560  24.188  1.00  0.00     0.154 A 
ATOM     94  N   UNL A   1      32.458  19.189  23.020  1.00  0.00    -0.158 NA
ATOM     95  H   UNL A   1      31.957  21.171  22.796  1.00  0.00     0.192 HD
BRANCH  93  96
ATOM     96  C   UNL A   1      33.033  17.077  24.189  1.00  0.00     0.060 C 
ATOM     97  C   UNL A   1      34.099  16.602  23.224  1.00  0.00     0.012 C 
ATOM     98  C   UNL A   1      34.373  16.566  24.683  1.00  0.00     0.012 C 
ENDBRANCH  93  96
ENDBRANCH  87  90
ENDBRANCH  80  86
ENDBRANCH  78  80
ENDBRANCH  77  78
ENDBRANCH  76  77
ENDBRANCH  75  76
ENDBRANCH  74  75
ENDBRANCH   1  74
TORSDOF 20
ENDMDL
MODEL 2
REMARK VINA RESULT:     -11.1      1.050      7.279
REMARK SMILES O=C(OCCOCCOCCOC(=O)C1(NC(=O)c2nc(C3CC3)n[nH]2)CCCCC1)c1ccc(-c2c3nc(c(-c4c(F)c(F)c(F)c(F)c4F)c4ccc([nH]4)c(-c4c(F)c(F)c(F)c(F)c4F)c4nc(c(-c5c(F)c(F)c(F)c(F)c5F)c5ccc2[nH]5)C=C4)C=C3)cc1
REMARK SMILES IDX 8 1 7 2 6 3 5 4 4 5 3 6 2 7 1 8 32 9 33 10 94 11 34 12 93 13
REMARK SMILES IDX 35 14 36 15 37 16 87 17 38 18 92 19 86 20 88 21 39 22 91 23
REMARK SMILES IDX 85 24 84 25 40 27 72 28 52 29 71 30 53 31 56 32 70 33 89 34
REMARK SMILES IDX 54 35 55 36 69 38 90 39 57 40 41 41 42 42 50 43 43 44 44 45
REMARK SMILES IDX 48 46 51 47 45 48 46 49 49 50 47 51 73 52 74 53 82 54 75 55
REMARK SMILES IDX 76 56 80 57 83 58 77 59 78 60 81 61 79 62 58 63 59 64 67 65
REMARK SMILES IDX 60 66 61 67 65 68 68 69 62 70 63 71 66 72 64 73 9 74 10 75
REMARK SMILES IDX 11 76 12 77 13 78 14 79 15 80 27 81 31 82 28 83 30 84 29 85
REMARK SMILES IDX 16 86 17 87 18 89 19 90 20 91 26 92 21 93 25 94 22 96 23 97
REMARK SMILES IDX 24 98
REMARK H PARENT 88 26 56 37 16 88 26 95
REMARK Flexibility Score: inf
ROOT
ATOM      1  C   UNL A   1      39.316  21.811  26.226  1.00  0.00     0.188 C 
ENDROOT
BRANCH   1   2
ATOM      2  C   UNL A   1      40.402  21.812  27.255  1.00  0.00     0.188 C 
BRANCH   2   3
ATOM      3  O   UNL A   1      40.766  20.453  27.356  1.00  0.00    -0.376 OA
BRANCH   3   4
ATOM      4  C   UNL A   1      40.827  19.792  26.116  1.00  0.00     0.202 C 
BRANCH   4   5
ATOM      5  C   UNL A   1      42.009  18.839  26.149  1.00  0.00     0.261 C 
BRANCH   5   6
ATOM      6  O   UNL A   1      42.857  18.965  24.981  1.00  0.00    -0.460 OA
BRANCH   6   7
ATOM      7  C   UNL A   1      43.989  19.669  24.738  1.00  0.00     0.338 C 
ATOM      8  O   UNL A   1      44.929  19.067  24.214  1.00  0.00    -0.246 OA
BRANCH   7   9
ATOM      9  C   UNL A   1      44.256  21.096  25.144  1.00  0.00     0.060 A 
ATOM     10  C   UNL A   1      44.527  22.153  24.275  1.00  0.00     0.016 A 
ATOM     11  C   UNL A   1      44.106  21.413  26.512  1.00  0.00     0.016 A 
ATOM     12  C   UNL A   1      44.446  23.477  24.689  1.00  0.00     0.010 A 
ATOM     13  C   UNL A   1      44.168  22.738  26.967  1.00  0.00     0.010 A 
ATOM     14  C   UNL A   1      44.318  23.773  26.040  1.00  0.00    -0.014 A 
BRANCH  14  15
ATOM     15  C   UNL A   1      44.711  25.132  26.442  1.00  0.00     0.031 A 
ATOM     16  C   UNL A   1      43.600  26.022  26.904  1.00  0.00     0.074 A 
ATOM     17  C   UNL A   1      45.999  25.484  26.584  1.00  0.00     0.049 A 
ATOM     18  N   UNL A   1      43.656  27.228  27.389  1.00  0.00    -0.248 NA
ATOM     19  C   UNL A   1      42.249  25.428  26.910  1.00  0.00     0.031 C 
ATOM     20  C   UNL A   1      47.132  24.582  26.429  1.00  0.00     0.029 A 
ATOM     21  N   UNL A   1      46.575  26.686  26.888  1.00  0.00    -0.354 N 
ATOM     22  C   UNL A   1      42.367  27.509  27.813  1.00  0.00     0.074 A 
ATOM     23  C   UNL A   1      41.542  26.367  27.511  1.00  0.00     0.031 C 
ATOM     24  C   UNL A   1      48.275  25.283  26.513  1.00  0.00     0.029 A 
ATOM     25  C   UNL A   1      47.941  26.683  26.737  1.00  0.00     0.049 A 
ATOM     26  H   UNL A   1      46.064  27.473  27.186  1.00  0.00     0.167 HD
ATOM     27  C   UNL A   1      41.924  28.637  28.406  1.00  0.00     0.037 A 
ATOM     28  C   UNL A   1      48.798  27.721  26.740  1.00  0.00     0.037 A 
ATOM     29  C   UNL A   1      42.762  29.786  28.587  1.00  0.00     0.049 A 
ATOM     30  C   UNL A   1      48.230  29.064  27.115  1.00  0.00     0.074 A 
ATOM     31  C   UNL A   1      42.426  31.044  29.041  1.00  0.00     0.029 A 
ATOM     32  N   UNL A   1      44.118  29.813  28.272  1.00  0.00    -0.354 N 
ATOM     33  N   UNL A   1      46.999  29.364  27.460  1.00  0.00    -0.248 NA
ATOM     34  C   UNL A   1      49.156  30.201  27.138  1.00  0.00     0.031 C 
ATOM     35  C   UNL A   1      43.561  31.854  28.923  1.00  0.00     0.029 A 
ATOM     36  C   UNL A   1      44.627  31.080  28.478  1.00  0.00     0.049 A 
ATOM     37  H   UNL A   1      44.639  29.041  27.950  1.00  0.00     0.167 HD
ATOM     38  C   UNL A   1      47.010  30.705  27.807  1.00  0.00     0.074 A 
ATOM     39  C   UNL A   1      48.374  31.162  27.612  1.00  0.00     0.031 C 
ATOM     40  C   UNL A   1      45.998  31.481  28.268  1.00  0.00     0.037 A 
BRANCH  27  41
ATOM     41  C   UNL A   1      40.468  28.680  28.754  1.00  0.00     0.064 A 
ATOM     42  C   UNL A   1      39.496  29.106  27.832  1.00  0.00     0.173 A 
ATOM     43  C   UNL A   1      40.050  28.388  30.059  1.00  0.00     0.173 A 
ATOM     44  F   UNL A   1      39.851  29.447  26.584  1.00  0.00    -0.203 F 
ATOM     45  C   UNL A   1      38.166  29.267  28.217  1.00  0.00     0.198 A 
ATOM     46  C   UNL A   1      38.716  28.523  30.432  1.00  0.00     0.198 A 
ATOM     47  F   UNL A   1      40.944  28.007  30.984  1.00  0.00    -0.203 F 
ATOM     48  F   UNL A   1      37.269  29.746  27.344  1.00  0.00    -0.200 F 
ATOM     49  C   UNL A   1      37.777  28.972  29.515  1.00  0.00     0.200 A 
ATOM     50  F   UNL A   1      38.344  28.246  31.689  1.00  0.00    -0.200 F 
ATOM     51  F   UNL A   1      36.502  29.143  29.890  1.00  0.00    -0.200 F 
ENDBRANCH  27  41
BRANCH  28  52
ATOM     52  C   UNL A   1      50.222  27.541  26.348  1.00  0.00     0.064 A 
ATOM     53  C   UNL A   1      50.633  27.571  25.009  1.00  0.00     0.173 A 
ATOM     54  C   UNL A   1      51.207  27.291  27.318  1.00  0.00     0.173 A 
ATOM     55  F   UNL A   1      49.734  27.795  24.039  1.00  0.00    -0.203 F 
ATOM     56  C   UNL A   1      51.962  27.330  24.653  1.00  0.00     0.198 A 
ATOM     57  C   UNL A   1      52.539  27.072  26.964  1.00  0.00     0.198 A 
ATOM     58  F   UNL A   1      50.878  27.254  28.619  1.00  0.00    -0.203 F 
ATOM     59  F   UNL A   1      52.315  27.321  23.361  1.00  0.00    -0.200 F 
ATOM     60  C   UNL A   1      52.913  27.081  25.631  1.00  0.00     0.200 A 
ATOM     61  F   UNL A   1      53.456  26.845  27.915  1.00  0.00    -0.200 F 
ATOM     62  F   UNL A   1      54.186  26.841  25.287  1.00  0.00    -0.200 F 
ENDBRANCH  28  52
BRANCH  40  63
ATOM     63  C   UNL A   1      46.349  32.887  28.644  1.00  0.00     0.064 A 
ATOM     64  C   UNL A   1      46.805  33.219  29.926  1.00  0.00     0.173 A 
ATOM     65  C   UNL A   1      46.281  33.903  27.678  1.00  0.00     0.173 A 
ATOM     66  F   UNL A   1      46.870  32.282  30.884  1.00  0.00    -0.203 F 
ATOM     67  C   UNL A   1      47.157  34.528  30.236  1.00  0.00     0.198 A 
ATOM     68  C   UNL A   1      46.674  35.200  27.980  1.00  0.00     0.198 A 
ATOM     69  F   UNL A   1      45.856  33.629  26.435  1.00  0.00    -0.203 F 
ATOM     70  F   UNL A   1      47.539  34.837  31.482  1.00  0.00    -0.200 F 
ATOM     71  C   UNL A   1      47.104  35.513  29.261  1.00  0.00     0.200 A 
ATOM     72  F   UNL A   1      46.643  36.145  27.031  1.00  0.00    -0.200 F 
ATOM     73  F   UNL A   1      47.462  36.769  29.558  1.00  0.00    -0.200 F 
ENDBRANCH  40  63
ENDBRANCH  14  15
ENDBRANCH   7   9
ENDBRANCH   6   7
ENDBRANCH   5   6
ENDBRANCH   4   5
ENDBRANCH   3   4
ENDBRANCH   2   3
ENDBRANCH   1   2
BRANCH   1  74
ATOM     74  O   UNL A   1      38.796  23.098  25.938  1.00  0.00    -0.376 OA
BRANCH  74  75
ATOM     75  C   UNL A   1      37.370  23.084  25.880  1.00  0.00     0.202 C 
BRANCH  75  76
ATOM     76  C   UNL A   1      36.817  23.236  24.452  1.00  0.00     0.261 C 
BRANCH  76  77
ATOM     77  O   UNL A   1      35.649  24.089  24.464  1.00  0.00    -0.461 OA
BRANCH  77  78
ATOM     78  C   UNL A   1      34.591  23.746  23.672  1.00  0.00     0.331 C 
ATOM     79  O   UNL A   1      34.691  23.332  22.517  1.00  0.00    -0.249 OA
BRANCH  78  80
ATOM     80  C   UNL A   1      33.216  23.928  24.415  1.00  0.00     0.138 C 
ATOM     81  C   UNL A   1      32.824  25.435  24.613  1.00  0.00     0.040 C 
ATOM     82  C   UNL A   1      32.204  23.217  23.465  1.00  0.00     0.040 C 
ATOM     83  C   UNL A   1      31.334  25.776  24.638  1.00  0.00     0.003 C 
ATOM     84  C   UNL A   1      30.752  23.701  23.489  1.00  0.00     0.003 C 
ATOM     85  C   UNL A   1      30.653  25.213  23.413  1.00  0.00     0.000 C 
BRANCH  80  86
ATOM     86  N   UNL A   1      33.151  23.292  25.783  1.00  0.00    -0.333 N 
ATOM     87  C   UNL A   1      33.299  22.057  26.388  1.00  0.00     0.289 C 
ATOM     88  H   UNL A   1      32.935  23.974  26.461  1.00  0.00     0.165 HD
ATOM     89  O   UNL A   1      33.118  22.096  27.612  1.00  0.00    -0.266 OA
BRANCH  87  90
ATOM     90  C   UNL A   1      33.557  20.774  25.747  1.00  0.00     0.214 A 
ATOM     91  N   UNL A   1      32.719  19.927  25.158  1.00  0.00    -0.207 NA
ATOM     92  N   UNL A   1      34.821  20.394  25.393  1.00  0.00    -0.255 N 
ATOM     93  C   UNL A   1      33.532  19.003  24.535  1.00  0.00     0.154 A 
ATOM     94  N   UNL A   1      34.837  19.268  24.665  1.00  0.00    -0.158 NA
ATOM     95  H   UNL A   1      35.631  20.892  25.646  1.00  0.00     0.192 HD
BRANCH  93  96
ATOM     96  C   UNL A   1      33.095  17.729  23.794  1.00  0.00     0.060 C 
ATOM     97  C   UNL A   1      34.153  16.765  23.300  1.00  0.00     0.012 C 
ATOM     98  C   UNL A   1      33.220  16.332  24.372  1.00  0.00     0.012 C 
ENDBRANCH  93  96
ENDBRANCH  87  90
ENDBRANCH  80  86
ENDBRANCH  78  80
ENDBRANCH  77  78
ENDBRANCH  76  77
ENDBRANCH  75  76
ENDBRANCH  74  75
ENDBRANCH   1  74
TORSDOF 20
ENDMDL
MODEL 3
REMARK VINA RESULT:     -10.8      4.712      7.083
REMARK SMILES O=C(OCCOCCOCCOC(=O)C1(NC(=O)c2nc(C3CC3)n[nH]2)CCCCC1)c1ccc(-c2c3nc(c(-c4c(F)c(F)c(F)c(F)c4F)c4ccc([nH]4)c(-c4c(F)c(F)c(F)c(F)c4F)c4nc(c(-c5c(F)c(F)c(F)c(F)c5F)c5ccc2[nH]5)C=C4)C=C3)cc1
REMARK SMILES IDX 8 1 7 2 6 3 5 4 4 5 3 6 2 7 1 8 32 9 33 10 94 11 34 12 93 13
REMARK SMILES IDX 35 14 36 15 37 16 87 17 38 18 92 19 86 20 88 21 39 22 91 23
REMARK SMILES IDX 85 24 84 25 40 27 72 28 52 29 71 30 53 31 56 32 70 33 89 34
REMARK SMILES IDX 54 35 55 36 69 38 90 39 57 40 41 41 42 42 50 43 43 44 44 45
REMARK SMILES IDX 48 46 51 47 45 48 46 49 49 50 47 51 73 52 74 53 82 54 75 55
REMARK SMILES IDX 76 56 80 57 83 58 77 59 78 60 81 61 79 62 58 63 59 64 67 65
REMARK SMILES IDX 60 66 61 67 65 68 68 69 62 70 63 71 66 72 64 73 9 74 10 75
REMARK SMILES IDX 11 76 12 77 13 78 14 79 15 80 27 81 31 82 28 83 30 84 29 85
REMARK SMILES IDX 16 86 17 87 18 89 19 90 20 91 26 92 21 93 25 94 22 96 23 97
REMARK SMILES IDX 24 98
REMARK H PARENT 88 26 56 37 16 88 26 95
REMARK Flexibility Score: inf
ROOT
ATOM      1  C   UNL A   1      40.267  21.740  26.582  1.00  0.00     0.188 C 
ENDROOT
BRANCH   1   2
ATOM      2  C   UNL A   1      41.143  20.542  26.759  1.00  0.00     0.188 C 
BRANCH   2   3
ATOM      3  O   UNL A   1      42.008  20.593  25.646  1.00  0.00    -0.376 OA
BRANCH   3   4
ATOM      4  C   UNL A   1      43.370  20.668  25.993  1.00  0.00     0.202 C 
BRANCH   4   5
ATOM      5  C   UNL A   1      44.054  21.602  25.010  1.00  0.00     0.261 C 
BRANCH   5   6
ATOM      6  O   UNL A   1      43.409  22.897  24.934  1.00  0.00    -0.460 OA
BRANCH   6   7
ATOM      7  C   UNL A   1      43.830  24.153  25.223  1.00  0.00     0.338 C 
ATOM      8  O   UNL A   1      44.752  24.611  24.545  1.00  0.00    -0.246 OA
BRANCH   7   9
ATOM      9  C   UNL A   1      43.354  25.011  26.367  1.00  0.00     0.060 A 
ATOM     10  C   UNL A   1      42.348  24.676  27.273  1.00  0.00     0.016 A 
ATOM     11  C   UNL A   1      44.065  26.207  26.612  1.00  0.00     0.016 A 
ATOM     12  C   UNL A   1      42.186  25.362  28.471  1.00  0.00     0.010 A 
ATOM     13  C   UNL A   1      43.810  26.990  27.746  1.00  0.00     0.010 A 
ATOM     14  C   UNL A   1      42.878  26.547  28.688  1.00  0.00    -0.014 A 
BRANCH  14  15
ATOM     15  C   UNL A   1      42.322  27.438  29.718  1.00  0.00     0.031 A 
ATOM     16  C   UNL A   1      43.074  27.490  31.010  1.00  0.00     0.074 A 
ATOM     17  C   UNL A   1      41.331  28.302  29.447  1.00  0.00     0.049 A 
ATOM     18  N   UNL A   1      42.868  28.236  32.056  1.00  0.00    -0.248 NA
ATOM     19  C   UNL A   1      44.285  26.650  31.095  1.00  0.00     0.031 C 
ATOM     20  C   UNL A   1      40.743  28.510  28.130  1.00  0.00     0.029 A 
ATOM     21  N   UNL A   1      40.642  29.164  30.254  1.00  0.00    -0.354 N 
ATOM     22  C   UNL A   1      43.952  28.004  32.887  1.00  0.00     0.074 A 
ATOM     23  C   UNL A   1      44.802  27.033  32.247  1.00  0.00     0.031 C 
ATOM     24  C   UNL A   1      39.696  29.346  28.236  1.00  0.00     0.029 A 
ATOM     25  C   UNL A   1      39.556  29.734  29.632  1.00  0.00     0.049 A 
ATOM     26  H   UNL A   1      40.898  29.358  31.184  1.00  0.00     0.167 HD
ATOM     27  C   UNL A   1      44.202  28.565  34.089  1.00  0.00     0.037 A 
ATOM     28  C   UNL A   1      38.549  30.447  30.169  1.00  0.00     0.037 A 
ATOM     29  C   UNL A   1      43.270  29.445  34.731  1.00  0.00     0.049 A 
ATOM     30  C   UNL A   1      38.686  30.824  31.620  1.00  0.00     0.074 A 
ATOM     31  C   UNL A   1      43.315  29.982  36.001  1.00  0.00     0.029 A 
ATOM     32  N   UNL A   1      42.087  29.883  34.143  1.00  0.00    -0.354 N 
ATOM     33  N   UNL A   1      39.677  30.562  32.443  1.00  0.00    -0.248 NA
ATOM     34  C   UNL A   1      37.605  31.617  32.213  1.00  0.00     0.031 C 
ATOM     35  C   UNL A   1      42.119  30.678  36.208  1.00  0.00     0.029 A 
ATOM     36  C   UNL A   1      41.367  30.648  35.039  1.00  0.00     0.049 A 
ATOM     37  H   UNL A   1      41.804  29.678  33.221  1.00  0.00     0.167 HD
ATOM     38  C   UNL A   1      39.375  31.209  33.629  1.00  0.00     0.074 A 
ATOM     39  C   UNL A   1      38.096  31.864  33.420  1.00  0.00     0.031 C 
ATOM     40  C   UNL A   1      40.095  31.279  34.777  1.00  0.00     0.037 A 
BRANCH  27  41
ATOM     41  C   UNL A   1      45.452  28.122  34.785  1.00  0.00     0.064 A 
ATOM     42  C   UNL A   1      45.470  27.010  35.644  1.00  0.00     0.173 A 
ATOM     43  C   UNL A   1      46.625  28.880  34.670  1.00  0.00     0.173 A 
ATOM     44  F   UNL A   1      44.359  26.281  35.829  1.00  0.00    -0.203 F 
ATOM     45  C   UNL A   1      46.609  26.696  36.384  1.00  0.00     0.198 A 
ATOM     46  C   UNL A   1      47.768  28.547  35.389  1.00  0.00     0.198 A 
ATOM     47  F   UNL A   1      46.650  29.969  33.886  1.00  0.00    -0.203 F 
ATOM     48  F   UNL A   1      46.581  25.676  37.254  1.00  0.00    -0.200 F 
ATOM     49  C   UNL A   1      47.757  27.462  36.254  1.00  0.00     0.200 A 
ATOM     50  F   UNL A   1      48.873  29.294  35.269  1.00  0.00    -0.200 F 
ATOM     51  F   UNL A   1      48.845  27.170  36.979  1.00  0.00    -0.200 F 
ENDBRANCH  27  41
BRANCH  28  52
ATOM     52  C   UNL A   1      37.347  30.801  29.366  1.00  0.00     0.064 A 
ATOM     53  C   UNL A   1      36.366  29.855  29.041  1.00  0.00     0.173 A 
ATOM     54  C   UNL A   1      37.176  32.104  28.867  1.00  0.00     0.173 A 
ATOM     55  F   UNL A   1      36.483  28.594  29.481  1.00  0.00    -0.203 F 
ATOM     56  C   UNL A   1      35.281  30.187  28.228  1.00  0.00     0.198 A 
ATOM     57  C   UNL A   1      36.080  32.441  28.073  1.00  0.00     0.198 A 
ATOM     58  F   UNL A   1      38.079  33.057  29.147  1.00  0.00    -0.203 F 
ATOM     59  F   UNL A   1      34.384  29.249  27.897  1.00  0.00    -0.200 F 
ATOM     60  C   UNL A   1      35.139  31.480  27.744  1.00  0.00     0.200 A 
ATOM     61  F   UNL A   1      35.942  33.695  27.621  1.00  0.00    -0.200 F 
ATOM     62  F   UNL A   1      34.101  31.794  26.957  1.00  0.00    -0.200 F 
ENDBRANCH  28  52
BRANCH  40  63
ATOM     63  C   UNL A   1      39.538  32.140  35.868  1.00  0.00     0.064 A 
ATOM     64  C   UNL A   1      39.888  33.490  35.997  1.00  0.00     0.173 A 
ATOM     65  C   UNL A   1      38.590  31.609  36.756  1.00  0.00     0.173 A 
ATOM     66  F   UNL A   1      40.802  34.033  35.179  1.00  0.00    -0.203 F 
ATOM     67  C   UNL A   1      39.327  34.274  36.999  1.00  0.00     0.198 A 
ATOM     68  C   UNL A   1      38.001  32.408  37.728  1.00  0.00     0.198 A 
ATOM     69  F   UNL A   1      38.220  30.323  36.664  1.00  0.00    -0.203 F 
ATOM     70  F   UNL A   1      39.715  35.548  37.143  1.00  0.00    -0.200 F 
ATOM     71  C   UNL A   1      38.376  33.737  37.854  1.00  0.00     0.200 A 
ATOM     72  F   UNL A   1      37.066  31.893  38.538  1.00  0.00    -0.200 F 
ATOM     73  F   UNL A   1      37.824  34.500  38.806  1.00  0.00    -0.200 F 
ENDBRANCH  40  63
ENDBRANCH  14  15
ENDBRANCH   7   9
ENDBRANCH   6   7
ENDBRANCH   5   6
ENDBRANCH   4   5
ENDBRANCH   3   4
ENDBRANCH   2   3
ENDBRANCH   1   2
BRANCH   1  74
ATOM     74  O   UNL A   1      38.964  21.437  26.114  1.00  0.00    -0.376 OA
BRANCH  74  75
ATOM     75  C   UNL A   1      38.212  22.623  25.858  1.00  0.00     0.202 C 
BRANCH  75  76
ATOM     76  C   UNL A   1      37.137  22.439  24.771  1.00  0.00     0.261 C 
BRANCH  76  77
ATOM     77  O   UNL A   1      36.125  23.464  24.901  1.00  0.00    -0.461 OA
BRANCH  77  78
ATOM     78  C   UNL A   1      35.029  23.196  25.670  1.00  0.00     0.331 C 
ATOM     79  O   UNL A   1      35.010  22.385  26.596  1.00  0.00    -0.249 OA
BRANCH  78  80
ATOM     80  C   UNL A   1      33.785  24.059  25.242  1.00  0.00     0.138 C 
ATOM     81  C   UNL A   1      33.785  25.491  25.885  1.00  0.00     0.040 C 
ATOM     82  C   UNL A   1      33.935  24.151  23.693  1.00  0.00     0.040 C 
ATOM     83  C   UNL A   1      33.130  26.618  25.088  1.00  0.00     0.003 C 
ATOM     84  C   UNL A   1      33.332  25.374  22.996  1.00  0.00     0.003 C 
ATOM     85  C   UNL A   1      33.705  26.669  23.692  1.00  0.00     0.000 C 
BRANCH  80  86
ATOM     86  N   UNL A   1      32.447  23.444  25.581  1.00  0.00    -0.333 N 
ATOM     87  C   UNL A   1      31.773  22.241  25.469  1.00  0.00     0.289 C 
ATOM     88  H   UNL A   1      31.873  24.112  26.021  1.00  0.00     0.165 HD
ATOM     89  O   UNL A   1      30.625  22.290  25.931  1.00  0.00    -0.266 OA
BRANCH  87  90
ATOM     90  C   UNL A   1      32.231  21.016  24.828  1.00  0.00     0.214 A 
ATOM     91  N   UNL A   1      32.435  19.806  25.340  1.00  0.00    -0.207 NA
ATOM     92  N   UNL A   1      32.231  20.878  23.469  1.00  0.00    -0.255 N 
ATOM     93  C   UNL A   1      32.640  18.991  24.246  1.00  0.00     0.154 A 
ATOM     94  N   UNL A   1      32.520  19.629  23.076  1.00  0.00    -0.158 NA
ATOM     95  H   UNL A   1      32.040  21.615  22.845  1.00  0.00     0.192 HD
BRANCH  93  96
ATOM     96  C   UNL A   1      33.034  17.505  24.254  1.00  0.00     0.060 C 
ATOM     97  C   UNL A   1      33.780  16.935  23.066  1.00  0.00     0.012 C 
ATOM     98  C   UNL A   1      34.462  17.011  24.384  1.00  0.00     0.012 C 
ENDBRANCH  93  96
ENDBRANCH  87  90
ENDBRANCH  80  86
ENDBRANCH  78  80
ENDBRANCH  77  78
ENDBRANCH  76  77
ENDBRANCH  75  76
ENDBRANCH  74  75
ENDBRANCH   1  74
TORSDOF 20
ENDMDL
