MODEL 1
REMARK VINA RESULT:     -11.6      0.000      0.000
REMARK SMILES O=C(OCCOCCOCCOC(=O)[C@H]1C=C[C@H](NS(=O)(=O)c2ccc(F)c(F)c2F)C1)c1ccc(-c2c3nc(c(-c4c(F)c(F)c(F)c(F)c4F)c4ccc([nH]4)c(-c4c(F)c(F)c(F)c(F)c4F)c4nc(c(-c5c(F)c(F)c(F)c(F)c5F)c5ccc2[nH]5)C=C4)C=C3)cc1
REMARK SMILES IDX 8 1 7 2 6 3 5 4 4 5 3 6 2 7 1 8 33 9 34 10 95 11 35 12 94 13
REMARK SMILES IDX 36 14 37 15 38 16 88 17 39 18 93 19 87 20 89 21 40 22 92 23
REMARK SMILES IDX 86 24 85 25 41 27 73 28 53 29 72 30 54 31 57 32 71 33 90 34
REMARK SMILES IDX 55 35 56 36 70 38 91 39 58 40 42 41 43 42 51 43 44 44 45 45
REMARK SMILES IDX 49 46 52 47 46 48 47 49 50 50 48 51 74 52 75 53 83 54 76 55
REMARK SMILES IDX 77 56 81 57 84 58 78 59 79 60 82 61 80 62 59 63 60 64 68 65
REMARK SMILES IDX 61 66 62 67 66 68 69 69 63 70 64 71 67 72 65 73 9 74 10 75
REMARK SMILES IDX 11 76 12 77 13 78 14 79 15 80 16 81 32 82 17 83 18 84 19 85
REMARK SMILES IDX 20 87 21 88 22 89 23 90 24 91 30 92 25 93 28 94 31 95 26 96
REMARK SMILES IDX 29 97 27 98
REMARK H PARENT 89 26 57 37 19 86
REMARK Flexibility Score: inf
ROOT
ATOM      1  C   UNL A   1      34.687  32.850  29.415  1.00  0.00     0.188 C 
ENDROOT
BRANCH   1   2
ATOM      2  C   UNL A   1      35.342  33.833  28.445  1.00  0.00     0.188 C 
BRANCH   2   3
ATOM      3  O   UNL A   1      34.556  35.001  28.165  1.00  0.00    -0.376 OA
BRANCH   3   4
ATOM      4  C   UNL A   1      33.316  35.008  28.882  1.00  0.00     0.202 C 
BRANCH   4   5
ATOM      5  C   UNL A   1      32.992  36.312  29.642  1.00  0.00     0.261 C 
BRANCH   5   6
ATOM      6  O   UNL A   1      32.324  36.121  30.908  1.00  0.00    -0.460 OA
BRANCH   6   7
ATOM      7  C   UNL A   1      32.819  36.067  32.172  1.00  0.00     0.338 C 
ATOM      8  O   UNL A   1      32.247  36.710  33.051  1.00  0.00    -0.246 OA
BRANCH   7   9
ATOM      9  C   UNL A   1      34.022  35.269  32.565  1.00  0.00     0.060 A 
ATOM     10  C   UNL A   1      35.329  35.668  32.326  1.00  0.00     0.016 A 
ATOM     11  C   UNL A   1      33.841  34.036  33.221  1.00  0.00     0.016 A 
ATOM     12  C   UNL A   1      36.410  34.857  32.604  1.00  0.00     0.010 A 
ATOM     13  C   UNL A   1      34.947  33.267  33.637  1.00  0.00     0.010 A 
ATOM     14  C   UNL A   1      36.251  33.687  33.330  1.00  0.00    -0.014 A 
BRANCH  14  15
ATOM     15  C   UNL A   1      37.481  32.896  33.626  1.00  0.00     0.031 A 
ATOM     16  C   UNL A   1      38.294  33.377  34.788  1.00  0.00     0.074 A 
ATOM     17  C   UNL A   1      37.652  31.655  33.093  1.00  0.00     0.049 A 
ATOM     18  N   UNL A   1      39.345  32.834  35.328  1.00  0.00    -0.248 NA
ATOM     19  C   UNL A   1      37.767  34.536  35.545  1.00  0.00     0.031 C 
ATOM     20  C   UNL A   1      36.566  30.956  32.426  1.00  0.00     0.029 A 
ATOM     21  N   UNL A   1      38.689  30.720  33.042  1.00  0.00    -0.354 N 
ATOM     22  C   UNL A   1      39.544  33.520  36.518  1.00  0.00     0.074 A 
ATOM     23  C   UNL A   1      38.558  34.564  36.606  1.00  0.00     0.031 C 
ATOM     24  C   UNL A   1      36.972  29.745  32.046  1.00  0.00     0.029 A 
ATOM     25  C   UNL A   1      38.436  29.635  32.155  1.00  0.00     0.049 A 
ATOM     26  H   UNL A   1      39.517  30.803  33.569  1.00  0.00     0.167 HD
ATOM     27  C   UNL A   1      40.461  33.242  37.465  1.00  0.00     0.037 A 
ATOM     28  C   UNL A   1      39.385  28.889  31.325  1.00  0.00     0.037 A 
ATOM     29  C   UNL A   1      41.453  32.230  37.274  1.00  0.00     0.049 A 
ATOM     30  C   UNL A   1      40.521  28.815  32.766  1.00  0.00     0.074 A 
ATOM     31  C   UNL A   1      42.476  31.837  38.111  1.00  0.00     0.029 A 
ATOM     32  N   UNL A   1      41.539  31.466  36.120  1.00  0.00    -0.354 N 
ATOM     33  N   UNL A   1      41.143  29.794  33.424  1.00  0.00    -0.248 NA
ATOM     34  C   UNL A   1      40.907  27.495  33.354  1.00  0.00     0.031 C 
ATOM     35  C   UNL A   1      43.243  30.897  37.416  1.00  0.00     0.029 A 
ATOM     36  C   UNL A   1      42.622  30.626  36.202  1.00  0.00     0.049 A 
ATOM     37  H   UNL A   1      40.918  31.518  35.358  1.00  0.00     0.167 HD
ATOM     38  C   UNL A   1      42.117  29.176  34.234  1.00  0.00     0.074 A 
ATOM     39  C   UNL A   1      42.047  27.765  33.963  1.00  0.00     0.031 C 
ATOM     40  C   UNL A   1      42.896  29.563  35.283  1.00  0.00     0.037 A 
BRANCH  27  41
ATOM     41  C   UNL A   1      40.472  34.046  38.721  1.00  0.00     0.064 A 
ATOM     42  C   UNL A   1      41.241  35.214  38.792  1.00  0.00     0.173 A 
ATOM     43  C   UNL A   1      39.791  33.628  39.874  1.00  0.00     0.173 A 
ATOM     44  F   UNL A   1      41.901  35.654  37.711  1.00  0.00    -0.203 F 
ATOM     45  C   UNL A   1      41.351  35.925  39.983  1.00  0.00     0.198 A 
ATOM     46  C   UNL A   1      39.890  34.352  41.060  1.00  0.00     0.198 A 
ATOM     47  F   UNL A   1      39.028  32.525  39.849  1.00  0.00    -0.203 F 
ATOM     48  F   UNL A   1      42.118  37.022  40.035  1.00  0.00    -0.200 F 
ATOM     49  C   UNL A   1      40.678  35.493  41.116  1.00  0.00     0.200 A 
ATOM     50  F   UNL A   1      39.224  33.946  42.150  1.00  0.00    -0.200 F 
ATOM     51  F   UNL A   1      40.789  36.177  42.262  1.00  0.00    -0.200 F 
ENDBRANCH  27  41
BRANCH  28  52
ATOM     52  C   UNL A   1      39.591  27.997  29.390  1.00  0.00     0.064 A 
ATOM     53  C   UNL A   1      39.601  26.536  28.881  1.00  0.00     0.173 A 
ATOM     54  C   UNL A   1      39.820  28.627  27.942  1.00  0.00     0.173 A 
ATOM     55  F   UNL A   1      38.855  25.582  29.461  1.00  0.00    -0.203 F 
ATOM     56  C   UNL A   1      40.174  25.979  27.693  1.00  0.00     0.198 A 
ATOM     57  C   UNL A   1      40.437  28.085  26.787  1.00  0.00     0.198 A 
ATOM     58  F   UNL A   1      39.253  29.806  27.587  1.00  0.00    -0.203 F 
ATOM     59  F   UNL A   1      40.131  24.649  27.517  1.00  0.00    -0.200 F 
ATOM     60  C   UNL A   1      40.691  26.755  26.698  1.00  0.00     0.200 A 
ATOM     61  F   UNL A   1      40.690  28.886  25.742  1.00  0.00    -0.200 F 
ATOM     62  F   UNL A   1      41.225  26.222  25.594  1.00  0.00    -0.200 F 
ENDBRANCH  28  52
BRANCH  40  63
ATOM     63  C   UNL A   1      44.053  28.657  35.627  1.00  0.00     0.064 A 
ATOM     64  C   UNL A   1      43.921  27.579  36.520  1.00  0.00     0.173 A 
ATOM     65  C   UNL A   1      45.310  28.879  35.044  1.00  0.00     0.173 A 
ATOM     66  F   UNL A   1      42.734  27.308  37.082  1.00  0.00    -0.203 F 
ATOM     67  C   UNL A   1      45.007  26.760  36.816  1.00  0.00     0.198 A 
ATOM     68  C   UNL A   1      46.389  28.050  35.336  1.00  0.00     0.198 A 
ATOM     69  F   UNL A   1      45.480  29.886  34.174  1.00  0.00    -0.203 F 
ATOM     70  F   UNL A   1      44.858  25.735  37.667  1.00  0.00    -0.200 F 
ATOM     71  C   UNL A   1      46.238  26.995  36.222  1.00  0.00     0.200 A 
ATOM     72  F   UNL A   1      47.572  28.263  34.744  1.00  0.00    -0.200 F 
ATOM     73  F   UNL A   1      47.276  26.191  36.492  1.00  0.00    -0.200 F 
ENDBRANCH  40  63
ENDBRANCH  14  15
ENDBRANCH   7   9
ENDBRANCH   6   7
ENDBRANCH   5   6
ENDBRANCH   4   5
ENDBRANCH   3   4
ENDBRANCH   2   3
ENDBRANCH   1   2
BRANCH   1  74
ATOM     74  O   UNL A   1      35.139  31.500  29.371  1.00  0.00    -0.376 OA
BRANCH  74  75
ATOM     75  C   UNL A   1      35.677  31.033  28.142  1.00  0.00     0.202 C 
BRANCH  75  76
ATOM     76  C   UNL A   1      34.964  29.868  27.439  1.00  0.00     0.261 C 
BRANCH  76  77
ATOM     77  O   UNL A   1      33.838  30.224  26.609  1.00  0.00    -0.463 OA
BRANCH  77  78
ATOM     78  C   UNL A   1      33.411  29.239  25.767  1.00  0.00     0.312 C 
ATOM     79  O   UNL A   1      33.278  29.373  24.555  1.00  0.00    -0.252 OA
BRANCH  78  80
ATOM     80  C   UNL A   1      33.000  27.946  26.475  1.00  0.00     0.123 C 
ATOM     81  C   UNL A   1      31.607  27.751  26.984  1.00  0.00    -0.015 C 
ATOM     82  C   UNL A   1      33.198  26.756  25.539  1.00  0.00     0.043 C 
ATOM     83  C   UNL A   1      31.130  26.537  26.675  1.00  0.00    -0.011 C 
ATOM     84  C   UNL A   1      32.015  25.796  25.737  1.00  0.00     0.093 C 
BRANCH  84  85
ATOM     85  N   UNL A   1      32.461  24.498  26.237  1.00  0.00    -0.204 NA
ATOM     86  H   UNL A   1      31.758  24.188  26.907  1.00  0.00     0.142 HD
BRANCH  85  87
ATOM     87  S   UNL A   1      32.721  23.208  25.178  1.00  0.00     0.244 S 
ATOM     88  O   UNL A   1      32.067  22.076  25.798  1.00  0.00    -0.207 OA
ATOM     89  O   UNL A   1      32.336  23.637  23.854  1.00  0.00    -0.207 OA
BRANCH  87  90
ATOM     90  C   UNL A   1      34.484  22.863  25.160  1.00  0.00     0.121 A 
ATOM     91  C   UNL A   1      35.724  24.176  25.472  1.00  0.00     0.028 A 
ATOM     92  C   UNL A   1      35.050  21.179  24.839  1.00  0.00     0.181 A 
ATOM     93  C   UNL A   1      37.505  23.733  25.612  1.00  0.00     0.044 A 
ATOM     94  C   UNL A   1      36.766  20.687  25.127  1.00  0.00     0.195 A 
ATOM     95  F   UNL A   1      34.250  20.260  24.302  1.00  0.00    -0.202 F 
ATOM     96  C   UNL A   1      37.990  21.927  25.586  1.00  0.00     0.161 A 
ATOM     97  F   UNL A   1      37.138  19.419  24.907  1.00  0.00    -0.200 F 
ATOM     98  F   UNL A   1      39.272  21.532  25.690  1.00  0.00    -0.204 F 
ENDBRANCH  87  90
ENDBRANCH  85  87
ENDBRANCH  84  85
ENDBRANCH  78  80
ENDBRANCH  77  78
ENDBRANCH  76  77
ENDBRANCH  75  76
ENDBRANCH  74  75
ENDBRANCH   1  74
TORSDOF 20
ENDMDL
MODEL 2
REMARK VINA RESULT:     -11.6      6.398      9.024
REMARK SMILES O=C(OCCOCCOCCOC(=O)[C@H]1C=C[C@H](NS(=O)(=O)c2ccc(F)c(F)c2F)C1)c1ccc(-c2c3nc(c(-c4c(F)c(F)c(F)c(F)c4F)c4ccc([nH]4)c(-c4c(F)c(F)c(F)c(F)c4F)c4nc(c(-c5c(F)c(F)c(F)c(F)c5F)c5ccc2[nH]5)C=C4)C=C3)cc1
REMARK SMILES IDX 8 1 7 2 6 3 5 4 4 5 3 6 2 7 1 8 33 9 34 10 95 11 35 12 94 13
REMARK SMILES IDX 36 14 37 15 38 16 88 17 39 18 93 19 87 20 89 21 40 22 92 23
REMARK SMILES IDX 86 24 85 25 41 27 73 28 53 29 72 30 54 31 57 32 71 33 90 34
REMARK SMILES IDX 55 35 56 36 70 38 91 39 58 40 42 41 43 42 51 43 44 44 45 45
REMARK SMILES IDX 49 46 52 47 46 48 47 49 50 50 48 51 74 52 75 53 83 54 76 55
REMARK SMILES IDX 77 56 81 57 84 58 78 59 79 60 82 61 80 62 59 63 60 64 68 65
REMARK SMILES IDX 61 66 62 67 66 68 69 69 63 70 64 71 67 72 65 73 9 74 10 75
REMARK SMILES IDX 11 76 12 77 13 78 14 79 15 80 16 81 32 82 17 83 18 84 19 85
REMARK SMILES IDX 20 87 21 88 22 89 23 90 24 91 30 92 25 93 28 94 31 95 26 96
REMARK SMILES IDX 29 97 27 98
REMARK H PARENT 89 26 57 37 19 86
REMARK Flexibility Score: inf
ROOT
ATOM      1  C   UNL A   1      32.643  29.106  26.967  1.00  0.00     0.188 C 
ENDROOT
BRANCH   1   2
ATOM      2  C   UNL A   1      32.897  30.587  27.251  1.00  0.00     0.188 C 
BRANCH   2   3
ATOM      3  O   UNL A   1      34.283  30.958  27.260  1.00  0.00    -0.376 OA
BRANCH   3   4
ATOM      4  C   UNL A   1      34.553  32.043  28.156  1.00  0.00     0.202 C 
BRANCH   4   5
ATOM      5  C   UNL A   1      36.039  32.434  28.303  1.00  0.00     0.261 C 
BRANCH   5   6
ATOM      6  O   UNL A   1      36.762  31.687  29.306  1.00  0.00    -0.460 OA
BRANCH   6   7
ATOM      7  C   UNL A   1      37.156  30.386  29.329  1.00  0.00     0.338 C 
ATOM      8  O   UNL A   1      36.338  29.535  29.676  1.00  0.00    -0.246 OA
BRANCH   7   9
ATOM      9  C   UNL A   1      38.529  29.922  28.954  1.00  0.00     0.060 A 
ATOM     10  C   UNL A   1      39.603  29.896  29.830  1.00  0.00     0.016 A 
ATOM     11  C   UNL A   1      38.765  29.476  27.640  1.00  0.00     0.016 A 
ATOM     12  C   UNL A   1      40.879  29.565  29.422  1.00  0.00     0.010 A 
ATOM     13  C   UNL A   1      40.034  29.001  27.253  1.00  0.00     0.010 A 
ATOM     14  C   UNL A   1      41.106  29.039  28.159  1.00  0.00    -0.014 A 
BRANCH  14  15
ATOM     15  C   UNL A   1      42.509  28.665  27.819  1.00  0.00     0.031 A 
ATOM     16  C   UNL A   1      43.478  29.803  27.726  1.00  0.00     0.074 A 
ATOM     17  C   UNL A   1      42.927  27.373  27.922  1.00  0.00     0.049 A 
ATOM     18  N   UNL A   1      44.765  29.767  27.546  1.00  0.00    -0.248 NA
ATOM     19  C   UNL A   1      42.958  31.156  28.035  1.00  0.00     0.031 C 
ATOM     20  C   UNL A   1      42.119  26.363  28.585  1.00  0.00     0.029 A 
ATOM     21  N   UNL A   1      44.077  26.660  27.576  1.00  0.00    -0.354 N 
ATOM     22  C   UNL A   1      45.210  31.056  27.806  1.00  0.00     0.074 A 
ATOM     23  C   UNL A   1      44.065  31.878  28.093  1.00  0.00     0.031 C 
ATOM     24  C   UNL A   1      42.772  25.201  28.602  1.00  0.00     0.029 A 
ATOM     25  C   UNL A   1      43.934  25.249  27.700  1.00  0.00     0.049 A 
ATOM     26  H   UNL A   1      44.909  27.092  27.274  1.00  0.00     0.167 HD
ATOM     27  C   UNL A   1      46.491  31.474  27.842  1.00  0.00     0.037 A 
ATOM     28  C   UNL A   1      44.530  24.191  26.881  1.00  0.00     0.037 A 
ATOM     29  C   UNL A   1      47.572  30.612  27.478  1.00  0.00     0.049 A 
ATOM     30  C   UNL A   1      46.131  25.088  26.964  1.00  0.00     0.074 A 
ATOM     31  C   UNL A   1      48.924  30.876  27.426  1.00  0.00     0.029 A 
ATOM     32  N   UNL A   1      47.386  29.298  27.075  1.00  0.00    -0.354 N 
ATOM     33  N   UNL A   1      46.471  26.290  26.497  1.00  0.00    -0.248 NA
ATOM     34  C   UNL A   1      47.321  24.447  27.605  1.00  0.00     0.031 C 
ATOM     35  C   UNL A   1      49.548  29.744  26.894  1.00  0.00     0.029 A 
ATOM     36  C   UNL A   1      48.595  28.745  26.733  1.00  0.00     0.049 A 
ATOM     37  H   UNL A   1      46.519  28.833  27.039  1.00  0.00     0.167 HD
ATOM     38  C   UNL A   1      47.876  26.361  26.559  1.00  0.00     0.074 A 
ATOM     39  C   UNL A   1      48.334  25.089  27.055  1.00  0.00     0.031 C 
ATOM     40  C   UNL A   1      48.805  27.354  26.465  1.00  0.00     0.037 A 
BRANCH  27  41
ATOM     41  C   UNL A   1      46.780  32.887  28.221  1.00  0.00     0.064 A 
ATOM     42  C   UNL A   1      46.732  33.892  27.246  1.00  0.00     0.173 A 
ATOM     43  C   UNL A   1      47.179  33.239  29.518  1.00  0.00     0.173 A 
ATOM     44  F   UNL A   1      46.348  33.600  25.995  1.00  0.00    -0.203 F 
ATOM     45  C   UNL A   1      47.100  35.198  27.550  1.00  0.00     0.198 A 
ATOM     46  C   UNL A   1      47.529  34.553  29.823  1.00  0.00     0.198 A 
ATOM     47  F   UNL A   1      47.224  32.314  30.489  1.00  0.00    -0.203 F 
ATOM     48  F   UNL A   1      47.076  36.136  26.592  1.00  0.00    -0.200 F 
ATOM     49  C   UNL A   1      47.499  35.528  28.836  1.00  0.00     0.200 A 
ATOM     50  F   UNL A   1      47.897  34.876  31.071  1.00  0.00    -0.200 F 
ATOM     51  F   UNL A   1      47.856  36.787  29.124  1.00  0.00    -0.200 F 
ENDBRANCH  27  41
BRANCH  28  52
ATOM     52  C   UNL A   1      44.085  22.294  25.995  1.00  0.00     0.064 A 
ATOM     53  C   UNL A   1      42.820  21.403  25.953  1.00  0.00     0.173 A 
ATOM     54  C   UNL A   1      44.974  21.274  25.150  1.00  0.00     0.173 A 
ATOM     55  F   UNL A   1      41.585  21.932  25.923  1.00  0.00    -0.203 F 
ATOM     56  C   UNL A   1      42.695  19.991  25.751  1.00  0.00     0.198 A 
ATOM     57  C   UNL A   1      44.873  19.868  24.998  1.00  0.00     0.198 A 
ATOM     58  F   UNL A   1      45.918  21.712  24.281  1.00  0.00    -0.203 F 
ATOM     59  F   UNL A   1      41.481  19.430  25.852  1.00  0.00    -0.200 F 
ATOM     60  C   UNL A   1      43.750  19.211  25.381  1.00  0.00     0.200 A 
ATOM     61  F   UNL A   1      45.866  19.201  24.392  1.00  0.00    -0.200 F 
ATOM     62  F   UNL A   1      43.620  17.892  25.196  1.00  0.00    -0.200 F 
ENDBRANCH  28  52
BRANCH  40  63
ATOM     63  C   UNL A   1      50.234  26.917  26.253  1.00  0.00     0.064 A 
ATOM     64  C   UNL A   1      51.108  26.668  27.325  1.00  0.00     0.173 A 
ATOM     65  C   UNL A   1      50.724  26.743  24.950  1.00  0.00     0.173 A 
ATOM     66  F   UNL A   1      50.680  26.793  28.589  1.00  0.00    -0.203 F 
ATOM     67  C   UNL A   1      52.421  26.265  27.097  1.00  0.00     0.198 A 
ATOM     68  C   UNL A   1      52.034  26.329  24.728  1.00  0.00     0.198 A 
ATOM     69  F   UNL A   1      49.921  26.953  23.895  1.00  0.00    -0.203 F 
ATOM     70  F   UNL A   1      53.237  26.029  28.134  1.00  0.00    -0.200 F 
ATOM     71  C   UNL A   1      52.881  26.093  25.800  1.00  0.00     0.200 A 
ATOM     72  F   UNL A   1      52.471  26.141  23.476  1.00  0.00    -0.200 F 
ATOM     73  F   UNL A   1      54.138  25.683  25.584  1.00  0.00    -0.200 F 
ENDBRANCH  40  63
ENDBRANCH  14  15
ENDBRANCH   7   9
ENDBRANCH   6   7
ENDBRANCH   5   6
ENDBRANCH   4   5
ENDBRANCH   3   4
ENDBRANCH   2   3
ENDBRANCH   1   2
BRANCH   1  74
ATOM     74  O   UNL A   1      33.384  28.515  25.904  1.00  0.00    -0.376 OA
BRANCH  74  75
ATOM     75  C   UNL A   1      33.099  28.960  24.585  1.00  0.00     0.202 C 
BRANCH  75  76
ATOM     76  C   UNL A   1      31.651  29.343  24.251  1.00  0.00     0.261 C 
BRANCH  76  77
ATOM     77  O   UNL A   1      31.218  29.067  22.902  1.00  0.00    -0.463 OA
BRANCH  77  78
ATOM     78  C   UNL A   1      30.038  28.388  22.804  1.00  0.00     0.312 C 
ATOM     79  O   UNL A   1      28.934  28.920  22.761  1.00  0.00    -0.252 OA
BRANCH  78  80
ATOM     80  C   UNL A   1      30.188  26.866  22.856  1.00  0.00     0.123 C 
ATOM     81  C   UNL A   1      31.434  26.193  22.375  1.00  0.00    -0.015 C 
ATOM     82  C   UNL A   1      30.067  26.381  24.300  1.00  0.00     0.043 C 
ATOM     83  C   UNL A   1      31.850  25.247  23.228  1.00  0.00    -0.011 C 
ATOM     84  C   UNL A   1      31.098  25.263  24.512  1.00  0.00     0.093 C 
BRANCH  84  85
ATOM     85  N   UNL A   1      30.450  23.996  24.839  1.00  0.00    -0.204 NA
ATOM     86  H   UNL A   1      30.494  23.421  23.998  1.00  0.00     0.142 HD
BRANCH  85  87
ATOM     87  S   UNL A   1      31.017  23.038  26.109  1.00  0.00     0.244 S 
ATOM     88  O   UNL A   1      31.034  23.914  27.261  1.00  0.00    -0.207 OA
ATOM     89  O   UNL A   1      30.239  21.822  26.129  1.00  0.00    -0.207 OA
BRANCH  87  90
ATOM     90  C   UNL A   1      32.722  22.602  25.745  1.00  0.00     0.121 A 
ATOM     91  C   UNL A   1      34.099  23.774  26.040  1.00  0.00     0.028 A 
ATOM     92  C   UNL A   1      33.091  20.964  25.082  1.00  0.00     0.181 A 
ATOM     93  C   UNL A   1      35.837  23.216  25.811  1.00  0.00     0.044 A 
ATOM     94  C   UNL A   1      34.784  20.336  25.001  1.00  0.00     0.195 A 
ATOM     95  F   UNL A   1      32.144  20.191  24.553  1.00  0.00    -0.202 F 
ATOM     96  C   UNL A   1      36.163  21.413  25.430  1.00  0.00     0.161 A 
ATOM     97  F   UNL A   1      35.011  19.101  24.532  1.00  0.00    -0.200 F 
ATOM     98  F   UNL A   1      37.408  20.935  25.257  1.00  0.00    -0.204 F 
ENDBRANCH  87  90
ENDBRANCH  85  87
ENDBRANCH  84  85
ENDBRANCH  78  80
ENDBRANCH  77  78
ENDBRANCH  76  77
ENDBRANCH  75  76
ENDBRANCH  74  75
ENDBRANCH   1  74
TORSDOF 20
ENDMDL
MODEL 3
REMARK VINA RESULT:     -11.5      3.688      9.153
REMARK SMILES O=C(OCCOCCOCCOC(=O)[C@H]1C=C[C@H](NS(=O)(=O)c2ccc(F)c(F)c2F)C1)c1ccc(-c2c3nc(c(-c4c(F)c(F)c(F)c(F)c4F)c4ccc([nH]4)c(-c4c(F)c(F)c(F)c(F)c4F)c4nc(c(-c5c(F)c(F)c(F)c(F)c5F)c5ccc2[nH]5)C=C4)C=C3)cc1
REMARK SMILES IDX 8 1 7 2 6 3 5 4 4 5 3 6 2 7 1 8 33 9 34 10 95 11 35 12 94 13
REMARK SMILES IDX 36 14 37 15 38 16 88 17 39 18 93 19 87 20 89 21 40 22 92 23
REMARK SMILES IDX 86 24 85 25 41 27 73 28 53 29 72 30 54 31 57 32 71 33 90 34
REMARK SMILES IDX 55 35 56 36 70 38 91 39 58 40 42 41 43 42 51 43 44 44 45 45
REMARK SMILES IDX 49 46 52 47 46 48 47 49 50 50 48 51 74 52 75 53 83 54 76 55
REMARK SMILES IDX 77 56 81 57 84 58 78 59 79 60 82 61 80 62 59 63 60 64 68 65
REMARK SMILES IDX 61 66 62 67 66 68 69 69 63 70 64 71 67 72 65 73 9 74 10 75
REMARK SMILES IDX 11 76 12 77 13 78 14 79 15 80 16 81 32 82 17 83 18 84 19 85
REMARK SMILES IDX 20 87 21 88 22 89 23 90 24 91 30 92 25 93 28 94 31 95 26 96
REMARK SMILES IDX 29 97 27 98
REMARK H PARENT 89 26 57 37 19 86
REMARK Flexibility Score: inf
ROOT
ATOM      1  C   UNL A   1      39.528  20.682  25.934  1.00  0.00     0.188 C 
ENDROOT
BRANCH   1   2
ATOM      2  C   UNL A   1      40.777  20.488  26.793  1.00  0.00     0.188 C 
BRANCH   2   3
ATOM      3  O   UNL A   1      42.001  20.884  26.156  1.00  0.00    -0.376 OA
BRANCH   3   4
ATOM      4  C   UNL A   1      42.607  22.015  26.793  1.00  0.00     0.202 C 
BRANCH   4   5
ATOM      5  C   UNL A   1      42.330  23.382  26.130  1.00  0.00     0.261 C 
BRANCH   5   6
ATOM      6  O   UNL A   1      41.250  24.133  26.727  1.00  0.00    -0.460 OA
BRANCH   6   7
ATOM      7  C   UNL A   1      40.943  25.454  26.653  1.00  0.00     0.338 C 
ATOM      8  O   UNL A   1      40.741  25.945  25.543  1.00  0.00    -0.246 OA
BRANCH   7   9
ATOM      9  C   UNL A   1      40.831  26.355  27.843  1.00  0.00     0.060 A 
ATOM     10  C   UNL A   1      39.769  26.332  28.735  1.00  0.00     0.016 A 
ATOM     11  C   UNL A   1      41.855  27.287  28.094  1.00  0.00     0.016 A 
ATOM     12  C   UNL A   1      39.645  27.249  29.758  1.00  0.00     0.010 A 
ATOM     13  C   UNL A   1      41.806  28.132  29.221  1.00  0.00     0.010 A 
ATOM     14  C   UNL A   1      40.687  28.109  30.069  1.00  0.00    -0.014 A 
BRANCH  14  15
ATOM     15  C   UNL A   1      40.485  29.035  31.221  1.00  0.00     0.031 A 
ATOM     16  C   UNL A   1      41.303  28.739  32.440  1.00  0.00     0.074 A 
ATOM     17  C   UNL A   1      39.865  30.234  31.047  1.00  0.00     0.049 A 
ATOM     18  N   UNL A   1      41.406  29.424  33.540  1.00  0.00    -0.248 NA
ATOM     19  C   UNL A   1      42.257  27.607  32.352  1.00  0.00     0.031 C 
ATOM     20  C   UNL A   1      39.595  30.765  29.721  1.00  0.00     0.029 A 
ATOM     21  N   UNL A   1      39.400  31.254  31.881  1.00  0.00    -0.354 N 
ATOM     22  C   UNL A   1      42.480  28.868  34.222  1.00  0.00     0.074 A 
ATOM     23  C   UNL A   1      42.966  27.748  33.461  1.00  0.00     0.031 C 
ATOM     24  C   UNL A   1      39.034  31.970  29.822  1.00  0.00     0.029 A 
ATOM     25  C   UNL A   1      38.609  32.227  31.207  1.00  0.00     0.049 A 
ATOM     26  H   UNL A   1      39.601  31.296  32.844  1.00  0.00     0.167 HD
ATOM     27  C   UNL A   1      43.023  29.314  35.372  1.00  0.00     0.037 A 
ATOM     28  C   UNL A   1      37.459  32.982  31.711  1.00  0.00     0.037 A 
ATOM     29  C   UNL A   1      42.440  30.394  36.106  1.00  0.00     0.049 A 
ATOM     30  C   UNL A   1      38.395  33.290  33.261  1.00  0.00     0.074 A 
ATOM     31  C   UNL A   1      42.837  30.955  37.302  1.00  0.00     0.029 A 
ATOM     32  N   UNL A   1      41.295  31.057  35.693  1.00  0.00    -0.354 N 
ATOM     33  N   UNL A   1      38.836  32.437  34.185  1.00  0.00    -0.248 NA
ATOM     34  C   UNL A   1      38.740  34.688  33.667  1.00  0.00     0.031 C 
ATOM     35  C   UNL A   1      41.868  31.897  37.660  1.00  0.00     0.029 A 
ATOM     36  C   UNL A   1      40.943  31.999  36.627  1.00  0.00     0.049 A 
ATOM     37  H   UNL A   1      40.807  30.879  34.856  1.00  0.00     0.167 HD
ATOM     38  C   UNL A   1      39.214  33.213  35.299  1.00  0.00     0.074 A 
ATOM     39  C   UNL A   1      38.915  34.582  34.970  1.00  0.00     0.031 C 
ATOM     40  C   UNL A   1      39.935  32.997  36.435  1.00  0.00     0.037 A 
BRANCH  27  41
ATOM     41  C   UNL A   1      44.231  28.631  35.915  1.00  0.00     0.064 A 
ATOM     42  C   UNL A   1      45.507  29.087  35.559  1.00  0.00     0.173 A 
ATOM     43  C   UNL A   1      44.136  27.487  36.720  1.00  0.00     0.173 A 
ATOM     44  F   UNL A   1      45.643  30.183  34.798  1.00  0.00    -0.203 F 
ATOM     45  C   UNL A   1      46.648  28.404  35.967  1.00  0.00     0.198 A 
ATOM     46  C   UNL A   1      45.282  26.816  37.142  1.00  0.00     0.198 A 
ATOM     47  F   UNL A   1      42.936  27.023  37.101  1.00  0.00    -0.203 F 
ATOM     48  F   UNL A   1      47.857  28.842  35.587  1.00  0.00    -0.200 F 
ATOM     49  C   UNL A   1      46.536  27.269  36.756  1.00  0.00     0.200 A 
ATOM     50  F   UNL A   1      45.175  25.730  37.920  1.00  0.00    -0.200 F 
ATOM     51  F   UNL A   1      47.637  26.612  37.144  1.00  0.00    -0.200 F 
ENDBRANCH  27  41
BRANCH  28  52
ATOM     52  C   UNL A   1      35.535  33.712  31.121  1.00  0.00     0.064 A 
ATOM     53  C   UNL A   1      34.702  33.607  29.821  1.00  0.00     0.173 A 
ATOM     54  C   UNL A   1      34.449  34.599  31.883  1.00  0.00     0.173 A 
ATOM     55  F   UNL A   1      34.748  32.513  29.042  1.00  0.00    -0.203 F 
ATOM     56  C   UNL A   1      33.664  34.456  29.322  1.00  0.00     0.198 A 
ATOM     57  C   UNL A   1      33.458  35.479  31.380  1.00  0.00     0.198 A 
ATOM     58  F   UNL A   1      34.243  34.471  33.217  1.00  0.00    -0.203 F 
ATOM     59  F   UNL A   1      33.152  34.203  28.107  1.00  0.00    -0.200 F 
ATOM     60  C   UNL A   1      33.122  35.462  30.066  1.00  0.00     0.200 A 
ATOM     61  F   UNL A   1      32.791  36.272  32.231  1.00  0.00    -0.200 F 
ATOM     62  F   UNL A   1      32.152  36.249  29.587  1.00  0.00    -0.200 F 
ENDBRANCH  28  52
BRANCH  40  63
ATOM     63  C   UNL A   1      39.798  34.035  37.522  1.00  0.00     0.064 A 
ATOM     64  C   UNL A   1      40.578  35.204  37.545  1.00  0.00     0.173 A 
ATOM     65  C   UNL A   1      38.863  33.847  38.552  1.00  0.00     0.173 A 
ATOM     66  F   UNL A   1      41.465  35.443  36.569  1.00  0.00    -0.203 F 
ATOM     67  C   UNL A   1      40.428  36.143  38.561  1.00  0.00     0.198 A 
ATOM     68  C   UNL A   1      38.710  34.795  39.559  1.00  0.00     0.198 A 
ATOM     69  F   UNL A   1      38.085  32.754  38.563  1.00  0.00    -0.203 F 
ATOM     70  F   UNL A   1      41.179  37.253  38.561  1.00  0.00    -0.200 F 
ATOM     71  C   UNL A   1      39.493  35.939  39.565  1.00  0.00     0.200 A 
ATOM     72  F   UNL A   1      37.790  34.609  40.515  1.00  0.00    -0.200 F 
ATOM     73  F   UNL A   1      39.335  36.856  40.529  1.00  0.00    -0.200 F 
ENDBRANCH  40  63
ENDBRANCH  14  15
ENDBRANCH   7   9
ENDBRANCH   6   7
ENDBRANCH   5   6
ENDBRANCH   4   5
ENDBRANCH   3   4
ENDBRANCH   2   3
ENDBRANCH   1   2
BRANCH   1  74
ATOM     74  O   UNL A   1      38.811  21.901  26.099  1.00  0.00    -0.376 OA
BRANCH  74  75
ATOM     75  C   UNL A   1      37.706  22.130  25.236  1.00  0.00     0.202 C 
BRANCH  75  76
ATOM     76  C   UNL A   1      36.586  21.080  25.205  1.00  0.00     0.261 C 
BRANCH  76  77
ATOM     77  O   UNL A   1      35.237  21.593  25.233  1.00  0.00    -0.463 OA
BRANCH  77  78
ATOM     78  C   UNL A   1      34.294  20.756  24.712  1.00  0.00     0.312 C 
ATOM     79  O   UNL A   1      34.422  19.540  24.618  1.00  0.00    -0.252 OA
BRANCH  78  80
ATOM     80  C   UNL A   1      33.068  21.474  24.143  1.00  0.00     0.123 C 
ATOM     81  C   UNL A   1      31.931  21.884  25.024  1.00  0.00    -0.015 C 
ATOM     82  C   UNL A   1      33.493  22.789  23.491  1.00  0.00     0.043 C 
ATOM     83  C   UNL A   1      31.524  23.134  24.762  1.00  0.00    -0.011 C 
ATOM     84  C   UNL A   1      32.434  23.849  23.828  1.00  0.00     0.093 C 
BRANCH  84  85
ATOM     85  N   UNL A   1      31.779  24.349  22.622  1.00  0.00    -0.204 NA
ATOM     86  H   UNL A   1      30.799  24.495  22.864  1.00  0.00     0.142 HD
BRANCH  85  87
ATOM     87  S   UNL A   1      32.310  25.768  21.877  1.00  0.00     0.244 S 
ATOM     88  O   UNL A   1      33.717  25.553  21.618  1.00  0.00    -0.207 OA
ATOM     89  O   UNL A   1      31.406  26.063  20.791  1.00  0.00    -0.207 OA
BRANCH  87  90
ATOM     90  C   UNL A   1      32.185  27.096  23.080  1.00  0.00     0.121 A 
ATOM     91  C   UNL A   1      30.949  28.438  22.907  1.00  0.00     0.028 A 
ATOM     92  C   UNL A   1      33.296  27.106  24.503  1.00  0.00     0.181 A 
ATOM     93  C   UNL A   1      30.751  29.675  24.254  1.00  0.00     0.044 A 
ATOM     94  C   UNL A   1      33.020  28.205  25.911  1.00  0.00     0.195 A 
ATOM     95  F   UNL A   1      34.403  26.366  24.534  1.00  0.00    -0.202 F 
ATOM     96  C   UNL A   1      31.712  29.442  25.842  1.00  0.00     0.161 A 
ATOM     97  F   UNL A   1      33.850  28.157  26.962  1.00  0.00    -0.200 F 
ATOM     98  F   UNL A   1      31.610  30.304  26.870  1.00  0.00    -0.204 F 
ENDBRANCH  87  90
ENDBRANCH  85  87
ENDBRANCH  84  85
ENDBRANCH  78  80
ENDBRANCH  77  78
ENDBRANCH  76  77
ENDBRANCH  75  76
ENDBRANCH  74  75
ENDBRANCH   1  74
TORSDOF 20
ENDMDL
