MODEL 1
REMARK VINA RESULT:     -11.0      0.000      0.000
REMARK SMILES CC(C)CSc1cc2c(cc1Cl)C=C(C(=O)OCCOCCOCCOC(=O)c1ccc(-c3c4nc(c(-c5c(F)c(F)c(F)c(F)c5F)c5ccc([nH]5)c(-c5c(F)c(F)c(F)c(F)c5F)c5nc(c(-c6c(F)c(F)c(F)c(F)c6F)c6ccc3[nH]6)C=C5)C=C4)cc1)[C@H](C(F)(F)F)O2
REMARK SMILES IDX 21 1 20 2 19 3 18 4 17 5 15 6 16 7 14 8 6 9 7 10 11 11 8 12
REMARK SMILES IDX 10 13 12 14 9 15 97 16 13 17 92 18 5 19 4 20 2 21 1 22 3 23
REMARK SMILES IDX 93 24 94 25 95 26 96 27 22 28 23 29 24 30 25 31 26 32 27 33
REMARK SMILES IDX 28 34 29 35 30 36 91 37 31 38 90 39 32 40 33 41 34 42 84 43
REMARK SMILES IDX 35 44 89 45 83 46 85 47 36 48 88 49 82 50 81 51 37 53 69 54
REMARK SMILES IDX 49 55 68 56 50 57 53 58 67 59 86 60 51 61 52 62 66 64 87 65
REMARK SMILES IDX 54 66 38 67 39 68 47 69 40 70 41 71 45 72 48 73 42 74 43 75
REMARK SMILES IDX 46 76 44 77 70 78 71 79 79 80 72 81 73 82 77 83 80 84 74 85
REMARK SMILES IDX 75 86 78 87 76 88 55 89 56 90 64 91 57 92 58 93 62 94 65 95
REMARK SMILES IDX 59 96 60 97 63 98 61 99
REMARK H PARENT 85 52 53 63
REMARK Flexibility Score: inf
ROOT
ATOM      1  C   UNL A   1      34.746  32.839  29.403  1.00  0.00     0.188 C 
ENDROOT
BRANCH   1   2
ATOM      2  O   UNL A   1      34.128  31.742  28.738  1.00  0.00    -0.376 OA
BRANCH   2   3
ATOM      3  C   UNL A   1      34.786  31.128  27.632  1.00  0.00     0.202 C 
BRANCH   3   4
ATOM      4  C   UNL A   1      34.119  29.903  26.993  1.00  0.00     0.261 C 
BRANCH   4   5
ATOM      5  O   UNL A   1      32.729  29.754  27.344  1.00  0.00    -0.460 OA
BRANCH   5   6
ATOM      6  C   UNL A   1      31.843  30.038  26.365  1.00  0.00     0.338 C 
ATOM      7  O   UNL A   1      31.425  31.144  26.061  1.00  0.00    -0.246 OA
BRANCH   6   8
ATOM      8  C   UNL A   1      31.549  28.837  25.564  1.00  0.00     0.087 C 
ATOM      9  C   UNL A   1      31.525  24.013  24.161  1.00  0.00     0.030 A 
ATOM     10  C   UNL A   1      31.792  25.232  23.510  1.00  0.00     0.063 A 
ATOM     11  C   UNL A   1      31.018  24.051  25.470  1.00  0.00     0.055 A 
ATOM     12  C   UNL A   1      31.668  26.447  24.183  1.00  0.00     0.129 A 
ATOM     13  C   UNL A   1      30.922  25.271  26.154  1.00  0.00     0.033 A 
ATOM     14  Cl  UNL A   1      30.477  22.650  26.324  1.00  0.00    -0.083 Cl
ATOM     15  C   UNL A   1      31.278  26.464  25.522  1.00  0.00     0.019 A 
ATOM     16  O   UNL A   1      32.041  27.576  23.501  1.00  0.00    -0.475 OA
ATOM     17  C   UNL A   1      31.363  27.709  26.265  1.00  0.00     0.027 C 
ATOM     18  C   UNL A   1      31.630  28.861  24.061  1.00  0.00     0.316 C 
BRANCH   9  19
ATOM     19  S   UNL A   1      31.908  22.542  23.213  1.00  0.00    -0.124 SA
BRANCH  19  20
ATOM     20  C   UNL A   1      33.607  22.088  23.753  1.00  0.00     0.078 C 
BRANCH  20  21
ATOM     21  C   UNL A   1      33.775  20.930  24.756  1.00  0.00    -0.007 C 
ATOM     22  C   UNL A   1      34.003  21.369  26.202  1.00  0.00     0.008 C 
ATOM     23  C   UNL A   1      32.506  20.061  24.715  1.00  0.00     0.008 C 
ENDBRANCH  20  21
ENDBRANCH  19  20
ENDBRANCH   9  19
BRANCH  18  24
ATOM     24  C   UNL A   1      30.349  29.334  23.347  1.00  0.00     0.430 C 
ATOM     25  F   UNL A   1      29.866  30.484  23.871  1.00  0.00    -0.167 F 
ATOM     26  F   UNL A   1      30.552  29.532  22.027  1.00  0.00    -0.167 F 
ATOM     27  F   UNL A   1      29.365  28.406  23.448  1.00  0.00    -0.167 F 
ENDBRANCH  18  24
ENDBRANCH   6   8
ENDBRANCH   5   6
ENDBRANCH   4   5
ENDBRANCH   3   4
ENDBRANCH   2   3
ENDBRANCH   1   2
BRANCH   1  28
ATOM     28  C   UNL A   1      35.424  33.947  28.574  1.00  0.00     0.188 C 
BRANCH  28  29
ATOM     29  O   UNL A   1      34.772  35.191  28.681  1.00  0.00    -0.376 OA
BRANCH  29  30
ATOM     30  C   UNL A   1      33.366  35.202  28.834  1.00  0.00     0.202 C 
BRANCH  30  31
ATOM     31  C   UNL A   1      32.736  36.150  29.867  1.00  0.00     0.261 C 
BRANCH  31  32
ATOM     32  O   UNL A   1      32.251  35.552  31.076  1.00  0.00    -0.460 OA
BRANCH  32  33
ATOM     33  C   UNL A   1      32.757  36.007  32.250  1.00  0.00     0.338 C 
ATOM     34  O   UNL A   1      32.266  36.811  33.004  1.00  0.00    -0.246 OA
BRANCH  33  35
ATOM     35  C   UNL A   1      33.946  35.167  32.538  1.00  0.00     0.060 A 
ATOM     36  C   UNL A   1      35.224  35.630  32.218  1.00  0.00     0.016 A 
ATOM     37  C   UNL A   1      33.768  33.883  33.070  1.00  0.00     0.016 A 
ATOM     38  C   UNL A   1      36.330  34.806  32.437  1.00  0.00     0.010 A 
ATOM     39  C   UNL A   1      34.875  33.054  33.275  1.00  0.00     0.010 A 
ATOM     40  C   UNL A   1      36.165  33.517  32.971  1.00  0.00    -0.014 A 
BRANCH  40  41
ATOM     41  C   UNL A   1      37.361  32.734  33.364  1.00  0.00     0.031 A 
ATOM     42  C   UNL A   1      37.940  31.667  32.486  1.00  0.00     0.074 A 
ATOM     43  C   UNL A   1      37.939  33.026  34.544  1.00  0.00     0.049 A 
ATOM     44  N   UNL A   1      39.038  30.973  32.656  1.00  0.00    -0.248 NA
ATOM     45  C   UNL A   1      37.194  31.330  31.267  1.00  0.00     0.031 C 
ATOM     46  C   UNL A   1      37.446  34.033  35.484  1.00  0.00     0.029 A 
ATOM     47  N   UNL A   1      39.061  32.521  35.146  1.00  0.00    -0.354 N 
ATOM     48  C   UNL A   1      39.134  30.136  31.552  1.00  0.00     0.074 A 
ATOM     49  C   UNL A   1      37.954  30.373  30.745  1.00  0.00     0.031 C 
ATOM     50  C   UNL A   1      38.278  34.091  36.536  1.00  0.00     0.029 A 
ATOM     51  C   UNL A   1      39.347  33.114  36.351  1.00  0.00     0.049 A 
ATOM     52  H   UNL A   1      39.609  31.804  34.754  1.00  0.00     0.167 HD
ATOM     53  C   UNL A   1      40.128  29.269  31.242  1.00  0.00     0.037 A 
ATOM     54  C   UNL A   1      40.362  32.902  37.209  1.00  0.00     0.037 A 
ATOM     55  C   UNL A   1      41.290  29.027  32.063  1.00  0.00     0.049 A 
ATOM     56  C   UNL A   1      41.422  31.898  36.859  1.00  0.00     0.074 A 
ATOM     57  C   UNL A   1      42.365  28.190  31.812  1.00  0.00     0.029 A 
ATOM     58  N   UNL A   1      41.525  29.611  33.300  1.00  0.00    -0.354 N 
ATOM     59  N   UNL A   1      41.542  31.164  35.780  1.00  0.00    -0.248 NA
ATOM     60  C   UNL A   1      42.496  31.701  37.843  1.00  0.00     0.031 C 
ATOM     61  C   UNL A   1      43.221  28.226  32.917  1.00  0.00     0.029 A 
ATOM     62  C   UNL A   1      42.711  29.129  33.835  1.00  0.00     0.049 A 
ATOM     63  H   UNL A   1      40.937  30.270  33.733  1.00  0.00     0.167 HD
ATOM     64  C   UNL A   1      42.711  30.436  35.943  1.00  0.00     0.074 A 
ATOM     65  C   UNL A   1      43.276  30.830  37.217  1.00  0.00     0.031 C 
ATOM     66  C   UNL A   1      43.264  29.521  35.108  1.00  0.00     0.037 A 
BRANCH  53  67
ATOM     67  C   UNL A   1      40.025  28.513  29.947  1.00  0.00     0.064 A 
ATOM     68  C   UNL A   1      40.602  29.008  28.768  1.00  0.00     0.173 A 
ATOM     69  C   UNL A   1      39.440  27.238  29.904  1.00  0.00     0.173 A 
ATOM     70  F   UNL A   1      41.172  30.223  28.754  1.00  0.00    -0.203 F 
ATOM     71  C   UNL A   1      40.588  28.261  27.593  1.00  0.00     0.198 A 
ATOM     72  C   UNL A   1      39.451  26.482  28.735  1.00  0.00     0.198 A 
ATOM     73  F   UNL A   1      38.885  26.712  31.007  1.00  0.00    -0.203 F 
ATOM     74  F   UNL A   1      41.128  28.763  26.475  1.00  0.00    -0.200 F 
ATOM     75  C   UNL A   1      40.023  26.994  27.580  1.00  0.00     0.200 A 
ATOM     76  F   UNL A   1      38.921  25.251  28.729  1.00  0.00    -0.200 F 
ATOM     77  F   UNL A   1      40.032  26.266  26.454  1.00  0.00    -0.200 F 
ENDBRANCH  53  67
BRANCH  54  78
ATOM     78  C   UNL A   1      40.436  33.699  38.459  1.00  0.00     0.064 A 
ATOM     79  C   UNL A   1      41.231  34.850  38.529  1.00  0.00     0.173 A 
ATOM     80  C   UNL A   1      39.687  33.349  39.592  1.00  0.00     0.173 A 
ATOM     81  F   UNL A   1      41.977  35.215  37.477  1.00  0.00    -0.203 F 
ATOM     82  C   UNL A   1      41.281  35.617  39.691  1.00  0.00     0.198 A 
ATOM     83  C   UNL A   1      39.716  34.131  40.742  1.00  0.00     0.198 A 
ATOM     84  F   UNL A   1      38.905  32.259  39.569  1.00  0.00    -0.203 F 
ATOM     85  F   UNL A   1      42.074  36.696  39.744  1.00  0.00    -0.200 F 
ATOM     86  C   UNL A   1      40.517  35.262  40.793  1.00  0.00     0.200 A 
ATOM     87  F   UNL A   1      38.963  33.795  41.798  1.00  0.00    -0.200 F 
ATOM     88  F   UNL A   1      40.555  36.010  41.904  1.00  0.00    -0.200 F 
ENDBRANCH  54  78
BRANCH  66  89
ATOM     89  C   UNL A   1      44.556  28.886  35.539  1.00  0.00     0.064 A 
ATOM     90  C   UNL A   1      44.577  27.689  36.269  1.00  0.00     0.173 A 
ATOM     91  C   UNL A   1      45.787  29.455  35.176  1.00  0.00     0.173 A 
ATOM     92  F   UNL A   1      43.429  27.112  36.654  1.00  0.00    -0.203 F 
ATOM     93  C   UNL A   1      45.782  27.096  36.639  1.00  0.00     0.198 A 
ATOM     94  C   UNL A   1      46.989  28.843  35.521  1.00  0.00     0.198 A 
ATOM     95  F   UNL A   1      45.823  30.596  34.473  1.00  0.00    -0.203 F 
ATOM     96  F   UNL A   1      45.777  25.976  37.375  1.00  0.00    -0.200 F 
ATOM     97  C   UNL A   1      46.986  27.669  36.257  1.00  0.00     0.200 A 
ATOM     98  F   UNL A   1      48.151  29.390  35.139  1.00  0.00    -0.200 F 
ATOM     99  F   UNL A   1      48.144  27.090  36.604  1.00  0.00    -0.200 F 
ENDBRANCH  66  89
ENDBRANCH  40  41
ENDBRANCH  33  35
ENDBRANCH  32  33
ENDBRANCH  31  32
ENDBRANCH  30  31
ENDBRANCH  29  30
ENDBRANCH  28  29
ENDBRANCH   1  28
TORSDOF 21
ENDMDL
MODEL 2
REMARK VINA RESULT:     -10.2      3.666      5.669
REMARK SMILES CC(C)CSc1cc2c(cc1Cl)C=C(C(=O)OCCOCCOCCOC(=O)c1ccc(-c3c4nc(c(-c5c(F)c(F)c(F)c(F)c5F)c5ccc([nH]5)c(-c5c(F)c(F)c(F)c(F)c5F)c5nc(c(-c6c(F)c(F)c(F)c(F)c6F)c6ccc3[nH]6)C=C5)C=C4)cc1)[C@H](C(F)(F)F)O2
REMARK SMILES IDX 21 1 20 2 19 3 18 4 17 5 15 6 16 7 14 8 6 9 7 10 11 11 8 12
REMARK SMILES IDX 10 13 12 14 9 15 97 16 13 17 92 18 5 19 4 20 2 21 1 22 3 23
REMARK SMILES IDX 93 24 94 25 95 26 96 27 22 28 23 29 24 30 25 31 26 32 27 33
REMARK SMILES IDX 28 34 29 35 30 36 91 37 31 38 90 39 32 40 33 41 34 42 84 43
REMARK SMILES IDX 35 44 89 45 83 46 85 47 36 48 88 49 82 50 81 51 37 53 69 54
REMARK SMILES IDX 49 55 68 56 50 57 53 58 67 59 86 60 51 61 52 62 66 64 87 65
REMARK SMILES IDX 54 66 38 67 39 68 47 69 40 70 41 71 45 72 48 73 42 74 43 75
REMARK SMILES IDX 46 76 44 77 70 78 71 79 79 80 72 81 73 82 77 83 80 84 74 85
REMARK SMILES IDX 75 86 78 87 76 88 55 89 56 90 64 91 57 92 58 93 62 94 65 95
REMARK SMILES IDX 59 96 60 97 63 98 61 99
REMARK H PARENT 85 52 53 63
REMARK Flexibility Score: inf
ROOT
ATOM      1  C   UNL A   1      31.320  31.611  26.630  1.00  0.00     0.188 C 
ENDROOT
BRANCH   1   2
ATOM      2  O   UNL A   1      31.091  30.925  25.403  1.00  0.00    -0.376 OA
BRANCH   2   3
ATOM      3  C   UNL A   1      31.404  29.538  25.303  1.00  0.00     0.202 C 
BRANCH   3   4
ATOM      4  C   UNL A   1      30.872  28.771  24.085  1.00  0.00     0.261 C 
BRANCH   4   5
ATOM      5  O   UNL A   1      31.799  28.725  22.982  1.00  0.00    -0.460 OA
BRANCH   5   6
ATOM      6  C   UNL A   1      33.080  28.439  23.304  1.00  0.00     0.338 C 
ATOM      7  O   UNL A   1      33.953  29.240  23.595  1.00  0.00    -0.246 OA
BRANCH   6   8
ATOM      8  C   UNL A   1      33.272  26.983  23.430  1.00  0.00     0.087 C 
ATOM      9  C   UNL A   1      34.909  22.599  25.258  1.00  0.00     0.030 A 
ATOM     10  C   UNL A   1      34.867  23.184  23.978  1.00  0.00     0.063 A 
ATOM     11  C   UNL A   1      34.255  23.254  26.314  1.00  0.00     0.055 A 
ATOM     12  C   UNL A   1      34.292  24.440  23.782  1.00  0.00     0.129 A 
ATOM     13  C   UNL A   1      33.704  24.528  26.121  1.00  0.00     0.033 A 
ATOM     14  Cl  UNL A   1      34.068  22.570  27.889  1.00  0.00    -0.083 Cl
ATOM     15  C   UNL A   1      33.751  25.133  24.864  1.00  0.00     0.019 A 
ATOM     16  O   UNL A   1      34.383  24.974  22.523  1.00  0.00    -0.475 OA
ATOM     17  C   UNL A   1      33.356  26.520  24.686  1.00  0.00     0.027 C 
ATOM     18  C   UNL A   1      33.529  26.121  22.223  1.00  0.00     0.316 C 
BRANCH   9  19
ATOM     19  S   UNL A   1      35.841  21.073  25.368  1.00  0.00    -0.124 SA
BRANCH  19  20
ATOM     20  C   UNL A   1      34.728  19.811  24.624  1.00  0.00     0.078 C 
BRANCH  20  21
ATOM     21  C   UNL A   1      33.238  19.819  25.022  1.00  0.00    -0.007 C 
ATOM     22  C   UNL A   1      32.289  20.293  23.921  1.00  0.00     0.008 C 
ATOM     23  C   UNL A   1      32.832  18.391  25.422  1.00  0.00     0.008 C 
ENDBRANCH  20  21
ENDBRANCH  19  20
ENDBRANCH   9  19
BRANCH  18  24
ATOM     24  C   UNL A   1      32.265  25.630  21.492  1.00  0.00     0.430 C 
ATOM     25  F   UNL A   1      32.557  25.007  20.327  1.00  0.00    -0.167 F 
ATOM     26  F   UNL A   1      31.545  24.774  22.250  1.00  0.00    -0.167 F 
ATOM     27  F   UNL A   1      31.441  26.665  21.195  1.00  0.00    -0.167 F 
ENDBRANCH  18  24
ENDBRANCH   6   8
ENDBRANCH   5   6
ENDBRANCH   4   5
ENDBRANCH   3   4
ENDBRANCH   2   3
ENDBRANCH   1   2
BRANCH   1  28
ATOM     28  C   UNL A   1      31.739  33.094  26.604  1.00  0.00     0.188 C 
BRANCH  28  29
ATOM     29  O   UNL A   1      32.176  33.563  27.859  1.00  0.00    -0.376 OA
BRANCH  29  30
ATOM     30  C   UNL A   1      33.481  34.098  27.960  1.00  0.00     0.202 C 
BRANCH  30  31
ATOM     31  C   UNL A   1      34.679  33.135  28.001  1.00  0.00     0.261 C 
BRANCH  31  32
ATOM     32  O   UNL A   1      34.491  31.905  28.712  1.00  0.00    -0.460 OA
BRANCH  32  33
ATOM     33  C   UNL A   1      34.661  30.748  28.024  1.00  0.00     0.338 C 
ATOM     34  O   UNL A   1      33.953  30.293  27.159  1.00  0.00    -0.246 OA
BRANCH  33  35
ATOM     35  C   UNL A   1      36.005  30.241  28.396  1.00  0.00     0.060 A 
ATOM     36  C   UNL A   1      37.058  30.314  27.482  1.00  0.00     0.016 A 
ATOM     37  C   UNL A   1      36.187  29.628  29.643  1.00  0.00     0.016 A 
ATOM     38  C   UNL A   1      38.302  29.777  27.820  1.00  0.00     0.010 A 
ATOM     39  C   UNL A   1      37.429  29.077  29.974  1.00  0.00     0.010 A 
ATOM     40  C   UNL A   1      38.498  29.161  29.068  1.00  0.00    -0.014 A 
BRANCH  40  41
ATOM     41  C   UNL A   1      39.867  28.764  29.476  1.00  0.00     0.031 A 
ATOM     42  C   UNL A   1      40.505  27.495  28.999  1.00  0.00     0.074 A 
ATOM     43  C   UNL A   1      40.545  29.600  30.283  1.00  0.00     0.049 A 
ATOM     44  N   UNL A   1      41.728  27.070  29.193  1.00  0.00    -0.248 NA
ATOM     45  C   UNL A   1      39.666  26.583  28.210  1.00  0.00     0.031 C 
ATOM     46  C   UNL A   1      40.012  30.852  30.821  1.00  0.00     0.029 A 
ATOM     47  N   UNL A   1      41.820  29.534  30.782  1.00  0.00    -0.354 N 
ATOM     48  C   UNL A   1      41.820  25.855  28.528  1.00  0.00     0.074 A 
ATOM     49  C   UNL A   1      40.511  25.587  27.967  1.00  0.00     0.031 C 
ATOM     50  C   UNL A   1      40.962  31.451  31.554  1.00  0.00     0.029 A 
ATOM     51  C   UNL A   1      42.161  30.617  31.554  1.00  0.00     0.049 A 
ATOM     52  H   UNL A   1      42.432  28.784  30.603  1.00  0.00     0.167 HD
ATOM     53  C   UNL A   1      42.906  25.056  28.387  1.00  0.00     0.037 A 
ATOM     54  C   UNL A   1      43.312  30.911  32.184  1.00  0.00     0.037 A 
ATOM     55  C   UNL A   1      44.201  25.325  28.965  1.00  0.00     0.049 A 
ATOM     56  C   UNL A   1      44.483  29.981  32.049  1.00  0.00     0.074 A 
ATOM     57  C   UNL A   1      45.368  24.588  28.847  1.00  0.00     0.029 A 
ATOM     58  N   UNL A   1      44.499  26.408  29.780  1.00  0.00    -0.354 N 
ATOM     59  N   UNL A   1      44.582  28.871  31.359  1.00  0.00    -0.248 NA
ATOM     60  C   UNL A   1      45.707  30.349  32.773  1.00  0.00     0.031 C 
ATOM     61  C   UNL A   1      46.354  25.193  29.632  1.00  0.00     0.029 A 
ATOM     62  C   UNL A   1      45.820  26.341  30.195  1.00  0.00     0.049 A 
ATOM     63  H   UNL A   1      43.865  27.119  30.027  1.00  0.00     0.167 HD
ATOM     64  C   UNL A   1      45.879  28.420  31.545  1.00  0.00     0.074 A 
ATOM     65  C   UNL A   1      46.540  29.386  32.399  1.00  0.00     0.031 C 
ATOM     66  C   UNL A   1      46.470  27.303  31.051  1.00  0.00     0.037 A 
BRANCH  53  67
ATOM     67  C   UNL A   1      42.761  23.810  27.561  1.00  0.00     0.064 A 
ATOM     68  C   UNL A   1      43.077  23.802  26.194  1.00  0.00     0.173 A 
ATOM     69  C   UNL A   1      42.406  22.590  28.158  1.00  0.00     0.173 A 
ATOM     70  F   UNL A   1      43.420  24.941  25.574  1.00  0.00    -0.203 F 
ATOM     71  C   UNL A   1      43.034  22.622  25.454  1.00  0.00     0.198 A 
ATOM     72  C   UNL A   1      42.389  21.408  27.421  1.00  0.00     0.198 A 
ATOM     73  F   UNL A   1      42.106  22.539  29.465  1.00  0.00    -0.203 F 
ATOM     74  F   UNL A   1      43.320  22.643  24.146  1.00  0.00    -0.200 F 
ATOM     75  C   UNL A   1      42.701  21.425  26.071  1.00  0.00     0.200 A 
ATOM     76  F   UNL A   1      42.085  20.249  28.023  1.00  0.00    -0.200 F 
ATOM     77  F   UNL A   1      42.683  20.287  25.362  1.00  0.00    -0.200 F 
ENDBRANCH  53  67
BRANCH  54  78
ATOM     78  C   UNL A   1      43.415  32.173  32.960  1.00  0.00     0.064 A 
ATOM     79  C   UNL A   1      43.114  32.200  34.328  1.00  0.00     0.173 A 
ATOM     80  C   UNL A   1      43.849  33.363  32.360  1.00  0.00     0.173 A 
ATOM     81  F   UNL A   1      42.679  31.090  34.941  1.00  0.00    -0.203 F 
ATOM     82  C   UNL A   1      43.236  33.375  35.066  1.00  0.00     0.198 A 
ATOM     83  C   UNL A   1      43.998  34.530  33.104  1.00  0.00     0.198 A 
ATOM     84  F   UNL A   1      44.156  33.384  31.054  1.00  0.00    -0.203 F 
ATOM     85  F   UNL A   1      42.912  33.383  36.366  1.00  0.00    -0.200 F 
ATOM     86  C   UNL A   1      43.686  34.537  34.455  1.00  0.00     0.200 A 
ATOM     87  F   UNL A   1      44.450  35.645  32.515  1.00  0.00    -0.200 F 
ATOM     88  F   UNL A   1      43.818  35.662  35.170  1.00  0.00    -0.200 F 
ENDBRANCH  54  78
BRANCH  66  89
ATOM     89  C   UNL A   1      47.908  27.065  31.413  1.00  0.00     0.064 A 
ATOM     90  C   UNL A   1      48.267  26.293  32.527  1.00  0.00     0.173 A 
ATOM     91  C   UNL A   1      48.940  27.575  30.609  1.00  0.00     0.173 A 
ATOM     92  F   UNL A   1      47.321  25.795  33.337  1.00  0.00    -0.203 F 
ATOM     93  C   UNL A   1      49.605  26.057  32.836  1.00  0.00     0.198 A 
ATOM     94  C   UNL A   1      50.275  27.312  30.903  1.00  0.00     0.198 A 
ATOM     95  F   UNL A   1      48.652  28.316  29.528  1.00  0.00    -0.203 F 
ATOM     96  F   UNL A   1      49.924  25.353  33.930  1.00  0.00    -0.200 F 
ATOM     97  C   UNL A   1      50.607  26.560  32.018  1.00  0.00     0.200 A 
ATOM     98  F   UNL A   1      51.242  27.786  30.104  1.00  0.00    -0.200 F 
ATOM     99  F   UNL A   1      51.893  26.322  32.310  1.00  0.00    -0.200 F 
ENDBRANCH  66  89
ENDBRANCH  40  41
ENDBRANCH  33  35
ENDBRANCH  32  33
ENDBRANCH  31  32
ENDBRANCH  30  31
ENDBRANCH  29  30
ENDBRANCH  28  29
ENDBRANCH   1  28
TORSDOF 21
ENDMDL
MODEL 3
REMARK VINA RESULT:     -10.1      4.975      9.220
REMARK SMILES CC(C)CSc1cc2c(cc1Cl)C=C(C(=O)OCCOCCOCCOC(=O)c1ccc(-c3c4nc(c(-c5c(F)c(F)c(F)c(F)c5F)c5ccc([nH]5)c(-c5c(F)c(F)c(F)c(F)c5F)c5nc(c(-c6c(F)c(F)c(F)c(F)c6F)c6ccc3[nH]6)C=C5)C=C4)cc1)[C@H](C(F)(F)F)O2
REMARK SMILES IDX 21 1 20 2 19 3 18 4 17 5 15 6 16 7 14 8 6 9 7 10 11 11 8 12
REMARK SMILES IDX 10 13 12 14 9 15 97 16 13 17 92 18 5 19 4 20 2 21 1 22 3 23
REMARK SMILES IDX 93 24 94 25 95 26 96 27 22 28 23 29 24 30 25 31 26 32 27 33
REMARK SMILES IDX 28 34 29 35 30 36 91 37 31 38 90 39 32 40 33 41 34 42 84 43
REMARK SMILES IDX 35 44 89 45 83 46 85 47 36 48 88 49 82 50 81 51 37 53 69 54
REMARK SMILES IDX 49 55 68 56 50 57 53 58 67 59 86 60 51 61 52 62 66 64 87 65
REMARK SMILES IDX 54 66 38 67 39 68 47 69 40 70 41 71 45 72 48 73 42 74 43 75
REMARK SMILES IDX 46 76 44 77 70 78 71 79 79 80 72 81 73 82 77 83 80 84 74 85
REMARK SMILES IDX 75 86 78 87 76 88 55 89 56 90 64 91 57 92 58 93 62 94 65 95
REMARK SMILES IDX 59 96 60 97 63 98 61 99
REMARK H PARENT 85 52 53 63
REMARK Flexibility Score: inf
ROOT
ATOM      1  C   UNL A   1      35.001  32.357  29.052  1.00  0.00     0.188 C 
ENDROOT
BRANCH   1   2
ATOM      2  O   UNL A   1      33.945  31.503  28.626  1.00  0.00    -0.376 OA
BRANCH   2   3
ATOM      3  C   UNL A   1      33.813  31.183  27.243  1.00  0.00     0.202 C 
BRANCH   3   4
ATOM      4  C   UNL A   1      33.485  29.730  26.873  1.00  0.00     0.261 C 
BRANCH   4   5
ATOM      5  O   UNL A   1      32.072  29.472  26.748  1.00  0.00    -0.460 OA
BRANCH   5   6
ATOM      6  C   UNL A   1      31.657  29.054  25.532  1.00  0.00     0.338 C 
ATOM      7  O   UNL A   1      31.043  29.711  24.707  1.00  0.00    -0.246 OA
BRANCH   6   8
ATOM      8  C   UNL A   1      32.193  27.715  25.231  1.00  0.00     0.087 C 
ATOM      9  C   UNL A   1      34.333  23.231  25.980  1.00  0.00     0.030 A 
ATOM     10  C   UNL A   1      34.522  24.276  25.057  1.00  0.00     0.063 A 
ATOM     11  C   UNL A   1      33.236  23.302  26.854  1.00  0.00     0.055 A 
ATOM     12  C   UNL A   1      33.713  25.412  25.083  1.00  0.00     0.129 A 
ATOM     13  C   UNL A   1      32.442  24.456  26.898  1.00  0.00     0.033 A 
ATOM     14  Cl  UNL A   1      32.774  22.015  27.911  1.00  0.00    -0.083 Cl
ATOM     15  C   UNL A   1      32.702  25.523  26.036  1.00  0.00     0.019 A 
ATOM     16  O   UNL A   1      34.032  26.422  24.212  1.00  0.00    -0.475 OA
ATOM     17  C   UNL A   1      32.015  26.795  26.191  1.00  0.00     0.027 C 
ATOM     18  C   UNL A   1      33.030  27.465  24.005  1.00  0.00     0.316 C 
BRANCH   9  19
ATOM     19  S   UNL A   1      35.567  21.934  25.928  1.00  0.00    -0.124 SA
BRANCH  19  20
ATOM     20  C   UNL A   1      34.819  20.644  24.850  1.00  0.00     0.078 C 
BRANCH  20  21
ATOM     21  C   UNL A   1      33.285  20.494  24.840  1.00  0.00    -0.007 C 
ATOM     22  C   UNL A   1      32.600  21.050  23.592  1.00  0.00     0.008 C 
ATOM     23  C   UNL A   1      32.940  18.999  24.948  1.00  0.00     0.008 C 
ENDBRANCH  20  21
ENDBRANCH  19  20
ENDBRANCH   9  19
BRANCH  18  24
ATOM     24  C   UNL A   1      32.233  27.149  22.725  1.00  0.00     0.430 C 
ATOM     25  F   UNL A   1      31.813  28.270  22.094  1.00  0.00    -0.167 F 
ATOM     26  F   UNL A   1      32.958  26.426  21.845  1.00  0.00    -0.167 F 
ATOM     27  F   UNL A   1      31.129  26.414  23.008  1.00  0.00    -0.167 F 
ENDBRANCH  18  24
ENDBRANCH   6   8
ENDBRANCH   5   6
ENDBRANCH   4   5
ENDBRANCH   3   4
ENDBRANCH   2   3
ENDBRANCH   1   2
BRANCH   1  28
ATOM     28  C   UNL A   1      34.853  33.883  28.900  1.00  0.00     0.188 C 
BRANCH  28  29
ATOM     29  O   UNL A   1      34.795  34.556  30.136  1.00  0.00    -0.376 OA
BRANCH  29  30
ATOM     30  C   UNL A   1      34.155  33.915  31.221  1.00  0.00     0.202 C 
BRANCH  30  31
ATOM     31  C   UNL A   1      34.952  33.658  32.510  1.00  0.00     0.261 C 
BRANCH  31  32
ATOM     32  O   UNL A   1      35.532  32.356  32.659  1.00  0.00    -0.460 OA
BRANCH  32  33
ATOM     33  C   UNL A   1      36.639  32.245  33.436  1.00  0.00     0.338 C 
ATOM     34  O   UNL A   1      36.712  32.345  34.637  1.00  0.00    -0.246 OA
BRANCH  33  35
ATOM     35  C   UNL A   1      37.723  31.768  32.542  1.00  0.00     0.060 A 
ATOM     36  C   UNL A   1      37.593  31.890  31.157  1.00  0.00     0.016 A 
ATOM     37  C   UNL A   1      38.843  31.134  33.098  1.00  0.00     0.016 A 
ATOM     38  C   UNL A   1      38.592  31.382  30.324  1.00  0.00     0.010 A 
ATOM     39  C   UNL A   1      39.835  30.613  32.262  1.00  0.00     0.010 A 
ATOM     40  C   UNL A   1      39.721  30.746  30.869  1.00  0.00    -0.014 A 
BRANCH  40  41
ATOM     41  C   UNL A   1      40.849  30.379  29.980  1.00  0.00     0.031 A 
ATOM     42  C   UNL A   1      41.939  31.347  29.633  1.00  0.00     0.074 A 
ATOM     43  C   UNL A   1      40.883  29.123  29.500  1.00  0.00     0.049 A 
ATOM     44  N   UNL A   1      43.036  31.135  28.950  1.00  0.00    -0.248 NA
ATOM     45  C   UNL A   1      41.778  32.729  30.105  1.00  0.00     0.031 C 
ATOM     46  C   UNL A   1      39.863  28.106  29.760  1.00  0.00     0.029 A 
ATOM     47  N   UNL A   1      41.803  28.485  28.710  1.00  0.00    -0.354 N 
ATOM     48  C   UNL A   1      43.714  32.346  28.933  1.00  0.00     0.074 A 
ATOM     49  C   UNL A   1      42.879  33.302  29.631  1.00  0.00     0.031 C 
ATOM     50  C   UNL A   1      40.227  26.961  29.162  1.00  0.00     0.029 A 
ATOM     51  C   UNL A   1      41.492  27.170  28.463  1.00  0.00     0.049 A 
ATOM     52  H   UNL A   1      42.609  28.925  28.356  1.00  0.00     0.167 HD
ATOM     53  C   UNL A   1      44.930  32.618  28.399  1.00  0.00     0.037 A 
ATOM     54  C   UNL A   1      42.155  26.234  27.759  1.00  0.00     0.037 A 
ATOM     55  C   UNL A   1      45.747  31.662  27.691  1.00  0.00     0.049 A 
ATOM     56  C   UNL A   1      43.477  26.582  27.138  1.00  0.00     0.074 A 
ATOM     57  C   UNL A   1      47.007  31.841  27.144  1.00  0.00     0.029 A 
ATOM     58  N   UNL A   1      45.380  30.351  27.417  1.00  0.00    -0.354 N 
ATOM     59  N   UNL A   1      44.144  27.708  27.188  1.00  0.00    -0.248 NA
ATOM     60  C   UNL A   1      44.145  25.522  26.370  1.00  0.00     0.031 C 
ATOM     61  C   UNL A   1      47.379  30.659  26.496  1.00  0.00     0.029 A 
ATOM     62  C   UNL A   1      46.376  29.722  26.686  1.00  0.00     0.049 A 
ATOM     63  H   UNL A   1      44.537  29.930  27.702  1.00  0.00     0.167 HD
ATOM     64  C   UNL A   1      45.316  27.490  26.480  1.00  0.00     0.074 A 
ATOM     65  C   UNL A   1      45.280  26.115  26.025  1.00  0.00     0.031 C 
ATOM     66  C   UNL A   1      46.331  28.355  26.231  1.00  0.00     0.037 A 
BRANCH  53  67
ATOM     67  C   UNL A   1      45.477  34.008  28.565  1.00  0.00     0.064 A 
ATOM     68  C   UNL A   1      46.328  34.331  29.633  1.00  0.00     0.173 A 
ATOM     69  C   UNL A   1      45.238  34.995  27.596  1.00  0.00     0.173 A 
ATOM     70  F   UNL A   1      46.588  33.425  30.587  1.00  0.00    -0.203 F 
ATOM     71  C   UNL A   1      46.910  35.593  29.730  1.00  0.00     0.198 A 
ATOM     72  C   UNL A   1      45.842  36.247  27.682  1.00  0.00     0.198 A 
ATOM     73  F   UNL A   1      44.441  34.734  26.548  1.00  0.00    -0.203 F 
ATOM     74  F   UNL A   1      47.703  35.886  30.769  1.00  0.00    -0.200 F 
ATOM     75  C   UNL A   1      46.675  36.546  28.749  1.00  0.00     0.200 A 
ATOM     76  F   UNL A   1      45.628  37.159  26.724  1.00  0.00    -0.200 F 
ATOM     77  F   UNL A   1      47.255  37.752  28.831  1.00  0.00    -0.200 F 
ENDBRANCH  53  67
BRANCH  54  78
ATOM     78  C   UNL A   1      41.588  24.867  27.654  1.00  0.00     0.064 A 
ATOM     79  C   UNL A   1      40.438  24.624  26.891  1.00  0.00     0.173 A 
ATOM     80  C   UNL A   1      42.202  23.773  28.280  1.00  0.00     0.173 A 
ATOM     81  F   UNL A   1      39.807  25.642  26.288  1.00  0.00    -0.203 F 
ATOM     82  C   UNL A   1      39.919  23.338  26.766  1.00  0.00     0.198 A 
ATOM     83  C   UNL A   1      41.699  22.484  28.132  1.00  0.00     0.198 A 
ATOM     84  F   UNL A   1      43.310  23.956  29.014  1.00  0.00    -0.203 F 
ATOM     85  F   UNL A   1      38.800  23.136  26.057  1.00  0.00    -0.200 F 
ATOM     86  C   UNL A   1      40.554  22.268  27.379  1.00  0.00     0.200 A 
ATOM     87  F   UNL A   1      42.326  21.451  28.710  1.00  0.00    -0.200 F 
ATOM     88  F   UNL A   1      40.062  21.029  27.245  1.00  0.00    -0.200 F 
ENDBRANCH  54  78
BRANCH  66  89
ATOM     89  C   UNL A   1      47.497  27.839  25.435  1.00  0.00     0.064 A 
ATOM     90  C   UNL A   1      48.634  27.307  26.060  1.00  0.00     0.173 A 
ATOM     91  C   UNL A   1      47.456  27.832  24.032  1.00  0.00     0.173 A 
ATOM     92  F   UNL A   1      48.730  27.303  27.398  1.00  0.00    -0.203 F 
ATOM     93  C   UNL A   1      49.696  26.807  25.310  1.00  0.00     0.198 A 
ATOM     94  C   UNL A   1      48.506  27.304  23.286  1.00  0.00     0.198 A 
ATOM     95  F   UNL A   1      46.389  28.324  23.384  1.00  0.00    -0.203 F 
ATOM     96  F   UNL A   1      50.791  26.344  25.929  1.00  0.00    -0.200 F 
ATOM     97  C   UNL A   1      49.627  26.798  23.924  1.00  0.00     0.200 A 
ATOM     98  F   UNL A   1      48.432  27.283  21.948  1.00  0.00    -0.200 F 
ATOM     99  F   UNL A   1      50.646  26.306  23.205  1.00  0.00    -0.200 F 
ENDBRANCH  66  89
ENDBRANCH  40  41
ENDBRANCH  33  35
ENDBRANCH  32  33
ENDBRANCH  31  32
ENDBRANCH  30  31
ENDBRANCH  29  30
ENDBRANCH  28  29
ENDBRANCH   1  28
TORSDOF 21
ENDMDL
