MODEL 1
REMARK VINA RESULT:     -11.3      0.000      0.000
REMARK SMILES Cc1cc(C)c2c(c1)C=C(C(=O)OCCOCCOCCOC(=O)c1ccc(-c3c4nc(c(-c5c(F)c(F)c(F)c(F)c5F)c5ccc([nH]5)c(-c5c(F)c(F)c(F)c(F)c5F)c5nc(c(-c6c(F)c(F)c(F)c(F)c6F)c6ccc3[nH]6)C=C5)C=C4)cc1)[C@@H](C(F)(F)F)O2
REMARK SMILES IDX 18 1 17 2 16 3 15 4 14 5 13 6 11 7 12 8 10 9 1 10 2 11 3 12
REMARK SMILES IDX 8 13 4 14 7 15 5 16 6 17 9 18 93 19 88 20 89 21 90 22 91 23
REMARK SMILES IDX 92 24 19 25 20 26 21 27 22 28 23 29 24 30 25 31 26 32 87 33
REMARK SMILES IDX 27 34 86 35 28 36 29 37 30 38 80 39 31 40 85 41 79 42 81 43
REMARK SMILES IDX 32 44 84 45 78 46 77 47 33 49 65 50 45 51 64 52 46 53 49 54
REMARK SMILES IDX 63 55 82 56 47 57 48 58 62 60 83 61 50 62 34 63 35 64 43 65
REMARK SMILES IDX 36 66 37 67 41 68 44 69 38 70 39 71 42 72 40 73 66 74 67 75
REMARK SMILES IDX 75 76 68 77 69 78 73 79 76 80 70 81 71 82 74 83 72 84 51 85
REMARK SMILES IDX 52 86 60 87 53 88 54 89 58 90 61 91 55 92 56 93 59 94 57 95
REMARK H PARENT 81 48 49 59
REMARK Flexibility Score: inf
ROOT
ATOM      1  C   UNL A   1      32.151  29.294  27.219  1.00  0.00     0.188 C 
ENDROOT
BRANCH   1   2
ATOM      2  C   UNL A   1      32.071  28.113  26.228  1.00  0.00     0.188 C 
BRANCH   2   3
ATOM      3  O   UNL A   1      32.039  28.357  24.839  1.00  0.00    -0.376 OA
BRANCH   3   4
ATOM      4  C   UNL A   1      33.233  28.424  24.079  1.00  0.00     0.202 C 
BRANCH   4   5
ATOM      5  C   UNL A   1      33.425  27.759  22.707  1.00  0.00     0.261 C 
BRANCH   5   6
ATOM      6  O   UNL A   1      32.437  26.799  22.320  1.00  0.00    -0.460 OA
BRANCH   6   7
ATOM      7  C   UNL A   1      32.923  25.598  21.921  1.00  0.00     0.338 C 
ATOM      8  O   UNL A   1      33.128  25.240  20.772  1.00  0.00    -0.246 OA
BRANCH   7   9
ATOM      9  C   UNL A   1      33.334  24.812  23.100  1.00  0.00     0.087 C 
ATOM     10  C   UNL A   1      37.620  20.776  24.905  1.00  0.00     0.044 C 
ATOM     11  C   UNL A   1      36.405  21.648  25.033  1.00  0.00    -0.050 A 
ATOM     12  C   UNL A   1      35.525  21.470  26.107  1.00  0.00     0.010 A 
ATOM     13  C   UNL A   1      36.090  22.585  24.043  1.00  0.00     0.015 A 
ATOM     14  C   UNL A   1      34.353  22.234  26.215  1.00  0.00    -0.008 A 
ATOM     15  C   UNL A   1      34.910  23.335  24.124  1.00  0.00     0.018 A 
ATOM     16  C   UNL A   1      33.407  21.999  27.359  1.00  0.00     0.048 C 
ATOM     17  C   UNL A   1      34.059  23.181  25.222  1.00  0.00     0.130 A 
ATOM     18  C   UNL A   1      34.525  24.204  23.027  1.00  0.00     0.027 C 
ATOM     19  O   UNL A   1      32.918  23.915  25.390  1.00  0.00    -0.475 OA
ATOM     20  C   UNL A   1      32.422  24.727  24.293  1.00  0.00     0.316 C 
BRANCH  20  21
ATOM     21  C   UNL A   1      31.020  24.232  23.918  1.00  0.00     0.430 C 
ATOM     22  F   UNL A   1      31.036  23.540  22.754  1.00  0.00    -0.167 F 
ATOM     23  F   UNL A   1      30.517  23.397  24.858  1.00  0.00    -0.167 F 
ATOM     24  F   UNL A   1      30.144  25.252  23.775  1.00  0.00    -0.167 F 
ENDBRANCH  20  21
ENDBRANCH   7   9
ENDBRANCH   6   7
ENDBRANCH   5   6
ENDBRANCH   4   5
ENDBRANCH   3   4
ENDBRANCH   2   3
ENDBRANCH   1   2
BRANCH   1  25
ATOM     25  O   UNL A   1      32.524  30.574  26.763  1.00  0.00    -0.376 OA
BRANCH  25  26
ATOM     26  C   UNL A   1      31.529  31.569  26.576  1.00  0.00     0.202 C 
BRANCH  26  27
ATOM     27  C   UNL A   1      31.727  33.062  26.904  1.00  0.00     0.261 C 
BRANCH  27  28
ATOM     28  O   UNL A   1      33.076  33.539  26.972  1.00  0.00    -0.460 OA
BRANCH  28  29
ATOM     29  C   UNL A   1      33.485  33.970  28.196  1.00  0.00     0.338 C 
ATOM     30  O   UNL A   1      32.900  34.713  28.955  1.00  0.00    -0.246 OA
BRANCH  29  31
ATOM     31  C   UNL A   1      34.698  33.219  28.578  1.00  0.00     0.060 A 
ATOM     32  C   UNL A   1      34.552  31.925  29.100  1.00  0.00     0.016 A 
ATOM     33  C   UNL A   1      35.964  33.786  28.436  1.00  0.00     0.016 A 
ATOM     34  C   UNL A   1      35.675  31.191  29.475  1.00  0.00     0.010 A 
ATOM     35  C   UNL A   1      37.088  33.062  28.845  1.00  0.00     0.010 A 
ATOM     36  C   UNL A   1      36.948  31.770  29.386  1.00  0.00    -0.014 A 
BRANCH  36  37
ATOM     37  C   UNL A   1      38.088  31.106  30.062  1.00  0.00     0.031 A 
ATOM     38  C   UNL A   1      38.353  31.443  31.503  1.00  0.00     0.074 A 
ATOM     39  C   UNL A   1      38.839  30.181  29.435  1.00  0.00     0.049 A 
ATOM     40  N   UNL A   1      39.268  30.977  32.312  1.00  0.00    -0.248 NA
ATOM     41  C   UNL A   1      37.460  32.441  32.114  1.00  0.00     0.031 C 
ATOM     42  C   UNL A   1      38.656  29.735  28.057  1.00  0.00     0.029 A 
ATOM     43  N   UNL A   1      39.907  29.444  29.890  1.00  0.00    -0.354 N 
ATOM     44  C   UNL A   1      39.051  31.612  33.527  1.00  0.00     0.074 A 
ATOM     45  C   UNL A   1      37.953  32.533  33.339  1.00  0.00     0.031 C 
ATOM     46  C   UNL A   1      39.580  28.799  27.776  1.00  0.00     0.029 A 
ATOM     47  C   UNL A   1      40.436  28.597  28.947  1.00  0.00     0.049 A 
ATOM     48  H   UNL A   1      40.260  29.518  30.806  1.00  0.00     0.167 HD
ATOM     49  C   UNL A   1      39.694  31.425  34.703  1.00  0.00     0.037 A 
ATOM     50  C   UNL A   1      41.493  27.762  29.022  1.00  0.00     0.037 A 
ATOM     51  C   UNL A   1      40.786  30.511  34.890  1.00  0.00     0.049 A 
ATOM     52  C   UNL A   1      42.266  27.656  30.315  1.00  0.00     0.074 A 
ATOM     53  C   UNL A   1      41.490  30.243  36.050  1.00  0.00     0.029 A 
ATOM     54  N   UNL A   1      41.336  29.723  33.892  1.00  0.00    -0.354 N 
ATOM     55  N   UNL A   1      42.025  28.223  31.473  1.00  0.00    -0.248 NA
ATOM     56  C   UNL A   1      43.461  26.798  30.313  1.00  0.00     0.031 C 
ATOM     57  C   UNL A   1      42.505  29.335  35.741  1.00  0.00     0.029 A 
ATOM     58  C   UNL A   1      42.399  28.996  34.401  1.00  0.00     0.049 A 
ATOM     59  H   UNL A   1      41.020  29.685  32.961  1.00  0.00     0.167 HD
ATOM     60  C   UNL A   1      43.019  27.776  32.335  1.00  0.00     0.074 A 
ATOM     61  C   UNL A   1      43.859  26.875  31.577  1.00  0.00     0.031 C 
ATOM     62  C   UNL A   1      43.220  28.092  33.638  1.00  0.00     0.037 A 
BRANCH  49  63
ATOM     63  C   UNL A   1      39.234  32.224  35.885  1.00  0.00     0.064 A 
ATOM     64  C   UNL A   1      38.339  31.688  36.823  1.00  0.00     0.173 A 
ATOM     65  C   UNL A   1      39.745  33.508  36.122  1.00  0.00     0.173 A 
ATOM     66  F   UNL A   1      37.812  30.469  36.634  1.00  0.00    -0.203 F 
ATOM     67  C   UNL A   1      37.965  32.414  37.949  1.00  0.00     0.198 A 
ATOM     68  C   UNL A   1      39.392  34.219  37.265  1.00  0.00     0.198 A 
ATOM     69  F   UNL A   1      40.608  34.063  35.256  1.00  0.00    -0.203 F 
ATOM     70  F   UNL A   1      37.083  31.896  38.816  1.00  0.00    -0.200 F 
ATOM     71  C   UNL A   1      38.499  33.673  38.175  1.00  0.00     0.200 A 
ATOM     72  F   UNL A   1      39.922  35.429  37.490  1.00  0.00    -0.200 F 
ATOM     73  F   UNL A   1      38.154  34.363  39.271  1.00  0.00    -0.200 F 
ENDBRANCH  49  63
BRANCH  50  74
ATOM     74  C   UNL A   1      41.888  26.950  27.839  1.00  0.00     0.064 A 
ATOM     75  C   UNL A   1      41.333  25.682  27.616  1.00  0.00     0.173 A 
ATOM     76  C   UNL A   1      42.839  27.414  26.917  1.00  0.00     0.173 A 
ATOM     77  F   UNL A   1      40.442  25.181  28.485  1.00  0.00    -0.203 F 
ATOM     78  C   UNL A   1      41.720  24.906  26.525  1.00  0.00     0.198 A 
ATOM     79  C   UNL A   1      43.204  26.649  25.811  1.00  0.00     0.198 A 
ATOM     80  F   UNL A   1      43.410  28.616  27.087  1.00  0.00    -0.203 F 
ATOM     81  F   UNL A   1      41.205  23.680  26.362  1.00  0.00    -0.200 F 
ATOM     82  C   UNL A   1      42.649  25.393  25.618  1.00  0.00     0.200 A 
ATOM     83  F   UNL A   1      44.097  27.128  24.933  1.00  0.00    -0.200 F 
ATOM     84  F   UNL A   1      43.016  24.650  24.566  1.00  0.00    -0.200 F 
ENDBRANCH  50  74
BRANCH  62  85
ATOM     85  C   UNL A   1      44.388  27.471  34.350  1.00  0.00     0.064 A 
ATOM     86  C   UNL A   1      44.290  26.200  34.933  1.00  0.00     0.173 A 
ATOM     87  C   UNL A   1      45.648  28.089  34.326  1.00  0.00     0.173 A 
ATOM     88  F   UNL A   1      43.105  25.573  34.989  1.00  0.00    -0.203 F 
ATOM     89  C   UNL A   1      45.413  25.567  35.461  1.00  0.00     0.198 A 
ATOM     90  C   UNL A   1      46.774  27.441  34.829  1.00  0.00     0.198 A 
ATOM     91  F   UNL A   1      45.798  29.300  33.770  1.00  0.00    -0.203 F 
ATOM     92  F   UNL A   1      45.293  24.357  36.024  1.00  0.00    -0.200 F 
ATOM     93  C   UNL A   1      46.655  26.180  35.394  1.00  0.00     0.200 A 
ATOM     94  F   UNL A   1      47.977  28.026  34.743  1.00  0.00    -0.200 F 
ATOM     95  F   UNL A   1      47.740  25.553  35.870  1.00  0.00    -0.200 F 
ENDBRANCH  62  85
ENDBRANCH  36  37
ENDBRANCH  29  31
ENDBRANCH  28  29
ENDBRANCH  27  28
ENDBRANCH  26  27
ENDBRANCH  25  26
ENDBRANCH   1  25
TORSDOF 18
ENDMDL
MODEL 2
REMARK VINA RESULT:     -11.1      1.470      2.728
REMARK SMILES Cc1cc(C)c2c(c1)C=C(C(=O)OCCOCCOCCOC(=O)c1ccc(-c3c4nc(c(-c5c(F)c(F)c(F)c(F)c5F)c5ccc([nH]5)c(-c5c(F)c(F)c(F)c(F)c5F)c5nc(c(-c6c(F)c(F)c(F)c(F)c6F)c6ccc3[nH]6)C=C5)C=C4)cc1)[C@@H](C(F)(F)F)O2
REMARK SMILES IDX 18 1 17 2 16 3 15 4 14 5 13 6 11 7 12 8 10 9 1 10 2 11 3 12
REMARK SMILES IDX 8 13 4 14 7 15 5 16 6 17 9 18 93 19 88 20 89 21 90 22 91 23
REMARK SMILES IDX 92 24 19 25 20 26 21 27 22 28 23 29 24 30 25 31 26 32 87 33
REMARK SMILES IDX 27 34 86 35 28 36 29 37 30 38 80 39 31 40 85 41 79 42 81 43
REMARK SMILES IDX 32 44 84 45 78 46 77 47 33 49 65 50 45 51 64 52 46 53 49 54
REMARK SMILES IDX 63 55 82 56 47 57 48 58 62 60 83 61 50 62 34 63 35 64 43 65
REMARK SMILES IDX 36 66 37 67 41 68 44 69 38 70 39 71 42 72 40 73 66 74 67 75
REMARK SMILES IDX 75 76 68 77 69 78 73 79 76 80 70 81 71 82 74 83 72 84 51 85
REMARK SMILES IDX 52 86 60 87 53 88 54 89 58 90 61 91 55 92 56 93 59 94 57 95
REMARK H PARENT 81 48 49 59
REMARK Flexibility Score: inf
ROOT
ATOM      1  C   UNL A   1      31.986  28.890  22.966  1.00  0.00     0.188 C 
ENDROOT
BRANCH   1   2
ATOM      2  C   UNL A   1      30.910  27.799  22.770  1.00  0.00     0.188 C 
BRANCH   2   3
ATOM      3  O   UNL A   1      31.223  26.447  23.014  1.00  0.00    -0.376 OA
BRANCH   3   4
ATOM      4  C   UNL A   1      30.380  25.631  23.808  1.00  0.00     0.202 C 
BRANCH   4   5
ATOM      5  C   UNL A   1      30.571  25.395  25.315  1.00  0.00     0.261 C 
BRANCH   5   6
ATOM      6  O   UNL A   1      31.877  24.986  25.735  1.00  0.00    -0.460 OA
BRANCH   6   7
ATOM      7  C   UNL A   1      31.906  23.913  26.564  1.00  0.00     0.338 C 
ATOM      8  O   UNL A   1      30.987  23.498  27.251  1.00  0.00    -0.246 OA
BRANCH   7   9
ATOM      9  C   UNL A   1      33.185  23.196  26.403  1.00  0.00     0.087 C 
ATOM     10  C   UNL A   1      39.250  24.233  26.126  1.00  0.00     0.044 C 
ATOM     11  C   UNL A   1      37.986  23.424  26.105  1.00  0.00    -0.050 A 
ATOM     12  C   UNL A   1      38.005  22.107  25.630  1.00  0.00     0.010 A 
ATOM     13  C   UNL A   1      36.764  23.996  26.475  1.00  0.00     0.015 A 
ATOM     14  C   UNL A   1      36.826  21.352  25.547  1.00  0.00    -0.008 A 
ATOM     15  C   UNL A   1      35.575  23.262  26.370  1.00  0.00     0.018 A 
ATOM     16  C   UNL A   1      36.869  19.952  25.000  1.00  0.00     0.048 C 
ATOM     17  C   UNL A   1      35.610  21.934  25.936  1.00  0.00     0.130 A 
ATOM     18  C   UNL A   1      34.299  23.906  26.626  1.00  0.00     0.027 C 
ATOM     19  O   UNL A   1      34.496  21.146  25.858  1.00  0.00    -0.475 OA
ATOM     20  C   UNL A   1      33.183  21.747  26.002  1.00  0.00     0.316 C 
BRANCH  20  21
ATOM     21  C   UNL A   1      32.392  21.502  24.711  1.00  0.00     0.430 C 
ATOM     22  F   UNL A   1      32.632  22.471  23.795  1.00  0.00    -0.167 F 
ATOM     23  F   UNL A   1      32.735  20.328  24.130  1.00  0.00    -0.167 F 
ATOM     24  F   UNL A   1      31.059  21.470  24.932  1.00  0.00    -0.167 F 
ENDBRANCH  20  21
ENDBRANCH   7   9
ENDBRANCH   6   7
ENDBRANCH   5   6
ENDBRANCH   4   5
ENDBRANCH   3   4
ENDBRANCH   2   3
ENDBRANCH   1   2
BRANCH   1  25
ATOM     25  O   UNL A   1      32.469  29.180  24.257  1.00  0.00    -0.376 OA
BRANCH  25  26
ATOM     26  C   UNL A   1      31.563  29.593  25.269  1.00  0.00     0.202 C 
BRANCH  26  27
ATOM     27  C   UNL A   1      31.800  30.795  26.204  1.00  0.00     0.261 C 
BRANCH  27  28
ATOM     28  O   UNL A   1      32.756  30.620  27.257  1.00  0.00    -0.460 OA
BRANCH  28  29
ATOM     29  C   UNL A   1      33.515  31.711  27.546  1.00  0.00     0.338 C 
ATOM     30  O   UNL A   1      33.160  32.869  27.601  1.00  0.00    -0.246 OA
BRANCH  29  31
ATOM     31  C   UNL A   1      34.844  31.252  28.000  1.00  0.00     0.060 A 
ATOM     32  C   UNL A   1      35.011  29.901  28.337  1.00  0.00     0.016 A 
ATOM     33  C   UNL A   1      35.911  32.145  28.101  1.00  0.00     0.016 A 
ATOM     34  C   UNL A   1      36.251  29.437  28.773  1.00  0.00     0.010 A 
ATOM     35  C   UNL A   1      37.145  31.685  28.572  1.00  0.00     0.010 A 
ATOM     36  C   UNL A   1      37.315  30.334  28.931  1.00  0.00    -0.014 A 
BRANCH  36  37
ATOM     37  C   UNL A   1      38.521  29.895  29.672  1.00  0.00     0.031 A 
ATOM     38  C   UNL A   1      38.736  30.435  31.059  1.00  0.00     0.074 A 
ATOM     39  C   UNL A   1      39.379  28.994  29.157  1.00  0.00     0.049 A 
ATOM     40  N   UNL A   1      39.695  30.181  31.911  1.00  0.00    -0.248 NA
ATOM     41  C   UNL A   1      37.729  31.389  31.552  1.00  0.00     0.031 C 
ATOM     42  C   UNL A   1      39.257  28.365  27.845  1.00  0.00     0.029 A 
ATOM     43  N   UNL A   1      40.523  28.448  29.689  1.00  0.00    -0.354 N 
ATOM     44  C   UNL A   1      39.398  30.931  33.041  1.00  0.00     0.074 A 
ATOM     45  C   UNL A   1      38.201  31.688  32.752  1.00  0.00     0.031 C 
ATOM     46  C   UNL A   1      40.285  27.516  27.673  1.00  0.00     0.029 A 
ATOM     47  C   UNL A   1      41.152  27.559  28.852  1.00  0.00     0.049 A 
ATOM     48  H   UNL A   1      40.860  28.675  30.586  1.00  0.00     0.167 HD
ATOM     49  C   UNL A   1      40.053  30.966  34.225  1.00  0.00     0.037 A 
ATOM     50  C   UNL A   1      42.299  26.869  29.019  1.00  0.00     0.037 A 
ATOM     51  C   UNL A   1      41.242  30.215  34.513  1.00  0.00     0.049 A 
ATOM     52  C   UNL A   1      43.072  27.013  30.309  1.00  0.00     0.074 A 
ATOM     53  C   UNL A   1      41.967  30.175  35.691  1.00  0.00     0.029 A 
ATOM     54  N   UNL A   1      41.887  29.380  33.615  1.00  0.00    -0.354 N 
ATOM     55  N   UNL A   1      42.759  27.686  31.391  1.00  0.00    -0.248 NA
ATOM     56  C   UNL A   1      44.359  26.306  30.402  1.00  0.00     0.031 C 
ATOM     57  C   UNL A   1      43.082  29.360  35.487  1.00  0.00     0.029 A 
ATOM     58  C   UNL A   1      43.024  28.850  34.199  1.00  0.00     0.049 A 
ATOM     59  H   UNL A   1      41.582  29.191  32.698  1.00  0.00     0.167 HD
ATOM     60  C   UNL A   1      43.794  27.467  32.293  1.00  0.00     0.074 A 
ATOM     61  C   UNL A   1      44.737  26.583  31.643  1.00  0.00     0.031 C 
ATOM     62  C   UNL A   1      43.950  27.961  33.545  1.00  0.00     0.037 A 
BRANCH  49  63
ATOM     63  C   UNL A   1      39.496  31.844  35.305  1.00  0.00     0.064 A 
ATOM     64  C   UNL A   1      38.598  31.344  36.261  1.00  0.00     0.173 A 
ATOM     65  C   UNL A   1      39.916  33.176  35.429  1.00  0.00     0.173 A 
ATOM     66  F   UNL A   1      38.156  30.080  36.176  1.00  0.00    -0.203 F 
ATOM     67  C   UNL A   1      38.133  32.151  37.295  1.00  0.00     0.198 A 
ATOM     68  C   UNL A   1      39.472  33.970  36.482  1.00  0.00     0.198 A 
ATOM     69  F   UNL A   1      40.777  33.699  34.543  1.00  0.00    -0.203 F 
ATOM     70  F   UNL A   1      37.251  31.663  38.178  1.00  0.00    -0.200 F 
ATOM     71  C   UNL A   1      38.579  33.459  37.412  1.00  0.00     0.200 A 
ATOM     72  F   UNL A   1      39.916  35.229  36.603  1.00  0.00    -0.200 F 
ATOM     73  F   UNL A   1      38.147  34.228  38.420  1.00  0.00    -0.200 F 
ENDBRANCH  49  63
BRANCH  50  74
ATOM     74  C   UNL A   1      42.793  25.970  27.941  1.00  0.00     0.064 A 
ATOM     75  C   UNL A   1      43.684  26.437  26.965  1.00  0.00     0.173 A 
ATOM     76  C   UNL A   1      42.371  24.635  27.850  1.00  0.00     0.173 A 
ATOM     77  F   UNL A   1      44.093  27.714  26.988  1.00  0.00    -0.203 F 
ATOM     78  C   UNL A   1      44.128  25.606  25.936  1.00  0.00     0.198 A 
ATOM     79  C   UNL A   1      42.838  23.798  26.839  1.00  0.00     0.198 A 
ATOM     80  F   UNL A   1      41.510  24.139  28.752  1.00  0.00    -0.203 F 
ATOM     81  F   UNL A   1      44.945  26.092  24.992  1.00  0.00    -0.200 F 
ATOM     82  C   UNL A   1      43.711  24.286  25.878  1.00  0.00     0.200 A 
ATOM     83  F   UNL A   1      42.438  22.519  26.792  1.00  0.00    -0.200 F 
ATOM     84  F   UNL A   1      44.142  23.487  24.894  1.00  0.00    -0.200 F 
ENDBRANCH  50  74
BRANCH  62  85
ATOM     85  C   UNL A   1      45.178  27.572  34.318  1.00  0.00     0.064 A 
ATOM     86  C   UNL A   1      46.324  28.378  34.310  1.00  0.00     0.173 A 
ATOM     87  C   UNL A   1      45.157  26.466  35.182  1.00  0.00     0.173 A 
ATOM     88  F   UNL A   1      46.397  29.441  33.494  1.00  0.00    -0.203 F 
ATOM     89  C   UNL A   1      47.405  28.094  35.142  1.00  0.00     0.198 A 
ATOM     90  C   UNL A   1      46.226  26.201  36.033  1.00  0.00     0.198 A 
ATOM     91  F   UNL A   1      44.079  25.670  35.236  1.00  0.00    -0.203 F 
ATOM     92  F   UNL A   1      48.496  28.871  35.109  1.00  0.00    -0.200 F 
ATOM     93  C   UNL A   1      47.348  27.016  36.014  1.00  0.00     0.200 A 
ATOM     94  F   UNL A   1      46.161  25.173  36.891  1.00  0.00    -0.200 F 
ATOM     95  F   UNL A   1      48.373  26.767  36.841  1.00  0.00    -0.200 F 
ENDBRANCH  62  85
ENDBRANCH  36  37
ENDBRANCH  29  31
ENDBRANCH  28  29
ENDBRANCH  27  28
ENDBRANCH  26  27
ENDBRANCH  25  26
ENDBRANCH   1  25
TORSDOF 18
ENDMDL
MODEL 3
REMARK VINA RESULT:     -11.1      1.653      2.287
REMARK SMILES Cc1cc(C)c2c(c1)C=C(C(=O)OCCOCCOCCOC(=O)c1ccc(-c3c4nc(c(-c5c(F)c(F)c(F)c(F)c5F)c5ccc([nH]5)c(-c5c(F)c(F)c(F)c(F)c5F)c5nc(c(-c6c(F)c(F)c(F)c(F)c6F)c6ccc3[nH]6)C=C5)C=C4)cc1)[C@@H](C(F)(F)F)O2
REMARK SMILES IDX 18 1 17 2 16 3 15 4 14 5 13 6 11 7 12 8 10 9 1 10 2 11 3 12
REMARK SMILES IDX 8 13 4 14 7 15 5 16 6 17 9 18 93 19 88 20 89 21 90 22 91 23
REMARK SMILES IDX 92 24 19 25 20 26 21 27 22 28 23 29 24 30 25 31 26 32 87 33
REMARK SMILES IDX 27 34 86 35 28 36 29 37 30 38 80 39 31 40 85 41 79 42 81 43
REMARK SMILES IDX 32 44 84 45 78 46 77 47 33 49 65 50 45 51 64 52 46 53 49 54
REMARK SMILES IDX 63 55 82 56 47 57 48 58 62 60 83 61 50 62 34 63 35 64 43 65
REMARK SMILES IDX 36 66 37 67 41 68 44 69 38 70 39 71 42 72 40 73 66 74 67 75
REMARK SMILES IDX 75 76 68 77 69 78 73 79 76 80 70 81 71 82 74 83 72 84 51 85
REMARK SMILES IDX 52 86 60 87 53 88 54 89 58 90 61 91 55 92 56 93 59 94 57 95
REMARK H PARENT 81 48 49 59
REMARK Flexibility Score: inf
ROOT
ATOM      1  C   UNL A   1      32.255  28.920  23.734  1.00  0.00     0.188 C 
ENDROOT
BRANCH   1   2
ATOM      2  C   UNL A   1      30.806  28.400  23.604  1.00  0.00     0.188 C 
BRANCH   2   3
ATOM      3  O   UNL A   1      30.563  27.024  23.415  1.00  0.00    -0.376 OA
BRANCH   3   4
ATOM      4  C   UNL A   1      29.884  26.260  24.395  1.00  0.00     0.202 C 
BRANCH   4   5
ATOM      5  C   UNL A   1      30.571  25.287  25.367  1.00  0.00     0.261 C 
BRANCH   5   6
ATOM      6  O   UNL A   1      31.266  24.184  24.778  1.00  0.00    -0.460 OA
BRANCH   6   7
ATOM      7  C   UNL A   1      31.182  23.017  25.464  1.00  0.00     0.338 C 
ATOM      8  O   UNL A   1      30.233  22.626  26.124  1.00  0.00    -0.246 OA
BRANCH   7   9
ATOM      9  C   UNL A   1      32.364  22.183  25.171  1.00  0.00     0.087 C 
ATOM     10  C   UNL A   1      33.999  16.292  24.431  1.00  0.00     0.044 C 
ATOM     11  C   UNL A   1      34.193  17.778  24.512  1.00  0.00    -0.050 A 
ATOM     12  C   UNL A   1      35.482  18.311  24.628  1.00  0.00     0.010 A 
ATOM     13  C   UNL A   1      33.093  18.642  24.559  1.00  0.00     0.015 A 
ATOM     14  C   UNL A   1      35.684  19.693  24.763  1.00  0.00    -0.008 A 
ATOM     15  C   UNL A   1      33.279  20.020  24.722  1.00  0.00     0.018 A 
ATOM     16  C   UNL A   1      37.076  20.236  24.922  1.00  0.00     0.048 C 
ATOM     17  C   UNL A   1      34.571  20.547  24.793  1.00  0.00     0.130 A 
ATOM     18  C   UNL A   1      32.131  20.891  24.906  1.00  0.00     0.027 C 
ATOM     19  O   UNL A   1      34.825  21.886  24.902  1.00  0.00    -0.475 OA
ATOM     20  C   UNL A   1      33.735  22.801  25.188  1.00  0.00     0.316 C 
BRANCH  20  21
ATOM     21  C   UNL A   1      34.034  23.514  26.512  1.00  0.00     0.430 C 
ATOM     22  F   UNL A   1      35.324  23.336  26.888  1.00  0.00    -0.167 F 
ATOM     23  F   UNL A   1      33.840  24.851  26.415  1.00  0.00    -0.167 F 
ATOM     24  F   UNL A   1      33.250  23.064  27.518  1.00  0.00    -0.167 F 
ENDBRANCH  20  21
ENDBRANCH   7   9
ENDBRANCH   6   7
ENDBRANCH   5   6
ENDBRANCH   4   5
ENDBRANCH   3   4
ENDBRANCH   2   3
ENDBRANCH   1   2
BRANCH   1  25
ATOM     25  O   UNL A   1      32.675  29.546  24.925  1.00  0.00    -0.376 OA
BRANCH  25  26
ATOM     26  C   UNL A   1      31.710  30.115  25.796  1.00  0.00     0.202 C 
BRANCH  26  27
ATOM     27  C   UNL A   1      31.832  31.517  26.424  1.00  0.00     0.261 C 
BRANCH  27  28
ATOM     28  O   UNL A   1      32.593  31.624  27.634  1.00  0.00    -0.460 OA
BRANCH  28  29
ATOM     29  C   UNL A   1      33.517  32.622  27.659  1.00  0.00     0.338 C 
ATOM     30  O   UNL A   1      33.327  33.812  27.525  1.00  0.00    -0.246 OA
BRANCH  29  31
ATOM     31  C   UNL A   1      34.811  32.055  28.091  1.00  0.00     0.060 A 
ATOM     32  C   UNL A   1      34.893  30.677  28.338  1.00  0.00     0.016 A 
ATOM     33  C   UNL A   1      35.927  32.873  28.261  1.00  0.00     0.016 A 
ATOM     34  C   UNL A   1      36.098  30.111  28.751  1.00  0.00     0.010 A 
ATOM     35  C   UNL A   1      37.126  32.310  28.710  1.00  0.00     0.010 A 
ATOM     36  C   UNL A   1      37.211  30.931  28.977  1.00  0.00    -0.014 A 
BRANCH  36  37
ATOM     37  C   UNL A   1      38.381  30.371  29.697  1.00  0.00     0.031 A 
ATOM     38  C   UNL A   1      38.608  30.799  31.120  1.00  0.00     0.074 A 
ATOM     39  C   UNL A   1      39.192  29.461  29.127  1.00  0.00     0.049 A 
ATOM     40  N   UNL A   1      39.539  30.431  31.961  1.00  0.00    -0.248 NA
ATOM     41  C   UNL A   1      37.651  31.773  31.670  1.00  0.00     0.031 C 
ATOM     42  C   UNL A   1      39.052  28.934  27.772  1.00  0.00     0.029 A 
ATOM     43  N   UNL A   1      40.296  28.814  29.629  1.00  0.00    -0.354 N 
ATOM     44  C   UNL A   1      39.271  31.115  33.138  1.00  0.00     0.074 A 
ATOM     45  C   UNL A   1      38.123  31.958  32.893  1.00  0.00     0.031 C 
ATOM     46  C   UNL A   1      40.032  28.041  27.549  1.00  0.00     0.029 A 
ATOM     47  C   UNL A   1      40.885  27.950  28.736  1.00  0.00     0.049 A 
ATOM     48  H   UNL A   1      40.633  28.957  30.543  1.00  0.00     0.167 HD
ATOM     49  C   UNL A   1      39.910  31.028  34.328  1.00  0.00     0.037 A 
ATOM     50  C   UNL A   1      41.988  27.185  28.865  1.00  0.00     0.037 A 
ATOM     51  C   UNL A   1      41.051  30.192  34.573  1.00  0.00     0.049 A 
ATOM     52  C   UNL A   1      42.751  27.193  30.169  1.00  0.00     0.074 A 
ATOM     53  C   UNL A   1      41.757  30.027  35.752  1.00  0.00     0.029 A 
ATOM     54  N   UNL A   1      41.659  29.386  33.623  1.00  0.00    -0.354 N 
ATOM     55  N   UNL A   1      42.463  27.805  31.293  1.00  0.00    -0.248 NA
ATOM     56  C   UNL A   1      43.994  26.408  30.223  1.00  0.00     0.031 C 
ATOM     57  C   UNL A   1      42.827  29.165  35.500  1.00  0.00     0.029 A 
ATOM     58  C   UNL A   1      42.756  28.751  34.179  1.00  0.00     0.049 A 
ATOM     59  H   UNL A   1      41.356  29.280  32.692  1.00  0.00     0.167 HD
ATOM     60  C   UNL A   1      43.471  27.463  32.186  1.00  0.00     0.074 A 
ATOM     61  C   UNL A   1      44.371  26.575  31.484  1.00  0.00     0.031 C 
ATOM     62  C   UNL A   1      43.638  27.858  33.472  1.00  0.00     0.037 A 
BRANCH  49  63
ATOM     63  C   UNL A   1      39.390  31.859  35.462  1.00  0.00     0.064 A 
ATOM     64  C   UNL A   1      38.496  31.329  36.404  1.00  0.00     0.173 A 
ATOM     65  C   UNL A   1      39.843  33.172  35.651  1.00  0.00     0.173 A 
ATOM     66  F   UNL A   1      38.024  30.081  36.260  1.00  0.00    -0.203 F 
ATOM     67  C   UNL A   1      38.066  32.088  37.488  1.00  0.00     0.198 A 
ATOM     68  C   UNL A   1      39.434  33.919  36.752  1.00  0.00     0.198 A 
ATOM     69  F   UNL A   1      40.702  33.724  34.780  1.00  0.00    -0.203 F 
ATOM     70  F   UNL A   1      37.186  31.573  38.358  1.00  0.00    -0.200 F 
ATOM     71  C   UNL A   1      38.543  33.378  37.667  1.00  0.00     0.200 A 
ATOM     72  F   UNL A   1      39.908  35.159  36.933  1.00  0.00    -0.200 F 
ATOM     73  F   UNL A   1      38.144  34.100  38.723  1.00  0.00    -0.200 F 
ENDBRANCH  49  63
BRANCH  50  74
ATOM     74  C   UNL A   1      42.444  26.337  27.730  1.00  0.00     0.064 A 
ATOM     75  C   UNL A   1      41.908  25.058  27.525  1.00  0.00     0.173 A 
ATOM     76  C   UNL A   1      43.435  26.777  26.839  1.00  0.00     0.173 A 
ATOM     77  F   UNL A   1      40.980  24.579  28.367  1.00  0.00    -0.203 F 
ATOM     78  C   UNL A   1      42.351  24.249  26.480  1.00  0.00     0.198 A 
ATOM     79  C   UNL A   1      43.856  25.978  25.778  1.00  0.00     0.198 A 
ATOM     80  F   UNL A   1      43.989  27.988  26.995  1.00  0.00    -0.203 F 
ATOM     81  F   UNL A   1      41.853  23.014  26.334  1.00  0.00    -0.200 F 
ATOM     82  C   UNL A   1      43.319  24.713  25.602  1.00  0.00     0.200 A 
ATOM     83  F   UNL A   1      44.787  26.435  24.927  1.00  0.00    -0.200 F 
ATOM     84  F   UNL A   1      43.740  23.937  24.594  1.00  0.00    -0.200 F 
ENDBRANCH  50  74
BRANCH  62  85
ATOM     85  C   UNL A   1      44.832  27.346  34.226  1.00  0.00     0.064 A 
ATOM     86  C   UNL A   1      44.797  26.110  34.887  1.00  0.00     0.173 A 
ATOM     87  C   UNL A   1      46.058  28.027  34.169  1.00  0.00     0.173 A 
ATOM     88  F   UNL A   1      43.647  25.426  34.978  1.00  0.00    -0.203 F 
ATOM     89  C   UNL A   1      45.947  25.572  35.458  1.00  0.00     0.198 A 
ATOM     90  C   UNL A   1      47.212  27.472  34.715  1.00  0.00     0.198 A 
ATOM     91  F   UNL A   1      46.148  29.207  33.538  1.00  0.00    -0.203 F 
ATOM     92  F   UNL A   1      45.888  24.394  36.096  1.00  0.00    -0.200 F 
ATOM     93  C   UNL A   1      47.156  26.245  35.358  1.00  0.00     0.200 A 
ATOM     94  F   UNL A   1      48.384  28.113  34.598  1.00  0.00    -0.200 F 
ATOM     95  F   UNL A   1      48.269  25.707  35.876  1.00  0.00    -0.200 F 
ENDBRANCH  62  85
ENDBRANCH  36  37
ENDBRANCH  29  31
ENDBRANCH  28  29
ENDBRANCH  27  28
ENDBRANCH  26  27
ENDBRANCH  25  26
ENDBRANCH   1  25
TORSDOF 18
ENDMDL
