MODEL 1
REMARK VINA RESULT:     -10.9      0.000      0.000
REMARK SMILES C[C@H](NC(=O)c1c(C(=O)OCCOCCOCCOC(=O)c2ccc(-c3c4nc(c(-c5c(F)c(F)c(F)c(F)c5F)c5ccc([nH]5)c(-c5c(F)c(F)c(F)c(F)c5F)c5nc(c(-c6c(F)c(F)c(F)c(F)c6F)c6ccc3[nH]6)C=C5)C=C4)cc2)cnn1C)[C@]12C[C@H]3C[C@H](C[C@H](C3)C1)C2
REMARK SMILES IDX 14 1 13 2 12 3 11 4 10 5 8 6 9 7 7 8 6 9 87 10 85 11 86 12
REMARK SMILES IDX 88 13 4 14 3 15 5 17 2 18 1 19 89 20 90 21 97 22 98 23 91 24
REMARK SMILES IDX 95 25 93 26 92 27 96 28 94 29 15 30 16 31 17 32 18 33 19 34
REMARK SMILES IDX 20 35 21 36 22 37 23 38 84 39 24 40 83 41 25 42 26 43 27 44
REMARK SMILES IDX 77 45 28 46 82 47 76 48 78 49 29 50 81 51 75 52 74 53 30 55
REMARK SMILES IDX 62 56 42 57 61 58 43 59 46 60 60 61 79 62 44 63 45 64 59 66
REMARK SMILES IDX 80 67 47 68 31 69 32 70 40 71 33 72 34 73 38 74 41 75 35 76
REMARK SMILES IDX 36 77 39 78 37 79 63 80 64 81 72 82 65 83 66 84 70 85 73 86
REMARK SMILES IDX 67 87 68 88 71 89 69 90 48 91 49 92 57 93 50 94 51 95 55 96
REMARK SMILES IDX 58 97 52 98 53 99 56 100 54 101
REMARK H PARENT 3 16 78 54 46 65
REMARK Flexibility Score: inf
ROOT
ATOM      1  C   UNL A   1      36.420  32.732  28.420  1.00  0.00     0.188 C 
ENDROOT
BRANCH   1   2
ATOM      2  O   UNL A   1      35.530  31.808  27.803  1.00  0.00    -0.376 OA
BRANCH   2   3
ATOM      3  C   UNL A   1      35.875  30.438  27.679  1.00  0.00     0.202 C 
BRANCH   3   4
ATOM      4  C   UNL A   1      34.764  29.379  27.679  1.00  0.00     0.261 C 
BRANCH   4   5
ATOM      5  O   UNL A   1      33.739  29.590  26.696  1.00  0.00    -0.460 OA
BRANCH   5   6
ATOM      6  C   UNL A   1      33.618  28.593  25.775  1.00  0.00     0.342 C 
ATOM      7  O   UNL A   1      34.209  27.526  25.831  1.00  0.00    -0.246 OA
BRANCH   6   8
ATOM      8  C   UNL A   1      32.585  28.821  24.777  1.00  0.00     0.111 A 
ATOM      9  C   UNL A   1      32.413  28.334  23.475  1.00  0.00     0.140 A 
ATOM     10  N   UNL A   1      31.080  28.598  23.242  1.00  0.00    -0.262 N 
ATOM     11  C   UNL A   1      31.463  29.649  25.005  1.00  0.00     0.151 A 
ATOM     12  N   UNL A   1      30.591  29.599  24.002  1.00  0.00    -0.180 NA
ATOM     13  C   UNL A   1      30.112  27.750  22.580  1.00  0.00     0.174 C 
BRANCH   9  14
ATOM     14  C   UNL A   1      33.267  27.442  22.738  1.00  0.00     0.270 C 
ATOM     15  N   UNL A   1      33.371  26.097  22.984  1.00  0.00    -0.348 N 
ATOM     16  H   UNL A   1      34.064  25.715  22.398  1.00  0.00     0.164 HD
ATOM     17  O   UNL A   1      33.980  27.864  21.827  1.00  0.00    -0.267 OA
BRANCH  15  18
ATOM     18  C   UNL A   1      32.801  25.022  23.826  1.00  0.00     0.085 C 
ATOM     19  C   UNL A   1      31.496  24.394  23.364  1.00  0.00     0.031 C 
BRANCH  18  20
ATOM     20  C   UNL A   1      33.832  23.980  24.432  1.00  0.00    -0.009 C 
ATOM     21  C   UNL A   1      33.787  24.107  25.993  1.00  0.00     0.012 C 
ATOM     22  C   UNL A   1      35.301  24.242  24.004  1.00  0.00     0.012 C 
ATOM     23  C   UNL A   1      33.492  22.499  24.081  1.00  0.00     0.012 C 
ATOM     24  C   UNL A   1      34.752  23.127  26.679  1.00  0.00    -0.010 C 
ATOM     25  C   UNL A   1      36.267  23.248  24.681  1.00  0.00    -0.010 C 
ATOM     26  C   UNL A   1      34.448  21.516  24.778  1.00  0.00    -0.010 C 
ATOM     27  C   UNL A   1      34.361  21.693  26.300  1.00  0.00     0.007 C 
ATOM     28  C   UNL A   1      36.185  23.412  26.204  1.00  0.00     0.007 C 
ATOM     29  C   UNL A   1      35.876  21.807  24.318  1.00  0.00     0.007 C 
ENDBRANCH  18  20
ENDBRANCH  15  18
ENDBRANCH   9  14
ENDBRANCH   6   8
ENDBRANCH   5   6
ENDBRANCH   4   5
ENDBRANCH   3   4
ENDBRANCH   2   3
ENDBRANCH   1   2
BRANCH   1  30
ATOM     30  C   UNL A   1      35.914  34.046  29.054  1.00  0.00     0.188 C 
BRANCH  30  31
ATOM     31  O   UNL A   1      35.016  34.785  28.266  1.00  0.00    -0.376 OA
BRANCH  31  32
ATOM     32  C   UNL A   1      33.625  34.769  28.514  1.00  0.00     0.202 C 
BRANCH  32  33
ATOM     33  C   UNL A   1      32.898  35.624  29.566  1.00  0.00     0.261 C 
BRANCH  33  34
ATOM     34  O   UNL A   1      32.502  34.999  30.786  1.00  0.00    -0.460 OA
BRANCH  34  35
ATOM     35  C   UNL A   1      32.825  35.644  31.931  1.00  0.00     0.338 C 
ATOM     36  O   UNL A   1      32.222  36.547  32.478  1.00  0.00    -0.246 OA
BRANCH  35  37
ATOM     37  C   UNL A   1      34.008  34.980  32.507  1.00  0.00     0.060 A 
ATOM     38  C   UNL A   1      35.273  35.553  32.325  1.00  0.00     0.016 A 
ATOM     39  C   UNL A   1      33.860  33.780  33.204  1.00  0.00     0.016 A 
ATOM     40  C   UNL A   1      36.404  34.907  32.824  1.00  0.00     0.010 A 
ATOM     41  C   UNL A   1      34.995  33.127  33.688  1.00  0.00     0.010 A 
ATOM     42  C   UNL A   1      36.274  33.674  33.479  1.00  0.00    -0.014 A 
BRANCH  42  43
ATOM     43  C   UNL A   1      37.473  32.867  33.807  1.00  0.00     0.031 A 
ATOM     44  C   UNL A   1      38.208  33.158  35.086  1.00  0.00     0.074 A 
ATOM     45  C   UNL A   1      37.910  31.902  32.979  1.00  0.00     0.049 A 
ATOM     46  N   UNL A   1      39.332  32.659  35.535  1.00  0.00    -0.248 NA
ATOM     47  C   UNL A   1      37.592  34.154  35.979  1.00  0.00     0.031 C 
ATOM     48  C   UNL A   1      37.265  31.506  31.730  1.00  0.00     0.029 A 
ATOM     49  N   UNL A   1      39.017  31.093  33.061  1.00  0.00    -0.354 N 
ATOM     50  C   UNL A   1      39.554  33.274  36.760  1.00  0.00     0.074 A 
ATOM     51  C   UNL A   1      38.472  34.212  36.967  1.00  0.00     0.031 C 
ATOM     52  C   UNL A   1      38.004  30.546  31.145  1.00  0.00     0.029 A 
ATOM     53  C   UNL A   1      39.187  30.286  31.963  1.00  0.00     0.049 A 
ATOM     54  H   UNL A   1      39.629  31.094  33.832  1.00  0.00     0.167 HD
ATOM     55  C   UNL A   1      40.563  33.065  37.638  1.00  0.00     0.037 A 
ATOM     56  C   UNL A   1      40.202  29.458  31.645  1.00  0.00     0.037 A 
ATOM     57  C   UNL A   1      41.647  32.144  37.421  1.00  0.00     0.049 A 
ATOM     58  C   UNL A   1      41.359  29.305  32.603  1.00  0.00     0.074 A 
ATOM     59  C   UNL A   1      42.726  31.871  38.243  1.00  0.00     0.029 A 
ATOM     60  N   UNL A   1      41.790  31.348  36.294  1.00  0.00    -0.354 N 
ATOM     61  N   UNL A   1      41.556  29.878  33.766  1.00  0.00    -0.248 NA
ATOM     62  C   UNL A   1      42.433  28.384  32.203  1.00  0.00     0.031 C 
ATOM     63  C   UNL A   1      43.546  30.942  37.593  1.00  0.00     0.029 A 
ATOM     64  C   UNL A   1      42.948  30.595  36.392  1.00  0.00     0.049 A 
ATOM     65  H   UNL A   1      41.161  31.323  35.536  1.00  0.00     0.167 HD
ATOM     66  C   UNL A   1      42.753  29.365  34.249  1.00  0.00     0.074 A 
ATOM     67  C   UNL A   1      43.232  28.422  33.261  1.00  0.00     0.031 C 
ATOM     68  C   UNL A   1      43.401  29.649  35.406  1.00  0.00     0.037 A 
BRANCH  55  69
ATOM     69  C   UNL A   1      40.546  33.858  38.912  1.00  0.00     0.064 A 
ATOM     70  C   UNL A   1      41.241  35.071  39.029  1.00  0.00     0.173 A 
ATOM     71  C   UNL A   1      39.794  33.423  40.013  1.00  0.00     0.173 A 
ATOM     72  F   UNL A   1      41.988  35.523  38.009  1.00  0.00    -0.203 F 
ATOM     73  C   UNL A   1      41.202  35.808  40.209  1.00  0.00     0.198 A 
ATOM     74  C   UNL A   1      39.733  34.178  41.181  1.00  0.00     0.198 A 
ATOM     75  F   UNL A   1      39.108  32.272  39.953  1.00  0.00    -0.203 F 
ATOM     76  F   UNL A   1      41.908  36.943  40.312  1.00  0.00    -0.200 F 
ATOM     77  C   UNL A   1      40.441  35.367  41.280  1.00  0.00     0.200 A 
ATOM     78  F   UNL A   1      38.987  33.756  42.212  1.00  0.00    -0.200 F 
ATOM     79  F   UNL A   1      40.395  36.084  42.412  1.00  0.00    -0.200 F 
ENDBRANCH  55  69
BRANCH  56  80
ATOM     80  C   UNL A   1      40.195  28.727  30.349  1.00  0.00     0.064 A 
ATOM     81  C   UNL A   1      40.785  29.275  29.202  1.00  0.00     0.173 A 
ATOM     82  C   UNL A   1      39.554  27.485  30.223  1.00  0.00     0.173 A 
ATOM     83  F   UNL A   1      41.383  30.473  29.263  1.00  0.00    -0.203 F 
ATOM     84  C   UNL A   1      40.707  28.624  27.971  1.00  0.00     0.198 A 
ATOM     85  C   UNL A   1      39.506  26.819  28.999  1.00  0.00     0.198 A 
ATOM     86  F   UNL A   1      38.968  26.918  31.288  1.00  0.00    -0.203 F 
ATOM     87  F   UNL A   1      41.222  29.202  26.878  1.00  0.00    -0.200 F 
ATOM     88  C   UNL A   1      40.072  27.395  27.872  1.00  0.00     0.200 A 
ATOM     89  F   UNL A   1      38.897  25.629  28.910  1.00  0.00    -0.200 F 
ATOM     90  F   UNL A   1      39.990  26.774  26.688  1.00  0.00    -0.200 F 
ENDBRANCH  56  80
BRANCH  68  91
ATOM     91  C   UNL A   1      44.671  28.898  35.692  1.00  0.00     0.064 A 
ATOM     92  C   UNL A   1      44.667  27.671  36.371  1.00  0.00     0.173 A 
ATOM     93  C   UNL A   1      45.904  29.394  35.238  1.00  0.00     0.173 A 
ATOM     94  F   UNL A   1      43.518  27.160  36.835  1.00  0.00    -0.203 F 
ATOM     95  C   UNL A   1      45.854  26.983  36.611  1.00  0.00     0.198 A 
ATOM     96  C   UNL A   1      47.084  28.688  35.452  1.00  0.00     0.198 A 
ATOM     97  F   UNL A   1      45.962  30.559  34.574  1.00  0.00    -0.203 F 
ATOM     98  F   UNL A   1      45.833  25.836  37.306  1.00  0.00    -0.200 F 
ATOM     99  C   UNL A   1      47.059  27.487  36.145  1.00  0.00     0.200 A 
ATOM    100  F   UNL A   1      48.245  29.168  34.987  1.00  0.00    -0.200 F 
ATOM    101  F   UNL A   1      48.199  26.818  36.369  1.00  0.00    -0.200 F 
ENDBRANCH  68  91
ENDBRANCH  42  43
ENDBRANCH  35  37
ENDBRANCH  34  35
ENDBRANCH  33  34
ENDBRANCH  32  33
ENDBRANCH  31  32
ENDBRANCH  30  31
ENDBRANCH   1  30
TORSDOF 20
ENDMDL
MODEL 2
REMARK VINA RESULT:     -10.5      0.876      2.044
REMARK SMILES C[C@H](NC(=O)c1c(C(=O)OCCOCCOCCOC(=O)c2ccc(-c3c4nc(c(-c5c(F)c(F)c(F)c(F)c5F)c5ccc([nH]5)c(-c5c(F)c(F)c(F)c(F)c5F)c5nc(c(-c6c(F)c(F)c(F)c(F)c6F)c6ccc3[nH]6)C=C5)C=C4)cc2)cnn1C)[C@]12C[C@H]3C[C@H](C[C@H](C3)C1)C2
REMARK SMILES IDX 14 1 13 2 12 3 11 4 10 5 8 6 9 7 7 8 6 9 87 10 85 11 86 12
REMARK SMILES IDX 88 13 4 14 3 15 5 17 2 18 1 19 89 20 90 21 97 22 98 23 91 24
REMARK SMILES IDX 95 25 93 26 92 27 96 28 94 29 15 30 16 31 17 32 18 33 19 34
REMARK SMILES IDX 20 35 21 36 22 37 23 38 84 39 24 40 83 41 25 42 26 43 27 44
REMARK SMILES IDX 77 45 28 46 82 47 76 48 78 49 29 50 81 51 75 52 74 53 30 55
REMARK SMILES IDX 62 56 42 57 61 58 43 59 46 60 60 61 79 62 44 63 45 64 59 66
REMARK SMILES IDX 80 67 47 68 31 69 32 70 40 71 33 72 34 73 38 74 41 75 35 76
REMARK SMILES IDX 36 77 39 78 37 79 63 80 64 81 72 82 65 83 66 84 70 85 73 86
REMARK SMILES IDX 67 87 68 88 71 89 69 90 48 91 49 92 57 93 50 94 51 95 55 96
REMARK SMILES IDX 58 97 52 98 53 99 56 100 54 101
REMARK H PARENT 3 16 78 54 46 65
REMARK Flexibility Score: inf
ROOT
ATOM      1  C   UNL A   1      34.857  31.256  28.036  1.00  0.00     0.188 C 
ENDROOT
BRANCH   1   2
ATOM      2  O   UNL A   1      33.857  30.579  27.283  1.00  0.00    -0.376 OA
BRANCH   2   3
ATOM      3  C   UNL A   1      34.022  29.220  26.909  1.00  0.00     0.202 C 
BRANCH   3   4
ATOM      4  C   UNL A   1      33.267  28.678  25.687  1.00  0.00     0.261 C 
BRANCH   4   5
ATOM      5  O   UNL A   1      33.097  29.626  24.624  1.00  0.00    -0.460 OA
BRANCH   5   6
ATOM      6  C   UNL A   1      32.837  29.075  23.405  1.00  0.00     0.342 C 
ATOM      7  O   UNL A   1      33.693  28.746  22.600  1.00  0.00    -0.246 OA
BRANCH   6   8
ATOM      8  C   UNL A   1      31.438  28.742  23.183  1.00  0.00     0.111 A 
ATOM      9  C   UNL A   1      30.816  27.590  22.686  1.00  0.00     0.140 A 
ATOM     10  N   UNL A   1      29.513  27.763  23.105  1.00  0.00    -0.262 N 
ATOM     11  C   UNL A   1      30.378  29.624  23.488  1.00  0.00     0.151 A 
ATOM     12  N   UNL A   1      29.188  29.053  23.326  1.00  0.00    -0.180 NA
ATOM     13  C   UNL A   1      28.617  26.764  23.645  1.00  0.00     0.174 C 
BRANCH   9  14
ATOM     14  C   UNL A   1      31.429  26.374  22.226  1.00  0.00     0.270 C 
ATOM     15  N   UNL A   1      32.062  25.473  23.043  1.00  0.00    -0.348 N 
ATOM     16  H   UNL A   1      32.457  24.759  22.492  1.00  0.00     0.164 HD
ATOM     17  O   UNL A   1      31.426  26.080  21.029  1.00  0.00    -0.267 OA
BRANCH  15  18
ATOM     18  C   UNL A   1      32.355  25.204  24.469  1.00  0.00     0.085 C 
ATOM     19  C   UNL A   1      31.169  24.996  25.396  1.00  0.00     0.031 C 
BRANCH  18  20
ATOM     20  C   UNL A   1      33.576  24.237  24.767  1.00  0.00    -0.009 C 
ATOM     21  C   UNL A   1      34.090  23.672  23.400  1.00  0.00     0.012 C 
ATOM     22  C   UNL A   1      33.197  23.013  25.643  1.00  0.00     0.012 C 
ATOM     23  C   UNL A   1      34.780  24.954  25.450  1.00  0.00     0.012 C 
ATOM     24  C   UNL A   1      35.285  22.722  23.581  1.00  0.00    -0.010 C 
ATOM     25  C   UNL A   1      34.402  22.069  25.838  1.00  0.00    -0.010 C 
ATOM     26  C   UNL A   1      35.983  24.010  25.619  1.00  0.00    -0.010 C 
ATOM     27  C   UNL A   1      36.434  23.488  24.249  1.00  0.00     0.007 C 
ATOM     28  C   UNL A   1      34.865  21.544  24.472  1.00  0.00     0.007 C 
ATOM     29  C   UNL A   1      35.564  22.830  26.494  1.00  0.00     0.007 C 
ENDBRANCH  18  20
ENDBRANCH  15  18
ENDBRANCH   9  14
ENDBRANCH   6   8
ENDBRANCH   5   6
ENDBRANCH   4   5
ENDBRANCH   3   4
ENDBRANCH   2   3
ENDBRANCH   1   2
BRANCH   1  30
ATOM     30  C   UNL A   1      34.590  32.630  28.688  1.00  0.00     0.188 C 
BRANCH  30  31
ATOM     31  O   UNL A   1      33.413  33.273  28.270  1.00  0.00    -0.376 OA
BRANCH  31  32
ATOM     32  C   UNL A   1      33.036  34.536  28.780  1.00  0.00     0.202 C 
BRANCH  32  33
ATOM     33  C   UNL A   1      33.848  35.367  29.788  1.00  0.00     0.261 C 
BRANCH  33  34
ATOM     34  O   UNL A   1      33.137  36.197  30.705  1.00  0.00    -0.460 OA
BRANCH  34  35
ATOM     35  C   UNL A   1      32.763  35.628  31.874  1.00  0.00     0.338 C 
ATOM     36  O   UNL A   1      31.651  35.588  32.365  1.00  0.00    -0.246 OA
BRANCH  35  37
ATOM     37  C   UNL A   1      33.933  34.928  32.433  1.00  0.00     0.060 A 
ATOM     38  C   UNL A   1      35.186  35.550  32.397  1.00  0.00     0.016 A 
ATOM     39  C   UNL A   1      33.785  33.647  32.967  1.00  0.00     0.016 A 
ATOM     40  C   UNL A   1      36.308  34.876  32.879  1.00  0.00     0.010 A 
ATOM     41  C   UNL A   1      34.912  32.967  33.433  1.00  0.00     0.010 A 
ATOM     42  C   UNL A   1      36.182  33.568  33.369  1.00  0.00    -0.014 A 
BRANCH  42  43
ATOM     43  C   UNL A   1      37.387  32.757  33.665  1.00  0.00     0.031 A 
ATOM     44  C   UNL A   1      38.150  33.038  34.929  1.00  0.00     0.074 A 
ATOM     45  C   UNL A   1      37.803  31.796  32.822  1.00  0.00     0.049 A 
ATOM     46  N   UNL A   1      39.283  32.534  35.350  1.00  0.00    -0.248 NA
ATOM     47  C   UNL A   1      37.556  34.029  35.841  1.00  0.00     0.031 C 
ATOM     48  C   UNL A   1      37.131  31.409  31.585  1.00  0.00     0.029 A 
ATOM     49  N   UNL A   1      38.911  30.985  32.874  1.00  0.00    -0.354 N 
ATOM     50  C   UNL A   1      39.533  33.141  36.574  1.00  0.00     0.074 A 
ATOM     51  C   UNL A   1      38.457  34.080  36.811  1.00  0.00     0.031 C 
ATOM     52  C   UNL A   1      37.854  30.451  30.978  1.00  0.00     0.029 A 
ATOM     53  C   UNL A   1      39.055  30.184  31.768  1.00  0.00     0.049 A 
ATOM     54  H   UNL A   1      39.539  30.979  33.631  1.00  0.00     0.167 HD
ATOM     55  C   UNL A   1      40.560  32.925  37.428  1.00  0.00     0.037 A 
ATOM     56  C   UNL A   1      40.061  29.356  31.422  1.00  0.00     0.037 A 
ATOM     57  C   UNL A   1      41.638  32.003  37.182  1.00  0.00     0.049 A 
ATOM     58  C   UNL A   1      41.238  29.195  32.354  1.00  0.00     0.074 A 
ATOM     59  C   UNL A   1      42.734  31.723  37.978  1.00  0.00     0.029 A 
ATOM     60  N   UNL A   1      41.754  31.214  36.047  1.00  0.00    -0.354 N 
ATOM     61  N   UNL A   1      41.462  29.760  33.515  1.00  0.00    -0.248 NA
ATOM     62  C   UNL A   1      42.302  28.275  31.924  1.00  0.00     0.031 C 
ATOM     63  C   UNL A   1      43.537  30.797  37.304  1.00  0.00     0.029 A 
ATOM     64  C   UNL A   1      42.913  30.458  36.115  1.00  0.00     0.049 A 
ATOM     65  H   UNL A   1      41.109  31.195  35.303  1.00  0.00     0.167 HD
ATOM     66  C   UNL A   1      42.669  29.242  33.969  1.00  0.00     0.074 A 
ATOM     67  C   UNL A   1      43.124  28.305  32.964  1.00  0.00     0.031 C 
ATOM     68  C   UNL A   1      43.342  29.517  35.113  1.00  0.00     0.037 A 
BRANCH  55  69
ATOM     69  C   UNL A   1      40.573  33.709  38.707  1.00  0.00     0.064 A 
ATOM     70  C   UNL A   1      41.333  34.881  38.840  1.00  0.00     0.173 A 
ATOM     71  C   UNL A   1      39.786  33.310  39.797  1.00  0.00     0.173 A 
ATOM     72  F   UNL A   1      42.116  35.297  37.831  1.00  0.00    -0.203 F 
ATOM     73  C   UNL A   1      41.322  35.612  40.024  1.00  0.00     0.198 A 
ATOM     74  C   UNL A   1      39.754  34.061  40.969  1.00  0.00     0.198 A 
ATOM     75  F   UNL A   1      39.038  32.199  39.722  1.00  0.00    -0.203 F 
ATOM     76  F   UNL A   1      42.088  36.706  40.143  1.00  0.00    -0.200 F 
ATOM     77  C   UNL A   1      40.525  35.207  41.084  1.00  0.00     0.200 A 
ATOM     78  F   UNL A   1      38.974  33.674  41.990  1.00  0.00    -0.200 F 
ATOM     79  F   UNL A   1      40.506  35.919  42.220  1.00  0.00    -0.200 F 
ENDBRANCH  55  69
BRANCH  56  80
ATOM     80  C   UNL A   1      40.024  28.634  30.122  1.00  0.00     0.064 A 
ATOM     81  C   UNL A   1      39.422  27.373  30.008  1.00  0.00     0.173 A 
ATOM     82  C   UNL A   1      40.633  29.171  28.978  1.00  0.00     0.173 A 
ATOM     83  F   UNL A   1      38.852  26.803  31.079  1.00  0.00    -0.203 F 
ATOM     84  C   UNL A   1      39.458  26.663  28.808  1.00  0.00     0.198 A 
ATOM     85  C   UNL A   1      40.639  28.475  27.770  1.00  0.00     0.198 A 
ATOM     86  F   UNL A   1      41.228  30.372  29.034  1.00  0.00    -0.203 F 
ATOM     87  F   UNL A   1      38.933  25.433  28.745  1.00  0.00    -0.200 F 
ATOM     88  C   UNL A   1      40.062  27.217  27.690  1.00  0.00     0.200 A 
ATOM     89  F   UNL A   1      41.218  29.018  26.691  1.00  0.00    -0.200 F 
ATOM     90  F   UNL A   1      40.104  26.532  26.539  1.00  0.00    -0.200 F 
ENDBRANCH  56  80
BRANCH  68  91
ATOM     91  C   UNL A   1      44.617  28.762  35.365  1.00  0.00     0.064 A 
ATOM     92  C   UNL A   1      45.863  29.255  34.952  1.00  0.00     0.173 A 
ATOM     93  C   UNL A   1      44.592  27.548  36.072  1.00  0.00     0.173 A 
ATOM     94  F   UNL A   1      45.939  30.404  34.264  1.00  0.00    -0.203 F 
ATOM     95  C   UNL A   1      47.034  28.548  35.211  1.00  0.00     0.198 A 
ATOM     96  C   UNL A   1      45.767  26.860  36.357  1.00  0.00     0.198 A 
ATOM     97  F   UNL A   1      43.427  27.037  36.498  1.00  0.00    -0.203 F 
ATOM     98  F   UNL A   1      48.208  29.013  34.764  1.00  0.00    -0.200 F 
ATOM     99  C   UNL A   1      46.986  27.356  35.919  1.00  0.00     0.200 A 
ATOM    100  F   UNL A   1      45.721  25.718  37.055  1.00  0.00    -0.200 F 
ATOM    101  F   UNL A   1      48.116  26.681  36.175  1.00  0.00    -0.200 F 
ENDBRANCH  68  91
ENDBRANCH  42  43
ENDBRANCH  35  37
ENDBRANCH  34  35
ENDBRANCH  33  34
ENDBRANCH  32  33
ENDBRANCH  31  32
ENDBRANCH  30  31
ENDBRANCH   1  30
TORSDOF 20
ENDMDL
MODEL 3
REMARK VINA RESULT:     -10.4      2.219      3.856
REMARK SMILES C[C@H](NC(=O)c1c(C(=O)OCCOCCOCCOC(=O)c2ccc(-c3c4nc(c(-c5c(F)c(F)c(F)c(F)c5F)c5ccc([nH]5)c(-c5c(F)c(F)c(F)c(F)c5F)c5nc(c(-c6c(F)c(F)c(F)c(F)c6F)c6ccc3[nH]6)C=C5)C=C4)cc2)cnn1C)[C@]12C[C@H]3C[C@H](C[C@H](C3)C1)C2
REMARK SMILES IDX 14 1 13 2 12 3 11 4 10 5 8 6 9 7 7 8 6 9 87 10 85 11 86 12
REMARK SMILES IDX 88 13 4 14 3 15 5 17 2 18 1 19 89 20 90 21 97 22 98 23 91 24
REMARK SMILES IDX 95 25 93 26 92 27 96 28 94 29 15 30 16 31 17 32 18 33 19 34
REMARK SMILES IDX 20 35 21 36 22 37 23 38 84 39 24 40 83 41 25 42 26 43 27 44
REMARK SMILES IDX 77 45 28 46 82 47 76 48 78 49 29 50 81 51 75 52 74 53 30 55
REMARK SMILES IDX 62 56 42 57 61 58 43 59 46 60 60 61 79 62 44 63 45 64 59 66
REMARK SMILES IDX 80 67 47 68 31 69 32 70 40 71 33 72 34 73 38 74 41 75 35 76
REMARK SMILES IDX 36 77 39 78 37 79 63 80 64 81 72 82 65 83 66 84 70 85 73 86
REMARK SMILES IDX 67 87 68 88 71 89 69 90 48 91 49 92 57 93 50 94 51 95 55 96
REMARK SMILES IDX 58 97 52 98 53 99 56 100 54 101
REMARK H PARENT 3 16 78 54 46 65
REMARK Flexibility Score: inf
ROOT
ATOM      1  C   UNL A   1      31.074  29.490  24.619  1.00  0.00     0.188 C 
ENDROOT
BRANCH   1   2
ATOM      2  O   UNL A   1      32.424  29.062  24.751  1.00  0.00    -0.376 OA
BRANCH   2   3
ATOM      3  C   UNL A   1      33.367  29.295  23.716  1.00  0.00     0.202 C 
BRANCH   3   4
ATOM      4  C   UNL A   1      33.180  28.605  22.358  1.00  0.00     0.261 C 
BRANCH   4   5
ATOM      5  O   UNL A   1      33.957  27.412  22.184  1.00  0.00    -0.460 OA
BRANCH   5   6
ATOM      6  C   UNL A   1      33.229  26.291  21.918  1.00  0.00     0.342 C 
ATOM      7  O   UNL A   1      33.311  25.644  20.886  1.00  0.00    -0.246 OA
BRANCH   6   8
ATOM      8  C   UNL A   1      32.445  25.805  23.042  1.00  0.00     0.111 A 
ATOM      9  C   UNL A   1      32.773  25.569  24.383  1.00  0.00     0.140 A 
ATOM     10  N   UNL A   1      31.531  25.514  24.979  1.00  0.00    -0.262 N 
ATOM     11  C   UNL A   1      31.074  25.478  22.942  1.00  0.00     0.151 A 
ATOM     12  N   UNL A   1      30.541  25.184  24.124  1.00  0.00    -0.180 NA
ATOM     13  C   UNL A   1      31.132  26.079  26.250  1.00  0.00     0.174 C 
BRANCH   9  14
ATOM     14  C   UNL A   1      34.044  25.743  25.033  1.00  0.00     0.270 C 
ATOM     15  N   UNL A   1      35.062  24.825  24.993  1.00  0.00    -0.348 N 
ATOM     16  H   UNL A   1      35.800  25.137  25.565  1.00  0.00     0.164 HD
ATOM     17  O   UNL A   1      34.280  26.757  25.692  1.00  0.00    -0.267 OA
BRANCH  15  18
ATOM     18  C   UNL A   1      35.433  23.528  24.386  1.00  0.00     0.085 C 
ATOM     19  C   UNL A   1      36.889  23.102  24.491  1.00  0.00     0.031 C 
BRANCH  18  20
ATOM     20  C   UNL A   1      34.403  22.338  24.582  1.00  0.00    -0.009 C 
ATOM     21  C   UNL A   1      33.684  22.541  25.958  1.00  0.00     0.012 C 
ATOM     22  C   UNL A   1      35.075  20.939  24.630  1.00  0.00     0.012 C 
ATOM     23  C   UNL A   1      33.295  22.294  23.486  1.00  0.00     0.012 C 
ATOM     24  C   UNL A   1      32.654  21.436  26.240  1.00  0.00    -0.010 C 
ATOM     25  C   UNL A   1      34.037  19.828  24.897  1.00  0.00    -0.010 C 
ATOM     26  C   UNL A   1      32.254  21.197  23.773  1.00  0.00    -0.010 C 
ATOM     27  C   UNL A   1      31.591  21.450  25.134  1.00  0.00     0.007 C 
ATOM     28  C   UNL A   1      33.364  20.074  26.253  1.00  0.00     0.007 C 
ATOM     29  C   UNL A   1      32.960  19.843  23.801  1.00  0.00     0.007 C 
ENDBRANCH  18  20
ENDBRANCH  15  18
ENDBRANCH   9  14
ENDBRANCH   6   8
ENDBRANCH   5   6
ENDBRANCH   4   5
ENDBRANCH   3   4
ENDBRANCH   2   3
ENDBRANCH   1   2
BRANCH   1  30
ATOM     30  C   UNL A   1      30.649  30.943  24.930  1.00  0.00     0.188 C 
BRANCH  30  31
ATOM     31  O   UNL A   1      30.793  31.335  26.271  1.00  0.00    -0.376 OA
BRANCH  31  32
ATOM     32  C   UNL A   1      31.988  31.919  26.750  1.00  0.00     0.202 C 
BRANCH  32  33
ATOM     33  C   UNL A   1      32.186  33.412  27.061  1.00  0.00     0.261 C 
BRANCH  33  34
ATOM     34  O   UNL A   1      32.790  33.766  28.304  1.00  0.00    -0.460 OA
BRANCH  34  35
ATOM     35  C   UNL A   1      33.963  34.437  28.239  1.00  0.00     0.338 C 
ATOM     36  O   UNL A   1      34.142  35.608  27.964  1.00  0.00    -0.246 OA
BRANCH  35  37
ATOM     37  C   UNL A   1      35.032  33.527  28.687  1.00  0.00     0.060 A 
ATOM     38  C   UNL A   1      34.690  32.302  29.273  1.00  0.00     0.016 A 
ATOM     39  C   UNL A   1      36.369  33.904  28.547  1.00  0.00     0.016 A 
ATOM     40  C   UNL A   1      35.694  31.456  29.745  1.00  0.00     0.010 A 
ATOM     41  C   UNL A   1      37.371  33.064  29.035  1.00  0.00     0.010 A 
ATOM     42  C   UNL A   1      37.038  31.848  29.658  1.00  0.00    -0.014 A 
BRANCH  42  43
ATOM     43  C   UNL A   1      38.092  31.076  30.358  1.00  0.00     0.031 A 
ATOM     44  C   UNL A   1      38.371  31.382  31.802  1.00  0.00     0.074 A 
ATOM     45  C   UNL A   1      38.798  30.127  29.718  1.00  0.00     0.049 A 
ATOM     46  N   UNL A   1      39.305  30.914  32.590  1.00  0.00    -0.248 NA
ATOM     47  C   UNL A   1      37.473  32.356  32.446  1.00  0.00     0.031 C 
ATOM     48  C   UNL A   1      38.599  29.716  28.331  1.00  0.00     0.029 A 
ATOM     49  N   UNL A   1      39.844  29.350  30.155  1.00  0.00    -0.354 N 
ATOM     50  C   UNL A   1      39.106  31.531  33.818  1.00  0.00     0.074 A 
ATOM     51  C   UNL A   1      37.988  32.436  33.663  1.00  0.00     0.031 C 
ATOM     52  C   UNL A   1      39.513  28.781  28.019  1.00  0.00     0.029 A 
ATOM     53  C   UNL A   1      40.379  28.552  29.174  1.00  0.00     0.049 A 
ATOM     54  H   UNL A   1      40.177  29.365  31.081  1.00  0.00     0.167 HD
ATOM     55  C   UNL A   1      39.787  31.348  34.974  1.00  0.00     0.037 A 
ATOM     56  C   UNL A   1      41.466  27.755  29.201  1.00  0.00     0.037 A 
ATOM     57  C   UNL A   1      40.909  30.460  35.121  1.00  0.00     0.049 A 
ATOM     58  C   UNL A   1      42.259  27.632  30.480  1.00  0.00     0.074 A 
ATOM     59  C   UNL A   1      41.676  30.215  36.246  1.00  0.00     0.029 A 
ATOM     60  N   UNL A   1      41.428  29.673  34.104  1.00  0.00    -0.354 N 
ATOM     61  N   UNL A   1      42.057  28.206  31.641  1.00  0.00    -0.248 NA
ATOM     62  C   UNL A   1      43.431  26.744  30.450  1.00  0.00     0.031 C 
ATOM     63  C   UNL A   1      42.687  29.313  35.898  1.00  0.00     0.029 A 
ATOM     64  C   UNL A   1      42.515  28.953  34.571  1.00  0.00     0.049 A 
ATOM     65  H   UNL A   1      41.076  29.632  33.185  1.00  0.00     0.167 HD
ATOM     66  C   UNL A   1      43.052  27.726  32.485  1.00  0.00     0.074 A 
ATOM     67  C   UNL A   1      43.849  26.802  31.707  1.00  0.00     0.031 C 
ATOM     68  C   UNL A   1      43.287  28.024  33.787  1.00  0.00     0.037 A 
BRANCH  55  69
ATOM     69  C   UNL A   1      39.340  32.135  36.171  1.00  0.00     0.064 A 
ATOM     70  C   UNL A   1      38.363  31.641  37.049  1.00  0.00     0.173 A 
ATOM     71  C   UNL A   1      39.924  33.375  36.470  1.00  0.00     0.173 A 
ATOM     72  F   UNL A   1      37.763  30.466  36.800  1.00  0.00    -0.203 F 
ATOM     73  C   UNL A   1      37.971  32.369  38.168  1.00  0.00     0.198 A 
ATOM     74  C   UNL A   1      39.550  34.087  37.606  1.00  0.00     0.198 A 
ATOM     75  F   UNL A   1      40.865  33.891  35.665  1.00  0.00    -0.203 F 
ATOM     76  F   UNL A   1      37.006  31.897  38.970  1.00  0.00    -0.200 F 
ATOM     77  C   UNL A   1      38.571  33.587  38.451  1.00  0.00     0.200 A 
ATOM     78  F   UNL A   1      40.140  35.258  37.885  1.00  0.00    -0.200 F 
ATOM     79  F   UNL A   1      38.201  34.282  39.536  1.00  0.00    -0.200 F 
ENDBRANCH  55  69
BRANCH  56  80
ATOM     80  C   UNL A   1      41.895  27.029  27.976  1.00  0.00     0.064 A 
ATOM     81  C   UNL A   1      42.763  27.620  27.047  1.00  0.00     0.173 A 
ATOM     82  C   UNL A   1      41.404  25.747  27.685  1.00  0.00     0.173 A 
ATOM     83  F   UNL A   1      43.236  28.855  27.263  1.00  0.00    -0.203 F 
ATOM     84  C   UNL A   1      43.100  26.969  25.861  1.00  0.00     0.198 A 
ATOM     85  C   UNL A   1      41.768  25.083  26.515  1.00  0.00     0.198 A 
ATOM     86  F   UNL A   1      40.566  25.138  28.537  1.00  0.00    -0.203 F 
ATOM     87  F   UNL A   1      43.879  27.584  24.961  1.00  0.00    -0.200 F 
ATOM     88  C   UNL A   1      42.606  25.700  25.598  1.00  0.00     0.200 A 
ATOM     89  F   UNL A   1      41.294  23.855  26.269  1.00  0.00    -0.200 F 
ATOM     90  F   UNL A   1      42.924  25.078  24.455  1.00  0.00    -0.200 F 
ENDBRANCH  56  80
BRANCH  68  91
ATOM     91  C   UNL A   1      44.419  27.309  34.468  1.00  0.00     0.064 A 
ATOM     92  C   UNL A   1      44.252  26.044  35.049  1.00  0.00     0.173 A 
ATOM     93  C   UNL A   1      45.702  27.882  34.499  1.00  0.00     0.173 A 
ATOM     94  F   UNL A   1      43.045  25.460  35.057  1.00  0.00    -0.203 F 
ATOM     95  C   UNL A   1      45.319  25.391  35.661  1.00  0.00     0.198 A 
ATOM     96  C   UNL A   1      46.773  27.213  35.083  1.00  0.00     0.198 A 
ATOM     97  F   UNL A   1      45.918  29.087  33.948  1.00  0.00    -0.203 F 
ATOM     98  F   UNL A   1      45.126  24.205  36.254  1.00  0.00    -0.200 F 
ATOM     99  C   UNL A   1      46.579  25.972  35.670  1.00  0.00     0.200 A 
ATOM    100  F   UNL A   1      47.992  27.767  35.076  1.00  0.00    -0.200 F 
ATOM    101  F   UNL A   1      47.607  25.337  36.252  1.00  0.00    -0.200 F 
ENDBRANCH  68  91
ENDBRANCH  42  43
ENDBRANCH  35  37
ENDBRANCH  34  35
ENDBRANCH  33  34
ENDBRANCH  32  33
ENDBRANCH  31  32
ENDBRANCH  30  31
ENDBRANCH   1  30
TORSDOF 20
ENDMDL
