MODEL 1
REMARK VINA RESULT:     -12.4      0.000      0.000
REMARK SMILES Cc1ccc(CSCC(=O)N[C@H]2C=C[C@@H](C(=O)OCCOCCOCCOC(=O)c3ccc(-c4c5nc(c(-c6c(F)c(F)c(F)c(F)c6F)c6ccc([nH]6)c(-c6c(F)c(F)c(F)c(F)c6F)c6nc(c(-c7c(F)c(F)c(F)c(F)c7F)c7ccc4[nH]7)C=C6)C=C5)cc3)C2)cc1
REMARK SMILES IDX 21 1 20 2 19 3 18 4 16 5 17 6 15 7 12 8 13 9 93 10 14 11
REMARK SMILES IDX 11 12 9 13 10 14 8 16 7 17 6 18 5 19 1 20 2 21 3 22 95 23
REMARK SMILES IDX 4 24 94 25 22 26 23 27 24 28 25 29 26 30 27 31 28 32 29 33
REMARK SMILES IDX 30 34 31 35 92 36 32 37 91 38 33 39 34 40 35 41 85 42 36 43
REMARK SMILES IDX 90 44 84 45 86 46 37 47 89 48 83 49 82 50 38 52 70 53 50 54
REMARK SMILES IDX 69 55 51 56 54 57 68 58 87 59 52 60 53 61 67 63 88 64 55 65
REMARK SMILES IDX 39 66 40 67 48 68 41 69 42 70 46 71 49 72 43 73 44 74 47 75
REMARK SMILES IDX 45 76 71 77 72 78 80 79 73 80 74 81 78 82 81 83 75 84 76 85
REMARK SMILES IDX 79 86 77 87 56 88 57 89 65 90 58 91 59 92 63 93 66 94 60 95
REMARK SMILES IDX 61 96 64 97 62 98
REMARK H PARENT 11 15 86 51 54 62
REMARK Flexibility Score: inf
ROOT
ATOM      1  O   UNL A   1      32.672  28.340  23.333  1.00  0.00    -0.376 OA
ENDROOT
BRANCH   1   2
ATOM      2  C   UNL A   1      32.381  26.928  23.243  1.00  0.00     0.202 C 
BRANCH   2   3
ATOM      3  C   UNL A   1      33.223  25.666  22.384  1.00  0.00     0.261 C 
BRANCH   3   4
ATOM      4  O   UNL A   1      34.420  24.462  22.886  1.00  0.00    -0.463 OA
BRANCH   4   5
ATOM      5  C   UNL A   1      35.251  24.156  24.068  1.00  0.00     0.312 C 
ATOM      6  O   UNL A   1      36.337  23.544  24.100  1.00  0.00    -0.252 OA
BRANCH   5   7
ATOM      7  C   UNL A   1      34.816  24.280  25.492  1.00  0.00     0.124 C 
ATOM      8  C   UNL A   1      33.080  23.945  27.060  1.00  0.00     0.106 C 
ATOM      9  C   UNL A   1      33.948  22.733  27.020  1.00  0.00    -0.006 C 
ATOM     10  C   UNL A   1      33.490  24.829  25.881  1.00  0.00     0.048 C 
ATOM     11  C   UNL A   1      34.958  22.940  26.181  1.00  0.00    -0.014 C 
BRANCH   8  12
ATOM     12  N   UNL A   1      31.699  23.577  27.097  1.00  0.00    -0.349 N 
ATOM     13  C   UNL A   1      30.977  22.666  26.395  1.00  0.00     0.230 C 
ATOM     14  O   UNL A   1      29.775  22.582  26.659  1.00  0.00    -0.274 OA
ATOM     15  H   UNL A   1      31.171  24.081  27.757  1.00  0.00     0.164 HD
BRANCH  13  16
ATOM     16  C   UNL A   1      31.605  21.812  25.310  1.00  0.00     0.169 C 
BRANCH  16  17
ATOM     17  S   UNL A   1      31.480  22.714  23.726  1.00  0.00    -0.147 SA
BRANCH  17  18
ATOM     18  C   UNL A   1      31.979  21.375  22.643  1.00  0.00     0.105 C 
BRANCH  18  19
ATOM     19  C   UNL A   1      32.640  20.174  23.243  1.00  0.00    -0.038 A 
ATOM     20  C   UNL A   1      34.682  16.706  24.745  1.00  0.00     0.044 C 
ATOM     21  C   UNL A   1      33.911  17.906  24.292  1.00  0.00    -0.051 A 
ATOM     22  C   UNL A   1      32.814  17.757  23.442  1.00  0.00     0.004 A 
ATOM     23  C   UNL A   1      34.318  19.189  24.668  1.00  0.00     0.004 A 
ATOM     24  C   UNL A   1      32.178  18.883  22.924  1.00  0.00     0.005 A 
ATOM     25  C   UNL A   1      33.673  20.311  24.166  1.00  0.00     0.005 A 
ENDBRANCH  18  19
ENDBRANCH  17  18
ENDBRANCH  16  17
ENDBRANCH  13  16
ENDBRANCH   8  12
ENDBRANCH   5   7
ENDBRANCH   4   5
ENDBRANCH   3   4
ENDBRANCH   2   3
ENDBRANCH   1   2
BRANCH   1  26
ATOM     26  C   UNL A   1      32.675  29.173  24.511  1.00  0.00     0.188 C 
BRANCH  26  27
ATOM     27  C   UNL A   1      31.439  29.572  25.303  1.00  0.00     0.188 C 
BRANCH  27  28
ATOM     28  O   UNL A   1      31.362  30.970  25.454  1.00  0.00    -0.376 OA
BRANCH  28  29
ATOM     29  C   UNL A   1      31.387  31.427  26.798  1.00  0.00     0.202 C 
BRANCH  29  30
ATOM     30  C   UNL A   1      32.709  32.108  27.231  1.00  0.00     0.261 C 
BRANCH  30  31
ATOM     31  O   UNL A   1      33.814  31.167  27.293  1.00  0.00    -0.460 OA
BRANCH  31  32
ATOM     32  C   UNL A   1      35.040  31.613  27.767  1.00  0.00     0.338 C 
ATOM     33  O   UNL A   1      35.443  32.736  27.684  1.00  0.00    -0.246 OA
BRANCH  32  34
ATOM     34  C   UNL A   1      35.876  30.419  28.180  1.00  0.00     0.060 A 
ATOM     35  C   UNL A   1      36.138  29.917  29.469  1.00  0.00     0.016 A 
ATOM     36  C   UNL A   1      36.723  30.002  27.227  1.00  0.00     0.016 A 
ATOM     37  C   UNL A   1      37.374  29.184  29.785  1.00  0.00     0.010 A 
ATOM     38  C   UNL A   1      37.988  29.659  27.663  1.00  0.00     0.010 A 
ATOM     39  C   UNL A   1      38.448  29.119  28.893  1.00  0.00    -0.014 A 
BRANCH  39  40
ATOM     40  C   UNL A   1      39.994  28.396  29.094  1.00  0.00     0.031 A 
ATOM     41  C   UNL A   1      40.615  26.759  28.854  1.00  0.00     0.074 A 
ATOM     42  C   UNL A   1      40.977  29.298  29.282  1.00  0.00     0.049 A 
ATOM     43  N   UNL A   1      41.872  26.420  29.043  1.00  0.00    -0.248 NA
ATOM     44  C   UNL A   1      39.993  25.489  28.273  1.00  0.00     0.031 C 
ATOM     45  C   UNL A   1      42.425  29.181  29.117  1.00  0.00     0.029 A 
ATOM     46  N   UNL A   1      40.830  30.605  29.750  1.00  0.00    -0.354 N 
ATOM     47  C   UNL A   1      42.123  25.172  28.441  1.00  0.00     0.074 A 
ATOM     48  C   UNL A   1      40.900  24.536  28.239  1.00  0.00     0.031 C 
ATOM     49  C   UNL A   1      43.011  30.157  29.837  1.00  0.00     0.029 A 
ATOM     50  C   UNL A   1      41.943  30.809  30.576  1.00  0.00     0.049 A 
ATOM     51  H   UNL A   1      40.106  31.241  29.547  1.00  0.00     0.167 HD
ATOM     52  C   UNL A   1      43.347  24.779  28.003  1.00  0.00     0.037 A 
ATOM     53  C   UNL A   1      41.732  30.776  31.920  1.00  0.00     0.037 A 
ATOM     54  C   UNL A   1      44.307  25.511  28.782  1.00  0.00     0.049 A 
ATOM     55  C   UNL A   1      42.487  29.612  32.535  1.00  0.00     0.074 A 
ATOM     56  C   UNL A   1      45.105  26.614  28.582  1.00  0.00     0.029 A 
ATOM     57  N   UNL A   1      44.144  25.382  30.152  1.00  0.00    -0.354 N 
ATOM     58  N   UNL A   1      42.913  28.561  31.875  1.00  0.00    -0.248 NA
ATOM     59  C   UNL A   1      42.935  29.609  33.917  1.00  0.00     0.031 C 
ATOM     60  C   UNL A   1      45.233  27.254  29.865  1.00  0.00     0.029 A 
ATOM     61  C   UNL A   1      44.570  26.499  30.830  1.00  0.00     0.049 A 
ATOM     62  H   UNL A   1      43.767  24.585  30.590  1.00  0.00     0.167 HD
ATOM     63  C   UNL A   1      43.692  27.777  32.682  1.00  0.00     0.074 A 
ATOM     64  C   UNL A   1      43.686  28.495  33.944  1.00  0.00     0.031 C 
ATOM     65  C   UNL A   1      44.284  26.610  32.267  1.00  0.00     0.037 A 
BRANCH  52  66
ATOM     66  C   UNL A   1      43.606  23.742  26.906  1.00  0.00     0.064 A 
ATOM     67  C   UNL A   1      43.255  22.393  27.101  1.00  0.00     0.173 A 
ATOM     68  C   UNL A   1      44.306  23.978  25.688  1.00  0.00     0.173 A 
ATOM     69  F   UNL A   1      42.635  22.009  28.225  1.00  0.00    -0.203 F 
ATOM     70  C   UNL A   1      43.555  21.385  26.163  1.00  0.00     0.198 A 
ATOM     71  C   UNL A   1      44.545  22.986  24.724  1.00  0.00     0.198 A 
ATOM     72  F   UNL A   1      44.864  25.160  25.402  1.00  0.00    -0.203 F 
ATOM     73  F   UNL A   1      43.247  20.110  26.436  1.00  0.00    -0.200 F 
ATOM     74  C   UNL A   1      44.185  21.684  24.970  1.00  0.00     0.200 A 
ATOM     75  F   UNL A   1      45.172  23.303  23.580  1.00  0.00    -0.200 F 
ATOM     76  F   UNL A   1      44.476  20.722  24.083  1.00  0.00    -0.200 F 
ENDBRANCH  52  66
BRANCH  53  77
ATOM     77  C   UNL A   1      40.398  31.386  32.285  1.00  0.00     0.064 A 
ATOM     78  C   UNL A   1      40.178  32.740  31.900  1.00  0.00     0.173 A 
ATOM     79  C   UNL A   1      39.252  30.652  32.608  1.00  0.00     0.173 A 
ATOM     80  F   UNL A   1      41.225  33.523  31.583  1.00  0.00    -0.203 F 
ATOM     81  C   UNL A   1      38.902  33.263  31.682  1.00  0.00     0.198 A 
ATOM     82  C   UNL A   1      37.966  31.211  32.463  1.00  0.00     0.198 A 
ATOM     83  F   UNL A   1      39.346  29.358  32.943  1.00  0.00    -0.203 F 
ATOM     84  F   UNL A   1      38.756  34.479  31.133  1.00  0.00    -0.200 F 
ATOM     85  C   UNL A   1      37.793  32.489  31.948  1.00  0.00     0.200 A 
ATOM     86  F   UNL A   1      36.879  30.451  32.673  1.00  0.00    -0.200 F 
ATOM     87  F   UNL A   1      36.566  32.945  31.647  1.00  0.00    -0.200 F 
ENDBRANCH  53  77
BRANCH  65  88
ATOM     88  C   UNL A   1      44.624  25.443  33.209  1.00  0.00     0.064 A 
ATOM     89  C   UNL A   1      45.899  24.854  33.306  1.00  0.00     0.173 A 
ATOM     90  C   UNL A   1      43.702  24.966  34.181  1.00  0.00     0.173 A 
ATOM     91  F   UNL A   1      46.948  25.301  32.609  1.00  0.00    -0.203 F 
ATOM     92  C   UNL A   1      46.187  23.810  34.192  1.00  0.00     0.198 A 
ATOM     93  C   UNL A   1      44.028  24.007  35.142  1.00  0.00     0.198 A 
ATOM     94  F   UNL A   1      42.450  25.432  34.278  1.00  0.00    -0.203 F 
ATOM     95  F   UNL A   1      47.396  23.235  34.157  1.00  0.00    -0.200 F 
ATOM     96  C   UNL A   1      45.259  23.397  35.120  1.00  0.00     0.200 A 
ATOM     97  F   UNL A   1      43.140  23.697  36.098  1.00  0.00    -0.200 F 
ATOM     98  F   UNL A   1      45.558  22.437  36.004  1.00  0.00    -0.200 F 
ENDBRANCH  65  88
ENDBRANCH  39  40
ENDBRANCH  32  34
ENDBRANCH  31  32
ENDBRANCH  30  31
ENDBRANCH  29  30
ENDBRANCH  28  29
ENDBRANCH  27  28
ENDBRANCH  26  27
ENDBRANCH   1  26
TORSDOF 22
ENDMDL
MODEL 2
REMARK VINA RESULT:     -12.2      1.548      2.479
REMARK SMILES Cc1ccc(CSCC(=O)N[C@H]2C=C[C@@H](C(=O)OCCOCCOCCOC(=O)c3ccc(-c4c5nc(c(-c6c(F)c(F)c(F)c(F)c6F)c6ccc([nH]6)c(-c6c(F)c(F)c(F)c(F)c6F)c6nc(c(-c7c(F)c(F)c(F)c(F)c7F)c7ccc4[nH]7)C=C6)C=C5)cc3)C2)cc1
REMARK SMILES IDX 21 1 20 2 19 3 18 4 16 5 17 6 15 7 12 8 13 9 93 10 14 11
REMARK SMILES IDX 11 12 9 13 10 14 8 16 7 17 6 18 5 19 1 20 2 21 3 22 95 23
REMARK SMILES IDX 4 24 94 25 22 26 23 27 24 28 25 29 26 30 27 31 28 32 29 33
REMARK SMILES IDX 30 34 31 35 92 36 32 37 91 38 33 39 34 40 35 41 85 42 36 43
REMARK SMILES IDX 90 44 84 45 86 46 37 47 89 48 83 49 82 50 38 52 70 53 50 54
REMARK SMILES IDX 69 55 51 56 54 57 68 58 87 59 52 60 53 61 67 63 88 64 55 65
REMARK SMILES IDX 39 66 40 67 48 68 41 69 42 70 46 71 49 72 43 73 44 74 47 75
REMARK SMILES IDX 45 76 71 77 72 78 80 79 73 80 74 81 78 82 81 83 75 84 76 85
REMARK SMILES IDX 79 86 77 87 56 88 57 89 65 90 58 91 59 92 63 93 66 94 60 95
REMARK SMILES IDX 61 96 64 97 62 98
REMARK H PARENT 11 15 86 51 54 62
REMARK Flexibility Score: inf
ROOT
ATOM      1  O   UNL A   1      31.715  26.109  24.026  1.00  0.00    -0.376 OA
ENDROOT
BRANCH   1   2
ATOM      2  C   UNL A   1      32.688  26.125  22.958  1.00  0.00     0.202 C 
BRANCH   2   3
ATOM      3  C   UNL A   1      33.686  24.839  22.336  1.00  0.00     0.261 C 
BRANCH   3   4
ATOM      4  O   UNL A   1      35.204  24.118  22.893  1.00  0.00    -0.463 OA
BRANCH   4   5
ATOM      5  C   UNL A   1      35.718  23.407  24.081  1.00  0.00     0.312 C 
ATOM      6  O   UNL A   1      36.417  22.374  24.109  1.00  0.00    -0.252 OA
BRANCH   5   7
ATOM      7  C   UNL A   1      35.270  23.629  25.489  1.00  0.00     0.124 C 
ATOM      8  C   UNL A   1      33.462  23.609  27.010  1.00  0.00     0.106 C 
ATOM      9  C   UNL A   1      34.126  22.274  27.017  1.00  0.00    -0.006 C 
ATOM     10  C   UNL A   1      34.039  24.391  25.828  1.00  0.00     0.048 C 
ATOM     11  C   UNL A   1      35.178  22.299  26.205  1.00  0.00    -0.014 C 
BRANCH   8  12
ATOM     12  N   UNL A   1      32.040  23.466  27.012  1.00  0.00    -0.349 N 
ATOM     13  C   UNL A   1      31.209  22.580  26.405  1.00  0.00     0.230 C 
ATOM     14  O   UNL A   1      30.000  22.722  26.601  1.00  0.00    -0.274 OA
ATOM     15  H   UNL A   1      31.573  24.141  27.556  1.00  0.00     0.164 HD
BRANCH  13  16
ATOM     16  C   UNL A   1      31.734  21.483  25.499  1.00  0.00     0.169 C 
BRANCH  16  17
ATOM     17  S   UNL A   1      32.000  22.191  23.836  1.00  0.00    -0.147 SA
BRANCH  17  18
ATOM     18  C   UNL A   1      32.066  20.650  22.921  1.00  0.00     0.105 C 
BRANCH  18  19
ATOM     19  C   UNL A   1      32.796  19.490  23.521  1.00  0.00    -0.038 A 
ATOM     20  C   UNL A   1      35.004  16.118  25.005  1.00  0.00     0.044 C 
ATOM     21  C   UNL A   1      34.185  17.292  24.566  1.00  0.00    -0.051 A 
ATOM     22  C   UNL A   1      32.977  17.095  23.897  1.00  0.00     0.004 A 
ATOM     23  C   UNL A   1      34.653  18.592  24.771  1.00  0.00     0.004 A 
ATOM     24  C   UNL A   1      32.283  18.187  23.381  1.00  0.00     0.005 A 
ATOM     25  C   UNL A   1      33.951  19.682  24.272  1.00  0.00     0.005 A 
ENDBRANCH  18  19
ENDBRANCH  17  18
ENDBRANCH  16  17
ENDBRANCH  13  16
ENDBRANCH   8  12
ENDBRANCH   5   7
ENDBRANCH   4   5
ENDBRANCH   3   4
ENDBRANCH   2   3
ENDBRANCH   1   2
BRANCH   1  26
ATOM     26  C   UNL A   1      31.329  27.197  24.891  1.00  0.00     0.188 C 
BRANCH  26  27
ATOM     27  C   UNL A   1      30.997  28.607  24.428  1.00  0.00     0.188 C 
BRANCH  27  28
ATOM     28  O   UNL A   1      32.163  29.386  24.293  1.00  0.00    -0.376 OA
BRANCH  28  29
ATOM     29  C   UNL A   1      32.907  29.558  25.490  1.00  0.00     0.202 C 
BRANCH  29  30
ATOM     30  C   UNL A   1      32.472  30.766  26.359  1.00  0.00     0.261 C 
BRANCH  30  31
ATOM     31  O   UNL A   1      33.067  30.728  27.684  1.00  0.00    -0.460 OA
BRANCH  31  32
ATOM     32  C   UNL A   1      34.074  31.634  27.986  1.00  0.00     0.338 C 
ATOM     33  O   UNL A   1      33.909  32.798  28.207  1.00  0.00    -0.246 OA
BRANCH  32  34
ATOM     34  C   UNL A   1      35.419  30.978  27.753  1.00  0.00     0.060 A 
ATOM     35  C   UNL A   1      35.739  29.611  27.650  1.00  0.00     0.016 A 
ATOM     36  C   UNL A   1      36.460  31.785  28.006  1.00  0.00     0.016 A 
ATOM     37  C   UNL A   1      37.064  29.089  28.020  1.00  0.00     0.010 A 
ATOM     38  C   UNL A   1      37.517  31.202  28.678  1.00  0.00     0.010 A 
ATOM     39  C   UNL A   1      38.011  29.871  28.686  1.00  0.00    -0.014 A 
BRANCH  39  40
ATOM     40  C   UNL A   1      39.567  29.440  29.275  1.00  0.00     0.031 A 
ATOM     41  C   UNL A   1      40.596  28.017  29.075  1.00  0.00     0.074 A 
ATOM     42  C   UNL A   1      40.220  30.473  29.841  1.00  0.00     0.049 A 
ATOM     43  N   UNL A   1      41.795  27.903  29.604  1.00  0.00    -0.248 NA
ATOM     44  C   UNL A   1      40.472  26.762  28.210  1.00  0.00     0.031 C 
ATOM     45  C   UNL A   1      41.643  30.668  30.114  1.00  0.00     0.029 A 
ATOM     46  N   UNL A   1      39.648  31.632  30.369  1.00  0.00    -0.354 N 
ATOM     47  C   UNL A   1      42.487  26.843  28.987  1.00  0.00     0.074 A 
ATOM     48  C   UNL A   1      41.551  26.022  28.360  1.00  0.00     0.031 C 
ATOM     49  C   UNL A   1      41.763  31.609  31.072  1.00  0.00     0.029 A 
ATOM     50  C   UNL A   1      40.412  31.911  31.511  1.00  0.00     0.049 A 
ATOM     51  H   UNL A   1      38.880  32.139  30.020  1.00  0.00     0.167 HD
ATOM     52  C   UNL A   1      43.841  26.773  28.906  1.00  0.00     0.037 A 
ATOM     53  C   UNL A   1      39.852  31.618  32.717  1.00  0.00     0.037 A 
ATOM     54  C   UNL A   1      44.350  27.540  30.008  1.00  0.00     0.049 A 
ATOM     55  C   UNL A   1      40.659  30.539  33.414  1.00  0.00     0.074 A 
ATOM     56  C   UNL A   1      44.890  28.794  30.171  1.00  0.00     0.029 A 
ATOM     57  N   UNL A   1      43.850  27.160  31.244  1.00  0.00    -0.354 N 
ATOM     58  N   UNL A   1      41.484  29.713  32.815  1.00  0.00    -0.248 NA
ATOM     59  C   UNL A   1      40.697  30.398  34.860  1.00  0.00     0.031 C 
ATOM     60  C   UNL A   1      44.507  29.229  31.488  1.00  0.00     0.029 A 
ATOM     61  C   UNL A   1      43.800  28.213  32.126  1.00  0.00     0.049 A 
ATOM     62  H   UNL A   1      43.565  26.244  31.465  1.00  0.00     0.167 HD
ATOM     63  C   UNL A   1      42.171  28.975  33.739  1.00  0.00     0.074 A 
ATOM     64  C   UNL A   1      41.650  29.462  35.004  1.00  0.00     0.031 C 
ATOM     65  C   UNL A   1      43.112  28.029  33.412  1.00  0.00     0.037 A 
BRANCH  52  66
ATOM     66  C   UNL A   1      44.627  25.999  27.843  1.00  0.00     0.064 A 
ATOM     67  C   UNL A   1      45.098  26.650  26.689  1.00  0.00     0.173 A 
ATOM     68  C   UNL A   1      44.849  24.592  27.835  1.00  0.00     0.173 A 
ATOM     69  F   UNL A   1      44.918  27.968  26.531  1.00  0.00    -0.203 F 
ATOM     70  C   UNL A   1      45.746  25.966  25.640  1.00  0.00     0.198 A 
ATOM     71  C   UNL A   1      45.553  23.922  26.822  1.00  0.00     0.198 A 
ATOM     72  F   UNL A   1      44.330  23.781  28.765  1.00  0.00    -0.203 F 
ATOM     73  F   UNL A   1      46.117  26.635  24.540  1.00  0.00    -0.200 F 
ATOM     74  C   UNL A   1      45.987  24.608  25.713  1.00  0.00     0.200 A 
ATOM     75  F   UNL A   1      45.759  22.599  26.914  1.00  0.00    -0.200 F 
ATOM     76  F   UNL A   1      46.596  23.958  24.712  1.00  0.00    -0.200 F 
ENDBRANCH  52  66
BRANCH  53  77
ATOM     77  C   UNL A   1      38.365  31.890  32.716  1.00  0.00     0.064 A 
ATOM     78  C   UNL A   1      37.954  33.248  32.843  1.00  0.00     0.173 A 
ATOM     79  C   UNL A   1      37.398  31.005  32.227  1.00  0.00     0.173 A 
ATOM     80  F   UNL A   1      38.816  34.165  33.316  1.00  0.00    -0.203 F 
ATOM     81  C   UNL A   1      36.733  33.714  32.352  1.00  0.00     0.198 A 
ATOM     82  C   UNL A   1      36.135  31.469  31.806  1.00  0.00     0.198 A 
ATOM     83  F   UNL A   1      37.695  29.713  32.031  1.00  0.00    -0.203 F 
ATOM     84  F   UNL A   1      36.478  35.031  32.319  1.00  0.00    -0.200 F 
ATOM     85  C   UNL A   1      35.828  32.824  31.815  1.00  0.00     0.200 A 
ATOM     86  F   UNL A   1      35.265  30.618  31.238  1.00  0.00    -0.200 F 
ATOM     87  F   UNL A   1      34.697  33.272  31.248  1.00  0.00    -0.200 F 
ENDBRANCH  53  77
BRANCH  65  88
ATOM     88  C   UNL A   1      43.442  26.814  34.292  1.00  0.00     0.064 A 
ATOM     89  C   UNL A   1      42.474  25.973  34.873  1.00  0.00     0.173 A 
ATOM     90  C   UNL A   1      44.775  26.346  34.462  1.00  0.00     0.173 A 
ATOM     91  F   UNL A   1      41.164  26.139  34.663  1.00  0.00    -0.203 F 
ATOM     92  C   UNL A   1      42.804  24.857  35.649  1.00  0.00     0.198 A 
ATOM     93  C   UNL A   1      45.094  25.166  35.138  1.00  0.00     0.198 A 
ATOM     94  F   UNL A   1      45.835  26.985  33.949  1.00  0.00    -0.203 F 
ATOM     95  F   UNL A   1      41.829  24.164  36.250  1.00  0.00    -0.200 F 
ATOM     96  C   UNL A   1      44.112  24.443  35.769  1.00  0.00     0.200 A 
ATOM     97  F   UNL A   1      46.363  24.732  35.152  1.00  0.00    -0.200 F 
ATOM     98  F   UNL A   1      44.418  23.342  36.465  1.00  0.00    -0.200 F 
ENDBRANCH  65  88
ENDBRANCH  39  40
ENDBRANCH  32  34
ENDBRANCH  31  32
ENDBRANCH  30  31
ENDBRANCH  29  30
ENDBRANCH  28  29
ENDBRANCH  27  28
ENDBRANCH  26  27
ENDBRANCH   1  26
TORSDOF 22
ENDMDL
MODEL 3
REMARK VINA RESULT:     -12.0      3.203      6.061
REMARK SMILES Cc1ccc(CSCC(=O)N[C@H]2C=C[C@@H](C(=O)OCCOCCOCCOC(=O)c3ccc(-c4c5nc(c(-c6c(F)c(F)c(F)c(F)c6F)c6ccc([nH]6)c(-c6c(F)c(F)c(F)c(F)c6F)c6nc(c(-c7c(F)c(F)c(F)c(F)c7F)c7ccc4[nH]7)C=C6)C=C5)cc3)C2)cc1
REMARK SMILES IDX 21 1 20 2 19 3 18 4 16 5 17 6 15 7 12 8 13 9 93 10 14 11
REMARK SMILES IDX 11 12 9 13 10 14 8 16 7 17 6 18 5 19 1 20 2 21 3 22 95 23
REMARK SMILES IDX 4 24 94 25 22 26 23 27 24 28 25 29 26 30 27 31 28 32 29 33
REMARK SMILES IDX 30 34 31 35 92 36 32 37 91 38 33 39 34 40 35 41 85 42 36 43
REMARK SMILES IDX 90 44 84 45 86 46 37 47 89 48 83 49 82 50 38 52 70 53 50 54
REMARK SMILES IDX 69 55 51 56 54 57 68 58 87 59 52 60 53 61 67 63 88 64 55 65
REMARK SMILES IDX 39 66 40 67 48 68 41 69 42 70 46 71 49 72 43 73 44 74 47 75
REMARK SMILES IDX 45 76 71 77 72 78 80 79 73 80 74 81 78 82 81 83 75 84 76 85
REMARK SMILES IDX 79 86 77 87 56 88 57 89 65 90 58 91 59 92 63 93 66 94 60 95
REMARK SMILES IDX 61 96 64 97 62 98
REMARK H PARENT 11 15 86 51 54 62
REMARK Flexibility Score: inf
ROOT
ATOM      1  O   UNL A   1      33.371  34.360  30.828  1.00  0.00    -0.376 OA
ENDROOT
BRANCH   1   2
ATOM      2  C   UNL A   1      33.752  34.436  29.436  1.00  0.00     0.202 C 
BRANCH   2   3
ATOM      3  C   UNL A   1      35.183  33.845  28.635  1.00  0.00     0.261 C 
BRANCH   3   4
ATOM      4  O   UNL A   1      35.708  32.225  28.154  1.00  0.00    -0.463 OA
BRANCH   4   5
ATOM      5  C   UNL A   1      35.169  30.850  28.128  1.00  0.00     0.312 C 
ATOM      6  O   UNL A   1      35.465  29.900  28.880  1.00  0.00    -0.252 OA
BRANCH   5   7
ATOM      7  C   UNL A   1      34.366  30.252  27.019  1.00  0.00     0.124 C 
ATOM      8  C   UNL A   1      32.982  28.467  26.327  1.00  0.00     0.106 C 
ATOM      9  C   UNL A   1      32.133  29.562  26.878  1.00  0.00    -0.006 C 
ATOM     10  C   UNL A   1      34.433  28.809  26.667  1.00  0.00     0.048 C 
ATOM     11  C   UNL A   1      32.904  30.591  27.216  1.00  0.00    -0.014 C 
BRANCH   8  12
ATOM     12  N   UNL A   1      32.528  27.193  26.793  1.00  0.00    -0.349 N 
ATOM     13  C   UNL A   1      31.856  26.183  26.182  1.00  0.00     0.230 C 
ATOM     14  O   UNL A   1      31.600  25.189  26.866  1.00  0.00    -0.274 OA
ATOM     15  H   UNL A   1      32.743  27.016  27.737  1.00  0.00     0.164 HD
BRANCH  13  16
ATOM     16  C   UNL A   1      31.408  26.279  24.737  1.00  0.00     0.169 C 
BRANCH  16  17
ATOM     17  S   UNL A   1      32.814  25.805  23.669  1.00  0.00    -0.147 SA
BRANCH  17  18
ATOM     18  C   UNL A   1      32.640  24.026  23.812  1.00  0.00     0.105 C 
BRANCH  18  19
ATOM     19  C   UNL A   1      33.870  23.199  24.019  1.00  0.00    -0.038 A 
ATOM     20  C   UNL A   1      37.481  21.005  24.791  1.00  0.00     0.044 C 
ATOM     21  C   UNL A   1      36.209  21.715  24.448  1.00  0.00    -0.051 A 
ATOM     22  C   UNL A   1      36.221  22.788  23.556  1.00  0.00     0.004 A 
ATOM     23  C   UNL A   1      35.009  21.347  25.063  1.00  0.00     0.004 A 
ATOM     24  C   UNL A   1      35.059  23.524  23.338  1.00  0.00     0.005 A 
ATOM     25  C   UNL A   1      33.846  22.069  24.831  1.00  0.00     0.005 A 
ENDBRANCH  18  19
ENDBRANCH  17  18
ENDBRANCH  16  17
ENDBRANCH  13  16
ENDBRANCH   8  12
ENDBRANCH   5   7
ENDBRANCH   4   5
ENDBRANCH   3   4
ENDBRANCH   2   3
ENDBRANCH   1   2
BRANCH   1  26
ATOM     26  C   UNL A   1      34.172  34.671  31.986  1.00  0.00     0.188 C 
BRANCH  26  27
ATOM     27  C   UNL A   1      35.667  34.416  32.108  1.00  0.00     0.188 C 
BRANCH  27  28
ATOM     28  O   UNL A   1      35.944  33.504  33.147  1.00  0.00    -0.376 OA
BRANCH  28  29
ATOM     29  C   UNL A   1      36.103  32.156  32.731  1.00  0.00     0.202 C 
BRANCH  29  30
ATOM     30  C   UNL A   1      37.562  31.737  32.418  1.00  0.00     0.261 C 
BRANCH  30  31
ATOM     31  O   UNL A   1      37.783  30.320  32.643  1.00  0.00    -0.460 OA
BRANCH  31  32
ATOM     32  C   UNL A   1      38.702  29.936  33.609  1.00  0.00     0.338 C 
ATOM     33  O   UNL A   1      38.844  30.465  34.673  1.00  0.00    -0.246 OA
BRANCH  32  34
ATOM     34  C   UNL A   1      39.649  28.914  33.016  1.00  0.00     0.060 A 
ATOM     35  C   UNL A   1      41.006  28.680  33.309  1.00  0.00     0.016 A 
ATOM     36  C   UNL A   1      39.226  28.405  31.849  1.00  0.00     0.016 A 
ATOM     37  C   UNL A   1      41.936  28.125  32.312  1.00  0.00     0.010 A 
ATOM     38  C   UNL A   1      40.196  28.256  30.877  1.00  0.00     0.010 A 
ATOM     39  C   UNL A   1      41.588  27.992  30.965  1.00  0.00    -0.014 A 
BRANCH  39  40
ATOM     40  C   UNL A   1      42.538  27.452  29.638  1.00  0.00     0.031 A 
ATOM     41  C   UNL A   1      43.249  25.895  29.200  1.00  0.00     0.074 A 
ATOM     42  C   UNL A   1      42.586  28.343  28.629  1.00  0.00     0.049 A 
ATOM     43  N   UNL A   1      43.932  25.689  28.095  1.00  0.00    -0.248 NA
ATOM     44  C   UNL A   1      43.140  24.497  29.811  1.00  0.00     0.031 C 
ATOM     45  C   UNL A   1      42.928  28.170  27.218  1.00  0.00     0.029 A 
ATOM     46  N   UNL A   1      42.356  29.717  28.718  1.00  0.00    -0.354 N 
ATOM     47  C   UNL A   1      44.054  24.306  27.863  1.00  0.00     0.074 A 
ATOM     48  C   UNL A   1      43.805  23.642  29.063  1.00  0.00     0.031 C 
ATOM     49  C   UNL A   1      43.275  29.372  26.718  1.00  0.00     0.029 A 
ATOM     50  C   UNL A   1      43.292  30.287  27.846  1.00  0.00     0.049 A 
ATOM     51  H   UNL A   1      41.686  30.182  29.271  1.00  0.00     0.167 HD
ATOM     52  C   UNL A   1      44.222  23.760  26.631  1.00  0.00     0.037 A 
ATOM     53  C   UNL A   1      44.380  30.883  28.408  1.00  0.00     0.037 A 
ATOM     54  C   UNL A   1      44.838  24.775  25.822  1.00  0.00     0.049 A 
ATOM     55  C   UNL A   1      45.642  30.142  28.005  1.00  0.00     0.074 A 
ATOM     56  C   UNL A   1      44.415  25.662  24.860  1.00  0.00     0.029 A 
ATOM     57  N   UNL A   1      46.005  25.298  26.358  1.00  0.00    -0.354 N 
ATOM     58  N   UNL A   1      45.678  28.907  27.564  1.00  0.00    -0.248 NA
ATOM     59  C   UNL A   1      46.943  30.786  27.943  1.00  0.00     0.031 C 
ATOM     60  C   UNL A   1      45.251  26.827  24.991  1.00  0.00     0.029 A 
ATOM     61  C   UNL A   1      46.206  26.604  25.981  1.00  0.00     0.049 A 
ATOM     62  H   UNL A   1      46.619  24.794  26.940  1.00  0.00     0.167 HD
ATOM     63  C   UNL A   1      46.940  28.593  27.139  1.00  0.00     0.074 A 
ATOM     64  C   UNL A   1      47.685  29.816  27.382  1.00  0.00     0.031 C 
ATOM     65  C   UNL A   1      47.286  27.369  26.619  1.00  0.00     0.037 A 
BRANCH  52  66
ATOM     66  C   UNL A   1      43.835  22.333  26.231  1.00  0.00     0.064 A 
ATOM     67  C   UNL A   1      42.510  21.885  26.381  1.00  0.00     0.173 A 
ATOM     68  C   UNL A   1      44.737  21.315  25.810  1.00  0.00     0.173 A 
ATOM     69  F   UNL A   1      41.556  22.718  26.818  1.00  0.00    -0.203 F 
ATOM     70  C   UNL A   1      42.121  20.556  26.116  1.00  0.00     0.198 A 
ATOM     71  C   UNL A   1      44.338  20.009  25.482  1.00  0.00     0.198 A 
ATOM     72  F   UNL A   1      46.062  21.505  25.770  1.00  0.00    -0.203 F 
ATOM     73  F   UNL A   1      40.855  20.177  26.336  1.00  0.00    -0.200 F 
ATOM     74  C   UNL A   1      43.031  19.624  25.652  1.00  0.00     0.200 A 
ATOM     75  F   UNL A   1      45.247  19.122  25.048  1.00  0.00    -0.200 F 
ATOM     76  F   UNL A   1      42.661  18.359  25.408  1.00  0.00    -0.200 F 
ENDBRANCH  52  66
BRANCH  53  77
ATOM     77  C   UNL A   1      44.020  31.586  29.697  1.00  0.00     0.064 A 
ATOM     78  C   UNL A   1      43.232  32.768  29.592  1.00  0.00     0.173 A 
ATOM     79  C   UNL A   1      44.059  30.990  30.962  1.00  0.00     0.173 A 
ATOM     80  F   UNL A   1      43.147  33.412  28.415  1.00  0.00    -0.203 F 
ATOM     81  C   UNL A   1      42.404  33.215  30.625  1.00  0.00     0.198 A 
ATOM     82  C   UNL A   1      43.282  31.494  32.026  1.00  0.00     0.198 A 
ATOM     83  F   UNL A   1      44.738  29.853  31.158  1.00  0.00    -0.203 F 
ATOM     84  F   UNL A   1      41.537  34.215  30.408  1.00  0.00    -0.200 F 
ATOM     85  C   UNL A   1      42.417  32.564  31.839  1.00  0.00     0.200 A 
ATOM     86  F   UNL A   1      43.251  30.840  33.199  1.00  0.00    -0.200 F 
ATOM     87  F   UNL A   1      41.554  32.922  32.804  1.00  0.00    -0.200 F 
ENDBRANCH  53  77
BRANCH  65  88
ATOM     88  C   UNL A   1      48.702  26.777  26.699  1.00  0.00     0.064 A 
ATOM     89  C   UNL A   1      49.181  26.023  27.787  1.00  0.00     0.173 A 
ATOM     90  C   UNL A   1      49.599  26.815  25.596  1.00  0.00     0.173 A 
ATOM     91  F   UNL A   1      48.413  25.714  28.836  1.00  0.00    -0.203 F 
ATOM     92  C   UNL A   1      50.467  25.472  27.822  1.00  0.00     0.198 A 
ATOM     93  C   UNL A   1      50.835  26.164  25.588  1.00  0.00     0.198 A 
ATOM     94  F   UNL A   1      49.309  27.448  24.451  1.00  0.00    -0.203 F 
ATOM     95  F   UNL A   1      50.885  24.852  28.932  1.00  0.00    -0.200 F 
ATOM     96  C   UNL A   1      51.288  25.529  26.718  1.00  0.00     0.200 A 
ATOM     97  F   UNL A   1      51.569  26.148  24.466  1.00  0.00    -0.200 F 
ATOM     98  F   UNL A   1      52.495  24.951  26.736  1.00  0.00    -0.200 F 
ENDBRANCH  65  88
ENDBRANCH  39  40
ENDBRANCH  32  34
ENDBRANCH  31  32
ENDBRANCH  30  31
ENDBRANCH  29  30
ENDBRANCH  28  29
ENDBRANCH  27  28
ENDBRANCH  26  27
ENDBRANCH   1  26
TORSDOF 22
ENDMDL
