MODEL 1
REMARK VINA RESULT:     -11.2      0.000      0.000
REMARK SMILES CC(C)[N@@H+](C)Cc1cc2c(cc1Cl)C=C(C(=O)OCCOCCOCCOC(=O)c1ccc(-c3c4nc(c(-c5c(F)c(F)c(F)c(F)c5F)c5ccc([nH]5)c(-c5c(F)c(F)c(F)c(F)c5F)c5nc(c(-c6c(F)c(F)c(F)c(F)c6F)c6ccc3[nH]6)C=C5)C=C4)cc1)[C@@H](C(F)(F)F)O2
REMARK SMILES IDX 22 1 21 2 20 3 19 4 18 5 16 6 17 7 15 8 7 9 8 10 12 11 9 12
REMARK SMILES IDX 11 13 13 14 10 15 98 16 14 17 93 18 6 19 4 20 5 21 2 23 1 24
REMARK SMILES IDX 3 25 94 26 95 27 96 28 97 29 23 30 24 31 25 32 26 33 27 34
REMARK SMILES IDX 28 35 29 36 30 37 31 38 92 39 32 40 91 41 33 42 34 43 35 44
REMARK SMILES IDX 85 45 36 46 90 47 84 48 86 49 37 50 89 51 83 52 82 53 38 55
REMARK SMILES IDX 70 56 50 57 69 58 51 59 54 60 68 61 87 62 52 63 53 64 67 66
REMARK SMILES IDX 88 67 55 68 39 69 40 70 48 71 41 72 42 73 46 74 49 75 43 76
REMARK SMILES IDX 44 77 47 78 45 79 71 80 72 81 80 82 73 83 74 84 78 85 81 86
REMARK SMILES IDX 75 87 76 88 79 89 77 90 56 91 57 92 65 93 58 94 59 95 63 96
REMARK SMILES IDX 66 97 60 98 61 99 64 100 62 101
REMARK H PARENT 4 22 86 54 54 65
REMARK Flexibility Score: inf
ROOT
ATOM      1  C   UNL A   1      31.782  29.261  26.469  1.00  0.00     0.188 C 
ENDROOT
BRANCH   1   2
ATOM      2  O   UNL A   1      31.833  29.062  25.072  1.00  0.00    -0.376 OA
BRANCH   2   3
ATOM      3  C   UNL A   1      32.956  29.462  24.301  1.00  0.00     0.202 C 
BRANCH   3   4
ATOM      4  C   UNL A   1      33.593  28.548  23.250  1.00  0.00     0.261 C 
BRANCH   4   5
ATOM      5  O   UNL A   1      33.911  27.234  23.716  1.00  0.00    -0.460 OA
BRANCH   5   6
ATOM      6  C   UNL A   1      33.660  26.239  22.833  1.00  0.00     0.338 C 
ATOM      7  O   UNL A   1      33.717  26.298  21.617  1.00  0.00    -0.246 OA
BRANCH   6   8
ATOM      8  C   UNL A   1      33.462  24.983  23.572  1.00  0.00     0.087 C 
ATOM      9  C   UNL A   1      33.863  20.228  25.116  1.00  0.00     0.029 A 
ATOM     10  C   UNL A   1      32.842  21.201  25.153  1.00  0.00     0.058 A 
ATOM     11  C   UNL A   1      35.159  20.656  24.792  1.00  0.00     0.050 A 
ATOM     12  C   UNL A   1      33.070  22.505  24.714  1.00  0.00     0.128 A 
ATOM     13  C   UNL A   1      35.378  21.950  24.306  1.00  0.00     0.033 A 
ATOM     14  Cl  UNL A   1      36.557  19.665  25.001  1.00  0.00    -0.084 Cl
ATOM     15  C   UNL A   1      34.319  22.853  24.213  1.00  0.00     0.019 A 
ATOM     16  O   UNL A   1      31.997  23.349  24.732  1.00  0.00    -0.475 OA
ATOM     17  C   UNL A   1      34.483  24.117  23.523  1.00  0.00     0.027 C 
ATOM     18  C   UNL A   1      32.196  24.740  24.346  1.00  0.00     0.316 C 
BRANCH   9  19
ATOM     19  C   UNL A   1      33.488  18.785  25.376  1.00  0.00     0.300 C 
BRANCH  19  20
ATOM     20  N   UNL A   1      33.513  17.849  24.241  1.00  0.00    -0.332 N 
ATOM     21  C   UNL A   1      32.481  18.071  23.238  1.00  0.00     0.333 C 
ATOM     22  H   UNL A   1      34.410  18.161  23.865  1.00  0.00     0.348 HD
BRANCH  20  23
ATOM     23  C   UNL A   1      33.815  16.423  24.439  1.00  0.00     0.177 C 
ATOM     24  C   UNL A   1      35.152  16.216  25.156  1.00  0.00     0.075 C 
ATOM     25  C   UNL A   1      32.719  15.565  25.082  1.00  0.00     0.075 C 
ENDBRANCH  20  23
ENDBRANCH  19  20
ENDBRANCH   9  19
BRANCH  18  26
ATOM     26  C   UNL A   1      30.928  25.193  23.604  1.00  0.00     0.430 C 
ATOM     27  F   UNL A   1      30.891  24.684  22.348  1.00  0.00    -0.167 F 
ATOM     28  F   UNL A   1      29.800  24.774  24.221  1.00  0.00    -0.167 F 
ATOM     29  F   UNL A   1      30.859  26.539  23.501  1.00  0.00    -0.167 F 
ENDBRANCH  18  26
ENDBRANCH   6   8
ENDBRANCH   5   6
ENDBRANCH   4   5
ENDBRANCH   3   4
ENDBRANCH   2   3
ENDBRANCH   1   2
BRANCH   1  30
ATOM     30  C   UNL A   1      33.045  29.580  27.296  1.00  0.00     0.188 C 
BRANCH  30  31
ATOM     31  O   UNL A   1      33.283  30.892  27.768  1.00  0.00    -0.376 OA
BRANCH  31  32
ATOM     32  C   UNL A   1      32.529  31.963  27.212  1.00  0.00     0.202 C 
BRANCH  32  33
ATOM     33  C   UNL A   1      33.115  33.376  27.257  1.00  0.00     0.261 C 
BRANCH  33  34
ATOM     34  O   UNL A   1      32.281  34.284  27.997  1.00  0.00    -0.460 OA
BRANCH  34  35
ATOM     35  C   UNL A   1      32.917  35.052  28.914  1.00  0.00     0.338 C 
ATOM     36  O   UNL A   1      32.527  36.095  29.412  1.00  0.00    -0.246 OA
BRANCH  35  37
ATOM     37  C   UNL A   1      34.101  34.320  29.400  1.00  0.00     0.060 A 
ATOM     38  C   UNL A   1      35.363  34.553  28.854  1.00  0.00     0.016 A 
ATOM     39  C   UNL A   1      33.927  33.378  30.424  1.00  0.00     0.016 A 
ATOM     40  C   UNL A   1      36.464  33.850  29.350  1.00  0.00     0.010 A 
ATOM     41  C   UNL A   1      35.024  32.664  30.906  1.00  0.00     0.010 A 
ATOM     42  C   UNL A   1      36.302  32.908  30.382  1.00  0.00    -0.014 A 
BRANCH  42  43
ATOM     43  C   UNL A   1      37.493  32.280  30.998  1.00  0.00     0.031 A 
ATOM     44  C   UNL A   1      37.976  32.680  32.357  1.00  0.00     0.074 A 
ATOM     45  C   UNL A   1      38.134  31.321  30.305  1.00  0.00     0.049 A 
ATOM     46  N   UNL A   1      38.941  32.157  33.072  1.00  0.00    -0.248 NA
ATOM     47  C   UNL A   1      37.294  33.813  32.998  1.00  0.00     0.031 C 
ATOM     48  C   UNL A   1      37.763  30.869  28.964  1.00  0.00     0.029 A 
ATOM     49  N   UNL A   1      39.219  30.550  30.633  1.00  0.00    -0.354 N 
ATOM     50  C   UNL A   1      38.964  32.873  34.259  1.00  0.00     0.074 A 
ATOM     51  C   UNL A   1      37.949  33.902  34.149  1.00  0.00     0.031 C 
ATOM     52  C   UNL A   1      38.594  29.886  28.590  1.00  0.00     0.029 A 
ATOM     53  C   UNL A   1      39.562  29.648  29.658  1.00  0.00     0.049 A 
ATOM     54  H   UNL A   1      39.706  30.637  31.484  1.00  0.00     0.167 HD
ATOM     55  C   UNL A   1      39.748  32.670  35.346  1.00  0.00     0.037 A 
ATOM     56  C   UNL A   1      40.539  28.723  29.632  1.00  0.00     0.037 A 
ATOM     57  C   UNL A   1      40.770  31.655  35.439  1.00  0.00     0.049 A 
ATOM     58  C   UNL A   1      41.428  28.556  30.831  1.00  0.00     0.074 A 
ATOM     59  C   UNL A   1      41.588  31.353  36.514  1.00  0.00     0.029 A 
ATOM     60  N   UNL A   1      41.122  30.788  34.414  1.00  0.00    -0.354 N 
ATOM     61  N   UNL A   1      41.392  29.186  31.980  1.00  0.00    -0.248 NA
ATOM     62  C   UNL A   1      42.486  27.540  30.735  1.00  0.00     0.031 C 
ATOM     63  C   UNL A   1      42.468  30.337  36.124  1.00  0.00     0.029 A 
ATOM     64  C   UNL A   1      42.167  29.972  34.823  1.00  0.00     0.049 A 
ATOM     65  H   UNL A   1      40.695  30.757  33.528  1.00  0.00     0.167 HD
ATOM     66  C   UNL A   1      42.407  28.634  32.749  1.00  0.00     0.074 A 
ATOM     67  C   UNL A   1      43.028  27.605  31.943  1.00  0.00     0.031 C 
ATOM     68  C   UNL A   1      42.787  28.956  34.010  1.00  0.00     0.037 A 
BRANCH  55  69
ATOM     69  C   UNL A   1      39.530  33.548  36.541  1.00  0.00     0.064 A 
ATOM     70  C   UNL A   1      38.678  33.156  37.585  1.00  0.00     0.173 A 
ATOM     71  C   UNL A   1      40.247  34.744  36.694  1.00  0.00     0.173 A 
ATOM     72  F   UNL A   1      37.968  32.023  37.486  1.00  0.00    -0.203 F 
ATOM     73  C   UNL A   1      38.547  33.932  38.734  1.00  0.00     0.198 A 
ATOM     74  C   UNL A   1      40.132  35.506  37.854  1.00  0.00     0.198 A 
ATOM     75  F   UNL A   1      41.082  35.160  35.729  1.00  0.00    -0.203 F 
ATOM     76  F   UNL A   1      37.714  33.547  39.710  1.00  0.00    -0.200 F 
ATOM     77  C   UNL A   1      39.281  35.101  38.872  1.00  0.00     0.200 A 
ATOM     78  F   UNL A   1      40.853  36.627  37.992  1.00  0.00    -0.200 F 
ATOM     79  F   UNL A   1      39.170  35.835  39.987  1.00  0.00    -0.200 F 
ENDBRANCH  55  69
BRANCH  56  80
ATOM     80  C   UNL A   1      40.690  27.855  28.438  1.00  0.00     0.064 A 
ATOM     81  C   UNL A   1      40.013  26.633  28.351  1.00  0.00     0.173 A 
ATOM     82  C   UNL A   1      41.485  28.245  27.351  1.00  0.00     0.173 A 
ATOM     83  F   UNL A   1      39.255  26.212  29.375  1.00  0.00    -0.203 F 
ATOM     84  C   UNL A   1      40.131  25.826  27.221  1.00  0.00     0.198 A 
ATOM     85  C   UNL A   1      41.582  27.450  26.212  1.00  0.00     0.198 A 
ATOM     86  F   UNL A   1      42.148  29.410  27.386  1.00  0.00    -0.203 F 
ATOM     87  F   UNL A   1      39.495  24.648  27.173  1.00  0.00    -0.200 F 
ATOM     88  C   UNL A   1      40.908  26.239  26.149  1.00  0.00     0.200 A 
ATOM     89  F   UNL A   1      42.323  27.858  25.173  1.00  0.00    -0.200 F 
ATOM     90  F   UNL A   1      41.011  25.469  25.057  1.00  0.00    -0.200 F 
ENDBRANCH  56  80
BRANCH  68  91
ATOM     91  C   UNL A   1      43.929  28.183  34.603  1.00  0.00     0.064 A 
ATOM     92  C   UNL A   1      45.250  28.649  34.517  1.00  0.00     0.173 A 
ATOM     93  C   UNL A   1      43.698  26.989  35.302  1.00  0.00     0.173 A 
ATOM     94  F   UNL A   1      45.525  29.777  33.846  1.00  0.00    -0.203 F 
ATOM     95  C   UNL A   1      46.299  27.936  35.093  1.00  0.00     0.198 A 
ATOM     96  C   UNL A   1      44.746  26.294  35.900  1.00  0.00     0.198 A 
ATOM     97  F   UNL A   1      42.453  26.503  35.418  1.00  0.00    -0.203 F 
ATOM     98  F   UNL A   1      47.557  28.379  34.962  1.00  0.00    -0.200 F 
ATOM     99  C   UNL A   1      46.046  26.765  35.790  1.00  0.00     0.200 A 
ATOM    100  F   UNL A   1      44.498  25.169  36.585  1.00  0.00    -0.200 F 
ATOM    101  F   UNL A   1      47.056  26.086  36.351  1.00  0.00    -0.200 F 
ENDBRANCH  68  91
ENDBRANCH  42  43
ENDBRANCH  35  37
ENDBRANCH  34  35
ENDBRANCH  33  34
ENDBRANCH  32  33
ENDBRANCH  31  32
ENDBRANCH  30  31
ENDBRANCH   1  30
TORSDOF 21
ENDMDL
MODEL 2
REMARK VINA RESULT:     -10.7      0.850      2.193
REMARK SMILES CC(C)[N@@H+](C)Cc1cc2c(cc1Cl)C=C(C(=O)OCCOCCOCCOC(=O)c1ccc(-c3c4nc(c(-c5c(F)c(F)c(F)c(F)c5F)c5ccc([nH]5)c(-c5c(F)c(F)c(F)c(F)c5F)c5nc(c(-c6c(F)c(F)c(F)c(F)c6F)c6ccc3[nH]6)C=C5)C=C4)cc1)[C@@H](C(F)(F)F)O2
REMARK SMILES IDX 22 1 21 2 20 3 19 4 18 5 16 6 17 7 15 8 7 9 8 10 12 11 9 12
REMARK SMILES IDX 11 13 13 14 10 15 98 16 14 17 93 18 6 19 4 20 5 21 2 23 1 24
REMARK SMILES IDX 3 25 94 26 95 27 96 28 97 29 23 30 24 31 25 32 26 33 27 34
REMARK SMILES IDX 28 35 29 36 30 37 31 38 92 39 32 40 91 41 33 42 34 43 35 44
REMARK SMILES IDX 85 45 36 46 90 47 84 48 86 49 37 50 89 51 83 52 82 53 38 55
REMARK SMILES IDX 70 56 50 57 69 58 51 59 54 60 68 61 87 62 52 63 53 64 67 66
REMARK SMILES IDX 88 67 55 68 39 69 40 70 48 71 41 72 42 73 46 74 49 75 43 76
REMARK SMILES IDX 44 77 47 78 45 79 71 80 72 81 80 82 73 83 74 84 78 85 81 86
REMARK SMILES IDX 75 87 76 88 79 89 77 90 56 91 57 92 65 93 58 94 59 95 63 96
REMARK SMILES IDX 66 97 60 98 61 99 64 100 62 101
REMARK H PARENT 4 22 86 54 54 65
REMARK Flexibility Score: inf
ROOT
ATOM      1  C   UNL A   1      31.776  30.381  25.851  1.00  0.00     0.188 C 
ENDROOT
BRANCH   1   2
ATOM      2  O   UNL A   1      32.117  29.712  24.655  1.00  0.00    -0.376 OA
BRANCH   2   3
ATOM      3  C   UNL A   1      33.373  29.073  24.488  1.00  0.00     0.202 C 
BRANCH   3   4
ATOM      4  C   UNL A   1      33.510  27.706  23.810  1.00  0.00     0.261 C 
BRANCH   4   5
ATOM      5  O   UNL A   1      34.236  26.735  24.569  1.00  0.00    -0.460 OA
BRANCH   5   6
ATOM      6  C   UNL A   1      33.636  26.346  25.719  1.00  0.00     0.338 C 
ATOM      7  O   UNL A   1      33.356  27.043  26.679  1.00  0.00    -0.246 OA
BRANCH   6   8
ATOM      8  C   UNL A   1      33.200  24.948  25.582  1.00  0.00     0.087 C 
ATOM      9  C   UNL A   1      33.047  20.081  24.381  1.00  0.00     0.029 A 
ATOM     10  C   UNL A   1      32.075  21.068  24.650  1.00  0.00     0.058 A 
ATOM     11  C   UNL A   1      34.379  20.372  24.708  1.00  0.00     0.050 A 
ATOM     12  C   UNL A   1      32.441  22.349  25.060  1.00  0.00     0.128 A 
ATOM     13  C   UNL A   1      34.752  21.671  25.072  1.00  0.00     0.033 A 
ATOM     14  Cl  UNL A   1      35.626  19.178  24.728  1.00  0.00    -0.084 Cl
ATOM     15  C   UNL A   1      33.788  22.672  25.190  1.00  0.00     0.019 A 
ATOM     16  O   UNL A   1      31.427  23.247  25.231  1.00  0.00    -0.475 OA
ATOM     17  C   UNL A   1      34.176  24.058  25.360  1.00  0.00     0.027 C 
ATOM     18  C   UNL A   1      31.749  24.580  25.722  1.00  0.00     0.316 C 
BRANCH   9  19
ATOM     19  C   UNL A   1      32.599  18.798  23.713  1.00  0.00     0.300 C 
BRANCH  19  20
ATOM     20  N   UNL A   1      32.598  17.565  24.515  1.00  0.00    -0.332 N 
ATOM     21  C   UNL A   1      32.550  17.770  25.956  1.00  0.00     0.333 C 
ATOM     22  H   UNL A   1      31.687  17.232  24.199  1.00  0.00     0.348 HD
BRANCH  20  23
ATOM     23  C   UNL A   1      33.425  16.410  24.133  1.00  0.00     0.177 C 
ATOM     24  C   UNL A   1      34.165  16.648  22.815  1.00  0.00     0.075 C 
ATOM     25  C   UNL A   1      34.381  15.859  25.197  1.00  0.00     0.075 C 
ENDBRANCH  20  23
ENDBRANCH  19  20
ENDBRANCH   9  19
BRANCH  18  26
ATOM     26  C   UNL A   1      30.798  25.565  25.023  1.00  0.00     0.430 C 
ATOM     27  F   UNL A   1      31.266  25.908  23.798  1.00  0.00    -0.167 F 
ATOM     28  F   UNL A   1      29.569  25.035  24.829  1.00  0.00    -0.167 F 
ATOM     29  F   UNL A   1      30.641  26.704  25.733  1.00  0.00    -0.167 F 
ENDBRANCH  18  26
ENDBRANCH   6   8
ENDBRANCH   5   6
ENDBRANCH   4   5
ENDBRANCH   3   4
ENDBRANCH   2   3
ENDBRANCH   1   2
BRANCH   1  30
ATOM     30  C   UNL A   1      32.502  30.094  27.182  1.00  0.00     0.188 C 
BRANCH  30  31
ATOM     31  O   UNL A   1      33.169  31.131  27.875  1.00  0.00    -0.376 OA
BRANCH  31  32
ATOM     32  C   UNL A   1      33.373  32.373  27.212  1.00  0.00     0.202 C 
BRANCH  32  33
ATOM     33  C   UNL A   1      32.309  33.464  27.348  1.00  0.00     0.261 C 
BRANCH  33  34
ATOM     34  O   UNL A   1      32.315  34.066  28.654  1.00  0.00    -0.460 OA
BRANCH  34  35
ATOM     35  C   UNL A   1      33.227  35.049  28.844  1.00  0.00     0.338 C 
ATOM     36  O   UNL A   1      33.078  36.248  28.672  1.00  0.00    -0.246 OA
BRANCH  35  37
ATOM     37  C   UNL A   1      34.409  34.473  29.511  1.00  0.00     0.060 A 
ATOM     38  C   UNL A   1      34.295  33.828  30.743  1.00  0.00     0.016 A 
ATOM     39  C   UNL A   1      35.655  34.593  28.879  1.00  0.00     0.016 A 
ATOM     40  C   UNL A   1      35.435  33.282  31.338  1.00  0.00     0.010 A 
ATOM     41  C   UNL A   1      36.795  34.063  29.483  1.00  0.00     0.010 A 
ATOM     42  C   UNL A   1      36.689  33.391  30.709  1.00  0.00    -0.014 A 
BRANCH  42  43
ATOM     43  C   UNL A   1      37.859  32.682  31.275  1.00  0.00     0.031 A 
ATOM     44  C   UNL A   1      38.431  33.051  32.607  1.00  0.00     0.074 A 
ATOM     45  C   UNL A   1      38.396  31.676  30.561  1.00  0.00     0.049 A 
ATOM     46  N   UNL A   1      39.388  32.463  33.282  1.00  0.00    -0.248 NA
ATOM     47  C   UNL A   1      37.862  34.232  33.271  1.00  0.00     0.031 C 
ATOM     48  C   UNL A   1      37.933  31.247  29.241  1.00  0.00     0.029 A 
ATOM     49  N   UNL A   1      39.438  30.830  30.845  1.00  0.00    -0.354 N 
ATOM     50  C   UNL A   1      39.517  33.179  34.461  1.00  0.00     0.074 A 
ATOM     51  C   UNL A   1      38.574  34.279  34.390  1.00  0.00     0.031 C 
ATOM     52  C   UNL A   1      38.674  30.204  28.837  1.00  0.00     0.029 A 
ATOM     53  C   UNL A   1      39.670  29.901  29.861  1.00  0.00     0.049 A 
ATOM     54  H   UNL A   1      39.968  30.885  31.672  1.00  0.00     0.167 HD
ATOM     55  C   UNL A   1      40.333  32.925  35.513  1.00  0.00     0.037 A 
ATOM     56  C   UNL A   1      40.576  28.908  29.798  1.00  0.00     0.037 A 
ATOM     57  C   UNL A   1      41.282  31.840  35.567  1.00  0.00     0.049 A 
ATOM     58  C   UNL A   1      41.504  28.683  30.957  1.00  0.00     0.074 A 
ATOM     59  C   UNL A   1      42.125  31.483  36.606  1.00  0.00     0.029 A 
ATOM     60  N   UNL A   1      41.524  30.946  34.533  1.00  0.00    -0.354 N 
ATOM     61  N   UNL A   1      41.566  29.318  32.101  1.00  0.00    -0.248 NA
ATOM     62  C   UNL A   1      42.481  27.593  30.820  1.00  0.00     0.031 C 
ATOM     63  C   UNL A   1      42.912  30.405  36.184  1.00  0.00     0.029 A 
ATOM     64  C   UNL A   1      42.526  30.057  34.900  1.00  0.00     0.049 A 
ATOM     65  H   UNL A   1      41.056  30.942  33.668  1.00  0.00     0.167 HD
ATOM     66  C   UNL A   1      42.573  28.698  32.828  1.00  0.00     0.074 A 
ATOM     67  C   UNL A   1      43.081  27.623  32.002  1.00  0.00     0.031 C 
ATOM     68  C   UNL A   1      43.033  28.996  34.067  1.00  0.00     0.037 A 
BRANCH  55  69
ATOM     69  C   UNL A   1      40.233  33.822  36.710  1.00  0.00     0.064 A 
ATOM     70  C   UNL A   1      40.968  35.015  36.787  1.00  0.00     0.173 A 
ATOM     71  C   UNL A   1      39.328  33.541  37.745  1.00  0.00     0.173 A 
ATOM     72  F   UNL A   1      41.848  35.328  35.825  1.00  0.00    -0.203 F 
ATOM     73  C   UNL A   1      40.805  35.890  37.858  1.00  0.00     0.198 A 
ATOM     74  C   UNL A   1      39.151  34.428  38.803  1.00  0.00     0.198 A 
ATOM     75  F   UNL A   1      38.595  32.417  37.715  1.00  0.00    -0.203 F 
ATOM     76  F   UNL A   1      41.530  37.014  37.919  1.00  0.00    -0.200 F 
ATOM     77  C   UNL A   1      39.890  35.601  38.860  1.00  0.00     0.200 A 
ATOM     78  F   UNL A   1      38.256  34.156  39.762  1.00  0.00    -0.200 F 
ATOM     79  F   UNL A   1      39.719  36.454  39.879  1.00  0.00    -0.200 F 
ENDBRANCH  55  69
BRANCH  56  80
ATOM     80  C   UNL A   1      40.608  28.027  28.605  1.00  0.00     0.064 A 
ATOM     81  C   UNL A   1      41.367  28.373  27.480  1.00  0.00     0.173 A 
ATOM     82  C   UNL A   1      39.911  26.811  28.579  1.00  0.00     0.173 A 
ATOM     83  F   UNL A   1      42.035  29.535  27.454  1.00  0.00    -0.203 F 
ATOM     84  C   UNL A   1      41.421  27.537  26.367  1.00  0.00     0.198 A 
ATOM     85  C   UNL A   1      39.986  25.964  27.476  1.00  0.00     0.198 A 
ATOM     86  F   UNL A   1      39.176  26.435  29.636  1.00  0.00    -0.203 F 
ATOM     87  F   UNL A   1      42.131  27.902  25.291  1.00  0.00    -0.200 F 
ATOM     88  C   UNL A   1      40.738  26.329  26.369  1.00  0.00     0.200 A 
ATOM     89  F   UNL A   1      39.336  24.793  27.487  1.00  0.00    -0.200 F 
ATOM     90  F   UNL A   1      40.801  25.519  25.304  1.00  0.00    -0.200 F 
ENDBRANCH  56  80
BRANCH  68  91
ATOM     91  C   UNL A   1      44.142  28.145  34.613  1.00  0.00     0.064 A 
ATOM     92  C   UNL A   1      43.876  26.957  35.310  1.00  0.00     0.173 A 
ATOM     93  C   UNL A   1      45.484  28.495  34.400  1.00  0.00     0.173 A 
ATOM     94  F   UNL A   1      42.610  26.586  35.554  1.00  0.00    -0.203 F 
ATOM     95  C   UNL A   1      44.914  26.162  35.790  1.00  0.00     0.198 A 
ATOM     96  C   UNL A   1      46.518  27.683  34.857  1.00  0.00     0.198 A 
ATOM     97  F   UNL A   1      45.793  29.619  33.735  1.00  0.00    -0.203 F 
ATOM     98  F   UNL A   1      44.636  25.052  36.489  1.00  0.00    -0.200 F 
ATOM     99  C   UNL A   1      46.233  26.520  35.557  1.00  0.00     0.200 A 
ATOM    100  F   UNL A   1      47.793  28.025  34.620  1.00  0.00    -0.200 F 
ATOM    101  F   UNL A   1      47.230  25.749  36.012  1.00  0.00    -0.200 F 
ENDBRANCH  68  91
ENDBRANCH  42  43
ENDBRANCH  35  37
ENDBRANCH  34  35
ENDBRANCH  33  34
ENDBRANCH  32  33
ENDBRANCH  31  32
ENDBRANCH  30  31
ENDBRANCH   1  30
TORSDOF 21
ENDMDL
MODEL 3
REMARK VINA RESULT:     -10.6      1.518      2.253
REMARK SMILES CC(C)[N@@H+](C)Cc1cc2c(cc1Cl)C=C(C(=O)OCCOCCOCCOC(=O)c1ccc(-c3c4nc(c(-c5c(F)c(F)c(F)c(F)c5F)c5ccc([nH]5)c(-c5c(F)c(F)c(F)c(F)c5F)c5nc(c(-c6c(F)c(F)c(F)c(F)c6F)c6ccc3[nH]6)C=C5)C=C4)cc1)[C@@H](C(F)(F)F)O2
REMARK SMILES IDX 22 1 21 2 20 3 19 4 18 5 16 6 17 7 15 8 7 9 8 10 12 11 9 12
REMARK SMILES IDX 11 13 13 14 10 15 98 16 14 17 93 18 6 19 4 20 5 21 2 23 1 24
REMARK SMILES IDX 3 25 94 26 95 27 96 28 97 29 23 30 24 31 25 32 26 33 27 34
REMARK SMILES IDX 28 35 29 36 30 37 31 38 92 39 32 40 91 41 33 42 34 43 35 44
REMARK SMILES IDX 85 45 36 46 90 47 84 48 86 49 37 50 89 51 83 52 82 53 38 55
REMARK SMILES IDX 70 56 50 57 69 58 51 59 54 60 68 61 87 62 52 63 53 64 67 66
REMARK SMILES IDX 88 67 55 68 39 69 40 70 48 71 41 72 42 73 46 74 49 75 43 76
REMARK SMILES IDX 44 77 47 78 45 79 71 80 72 81 80 82 73 83 74 84 78 85 81 86
REMARK SMILES IDX 75 87 76 88 79 89 77 90 56 91 57 92 65 93 58 94 59 95 63 96
REMARK SMILES IDX 66 97 60 98 61 99 64 100 62 101
REMARK H PARENT 4 22 86 54 54 65
REMARK Flexibility Score: inf
ROOT
ATOM      1  C   UNL A   1      31.447  29.573  24.859  1.00  0.00     0.188 C 
ENDROOT
BRANCH   1   2
ATOM      2  O   UNL A   1      31.649  28.535  23.922  1.00  0.00    -0.376 OA
BRANCH   2   3
ATOM      3  C   UNL A   1      32.945  28.038  23.625  1.00  0.00     0.202 C 
BRANCH   3   4
ATOM      4  C   UNL A   1      33.257  26.539  23.589  1.00  0.00     0.261 C 
BRANCH   4   5
ATOM      5  O   UNL A   1      34.123  26.085  24.633  1.00  0.00    -0.460 OA
BRANCH   5   6
ATOM      6  C   UNL A   1      33.491  25.566  25.712  1.00  0.00     0.338 C 
ATOM      7  O   UNL A   1      32.765  26.153  26.497  1.00  0.00    -0.246 OA
BRANCH   6   8
ATOM      8  C   UNL A   1      33.671  24.107  25.716  1.00  0.00     0.087 C 
ATOM      9  C   UNL A   1      35.473  19.507  24.851  1.00  0.00     0.029 A 
ATOM     10  C   UNL A   1      34.202  20.031  25.170  1.00  0.00     0.058 A 
ATOM     11  C   UNL A   1      36.582  20.352  25.001  1.00  0.00     0.050 A 
ATOM     12  C   UNL A   1      34.030  21.386  25.452  1.00  0.00     0.128 A 
ATOM     13  C   UNL A   1      36.406  21.719  25.236  1.00  0.00     0.033 A 
ATOM     14  Cl  UNL A   1      38.211  19.783  24.951  1.00  0.00    -0.084 Cl
ATOM     15  C   UNL A   1      35.124  22.243  25.403  1.00  0.00     0.019 A 
ATOM     16  O   UNL A   1      32.750  21.801  25.684  1.00  0.00    -0.475 OA
ATOM     17  C   UNL A   1      34.908  23.676  25.438  1.00  0.00     0.027 C 
ATOM     18  C   UNL A   1      32.523  23.194  26.048  1.00  0.00     0.316 C 
BRANCH   9  19
ATOM     19  C   UNL A   1      35.551  18.091  24.323  1.00  0.00     0.300 C 
BRANCH  19  20
ATOM     20  N   UNL A   1      34.769  17.052  25.011  1.00  0.00    -0.332 N 
ATOM     21  C   UNL A   1      35.515  15.853  25.363  1.00  0.00     0.333 C 
ATOM     22  H   UNL A   1      34.594  17.593  25.858  1.00  0.00     0.348 HD
BRANCH  20  23
ATOM     23  C   UNL A   1      33.381  16.762  24.618  1.00  0.00     0.177 C 
ATOM     24  C   UNL A   1      32.381  17.184  25.696  1.00  0.00     0.075 C 
ATOM     25  C   UNL A   1      32.931  17.262  23.239  1.00  0.00     0.075 C 
ENDBRANCH  20  23
ENDBRANCH  19  20
ENDBRANCH   9  19
BRANCH  18  26
ATOM     26  C   UNL A   1      31.194  23.622  25.404  1.00  0.00     0.430 C 
ATOM     27  F   UNL A   1      30.625  24.641  26.093  1.00  0.00    -0.167 F 
ATOM     28  F   UNL A   1      31.362  24.063  24.137  1.00  0.00    -0.167 F 
ATOM     29  F   UNL A   1      30.303  22.607  25.367  1.00  0.00    -0.167 F 
ENDBRANCH  18  26
ENDBRANCH   6   8
ENDBRANCH   5   6
ENDBRANCH   4   5
ENDBRANCH   3   4
ENDBRANCH   2   3
ENDBRANCH   1   2
BRANCH   1  30
ATOM     30  C   UNL A   1      31.615  29.347  26.376  1.00  0.00     0.188 C 
BRANCH  30  31
ATOM     31  O   UNL A   1      32.030  30.405  27.218  1.00  0.00    -0.376 OA
BRANCH  31  32
ATOM     32  C   UNL A   1      32.505  31.605  26.621  1.00  0.00     0.202 C 
BRANCH  32  33
ATOM     33  C   UNL A   1      32.134  32.943  27.263  1.00  0.00     0.261 C 
BRANCH  33  34
ATOM     34  O   UNL A   1      33.054  33.318  28.302  1.00  0.00    -0.460 OA
BRANCH  34  35
ATOM     35  C   UNL A   1      34.205  33.899  27.888  1.00  0.00     0.338 C 
ATOM     36  O   UNL A   1      34.334  34.950  27.281  1.00  0.00    -0.246 OA
BRANCH  35  37
ATOM     37  C   UNL A   1      35.341  33.163  28.473  1.00  0.00     0.060 A 
ATOM     38  C   UNL A   1      36.646  33.640  28.349  1.00  0.00     0.016 A 
ATOM     39  C   UNL A   1      35.079  31.966  29.154  1.00  0.00     0.016 A 
ATOM     40  C   UNL A   1      37.695  32.922  28.928  1.00  0.00     0.010 A 
ATOM     41  C   UNL A   1      36.129  31.240  29.716  1.00  0.00     0.010 A 
ATOM     42  C   UNL A   1      37.442  31.723  29.619  1.00  0.00    -0.014 A 
BRANCH  42  43
ATOM     43  C   UNL A   1      38.540  31.051  30.353  1.00  0.00     0.031 A 
ATOM     44  C   UNL A   1      38.811  31.340  31.795  1.00  0.00     0.074 A 
ATOM     45  C   UNL A   1      39.291  30.155  29.687  1.00  0.00     0.049 A 
ATOM     46  N   UNL A   1      39.668  30.763  32.601  1.00  0.00    -0.248 NA
ATOM     47  C   UNL A   1      38.023  32.413  32.418  1.00  0.00     0.031 C 
ATOM     48  C   UNL A   1      39.129  29.814  28.273  1.00  0.00     0.029 A 
ATOM     49  N   UNL A   1      40.328  29.364  30.108  1.00  0.00    -0.354 N 
ATOM     50  C   UNL A   1      39.504  31.379  33.832  1.00  0.00     0.074 A 
ATOM     51  C   UNL A   1      38.500  32.410  33.657  1.00  0.00     0.031 C 
ATOM     52  C   UNL A   1      40.022  28.868  27.948  1.00  0.00     0.029 A 
ATOM     53  C   UNL A   1      40.826  28.547  29.125  1.00  0.00     0.049 A 
ATOM     54  H   UNL A   1      40.683  29.383  31.026  1.00  0.00     0.167 HD
ATOM     55  C   UNL A   1      40.122  31.090  35.003  1.00  0.00     0.037 A 
ATOM     56  C   UNL A   1      41.811  27.631  29.170  1.00  0.00     0.037 A 
ATOM     57  C   UNL A   1      41.135  30.076  35.165  1.00  0.00     0.049 A 
ATOM     58  C   UNL A   1      42.515  27.369  30.470  1.00  0.00     0.074 A 
ATOM     59  C   UNL A   1      41.791  29.689  36.321  1.00  0.00     0.029 A 
ATOM     60  N   UNL A   1      41.649  29.298  34.136  1.00  0.00    -0.354 N 
ATOM     61  N   UNL A   1      42.301  27.902  31.647  1.00  0.00    -0.248 NA
ATOM     62  C   UNL A   1      43.592  26.369  30.450  1.00  0.00     0.031 C 
ATOM     63  C   UNL A   1      42.736  28.712  35.985  1.00  0.00     0.029 A 
ATOM     64  C   UNL A   1      42.636  28.454  34.628  1.00  0.00     0.049 A 
ATOM     65  H   UNL A   1      41.358  29.338  33.197  1.00  0.00     0.167 HD
ATOM     66  C   UNL A   1      43.200  27.293  32.512  1.00  0.00     0.074 A 
ATOM     67  C   UNL A   1      43.950  26.336  31.726  1.00  0.00     0.031 C 
ATOM     68  C   UNL A   1      43.384  27.511  33.837  1.00  0.00     0.037 A 
BRANCH  55  69
ATOM     69  C   UNL A   1      39.716  31.867  36.220  1.00  0.00     0.064 A 
ATOM     70  C   UNL A   1      40.444  32.990  36.641  1.00  0.00     0.173 A 
ATOM     71  C   UNL A   1      38.539  31.549  36.915  1.00  0.00     0.173 A 
ATOM     72  F   UNL A   1      41.577  33.334  36.012  1.00  0.00    -0.203 F 
ATOM     73  C   UNL A   1      40.013  33.762  37.717  1.00  0.00     0.198 A 
ATOM     74  C   UNL A   1      38.099  32.335  37.976  1.00  0.00     0.198 A 
ATOM     75  F   UNL A   1      37.802  30.490  36.547  1.00  0.00    -0.203 F 
ATOM     76  F   UNL A   1      40.734  34.819  38.113  1.00  0.00    -0.200 F 
ATOM     77  C   UNL A   1      38.836  33.439  38.378  1.00  0.00     0.200 A 
ATOM     78  F   UNL A   1      36.954  32.032  38.603  1.00  0.00    -0.200 F 
ATOM     79  F   UNL A   1      38.411  34.195  39.399  1.00  0.00    -0.200 F 
ENDBRANCH  55  69
BRANCH  56  80
ATOM     80  C   UNL A   1      42.150  26.865  27.945  1.00  0.00     0.064 A 
ATOM     81  C   UNL A   1      41.474  25.679  27.632  1.00  0.00     0.173 A 
ATOM     82  C   UNL A   1      43.129  27.320  27.050  1.00  0.00     0.173 A 
ATOM     83  F   UNL A   1      40.543  25.198  28.468  1.00  0.00    -0.203 F 
ATOM     84  C   UNL A   1      41.771  24.970  26.470  1.00  0.00     0.198 A 
ATOM     85  C   UNL A   1      43.407  26.623  25.877  1.00  0.00     0.198 A 
ATOM     86  F   UNL A   1      43.799  28.453  27.305  1.00  0.00    -0.203 F 
ATOM     87  F   UNL A   1      41.131  23.823  26.206  1.00  0.00    -0.200 F 
ATOM     88  C   UNL A   1      42.731  25.447  25.589  1.00  0.00     0.200 A 
ATOM     89  F   UNL A   1      44.325  27.094  25.022  1.00  0.00    -0.200 F 
ATOM     90  F   UNL A   1      43.007  24.771  24.466  1.00  0.00    -0.200 F 
ENDBRANCH  56  80
BRANCH  68  91
ATOM     91  C   UNL A   1      44.439  26.696  34.528  1.00  0.00     0.064 A 
ATOM     92  C   UNL A   1      45.731  27.201  34.739  1.00  0.00     0.173 A 
ATOM     93  C   UNL A   1      44.144  25.418  35.024  1.00  0.00     0.173 A 
ATOM     94  F   UNL A   1      46.067  28.412  34.270  1.00  0.00    -0.203 F 
ATOM     95  C   UNL A   1      46.694  26.446  35.404  1.00  0.00     0.198 A 
ATOM     96  C   UNL A   1      45.102  24.678  35.712  1.00  0.00     0.198 A 
ATOM     97  F   UNL A   1      42.922  24.891  34.853  1.00  0.00    -0.203 F 
ATOM     98  F   UNL A   1      47.934  26.932  35.558  1.00  0.00    -0.200 F 
ATOM     99  C   UNL A   1      46.377  25.190  35.897  1.00  0.00     0.200 A 
ATOM    100  F   UNL A   1      44.790  23.468  36.200  1.00  0.00    -0.200 F 
ATOM    101  F   UNL A   1      47.303  24.469  36.545  1.00  0.00    -0.200 F 
ENDBRANCH  68  91
ENDBRANCH  42  43
ENDBRANCH  35  37
ENDBRANCH  34  35
ENDBRANCH  33  34
ENDBRANCH  32  33
ENDBRANCH  31  32
ENDBRANCH  30  31
ENDBRANCH   1  30
TORSDOF 21
ENDMDL
