MODEL 1
REMARK VINA RESULT:     -11.9      0.000      0.000
REMARK SMILES CC1=C(CC(=O)OCCOCCOCCOC(=O)c2ccc(-c3c4nc(c(-c5c(F)c(F)c(F)c(F)c5F)c5ccc([nH]5)c(-c5c(F)c(F)c(F)c(F)c5F)c5nc(c(-c6c(F)c(F)c(F)c(F)c6F)c6ccc3[nH]6)C=C5)C=C4)cc2)c2cc(F)ccc2/C1=C\c1cccc(OCc2ccccc2)c1
REMARK SMILES IDX 10 1 9 2 8 3 7 4 5 5 6 6 4 7 3 8 1 9 2 10 89 11 82 12 88 13
REMARK SMILES IDX 90 14 83 15 87 16 84 17 86 18 85 19 91 20 92 21 104 22 93 23
REMARK SMILES IDX 95 24 94 25 96 26 97 27 98 28 99 29 103 30 100 31 102 32
REMARK SMILES IDX 101 33 11 34 12 35 13 36 14 37 15 38 16 39 17 40 18 41 19 42
REMARK SMILES IDX 20 43 81 44 21 45 80 46 22 47 23 48 24 49 74 50 25 51 79 52
REMARK SMILES IDX 73 53 75 54 26 55 78 56 72 57 71 58 27 60 59 61 39 62 58 63
REMARK SMILES IDX 40 64 43 65 57 66 76 67 41 68 42 69 56 71 77 72 44 73 28 74
REMARK SMILES IDX 29 75 37 76 30 77 31 78 35 79 38 80 32 81 33 82 36 83 34 84
REMARK SMILES IDX 60 85 61 86 69 87 62 88 63 89 67 90 70 91 64 92 65 93 68 94
REMARK SMILES IDX 66 95 45 96 46 97 54 98 47 99 48 100 52 101 55 102 49 103
REMARK SMILES IDX 50 104 53 105 51 106
REMARK H PARENT 75 59 43 70
REMARK Flexibility Score: inf
ROOT
ATOM      1  O   UNL A   1      33.329  30.939  27.565  1.00  0.00    -0.376 OA
ENDROOT
BRANCH   1   2
ATOM      2  C   UNL A   1      32.172  30.929  26.736  1.00  0.00     0.202 C 
BRANCH   2   3
ATOM      3  C   UNL A   1      32.299  30.050  25.490  1.00  0.00     0.261 C 
BRANCH   3   4
ATOM      4  O   UNL A   1      31.189  29.132  25.360  1.00  0.00    -0.463 OA
BRANCH   4   5
ATOM      5  C   UNL A   1      30.481  29.213  24.206  1.00  0.00     0.310 C 
ATOM      6  O   UNL A   1      29.985  30.250  23.773  1.00  0.00    -0.252 OA
BRANCH   5   7
ATOM      7  C   UNL A   1      30.411  27.910  23.405  1.00  0.00     0.159 C 
BRANCH   7   8
ATOM      8  C   UNL A   1      31.380  26.796  23.664  1.00  0.00    -0.025 C 
ATOM      9  C   UNL A   1      33.423  27.629  22.393  1.00  0.00     0.045 C 
ATOM     10  C   UNL A   1      32.658  26.662  23.233  1.00  0.00    -0.039 C 
ATOM     11  C   UNL A   1      33.255  25.446  23.812  1.00  0.00    -0.014 C 
ATOM     12  C   UNL A   1      31.139  25.708  24.635  1.00  0.00    -0.011 A 
ATOM     13  C   UNL A   1      32.222  24.813  24.640  1.00  0.00    -0.010 A 
ATOM     14  C   UNL A   1      34.545  25.080  23.699  1.00  0.00     0.017 C 
ATOM     15  C   UNL A   1      30.093  25.510  25.522  1.00  0.00     0.048 A 
ATOM     16  C   UNL A   1      32.189  23.634  25.378  1.00  0.00     0.012 A 
ATOM     17  C   UNL A   1      30.112  24.372  26.333  1.00  0.00     0.123 A 
ATOM     18  C   UNL A   1      31.113  23.412  26.230  1.00  0.00     0.040 A 
ATOM     19  F   UNL A   1      29.118  24.181  27.210  1.00  0.00    -0.207 F 
BRANCH  14  20
ATOM     20  C   UNL A   1      35.192  23.982  24.429  1.00  0.00    -0.021 A 
ATOM     21  C   UNL A   1      36.101  24.245  25.456  1.00  0.00     0.008 A 
ATOM     22  C   UNL A   1      34.901  22.653  24.084  1.00  0.00     0.054 A 
ATOM     23  C   UNL A   1      36.714  23.185  26.126  1.00  0.00     0.004 A 
ATOM     24  C   UNL A   1      35.435  21.592  24.815  1.00  0.00     0.120 A 
ATOM     25  C   UNL A   1      36.375  21.866  25.810  1.00  0.00     0.046 A 
BRANCH  24  26
ATOM     26  O   UNL A   1      35.120  20.271  24.659  1.00  0.00    -0.489 OA
BRANCH  26  27
ATOM     27  C   UNL A   1      33.748  19.868  24.756  1.00  0.00     0.265 C 
BRANCH  27  28
ATOM     28  C   UNL A   1      33.551  18.364  24.777  1.00  0.00    -0.011 A 
ATOM     29  C   UNL A   1      34.237  17.543  23.871  1.00  0.00     0.007 A 
ATOM     30  C   UNL A   1      32.679  17.755  25.692  1.00  0.00     0.007 A 
ATOM     31  C   UNL A   1      34.049  16.157  23.883  1.00  0.00     0.000 A 
ATOM     32  C   UNL A   1      32.512  16.370  25.722  1.00  0.00     0.000 A 
ATOM     33  C   UNL A   1      33.194  15.571  24.813  1.00  0.00     0.000 A 
ENDBRANCH  27  28
ENDBRANCH  26  27
ENDBRANCH  24  26
ENDBRANCH  14  20
ENDBRANCH   7   8
ENDBRANCH   5   7
ENDBRANCH   4   5
ENDBRANCH   3   4
ENDBRANCH   2   3
ENDBRANCH   1   2
BRANCH   1  34
ATOM     34  C   UNL A   1      33.800  32.205  28.023  1.00  0.00     0.188 C 
BRANCH  34  35
ATOM     35  C   UNL A   1      32.864  33.416  27.909  1.00  0.00     0.188 C 
BRANCH  35  36
ATOM     36  O   UNL A   1      32.898  34.212  29.089  1.00  0.00    -0.376 OA
BRANCH  36  37
ATOM     37  C   UNL A   1      33.327  35.548  28.857  1.00  0.00     0.202 C 
BRANCH  37  38
ATOM     38  C   UNL A   1      32.740  36.467  29.927  1.00  0.00     0.261 C 
BRANCH  38  39
ATOM     39  O   UNL A   1      32.135  35.749  31.020  1.00  0.00    -0.460 OA
BRANCH  39  40
ATOM     40  C   UNL A   1      32.657  35.981  32.242  1.00  0.00     0.338 C 
ATOM     41  O   UNL A   1      32.215  36.709  33.110  1.00  0.00    -0.246 OA
BRANCH  40  42
ATOM     42  C   UNL A   1      33.846  35.124  32.401  1.00  0.00     0.060 A 
ATOM     43  C   UNL A   1      35.122  35.625  32.170  1.00  0.00     0.016 A 
ATOM     44  C   UNL A   1      33.679  33.821  32.867  1.00  0.00     0.016 A 
ATOM     45  C   UNL A   1      36.233  34.816  32.440  1.00  0.00     0.010 A 
ATOM     46  C   UNL A   1      34.784  33.032  33.188  1.00  0.00     0.010 A 
ATOM     47  C   UNL A   1      36.075  33.525  32.984  1.00  0.00    -0.014 A 
BRANCH  47  48
ATOM     48  C   UNL A   1      37.257  32.747  33.436  1.00  0.00     0.031 A 
ATOM     49  C   UNL A   1      37.883  31.687  32.576  1.00  0.00     0.074 A 
ATOM     50  C   UNL A   1      37.747  32.980  34.670  1.00  0.00     0.049 A 
ATOM     51  N   UNL A   1      38.985  31.008  32.778  1.00  0.00    -0.248 NA
ATOM     52  C   UNL A   1      37.172  31.320  31.343  1.00  0.00     0.031 C 
ATOM     53  C   UNL A   1      37.159  33.899  35.645  1.00  0.00     0.029 A 
ATOM     54  N   UNL A   1      38.852  32.477  35.310  1.00  0.00    -0.354 N 
ATOM     55  C   UNL A   1      39.111  30.154  31.692  1.00  0.00     0.074 A 
ATOM     56  C   UNL A   1      37.938  30.348  30.867  1.00  0.00     0.031 C 
ATOM     57  C   UNL A   1      37.939  33.938  36.737  1.00  0.00     0.029 A 
ATOM     58  C   UNL A   1      39.073  33.039  36.543  1.00  0.00     0.049 A 
ATOM     59  H   UNL A   1      39.431  31.782  34.922  1.00  0.00     0.167 HD
ATOM     60  C   UNL A   1      40.129  29.308  31.395  1.00  0.00     0.037 A 
ATOM     61  C   UNL A   1      40.091  32.874  37.408  1.00  0.00     0.037 A 
ATOM     62  C   UNL A   1      41.294  29.117  32.223  1.00  0.00     0.049 A 
ATOM     63  C   UNL A   1      41.230  31.966  37.039  1.00  0.00     0.074 A 
ATOM     64  C   UNL A   1      42.403  28.325  31.984  1.00  0.00     0.029 A 
ATOM     65  N   UNL A   1      41.495  29.723  33.455  1.00  0.00    -0.354 N 
ATOM     66  N   UNL A   1      41.393  31.245  35.958  1.00  0.00    -0.248 NA
ATOM     67  C   UNL A   1      42.334  31.864  38.002  1.00  0.00     0.031 C 
ATOM     68  C   UNL A   1      43.260  28.423  33.087  1.00  0.00     0.029 A 
ATOM     69  C   UNL A   1      42.705  29.313  33.993  1.00  0.00     0.049 A 
ATOM     70  H   UNL A   1      40.870  30.350  33.884  1.00  0.00     0.167 HD
ATOM     71  C   UNL A   1      42.626  30.622  36.097  1.00  0.00     0.074 A 
ATOM     72  C   UNL A   1      43.176  31.065  37.362  1.00  0.00     0.031 C 
ATOM     73  C   UNL A   1      43.242  29.761  35.252  1.00  0.00     0.037 A 
BRANCH  60  74
ATOM     74  C   UNL A   1      40.054  28.550  30.101  1.00  0.00     0.064 A 
ATOM     75  C   UNL A   1      40.644  29.053  28.932  1.00  0.00     0.173 A 
ATOM     76  C   UNL A   1      39.460  27.280  30.041  1.00  0.00     0.173 A 
ATOM     77  F   UNL A   1      41.222  30.263  28.934  1.00  0.00    -0.203 F 
ATOM     78  C   UNL A   1      40.627  28.321  27.747  1.00  0.00     0.198 A 
ATOM     79  C   UNL A   1      39.469  26.540  28.861  1.00  0.00     0.198 A 
ATOM     80  F   UNL A   1      38.892  26.746  31.133  1.00  0.00    -0.203 F 
ATOM     81  F   UNL A   1      41.172  28.836  26.636  1.00  0.00    -0.200 F 
ATOM     82  C   UNL A   1      40.048  27.062  27.715  1.00  0.00     0.200 A 
ATOM     83  F   UNL A   1      38.924  25.316  28.835  1.00  0.00    -0.200 F 
ATOM     84  F   UNL A   1      40.049  26.352  26.578  1.00  0.00    -0.200 F 
ENDBRANCH  60  74
BRANCH  61  85
ATOM     85  C   UNL A   1      40.115  33.665  38.665  1.00  0.00     0.064 A 
ATOM     86  C   UNL A   1      39.440  33.212  39.807  1.00  0.00     0.173 A 
ATOM     87  C   UNL A   1      40.840  34.860  38.765  1.00  0.00     0.173 A 
ATOM     88  F   UNL A   1      38.721  32.081  39.754  1.00  0.00    -0.203 F 
ATOM     89  C   UNL A   1      39.483  33.929  41.000  1.00  0.00     0.198 A 
ATOM     90  C   UNL A   1      40.901  35.565  39.965  1.00  0.00     0.198 A 
ATOM     91  F   UNL A   1      41.508  35.332  37.701  1.00  0.00    -0.203 F 
ATOM     92  F   UNL A   1      38.806  33.488  42.069  1.00  0.00    -0.200 F 
ATOM     93  C   UNL A   1      40.220  35.100  41.080  1.00  0.00     0.200 A 
ATOM     94  F   UNL A   1      41.627  36.689  40.045  1.00  0.00    -0.200 F 
ATOM     95  F   UNL A   1      40.272  35.782  42.233  1.00  0.00    -0.200 F 
ENDBRANCH  61  85
BRANCH  73  96
ATOM     96  C   UNL A   1      44.594  29.250  35.657  1.00  0.00     0.064 A 
ATOM     97  C   UNL A   1      45.769  29.936  35.318  1.00  0.00     0.173 A 
ATOM     98  C   UNL A   1      44.712  28.083  36.427  1.00  0.00     0.173 A 
ATOM     99  F   UNL A   1      45.709  31.049  34.571  1.00  0.00    -0.203 F 
ATOM    100  C   UNL A   1      47.015  29.460  35.716  1.00  0.00     0.198 A 
ATOM    101  C   UNL A   1      45.958  27.625  36.846  1.00  0.00     0.198 A 
ATOM    102  F   UNL A   1      43.617  27.394  36.783  1.00  0.00    -0.203 F 
ATOM    103  F   UNL A   1      48.128  30.108  35.345  1.00  0.00    -0.200 F 
ATOM    104  C   UNL A   1      47.108  28.309  36.485  1.00  0.00     0.200 A 
ATOM    105  F   UNL A   1      46.045  26.520  37.599  1.00  0.00    -0.200 F 
ATOM    106  F   UNL A   1      48.309  27.856  36.872  1.00  0.00    -0.200 F 
ENDBRANCH  73  96
ENDBRANCH  47  48
ENDBRANCH  40  42
ENDBRANCH  39  40
ENDBRANCH  38  39
ENDBRANCH  37  38
ENDBRANCH  36  37
ENDBRANCH  35  36
ENDBRANCH  34  35
ENDBRANCH   1  34
TORSDOF 22
ENDMDL
MODEL 2
REMARK VINA RESULT:     -11.2      1.291      3.015
REMARK SMILES CC1=C(CC(=O)OCCOCCOCCOC(=O)c2ccc(-c3c4nc(c(-c5c(F)c(F)c(F)c(F)c5F)c5ccc([nH]5)c(-c5c(F)c(F)c(F)c(F)c5F)c5nc(c(-c6c(F)c(F)c(F)c(F)c6F)c6ccc3[nH]6)C=C5)C=C4)cc2)c2cc(F)ccc2/C1=C\c1cccc(OCc2ccccc2)c1
REMARK SMILES IDX 10 1 9 2 8 3 7 4 5 5 6 6 4 7 3 8 1 9 2 10 89 11 82 12 88 13
REMARK SMILES IDX 90 14 83 15 87 16 84 17 86 18 85 19 91 20 92 21 104 22 93 23
REMARK SMILES IDX 95 24 94 25 96 26 97 27 98 28 99 29 103 30 100 31 102 32
REMARK SMILES IDX 101 33 11 34 12 35 13 36 14 37 15 38 16 39 17 40 18 41 19 42
REMARK SMILES IDX 20 43 81 44 21 45 80 46 22 47 23 48 24 49 74 50 25 51 79 52
REMARK SMILES IDX 73 53 75 54 26 55 78 56 72 57 71 58 27 60 59 61 39 62 58 63
REMARK SMILES IDX 40 64 43 65 57 66 76 67 41 68 42 69 56 71 77 72 44 73 28 74
REMARK SMILES IDX 29 75 37 76 30 77 31 78 35 79 38 80 32 81 33 82 36 83 34 84
REMARK SMILES IDX 60 85 61 86 69 87 62 88 63 89 67 90 70 91 64 92 65 93 68 94
REMARK SMILES IDX 66 95 45 96 46 97 54 98 47 99 48 100 52 101 55 102 49 103
REMARK SMILES IDX 50 104 53 105 51 106
REMARK H PARENT 75 59 43 70
REMARK Flexibility Score: inf
ROOT
ATOM      1  O   UNL A   1      33.451  30.879  27.635  1.00  0.00    -0.376 OA
ENDROOT
BRANCH   1   2
ATOM      2  C   UNL A   1      32.375  30.828  26.704  1.00  0.00     0.202 C 
BRANCH   2   3
ATOM      3  C   UNL A   1      32.554  29.792  25.592  1.00  0.00     0.261 C 
BRANCH   3   4
ATOM      4  O   UNL A   1      31.418  28.903  25.494  1.00  0.00    -0.463 OA
BRANCH   4   5
ATOM      5  C   UNL A   1      30.680  29.003  24.360  1.00  0.00     0.310 C 
ATOM      6  O   UNL A   1      30.275  30.064  23.893  1.00  0.00    -0.252 OA
BRANCH   5   7
ATOM      7  C   UNL A   1      30.450  27.679  23.626  1.00  0.00     0.159 C 
BRANCH   7   8
ATOM      8  C   UNL A   1      31.401  26.532  23.794  1.00  0.00    -0.025 C 
ATOM      9  C   UNL A   1      33.394  27.358  22.443  1.00  0.00     0.045 C 
ATOM     10  C   UNL A   1      32.650  26.381  23.290  1.00  0.00    -0.039 C 
ATOM     11  C   UNL A   1      33.244  25.131  23.794  1.00  0.00    -0.014 C 
ATOM     12  C   UNL A   1      31.183  25.417  24.739  1.00  0.00    -0.011 A 
ATOM     13  C   UNL A   1      32.239  24.495  24.655  1.00  0.00    -0.010 A 
ATOM     14  C   UNL A   1      34.515  24.737  23.599  1.00  0.00     0.017 C 
ATOM     15  C   UNL A   1      30.181  25.214  25.674  1.00  0.00     0.048 A 
ATOM     16  C   UNL A   1      32.214  23.292  25.353  1.00  0.00     0.012 A 
ATOM     17  C   UNL A   1      30.212  24.048  26.443  1.00  0.00     0.123 A 
ATOM     18  C   UNL A   1      31.180  23.067  26.254  1.00  0.00     0.040 A 
ATOM     19  F   UNL A   1      29.262  23.850  27.367  1.00  0.00    -0.207 F 
BRANCH  14  20
ATOM     20  C   UNL A   1      35.171  23.598  24.254  1.00  0.00    -0.021 A 
ATOM     21  C   UNL A   1      34.783  22.289  23.970  1.00  0.00     0.008 A 
ATOM     22  C   UNL A   1      36.195  23.831  25.186  1.00  0.00     0.054 A 
ATOM     23  C   UNL A   1      35.413  21.223  24.616  1.00  0.00     0.004 A 
ATOM     24  C   UNL A   1      36.894  22.769  25.760  1.00  0.00     0.120 A 
ATOM     25  C   UNL A   1      36.467  21.465  25.501  1.00  0.00     0.046 A 
BRANCH  24  26
ATOM     26  O   UNL A   1      37.990  22.874  26.571  1.00  0.00    -0.489 OA
BRANCH  26  27
ATOM     27  C   UNL A   1      39.223  23.344  26.013  1.00  0.00     0.265 C 
BRANCH  27  28
ATOM     28  C   UNL A   1      40.457  22.803  26.709  1.00  0.00    -0.011 A 
ATOM     29  C   UNL A   1      41.154  21.710  26.175  1.00  0.00     0.007 A 
ATOM     30  C   UNL A   1      40.932  23.371  27.901  1.00  0.00     0.007 A 
ATOM     31  C   UNL A   1      42.286  21.203  26.821  1.00  0.00     0.000 A 
ATOM     32  C   UNL A   1      42.077  22.884  28.531  1.00  0.00     0.000 A 
ATOM     33  C   UNL A   1      42.752  21.795  27.993  1.00  0.00     0.000 A 
ENDBRANCH  27  28
ENDBRANCH  26  27
ENDBRANCH  24  26
ENDBRANCH  14  20
ENDBRANCH   7   8
ENDBRANCH   5   7
ENDBRANCH   4   5
ENDBRANCH   3   4
ENDBRANCH   2   3
ENDBRANCH   1   2
BRANCH   1  34
ATOM     34  C   UNL A   1      33.906  32.167  28.045  1.00  0.00     0.188 C 
BRANCH  34  35
ATOM     35  C   UNL A   1      32.909  33.335  28.018  1.00  0.00     0.188 C 
BRANCH  35  36
ATOM     36  O   UNL A   1      33.070  34.181  29.151  1.00  0.00    -0.376 OA
BRANCH  36  37
ATOM     37  C   UNL A   1      33.273  35.548  28.812  1.00  0.00     0.202 C 
BRANCH  37  38
ATOM     38  C   UNL A   1      32.672  36.440  29.897  1.00  0.00     0.261 C 
BRANCH  38  39
ATOM     39  O   UNL A   1      32.149  35.697  31.015  1.00  0.00    -0.460 OA
BRANCH  39  40
ATOM     40  C   UNL A   1      32.697  35.971  32.217  1.00  0.00     0.338 C 
ATOM     41  O   UNL A   1      32.272  36.728  33.069  1.00  0.00    -0.246 OA
BRANCH  40  42
ATOM     42  C   UNL A   1      33.890  35.121  32.379  1.00  0.00     0.060 A 
ATOM     43  C   UNL A   1      35.165  35.636  32.174  1.00  0.00     0.016 A 
ATOM     44  C   UNL A   1      33.729  33.810  32.822  1.00  0.00     0.016 A 
ATOM     45  C   UNL A   1      36.279  34.833  32.447  1.00  0.00     0.010 A 
ATOM     46  C   UNL A   1      34.836  33.025  33.145  1.00  0.00     0.010 A 
ATOM     47  C   UNL A   1      36.125  33.532  32.967  1.00  0.00    -0.014 A 
BRANCH  47  48
ATOM     48  C   UNL A   1      37.307  32.757  33.424  1.00  0.00     0.031 A 
ATOM     49  C   UNL A   1      37.941  31.701  32.564  1.00  0.00     0.074 A 
ATOM     50  C   UNL A   1      37.789  32.987  34.662  1.00  0.00     0.049 A 
ATOM     51  N   UNL A   1      39.045  31.025  32.770  1.00  0.00    -0.248 NA
ATOM     52  C   UNL A   1      37.239  31.336  31.326  1.00  0.00     0.031 C 
ATOM     53  C   UNL A   1      37.193  33.901  35.637  1.00  0.00     0.029 A 
ATOM     54  N   UNL A   1      38.892  32.486  35.306  1.00  0.00    -0.354 N 
ATOM     55  C   UNL A   1      39.180  30.175  31.682  1.00  0.00     0.074 A 
ATOM     56  C   UNL A   1      38.011  30.368  30.851  1.00  0.00     0.031 C 
ATOM     57  C   UNL A   1      37.965  33.939  36.733  1.00  0.00     0.029 A 
ATOM     58  C   UNL A   1      39.104  33.044  36.543  1.00  0.00     0.049 A 
ATOM     59  H   UNL A   1      39.475  31.794  34.919  1.00  0.00     0.167 HD
ATOM     60  C   UNL A   1      40.202  29.335  31.388  1.00  0.00     0.037 A 
ATOM     61  C   UNL A   1      40.118  32.880  37.413  1.00  0.00     0.037 A 
ATOM     62  C   UNL A   1      41.363  29.145  32.222  1.00  0.00     0.049 A 
ATOM     63  C   UNL A   1      41.262  31.978  37.047  1.00  0.00     0.074 A 
ATOM     64  C   UNL A   1      42.477  28.357  31.987  1.00  0.00     0.029 A 
ATOM     65  N   UNL A   1      41.555  29.747  33.457  1.00  0.00    -0.354 N 
ATOM     66  N   UNL A   1      41.434  31.261  35.964  1.00  0.00    -0.248 NA
ATOM     67  C   UNL A   1      42.361  31.876  38.016  1.00  0.00     0.031 C 
ATOM     68  C   UNL A   1      43.327  28.455  33.095  1.00  0.00     0.029 A 
ATOM     69  C   UNL A   1      42.764  29.340  34.001  1.00  0.00     0.049 A 
ATOM     70  H   UNL A   1      40.926  30.371  33.885  1.00  0.00     0.167 HD
ATOM     71  C   UNL A   1      42.668  30.642  36.109  1.00  0.00     0.074 A 
ATOM     72  C   UNL A   1      43.209  31.082  37.378  1.00  0.00     0.031 C 
ATOM     73  C   UNL A   1      43.292  29.785  35.264  1.00  0.00     0.037 A 
BRANCH  60  74
ATOM     74  C   UNL A   1      40.138  28.580  30.091  1.00  0.00     0.064 A 
ATOM     75  C   UNL A   1      40.793  29.054  28.945  1.00  0.00     0.173 A 
ATOM     76  C   UNL A   1      39.487  27.341  30.009  1.00  0.00     0.173 A 
ATOM     77  F   UNL A   1      41.428  30.235  28.969  1.00  0.00    -0.203 F 
ATOM     78  C   UNL A   1      40.783  28.324  27.759  1.00  0.00     0.198 A 
ATOM     79  C   UNL A   1      39.502  26.600  28.828  1.00  0.00     0.198 A 
ATOM     80  F   UNL A   1      38.854  26.834  31.078  1.00  0.00    -0.203 F 
ATOM     81  F   UNL A   1      41.392  28.812  26.669  1.00  0.00    -0.200 F 
ATOM     82  C   UNL A   1      40.146  27.094  27.704  1.00  0.00     0.200 A 
ATOM     83  F   UNL A   1      38.900  25.404  28.781  1.00  0.00    -0.200 F 
ATOM     84  F   UNL A   1      40.154  26.384  26.567  1.00  0.00    -0.200 F 
ENDBRANCH  60  74
BRANCH  61  85
ATOM     85  C   UNL A   1      40.132  33.668  38.673  1.00  0.00     0.064 A 
ATOM     86  C   UNL A   1      40.844  34.873  38.753  1.00  0.00     0.173 A 
ATOM     87  C   UNL A   1      39.408  33.259  39.800  1.00  0.00     0.173 A 
ATOM     88  F   UNL A   1      41.565  35.296  37.704  1.00  0.00    -0.203 F 
ATOM     89  C   UNL A   1      40.837  35.635  39.918  1.00  0.00     0.198 A 
ATOM     90  C   UNL A   1      39.382  34.034  40.957  1.00  0.00     0.198 A 
ATOM     91  F   UNL A   1      38.704  32.117  39.769  1.00  0.00    -0.203 F 
ATOM     92  F   UNL A   1      41.549  36.768  39.979  1.00  0.00    -0.200 F 
ATOM     93  C   UNL A   1      40.100  35.219  41.017  1.00  0.00     0.200 A 
ATOM     94  F   UNL A   1      38.657  33.638  42.012  1.00  0.00    -0.200 F 
ATOM     95  F   UNL A   1      40.083  35.961  42.133  1.00  0.00    -0.200 F 
ENDBRANCH  61  85
BRANCH  73  96
ATOM     96  C   UNL A   1      44.644  29.278  35.675  1.00  0.00     0.064 A 
ATOM     97  C   UNL A   1      44.791  28.084  36.396  1.00  0.00     0.173 A 
ATOM     98  C   UNL A   1      45.805  29.974  35.309  1.00  0.00     0.173 A 
ATOM     99  F   UNL A   1      43.710  27.390  36.781  1.00  0.00    -0.203 F 
ATOM    100  C   UNL A   1      46.053  27.617  36.755  1.00  0.00     0.198 A 
ATOM    101  C   UNL A   1      47.066  29.489  35.645  1.00  0.00     0.198 A 
ATOM    102  F   UNL A   1      45.718  31.117  34.613  1.00  0.00    -0.203 F 
ATOM    103  F   UNL A   1      46.169  26.497  37.480  1.00  0.00    -0.200 F 
ATOM    104  C   UNL A   1      47.189  28.316  36.374  1.00  0.00     0.200 A 
ATOM    105  F   UNL A   1      48.163  30.159  35.266  1.00  0.00    -0.200 F 
ATOM    106  F   UNL A   1      48.403  27.861  36.715  1.00  0.00    -0.200 F 
ENDBRANCH  73  96
ENDBRANCH  47  48
ENDBRANCH  40  42
ENDBRANCH  39  40
ENDBRANCH  38  39
ENDBRANCH  37  38
ENDBRANCH  36  37
ENDBRANCH  35  36
ENDBRANCH  34  35
ENDBRANCH   1  34
TORSDOF 22
ENDMDL
MODEL 3
REMARK VINA RESULT:     -10.8      2.288      4.237
REMARK SMILES CC1=C(CC(=O)OCCOCCOCCOC(=O)c2ccc(-c3c4nc(c(-c5c(F)c(F)c(F)c(F)c5F)c5ccc([nH]5)c(-c5c(F)c(F)c(F)c(F)c5F)c5nc(c(-c6c(F)c(F)c(F)c(F)c6F)c6ccc3[nH]6)C=C5)C=C4)cc2)c2cc(F)ccc2/C1=C\c1cccc(OCc2ccccc2)c1
REMARK SMILES IDX 10 1 9 2 8 3 7 4 5 5 6 6 4 7 3 8 1 9 2 10 89 11 82 12 88 13
REMARK SMILES IDX 90 14 83 15 87 16 84 17 86 18 85 19 91 20 92 21 104 22 93 23
REMARK SMILES IDX 95 24 94 25 96 26 97 27 98 28 99 29 103 30 100 31 102 32
REMARK SMILES IDX 101 33 11 34 12 35 13 36 14 37 15 38 16 39 17 40 18 41 19 42
REMARK SMILES IDX 20 43 81 44 21 45 80 46 22 47 23 48 24 49 74 50 25 51 79 52
REMARK SMILES IDX 73 53 75 54 26 55 78 56 72 57 71 58 27 60 59 61 39 62 58 63
REMARK SMILES IDX 40 64 43 65 57 66 76 67 41 68 42 69 56 71 77 72 44 73 28 74
REMARK SMILES IDX 29 75 37 76 30 77 31 78 35 79 38 80 32 81 33 82 36 83 34 84
REMARK SMILES IDX 60 85 61 86 69 87 62 88 63 89 67 90 70 91 64 92 65 93 68 94
REMARK SMILES IDX 66 95 45 96 46 97 54 98 47 99 48 100 52 101 55 102 49 103
REMARK SMILES IDX 50 104 53 105 51 106
REMARK H PARENT 75 59 43 70
REMARK Flexibility Score: inf
ROOT
ATOM      1  O   UNL A   1      32.877  29.055  26.781  1.00  0.00    -0.376 OA
ENDROOT
BRANCH   1   2
ATOM      2  C   UNL A   1      32.083  29.546  25.706  1.00  0.00     0.202 C 
BRANCH   2   3
ATOM      3  C   UNL A   1      31.994  28.600  24.507  1.00  0.00     0.261 C 
BRANCH   3   4
ATOM      4  O   UNL A   1      30.676  28.023  24.370  1.00  0.00    -0.463 OA
BRANCH   4   5
ATOM      5  C   UNL A   1      30.406  27.429  23.181  1.00  0.00     0.310 C 
ATOM      6  O   UNL A   1      30.260  28.038  22.124  1.00  0.00    -0.252 OA
BRANCH   5   7
ATOM      7  C   UNL A   1      30.381  25.899  23.220  1.00  0.00     0.159 C 
BRANCH   7   8
ATOM      8  C   UNL A   1      31.624  25.118  23.525  1.00  0.00    -0.025 C 
ATOM      9  C   UNL A   1      33.263  26.159  21.879  1.00  0.00     0.045 C 
ATOM     10  C   UNL A   1      32.850  25.214  22.956  1.00  0.00    -0.039 C 
ATOM     11  C   UNL A   1      33.790  24.308  23.639  1.00  0.00    -0.014 C 
ATOM     12  C   UNL A   1      31.758  24.207  24.682  1.00  0.00    -0.011 A 
ATOM     13  C   UNL A   1      33.032  23.614  24.688  1.00  0.00    -0.010 A 
ATOM     14  C   UNL A   1      35.115  24.246  23.418  1.00  0.00     0.017 C 
ATOM     15  C   UNL A   1      30.880  23.936  25.718  1.00  0.00     0.048 A 
ATOM     16  C   UNL A   1      33.369  22.623  25.603  1.00  0.00     0.012 A 
ATOM     17  C   UNL A   1      31.263  23.009  26.692  1.00  0.00     0.123 A 
ATOM     18  C   UNL A   1      32.466  22.315  26.614  1.00  0.00     0.040 A 
ATOM     19  F   UNL A   1      30.433  22.755  27.712  1.00  0.00    -0.207 F 
BRANCH  14  20
ATOM     20  C   UNL A   1      36.086  23.494  24.223  1.00  0.00    -0.021 A 
ATOM     21  C   UNL A   1      36.436  22.186  23.884  1.00  0.00     0.008 A 
ATOM     22  C   UNL A   1      36.662  24.094  25.354  1.00  0.00     0.054 A 
ATOM     23  C   UNL A   1      37.351  21.487  24.673  1.00  0.00     0.004 A 
ATOM     24  C   UNL A   1      37.649  23.436  26.087  1.00  0.00     0.120 A 
ATOM     25  C   UNL A   1      37.959  22.114  25.764  1.00  0.00     0.046 A 
BRANCH  24  26
ATOM     26  O   UNL A   1      38.373  23.968  27.118  1.00  0.00    -0.489 OA
BRANCH  26  27
ATOM     27  C   UNL A   1      39.744  24.319  26.895  1.00  0.00     0.265 C 
BRANCH  27  28
ATOM     28  C   UNL A   1      40.026  25.804  27.021  1.00  0.00    -0.011 A 
ATOM     29  C   UNL A   1      40.897  26.442  26.126  1.00  0.00     0.007 A 
ATOM     30  C   UNL A   1      39.433  26.577  28.030  1.00  0.00     0.007 A 
ATOM     31  C   UNL A   1      41.165  27.809  26.246  1.00  0.00     0.000 A 
ATOM     32  C   UNL A   1      39.678  27.946  28.134  1.00  0.00     0.000 A 
ATOM     33  C   UNL A   1      40.550  28.562  27.244  1.00  0.00     0.000 A 
ENDBRANCH  27  28
ENDBRANCH  26  27
ENDBRANCH  24  26
ENDBRANCH  14  20
ENDBRANCH   7   8
ENDBRANCH   5   7
ENDBRANCH   4   5
ENDBRANCH   3   4
ENDBRANCH   2   3
ENDBRANCH   1   2
BRANCH   1  34
ATOM     34  C   UNL A   1      33.827  29.947  27.360  1.00  0.00     0.188 C 
BRANCH  34  35
ATOM     35  C   UNL A   1      33.463  31.436  27.458  1.00  0.00     0.188 C 
BRANCH  35  36
ATOM     36  O   UNL A   1      34.227  32.092  28.464  1.00  0.00    -0.376 OA
BRANCH  36  37
ATOM     37  C   UNL A   1      34.773  33.335  28.039  1.00  0.00     0.202 C 
BRANCH  37  38
ATOM     38  C   UNL A   1      34.052  34.480  28.747  1.00  0.00     0.261 C 
BRANCH  38  39
ATOM     39  O   UNL A   1      33.235  34.040  29.849  1.00  0.00    -0.460 OA
BRANCH  39  40
ATOM     40  C   UNL A   1      33.486  34.619  31.042  1.00  0.00     0.338 C 
ATOM     41  O   UNL A   1      32.780  35.401  31.648  1.00  0.00    -0.246 OA
BRANCH  40  42
ATOM     42  C   UNL A   1      34.757  34.075  31.554  1.00  0.00     0.060 A 
ATOM     43  C   UNL A   1      35.879  34.886  31.680  1.00  0.00     0.016 A 
ATOM     44  C   UNL A   1      34.797  32.752  31.990  1.00  0.00     0.016 A 
ATOM     45  C   UNL A   1      37.035  34.367  32.275  1.00  0.00     0.010 A 
ATOM     46  C   UNL A   1      35.929  32.247  32.632  1.00  0.00     0.010 A 
ATOM     47  C   UNL A   1      37.058  33.054  32.788  1.00  0.00    -0.014 A 
BRANCH  47  48
ATOM     48  C   UNL A   1      38.221  32.572  33.578  1.00  0.00     0.031 A 
ATOM     49  C   UNL A   1      39.352  31.816  32.941  1.00  0.00     0.074 A 
ATOM     50  C   UNL A   1      38.231  32.791  34.908  1.00  0.00     0.049 A 
ATOM     51  N   UNL A   1      40.489  31.436  33.470  1.00  0.00    -0.248 NA
ATOM     52  C   UNL A   1      39.179  31.410  31.539  1.00  0.00     0.031 C 
ATOM     53  C   UNL A   1      37.141  33.410  35.663  1.00  0.00     0.029 A 
ATOM     54  N   UNL A   1      39.189  32.533  35.856  1.00  0.00    -0.354 N 
ATOM     55  C   UNL A   1      41.173  30.769  32.464  1.00  0.00     0.074 A 
ATOM     56  C   UNL A   1      40.297  30.733  31.312  1.00  0.00     0.031 C 
ATOM     57  C   UNL A   1      37.512  33.536  36.946  1.00  0.00     0.029 A 
ATOM     58  C   UNL A   1      38.860  32.996  37.106  1.00  0.00     0.049 A 
ATOM     59  H   UNL A   1      40.030  32.063  35.659  1.00  0.00     0.167 HD
ATOM     60  C   UNL A   1      42.430  30.261  32.490  1.00  0.00     0.037 A 
ATOM     61  C   UNL A   1      39.574  33.014  38.247  1.00  0.00     0.037 A 
ATOM     62  C   UNL A   1      43.297  30.297  33.642  1.00  0.00     0.049 A 
ATOM     63  C   UNL A   1      40.981  32.486  38.242  1.00  0.00     0.074 A 
ATOM     64  C   UNL A   1      44.605  29.858  33.753  1.00  0.00     0.029 A 
ATOM     65  N   UNL A   1      42.938  30.796  34.885  1.00  0.00    -0.354 N 
ATOM     66  N   UNL A   1      41.660  31.956  37.254  1.00  0.00    -0.248 NA
ATOM     67  C   UNL A   1      41.726  32.577  39.504  1.00  0.00     0.031 C 
ATOM     68  C   UNL A   1      45.026  30.059  35.073  1.00  0.00     0.029 A 
ATOM     69  C   UNL A   1      43.995  30.666  35.772  1.00  0.00     0.049 A 
ATOM     70  H   UNL A   1      42.061  31.185  35.105  1.00  0.00     0.167 HD
ATOM     71  C   UNL A   1      42.918  31.671  37.766  1.00  0.00     0.074 A 
ATOM     72  C   UNL A   1      42.913  32.104  39.149  1.00  0.00     0.031 C 
ATOM     73  C   UNL A   1      43.978  31.101  37.145  1.00  0.00     0.037 A 
BRANCH  60  74
ATOM     74  C   UNL A   1      42.966  29.655  31.225  1.00  0.00     0.064 A 
ATOM     75  C   UNL A   1      42.671  28.329  30.876  1.00  0.00     0.173 A 
ATOM     76  C   UNL A   1      43.713  30.421  30.317  1.00  0.00     0.173 A 
ATOM     77  F   UNL A   1      41.963  27.552  31.710  1.00  0.00    -0.203 F 
ATOM     78  C   UNL A   1      43.118  27.786  29.673  1.00  0.00     0.198 A 
ATOM     79  C   UNL A   1      44.135  29.882  29.103  1.00  0.00     0.198 A 
ATOM     80  F   UNL A   1      44.014  31.698  30.595  1.00  0.00    -0.203 F 
ATOM     81  F   UNL A   1      42.848  26.507  29.376  1.00  0.00    -0.200 F 
ATOM     82  C   UNL A   1      43.842  28.565  28.784  1.00  0.00     0.200 A 
ATOM     83  F   UNL A   1      44.821  30.642  28.237  1.00  0.00    -0.200 F 
ATOM     84  F   UNL A   1      44.256  28.046  27.620  1.00  0.00    -0.200 F 
ENDBRANCH  60  74
BRANCH  61  85
ATOM     85  C   UNL A   1      38.993  33.642  39.461  1.00  0.00     0.064 A 
ATOM     86  C   UNL A   1      38.217  32.888  40.352  1.00  0.00     0.173 A 
ATOM     87  C   UNL A   1      39.232  34.986  39.776  1.00  0.00     0.173 A 
ATOM     88  F   UNL A   1      37.949  31.602  40.083  1.00  0.00    -0.203 F 
ATOM     89  C   UNL A   1      37.695  33.458  41.511  1.00  0.00     0.198 A 
ATOM     90  C   UNL A   1      38.729  35.549  40.947  1.00  0.00     0.198 A 
ATOM     91  F   UNL A   1      39.975  35.747  38.958  1.00  0.00    -0.203 F 
ATOM     92  F   UNL A   1      36.932  32.723  42.332  1.00  0.00    -0.200 F 
ATOM     93  C   UNL A   1      37.957  34.786  41.811  1.00  0.00     0.200 A 
ATOM     94  F   UNL A   1      38.997  36.828  41.243  1.00  0.00    -0.200 F 
ATOM     95  F   UNL A   1      37.466  35.330  42.933  1.00  0.00    -0.200 F 
ENDBRANCH  61  85
BRANCH  73  96
ATOM     96  C   UNL A   1      45.234  30.926  37.949  1.00  0.00     0.064 A 
ATOM     97  C   UNL A   1      45.556  29.700  38.550  1.00  0.00     0.173 A 
ATOM     98  C   UNL A   1      46.143  31.986  38.085  1.00  0.00     0.173 A 
ATOM     99  F   UNL A   1      44.711  28.662  38.459  1.00  0.00    -0.203 F 
ATOM    100  C   UNL A   1      46.733  29.549  39.278  1.00  0.00     0.198 A 
ATOM    101  C   UNL A   1      47.332  31.822  38.791  1.00  0.00     0.198 A 
ATOM    102  F   UNL A   1      45.885  33.176  37.523  1.00  0.00    -0.203 F 
ATOM    103  F   UNL A   1      47.000  28.382  39.880  1.00  0.00    -0.200 F 
ATOM    104  C   UNL A   1      47.622  30.607  39.392  1.00  0.00     0.200 A 
ATOM    105  F   UNL A   1      48.197  32.841  38.890  1.00  0.00    -0.200 F 
ATOM    106  F   UNL A   1      48.758  30.456  40.088  1.00  0.00    -0.200 F 
ENDBRANCH  73  96
ENDBRANCH  47  48
ENDBRANCH  40  42
ENDBRANCH  39  40
ENDBRANCH  38  39
ENDBRANCH  37  38
ENDBRANCH  36  37
ENDBRANCH  35  36
ENDBRANCH  34  35
ENDBRANCH   1  34
TORSDOF 22
ENDMDL
