MODEL 1
REMARK VINA RESULT:     -10.4      0.000      0.000
REMARK SMILES CC(C)(C)[NH2+]CC(=O)N[C@](C)(C(=O)OCCOCCOCCOC(=O)c1ccc(-c2c3nc(c(-c4c(F)c(F)c(F)c(F)c4F)c4ccc([nH]4)c(-c4c(F)c(F)c(F)c(F)c4F)c4nc(c(-c5c(F)c(F)c(F)c(F)c5F)c5ccc2[nH]5)C=C4)C=C3)cc1)C1CC1
REMARK SMILES IDX 18 1 17 2 16 3 15 4 14 5 12 6 13 7 10 8 11 9 9 10 7 11 8 12
REMARK SMILES IDX 6 14 5 15 2 18 1 19 3 20 4 21 89 22 90 23 91 24 19 25 20 26
REMARK SMILES IDX 21 27 22 28 23 29 24 30 25 31 26 32 27 33 88 34 28 35 87 36
REMARK SMILES IDX 29 37 30 38 31 39 81 40 32 41 86 42 80 43 82 44 33 45 85 46
REMARK SMILES IDX 79 47 78 48 34 50 66 51 46 52 65 53 47 54 50 55 64 56 83 57
REMARK SMILES IDX 48 58 49 59 63 61 84 62 51 63 35 64 36 65 44 66 37 67 38 68
REMARK SMILES IDX 42 69 45 70 39 71 40 72 43 73 41 74 67 75 68 76 76 77 69 78
REMARK SMILES IDX 70 79 74 80 77 81 71 82 72 83 75 84 73 85 52 86 53 87 61 88
REMARK SMILES IDX 54 89 55 90 59 91 62 92 56 93 57 94 60 95 58 96
REMARK H PARENT 9 13 5 16 5 17 82 49 50 60
REMARK Flexibility Score: inf
ROOT
ATOM      1  C   UNL A   1      31.984  32.218  26.997  1.00  0.00     0.188 C 
ENDROOT
BRANCH   1   2
ATOM      2  O   UNL A   1      32.703  31.018  27.217  1.00  0.00    -0.376 OA
BRANCH   2   3
ATOM      3  C   UNL A   1      31.952  29.825  27.080  1.00  0.00     0.202 C 
BRANCH   3   4
ATOM      4  C   UNL A   1      32.396  28.865  25.956  1.00  0.00     0.261 C 
BRANCH   4   5
ATOM      5  O   UNL A   1      31.525  27.845  25.361  1.00  0.00    -0.461 OA
BRANCH   5   6
ATOM      6  C   UNL A   1      31.346  26.567  25.790  1.00  0.00     0.331 C 
ATOM      7  O   UNL A   1      31.487  26.227  26.959  1.00  0.00    -0.249 OA
BRANCH   6   8
ATOM      8  C   UNL A   1      30.919  25.568  24.665  1.00  0.00     0.138 C 
ATOM      9  C   UNL A   1      31.171  24.148  25.268  1.00  0.00     0.048 C 
BRANCH   8  10
ATOM     10  N   UNL A   1      29.448  25.729  24.386  1.00  0.00    -0.335 N 
ATOM     11  C   UNL A   1      28.588  26.662  23.876  1.00  0.00     0.276 C 
ATOM     12  O   UNL A   1      27.388  26.402  24.057  1.00  0.00    -0.268 OA
ATOM     13  H   UNL A   1      28.957  24.917  24.650  1.00  0.00     0.164 HD
BRANCH  11  14
ATOM     14  C   UNL A   1      28.943  27.967  23.118  1.00  0.00     0.362 C 
BRANCH  14  15
ATOM     15  N   UNL A   1      27.833  28.958  22.905  1.00  0.00    -0.334 N 
ATOM     16  H   UNL A   1      27.335  28.692  22.056  1.00  0.00     0.347 HD
ATOM     17  H   UNL A   1      27.264  28.921  23.750  1.00  0.00     0.347 HD
BRANCH  15  18
ATOM     18  C   UNL A   1      28.246  30.365  22.763  1.00  0.00     0.088 C 
ATOM     19  C   UNL A   1      28.031  30.749  21.286  1.00  0.00     0.078 C 
ATOM     20  C   UNL A   1      29.589  30.459  23.499  1.00  0.00     0.078 C 
ATOM     21  C   UNL A   1      27.401  31.430  23.501  1.00  0.00     0.078 C 
ENDBRANCH  15  18
ENDBRANCH  14  15
ENDBRANCH  11  14
ENDBRANCH   8  10
BRANCH   8  22
ATOM     22  C   UNL A   1      31.706  25.767  23.365  1.00  0.00     0.026 C 
ATOM     23  C   UNL A   1      33.203  25.561  23.283  1.00  0.00     0.007 C 
ATOM     24  C   UNL A   1      32.282  24.684  22.479  1.00  0.00     0.007 C 
ENDBRANCH   8  22
ENDBRANCH   6   8
ENDBRANCH   5   6
ENDBRANCH   4   5
ENDBRANCH   3   4
ENDBRANCH   2   3
ENDBRANCH   1   2
BRANCH   1  25
ATOM     25  C   UNL A   1      32.684  33.438  27.629  1.00  0.00     0.188 C 
BRANCH  25  26
ATOM     26  O   UNL A   1      34.098  33.409  27.744  1.00  0.00    -0.376 OA
BRANCH  26  27
ATOM     27  C   UNL A   1      34.699  34.502  28.420  1.00  0.00     0.202 C 
BRANCH  27  28
ATOM     28  C   UNL A   1      34.538  34.570  29.952  1.00  0.00     0.261 C 
BRANCH  28  29
ATOM     29  O   UNL A   1      35.556  33.894  30.733  1.00  0.00    -0.460 OA
BRANCH  29  30
ATOM     30  C   UNL A   1      35.253  32.658  31.209  1.00  0.00     0.338 C 
ATOM     31  O   UNL A   1      34.226  32.329  31.779  1.00  0.00    -0.246 OA
BRANCH  30  32
ATOM     32  C   UNL A   1      36.269  31.655  30.781  1.00  0.00     0.060 A 
ATOM     33  C   UNL A   1      37.068  31.021  31.749  1.00  0.00     0.016 A 
ATOM     34  C   UNL A   1      36.538  31.444  29.430  1.00  0.00     0.016 A 
ATOM     35  C   UNL A   1      38.136  30.195  31.382  1.00  0.00     0.010 A 
ATOM     36  C   UNL A   1      37.636  30.649  29.062  1.00  0.00     0.010 A 
ATOM     37  C   UNL A   1      38.461  30.045  30.033  1.00  0.00    -0.014 A 
BRANCH  37  38
ATOM     38  C   UNL A   1      39.776  29.474  29.632  1.00  0.00     0.031 A 
ATOM     39  C   UNL A   1      40.961  30.401  29.586  1.00  0.00     0.074 A 
ATOM     40  C   UNL A   1      39.941  28.179  29.313  1.00  0.00     0.049 A 
ATOM     41  N   UNL A   1      42.138  30.232  29.039  1.00  0.00    -0.248 NA
ATOM     42  C   UNL A   1      40.786  31.704  30.248  1.00  0.00     0.031 C 
ATOM     43  C   UNL A   1      38.926  27.137  29.432  1.00  0.00     0.029 A 
ATOM     44  N   UNL A   1      41.035  27.526  28.791  1.00  0.00    -0.354 N 
ATOM     45  C   UNL A   1      42.824  31.422  29.249  1.00  0.00     0.074 A 
ATOM     46  C   UNL A   1      41.935  32.303  29.974  1.00  0.00     0.031 C 
ATOM     47  C   UNL A   1      39.429  25.983  28.956  1.00  0.00     0.029 A 
ATOM     48  C   UNL A   1      40.777  26.221  28.442  1.00  0.00     0.049 A 
ATOM     49  H   UNL A   1      41.916  27.952  28.678  1.00  0.00     0.167 HD
ATOM     50  C   UNL A   1      44.078  31.752  28.860  1.00  0.00     0.037 A 
ATOM     51  C   UNL A   1      41.521  25.345  27.735  1.00  0.00     0.037 A 
ATOM     52  C   UNL A   1      44.965  30.866  28.152  1.00  0.00     0.049 A 
ATOM     53  C   UNL A   1      42.874  25.769  27.208  1.00  0.00     0.074 A 
ATOM     54  C   UNL A   1      46.254  31.106  27.710  1.00  0.00     0.029 A 
ATOM     55  N   UNL A   1      44.650  29.566  27.785  1.00  0.00    -0.354 N 
ATOM     56  N   UNL A   1      43.507  26.906  27.362  1.00  0.00    -0.248 NA
ATOM     57  C   UNL A   1      43.610  24.786  26.395  1.00  0.00     0.031 C 
ATOM     58  C   UNL A   1      46.696  29.975  27.019  1.00  0.00     0.029 A 
ATOM     59  C   UNL A   1      45.711  29.002  27.094  1.00  0.00     0.049 A 
ATOM     60  H   UNL A   1      43.801  29.112  27.984  1.00  0.00     0.167 HD
ATOM     61  C   UNL A   1      44.722  26.764  26.702  1.00  0.00     0.074 A 
ATOM     62  C   UNL A   1      44.744  25.428  26.148  1.00  0.00     0.031 C 
ATOM     63  C   UNL A   1      45.731  27.661  26.569  1.00  0.00     0.037 A 
BRANCH  50  64
ATOM     64  C   UNL A   1      44.546  33.152  29.135  1.00  0.00     0.064 A 
ATOM     65  C   UNL A   1      45.210  33.498  30.320  1.00  0.00     0.173 A 
ATOM     66  C   UNL A   1      44.343  34.160  28.178  1.00  0.00     0.173 A 
ATOM     67  F   UNL A   1      45.416  32.578  31.273  1.00  0.00    -0.203 F 
ATOM     68  C   UNL A   1      45.627  34.809  30.551  1.00  0.00     0.198 A 
ATOM     69  C   UNL A   1      44.793  35.460  28.397  1.00  0.00     0.198 A 
ATOM     70  F   UNL A   1      43.718  33.882  27.025  1.00  0.00    -0.203 F 
ATOM     71  F   UNL A   1      46.211  35.128  31.714  1.00  0.00    -0.200 F 
ATOM     72  C   UNL A   1      45.424  35.785  29.587  1.00  0.00     0.200 A 
ATOM     73  F   UNL A   1      44.609  36.397  27.457  1.00  0.00    -0.200 F 
ATOM     74  F   UNL A   1      45.832  37.042  29.808  1.00  0.00    -0.200 F 
ENDBRANCH  50  64
BRANCH  51  75
ATOM     75  C   UNL A   1      40.987  23.990  27.423  1.00  0.00     0.064 A 
ATOM     76  C   UNL A   1      41.548  22.840  27.996  1.00  0.00     0.173 A 
ATOM     77  C   UNL A   1      39.933  23.812  26.512  1.00  0.00     0.173 A 
ATOM     78  F   UNL A   1      42.581  22.951  28.844  1.00  0.00    -0.203 F 
ATOM     79  C   UNL A   1      41.090  21.567  27.659  1.00  0.00     0.198 A 
ATOM     80  C   UNL A   1      39.453  22.542  26.202  1.00  0.00     0.198 A 
ATOM     81  F   UNL A   1      39.368  24.875  25.922  1.00  0.00    -0.203 F 
ATOM     82  F   UNL A   1      41.684  20.484  28.178  1.00  0.00    -0.200 F 
ATOM     83  C   UNL A   1      40.038  21.419  26.767  1.00  0.00     0.200 A 
ATOM     84  F   UNL A   1      38.431  22.405  25.346  1.00  0.00    -0.200 F 
ATOM     85  F   UNL A   1      39.597  20.196  26.444  1.00  0.00    -0.200 F 
ENDBRANCH  51  75
BRANCH  63  86
ATOM     86  C   UNL A   1      46.976  27.219  25.852  1.00  0.00     0.064 A 
ATOM     87  C   UNL A   1      47.208  27.526  24.504  1.00  0.00     0.173 A 
ATOM     88  C   UNL A   1      47.989  26.541  26.552  1.00  0.00     0.173 A 
ATOM     89  F   UNL A   1      46.270  28.161  23.785  1.00  0.00    -0.203 F 
ATOM     90  C   UNL A   1      48.399  27.160  23.880  1.00  0.00     0.198 A 
ATOM     91  C   UNL A   1      49.191  26.206  25.934  1.00  0.00     0.198 A 
ATOM     92  F   UNL A   1      47.824  26.230  27.847  1.00  0.00    -0.203 F 
ATOM     93  F   UNL A   1      48.583  27.432  22.580  1.00  0.00    -0.200 F 
ATOM     94  C   UNL A   1      49.392  26.510  24.597  1.00  0.00     0.200 A 
ATOM     95  F   UNL A   1      50.156  25.594  26.635  1.00  0.00    -0.200 F 
ATOM     96  F   UNL A   1      50.544  26.176  23.999  1.00  0.00    -0.200 F 
ENDBRANCH  63  86
ENDBRANCH  37  38
ENDBRANCH  30  32
ENDBRANCH  29  30
ENDBRANCH  28  29
ENDBRANCH  27  28
ENDBRANCH  26  27
ENDBRANCH  25  26
ENDBRANCH   1  25
TORSDOF 22
ENDMDL
MODEL 2
REMARK VINA RESULT:     -10.3      1.905      3.459
REMARK SMILES CC(C)(C)[NH2+]CC(=O)N[C@](C)(C(=O)OCCOCCOCCOC(=O)c1ccc(-c2c3nc(c(-c4c(F)c(F)c(F)c(F)c4F)c4ccc([nH]4)c(-c4c(F)c(F)c(F)c(F)c4F)c4nc(c(-c5c(F)c(F)c(F)c(F)c5F)c5ccc2[nH]5)C=C4)C=C3)cc1)C1CC1
REMARK SMILES IDX 18 1 17 2 16 3 15 4 14 5 12 6 13 7 10 8 11 9 9 10 7 11 8 12
REMARK SMILES IDX 6 14 5 15 2 18 1 19 3 20 4 21 89 22 90 23 91 24 19 25 20 26
REMARK SMILES IDX 21 27 22 28 23 29 24 30 25 31 26 32 27 33 88 34 28 35 87 36
REMARK SMILES IDX 29 37 30 38 31 39 81 40 32 41 86 42 80 43 82 44 33 45 85 46
REMARK SMILES IDX 79 47 78 48 34 50 66 51 46 52 65 53 47 54 50 55 64 56 83 57
REMARK SMILES IDX 48 58 49 59 63 61 84 62 51 63 35 64 36 65 44 66 37 67 38 68
REMARK SMILES IDX 42 69 45 70 39 71 40 72 43 73 41 74 67 75 68 76 76 77 69 78
REMARK SMILES IDX 70 79 74 80 77 81 71 82 72 83 75 84 73 85 52 86 53 87 61 88
REMARK SMILES IDX 54 89 55 90 59 91 62 92 56 93 57 94 60 95 58 96
REMARK H PARENT 9 13 5 16 5 17 82 49 50 60
REMARK Flexibility Score: inf
ROOT
ATOM      1  C   UNL A   1      32.578  31.791  27.325  1.00  0.00     0.188 C 
ENDROOT
BRANCH   1   2
ATOM      2  O   UNL A   1      33.575  30.954  27.884  1.00  0.00    -0.376 OA
BRANCH   2   3
ATOM      3  C   UNL A   1      34.172  30.037  26.985  1.00  0.00     0.202 C 
BRANCH   3   4
ATOM      4  C   UNL A   1      33.467  28.673  26.833  1.00  0.00     0.261 C 
BRANCH   4   5
ATOM      5  O   UNL A   1      33.854  27.657  25.846  1.00  0.00    -0.461 OA
BRANCH   5   6
ATOM      6  C   UNL A   1      33.150  27.271  24.749  1.00  0.00     0.331 C 
ATOM      7  O   UNL A   1      32.514  28.051  24.052  1.00  0.00    -0.249 OA
BRANCH   6   8
ATOM      8  C   UNL A   1      33.241  25.740  24.438  1.00  0.00     0.138 C 
ATOM      9  C   UNL A   1      33.303  25.648  22.879  1.00  0.00     0.048 C 
BRANCH   8  10
ATOM     10  N   UNL A   1      34.520  25.189  25.013  1.00  0.00    -0.335 N 
ATOM     11  C   UNL A   1      35.249  24.033  24.990  1.00  0.00     0.276 C 
ATOM     12  O   UNL A   1      36.163  23.991  25.830  1.00  0.00    -0.268 OA
ATOM     13  H   UNL A   1      34.965  25.866  25.573  1.00  0.00     0.164 HD
BRANCH  11  14
ATOM     14  C   UNL A   1      35.065  22.810  24.056  1.00  0.00     0.362 C 
BRANCH  14  15
ATOM     15  N   UNL A   1      33.769  22.057  24.161  1.00  0.00    -0.334 N 
ATOM     16  H   UNL A   1      33.082  22.676  24.592  1.00  0.00     0.347 HD
ATOM     17  H   UNL A   1      33.535  21.775  23.210  1.00  0.00     0.347 HD
BRANCH  15  18
ATOM     18  C   UNL A   1      33.810  20.811  24.947  1.00  0.00     0.088 C 
ATOM     19  C   UNL A   1      32.887  19.802  24.237  1.00  0.00     0.078 C 
ATOM     20  C   UNL A   1      33.650  21.260  26.406  1.00  0.00     0.078 C 
ATOM     21  C   UNL A   1      35.154  20.046  24.993  1.00  0.00     0.078 C 
ENDBRANCH  15  18
ENDBRANCH  14  15
ENDBRANCH  11  14
ENDBRANCH   8  10
BRANCH   8  22
ATOM     22  C   UNL A   1      32.053  24.949  24.995  1.00  0.00     0.026 C 
ATOM     23  C   UNL A   1      31.937  24.583  26.459  1.00  0.00     0.007 C 
ATOM     24  C   UNL A   1      30.915  25.493  25.832  1.00  0.00     0.007 C 
ENDBRANCH   8  22
ENDBRANCH   6   8
ENDBRANCH   5   6
ENDBRANCH   4   5
ENDBRANCH   3   4
ENDBRANCH   2   3
ENDBRANCH   1   2
BRANCH   1  25
ATOM     25  C   UNL A   1      32.879  33.285  27.558  1.00  0.00     0.188 C 
BRANCH  25  26
ATOM     26  O   UNL A   1      34.227  33.666  27.788  1.00  0.00    -0.376 OA
BRANCH  26  27
ATOM     27  C   UNL A   1      34.435  34.750  28.679  1.00  0.00     0.202 C 
BRANCH  27  28
ATOM     28  C   UNL A   1      34.370  34.455  30.191  1.00  0.00     0.261 C 
BRANCH  28  29
ATOM     29  O   UNL A   1      35.542  33.829  30.771  1.00  0.00    -0.460 OA
BRANCH  29  30
ATOM     30  C   UNL A   1      35.367  32.621  31.369  1.00  0.00     0.338 C 
ATOM     31  O   UNL A   1      34.443  32.295  32.095  1.00  0.00    -0.246 OA
BRANCH  30  32
ATOM     32  C   UNL A   1      36.365  31.630  30.877  1.00  0.00     0.060 A 
ATOM     33  C   UNL A   1      37.097  30.865  31.804  1.00  0.00     0.016 A 
ATOM     34  C   UNL A   1      36.689  31.553  29.524  1.00  0.00     0.016 A 
ATOM     35  C   UNL A   1      38.151  30.042  31.394  1.00  0.00     0.010 A 
ATOM     36  C   UNL A   1      37.774  30.759  29.117  1.00  0.00     0.010 A 
ATOM     37  C   UNL A   1      38.532  30.023  30.051  1.00  0.00    -0.014 A 
BRANCH  37  38
ATOM     38  C   UNL A   1      39.843  29.447  29.646  1.00  0.00     0.031 A 
ATOM     39  C   UNL A   1      41.033  30.367  29.598  1.00  0.00     0.074 A 
ATOM     40  C   UNL A   1      40.001  28.150  29.325  1.00  0.00     0.049 A 
ATOM     41  N   UNL A   1      42.206  30.194  29.047  1.00  0.00    -0.248 NA
ATOM     42  C   UNL A   1      40.865  31.670  30.261  1.00  0.00     0.031 C 
ATOM     43  C   UNL A   1      38.981  27.113  29.445  1.00  0.00     0.029 A 
ATOM     44  N   UNL A   1      41.090  27.493  28.798  1.00  0.00    -0.354 N 
ATOM     45  C   UNL A   1      42.899  31.380  29.257  1.00  0.00     0.074 A 
ATOM     46  C   UNL A   1      42.016  32.264  29.985  1.00  0.00     0.031 C 
ATOM     47  C   UNL A   1      39.477  25.958  28.966  1.00  0.00     0.029 A 
ATOM     48  C   UNL A   1      40.825  26.190  28.449  1.00  0.00     0.049 A 
ATOM     49  H   UNL A   1      41.972  27.915  28.684  1.00  0.00     0.167 HD
ATOM     50  C   UNL A   1      44.154  31.704  28.865  1.00  0.00     0.037 A 
ATOM     51  C   UNL A   1      41.563  25.311  27.738  1.00  0.00     0.037 A 
ATOM     52  C   UNL A   1      45.034  30.815  28.153  1.00  0.00     0.049 A 
ATOM     53  C   UNL A   1      42.916  25.729  27.208  1.00  0.00     0.074 A 
ATOM     54  C   UNL A   1      46.323  31.050  27.708  1.00  0.00     0.029 A 
ATOM     55  N   UNL A   1      44.712  29.517  27.785  1.00  0.00    -0.354 N 
ATOM     56  N   UNL A   1      43.555  26.863  27.361  1.00  0.00    -0.248 NA
ATOM     57  C   UNL A   1      43.645  24.744  26.392  1.00  0.00     0.031 C 
ATOM     58  C   UNL A   1      46.758  29.917  27.014  1.00  0.00     0.029 A 
ATOM     59  C   UNL A   1      45.768  28.949  27.090  1.00  0.00     0.049 A 
ATOM     60  H   UNL A   1      43.861  29.067  27.986  1.00  0.00     0.167 HD
ATOM     61  C   UNL A   1      44.768  26.716  26.698  1.00  0.00     0.074 A 
ATOM     62  C   UNL A   1      44.781  25.381  26.142  1.00  0.00     0.031 C 
ATOM     63  C   UNL A   1      45.781  27.608  26.563  1.00  0.00     0.037 A 
BRANCH  50  64
ATOM     64  C   UNL A   1      44.629  33.102  29.140  1.00  0.00     0.064 A 
ATOM     65  C   UNL A   1      44.454  34.145  28.219  1.00  0.00     0.173 A 
ATOM     66  C   UNL A   1      45.250  33.404  30.363  1.00  0.00     0.173 A 
ATOM     67  F   UNL A   1      43.882  33.908  27.030  1.00  0.00    -0.203 F 
ATOM     68  C   UNL A   1      44.912  35.431  28.500  1.00  0.00     0.198 A 
ATOM     69  C   UNL A   1      45.673  34.698  30.654  1.00  0.00     0.198 A 
ATOM     70  F   UNL A   1      45.436  32.445  31.282  1.00  0.00    -0.203 F 
ATOM     71  F   UNL A   1      44.784  36.400  27.583  1.00  0.00    -0.200 F 
ATOM     72  C   UNL A   1      45.513  35.708  29.719  1.00  0.00     0.200 A 
ATOM     73  F   UNL A   1      46.239  34.964  31.839  1.00  0.00    -0.200 F 
ATOM     74  F   UNL A   1      45.945  36.947  29.989  1.00  0.00    -0.200 F 
ENDBRANCH  50  64
BRANCH  51  75
ATOM     75  C   UNL A   1      41.021  23.959  27.426  1.00  0.00     0.064 A 
ATOM     76  C   UNL A   1      41.563  22.808  28.014  1.00  0.00     0.173 A 
ATOM     77  C   UNL A   1      39.980  23.786  26.501  1.00  0.00     0.173 A 
ATOM     78  F   UNL A   1      42.584  22.915  28.877  1.00  0.00    -0.203 F 
ATOM     79  C   UNL A   1      41.098  21.537  27.678  1.00  0.00     0.198 A 
ATOM     80  C   UNL A   1      39.493  22.517  26.190  1.00  0.00     0.198 A 
ATOM     81  F   UNL A   1      39.433  24.850  25.896  1.00  0.00    -0.203 F 
ATOM     82  F   UNL A   1      41.675  20.452  28.212  1.00  0.00    -0.200 F 
ATOM     83  C   UNL A   1      40.059  21.393  26.771  1.00  0.00     0.200 A 
ATOM     84  F   UNL A   1      38.483  22.385  25.319  1.00  0.00    -0.200 F 
ATOM     85  F   UNL A   1      39.612  20.172  26.448  1.00  0.00    -0.200 F 
ENDBRANCH  51  75
BRANCH  63  86
ATOM     86  C   UNL A   1      47.022  27.161  25.842  1.00  0.00     0.064 A 
ATOM     87  C   UNL A   1      47.253  27.472  24.495  1.00  0.00     0.173 A 
ATOM     88  C   UNL A   1      48.032  26.475  26.538  1.00  0.00     0.173 A 
ATOM     89  F   UNL A   1      46.317  28.115  23.780  1.00  0.00    -0.203 F 
ATOM     90  C   UNL A   1      48.439  27.101  23.867  1.00  0.00     0.198 A 
ATOM     91  C   UNL A   1      49.230  26.135  25.916  1.00  0.00     0.198 A 
ATOM     92  F   UNL A   1      47.867  26.161  27.832  1.00  0.00    -0.203 F 
ATOM     93  F   UNL A   1      48.623  27.376  22.567  1.00  0.00    -0.200 F 
ATOM     94  C   UNL A   1      49.430  26.442  24.580  1.00  0.00     0.200 A 
ATOM     95  F   UNL A   1      50.193  25.515  26.614  1.00  0.00    -0.200 F 
ATOM     96  F   UNL A   1      50.579  26.103  23.979  1.00  0.00    -0.200 F 
ENDBRANCH  63  86
ENDBRANCH  37  38
ENDBRANCH  30  32
ENDBRANCH  29  30
ENDBRANCH  28  29
ENDBRANCH  27  28
ENDBRANCH  26  27
ENDBRANCH  25  26
ENDBRANCH   1  25
TORSDOF 22
ENDMDL
MODEL 3
REMARK VINA RESULT:     -10.0      5.390     10.613
REMARK SMILES CC(C)(C)[NH2+]CC(=O)N[C@](C)(C(=O)OCCOCCOCCOC(=O)c1ccc(-c2c3nc(c(-c4c(F)c(F)c(F)c(F)c4F)c4ccc([nH]4)c(-c4c(F)c(F)c(F)c(F)c4F)c4nc(c(-c5c(F)c(F)c(F)c(F)c5F)c5ccc2[nH]5)C=C4)C=C3)cc1)C1CC1
REMARK SMILES IDX 18 1 17 2 16 3 15 4 14 5 12 6 13 7 10 8 11 9 9 10 7 11 8 12
REMARK SMILES IDX 6 14 5 15 2 18 1 19 3 20 4 21 89 22 90 23 91 24 19 25 20 26
REMARK SMILES IDX 21 27 22 28 23 29 24 30 25 31 26 32 27 33 88 34 28 35 87 36
REMARK SMILES IDX 29 37 30 38 31 39 81 40 32 41 86 42 80 43 82 44 33 45 85 46
REMARK SMILES IDX 79 47 78 48 34 50 66 51 46 52 65 53 47 54 50 55 64 56 83 57
REMARK SMILES IDX 48 58 49 59 63 61 84 62 51 63 35 64 36 65 44 66 37 67 38 68
REMARK SMILES IDX 42 69 45 70 39 71 40 72 43 73 41 74 67 75 68 76 76 77 69 78
REMARK SMILES IDX 70 79 74 80 77 81 71 82 72 83 75 84 73 85 52 86 53 87 61 88
REMARK SMILES IDX 54 89 55 90 59 91 62 92 56 93 57 94 60 95 58 96
REMARK H PARENT 9 13 5 16 5 17 82 49 50 60
REMARK Flexibility Score: inf
ROOT
ATOM      1  C   UNL A   1      38.883  22.087  25.859  1.00  0.00     0.188 C 
ENDROOT
BRANCH   1   2
ATOM      2  O   UNL A   1      37.554  21.620  25.717  1.00  0.00    -0.376 OA
BRANCH   2   3
ATOM      3  C   UNL A   1      36.549  22.616  25.780  1.00  0.00     0.202 C 
BRANCH   3   4
ATOM      4  C   UNL A   1      35.370  22.335  26.734  1.00  0.00     0.261 C 
BRANCH   4   5
ATOM      5  O   UNL A   1      34.378  23.344  27.128  1.00  0.00    -0.461 OA
BRANCH   5   6
ATOM      6  C   UNL A   1      33.050  23.344  26.838  1.00  0.00     0.331 C 
ATOM      7  O   UNL A   1      32.231  22.664  27.445  1.00  0.00    -0.249 OA
BRANCH   6   8
ATOM      8  C   UNL A   1      32.650  24.310  25.674  1.00  0.00     0.138 C 
ATOM      9  C   UNL A   1      33.258  25.695  26.071  1.00  0.00     0.048 C 
BRANCH   8  10
ATOM     10  N   UNL A   1      33.291  23.841  24.395  1.00  0.00    -0.335 N 
ATOM     11  C   UNL A   1      33.390  22.702  23.645  1.00  0.00     0.276 C 
ATOM     12  O   UNL A   1      34.241  22.758  22.743  1.00  0.00    -0.268 OA
ATOM     13  H   UNL A   1      33.788  24.577  23.969  1.00  0.00     0.164 HD
BRANCH  11  14
ATOM     14  C   UNL A   1      32.577  21.391  23.796  1.00  0.00     0.362 C 
BRANCH  14  15
ATOM     15  N   UNL A   1      33.049  20.407  24.830  1.00  0.00    -0.334 N 
ATOM     16  H   UNL A   1      33.974  20.702  25.142  1.00  0.00     0.347 HD
ATOM     17  H   UNL A   1      32.341  20.415  25.563  1.00  0.00     0.347 HD
BRANCH  15  18
ATOM     18  C   UNL A   1      33.149  19.006  24.387  1.00  0.00     0.088 C 
ATOM     19  C   UNL A   1      34.632  18.604  24.498  1.00  0.00     0.078 C 
ATOM     20  C   UNL A   1      32.325  18.941  23.094  1.00  0.00     0.078 C 
ATOM     21  C   UNL A   1      32.456  17.934  25.263  1.00  0.00     0.078 C 
ENDBRANCH  15  18
ENDBRANCH  14  15
ENDBRANCH  11  14
ENDBRANCH   8  10
BRANCH   8  22
ATOM     22  C   UNL A   1      31.133  24.404  25.476  1.00  0.00     0.026 C 
ATOM     23  C   UNL A   1      30.368  25.694  25.677  1.00  0.00     0.007 C 
ATOM     24  C   UNL A   1      30.409  25.054  24.317  1.00  0.00     0.007 C 
ENDBRANCH   8  22
ENDBRANCH   6   8
ENDBRANCH   5   6
ENDBRANCH   4   5
ENDBRANCH   3   4
ENDBRANCH   2   3
ENDBRANCH   1   2
BRANCH   1  25
ATOM     25  C   UNL A   1      39.825  20.999  26.412  1.00  0.00     0.188 C 
BRANCH  25  26
ATOM     26  O   UNL A   1      40.818  20.474  25.545  1.00  0.00    -0.376 OA
BRANCH  26  27
ATOM     27  C   UNL A   1      42.090  20.221  26.120  1.00  0.00     0.202 C 
BRANCH  27  28
ATOM     28  C   UNL A   1      42.675  21.295  27.058  1.00  0.00     0.261 C 
BRANCH  28  29
ATOM     29  O   UNL A   1      43.605  22.231  26.456  1.00  0.00    -0.460 OA
BRANCH  29  30
ATOM     30  C   UNL A   1      43.101  23.111  25.552  1.00  0.00     0.338 C 
ATOM     31  O   UNL A   1      43.005  22.942  24.348  1.00  0.00    -0.246 OA
BRANCH  30  32
ATOM     32  C   UNL A   1      42.477  24.281  26.233  1.00  0.00     0.060 A 
ATOM     33  C   UNL A   1      43.035  25.561  26.061  1.00  0.00     0.016 A 
ATOM     34  C   UNL A   1      41.443  24.106  27.149  1.00  0.00     0.016 A 
ATOM     35  C   UNL A   1      42.581  26.657  26.803  1.00  0.00     0.010 A 
ATOM     36  C   UNL A   1      41.015  25.197  27.924  1.00  0.00     0.010 A 
ATOM     37  C   UNL A   1      41.602  26.472  27.780  1.00  0.00    -0.014 A 
BRANCH  37  38
ATOM     38  C   UNL A   1      41.354  27.519  28.808  1.00  0.00     0.031 A 
ATOM     39  C   UNL A   1      42.217  27.513  30.041  1.00  0.00     0.074 A 
ATOM     40  C   UNL A   1      40.398  28.456  28.678  1.00  0.00     0.049 A 
ATOM     41  N   UNL A   1      42.056  28.134  31.181  1.00  0.00    -0.248 NA
ATOM     42  C   UNL A   1      43.431  26.684  29.973  1.00  0.00     0.031 C 
ATOM     43  C   UNL A   1      39.572  28.670  27.495  1.00  0.00     0.029 A 
ATOM     44  N   UNL A   1      39.945  29.392  29.580  1.00  0.00    -0.354 N 
ATOM     45  C   UNL A   1      43.119  27.733  31.981  1.00  0.00     0.074 A 
ATOM     46  C   UNL A   1      43.919  26.819  31.197  1.00  0.00     0.031 C 
ATOM     47  C   UNL A   1      38.682  29.645  27.756  1.00  0.00     0.029 A 
ATOM     48  C   UNL A   1      38.837  30.078  29.145  1.00  0.00     0.049 A 
ATOM     49  H   UNL A   1      40.373  29.553  30.452  1.00  0.00     0.167 HD
ATOM     50  C   UNL A   1      43.393  28.087  33.259  1.00  0.00     0.037 A 
ATOM     51  C   UNL A   1      38.009  30.911  29.811  1.00  0.00     0.037 A 
ATOM     52  C   UNL A   1      42.601  29.009  34.030  1.00  0.00     0.049 A 
ATOM     53  C   UNL A   1      38.264  31.205  31.272  1.00  0.00     0.074 A 
ATOM     54  C   UNL A   1      42.793  29.431  35.334  1.00  0.00     0.029 A 
ATOM     55  N   UNL A   1      41.465  29.653  33.564  1.00  0.00    -0.354 N 
ATOM     56  N   UNL A   1      39.239  30.792  32.045  1.00  0.00    -0.248 NA
ATOM     57  C   UNL A   1      37.293  32.074  31.956  1.00  0.00     0.031 C 
ATOM     58  C   UNL A   1      41.738  30.280  35.678  1.00  0.00     0.029 A 
ATOM     59  C   UNL A   1      40.928  30.445  34.565  1.00  0.00     0.049 A 
ATOM     60  H   UNL A   1      41.095  29.560  32.657  1.00  0.00     0.167 HD
ATOM     61  C   UNL A   1      39.019  31.376  33.288  1.00  0.00     0.074 A 
ATOM     62  C   UNL A   1      37.821  32.178  33.167  1.00  0.00     0.031 C 
ATOM     63  C   UNL A   1      39.748  31.260  34.426  1.00  0.00     0.037 A 
BRANCH  50  64
ATOM     64  C   UNL A   1      44.565  27.426  33.927  1.00  0.00     0.064 A 
ATOM     65  C   UNL A   1      44.450  26.198  34.592  1.00  0.00     0.173 A 
ATOM     66  C   UNL A   1      45.832  28.029  33.878  1.00  0.00     0.173 A 
ATOM     67  F   UNL A   1      43.259  25.587  34.682  1.00  0.00    -0.203 F 
ATOM     68  C   UNL A   1      45.554  25.611  35.209  1.00  0.00     0.198 A 
ATOM     69  C   UNL A   1      46.940  27.423  34.464  1.00  0.00     0.198 A 
ATOM     70  F   UNL A   1      45.999  29.203  33.249  1.00  0.00    -0.203 F 
ATOM     71  F   UNL A   1      45.409  24.464  35.886  1.00  0.00    -0.200 F 
ATOM     72  C   UNL A   1      46.798  26.220  35.138  1.00  0.00     0.200 A 
ATOM     73  F   UNL A   1      48.143  28.007  34.380  1.00  0.00    -0.200 F 
ATOM     74  F   UNL A   1      47.859  25.651  35.726  1.00  0.00    -0.200 F 
ENDBRANCH  50  64
BRANCH  51  75
ATOM     75  C   UNL A   1      36.817  31.486  29.128  1.00  0.00     0.064 A 
ATOM     76  C   UNL A   1      36.748  32.851  28.816  1.00  0.00     0.173 A 
ATOM     77  C   UNL A   1      35.702  30.692  28.812  1.00  0.00     0.173 A 
ATOM     78  F   UNL A   1      37.770  33.661  29.130  1.00  0.00    -0.203 F 
ATOM     79  C   UNL A   1      35.609  33.403  28.232  1.00  0.00     0.198 A 
ATOM     80  C   UNL A   1      34.577  31.238  28.197  1.00  0.00     0.198 A 
ATOM     81  F   UNL A   1      35.706  29.383  29.100  1.00  0.00    -0.203 F 
ATOM     82  F   UNL A   1      35.550  34.721  27.999  1.00  0.00    -0.200 F 
ATOM     83  C   UNL A   1      34.527  32.595  27.917  1.00  0.00     0.200 A 
ATOM     84  F   UNL A   1      33.538  30.452  27.888  1.00  0.00    -0.200 F 
ATOM     85  F   UNL A   1      33.432  33.125  27.356  1.00  0.00    -0.200 F 
ENDBRANCH  51  75
BRANCH  63  86
ATOM     86  C   UNL A   1      39.318  32.062  35.622  1.00  0.00     0.064 A 
ATOM     87  C   UNL A   1      39.711  33.396  35.805  1.00  0.00     0.173 A 
ATOM     88  C   UNL A   1      38.433  31.506  36.563  1.00  0.00     0.173 A 
ATOM     89  F   UNL A   1      40.564  33.972  34.945  1.00  0.00    -0.203 F 
ATOM     90  C   UNL A   1      39.248  34.137  36.890  1.00  0.00     0.198 A 
ATOM     91  C   UNL A   1      37.947  32.260  37.627  1.00  0.00     0.198 A 
ATOM     92  F   UNL A   1      38.017  30.237  36.431  1.00  0.00    -0.203 F 
ATOM     93  F   UNL A   1      39.667  35.399  37.064  1.00  0.00    -0.200 F 
ATOM     94  C   UNL A   1      38.359  33.573  37.793  1.00  0.00     0.200 A 
ATOM     95  F   UNL A   1      37.074  31.718  38.487  1.00  0.00    -0.200 F 
ATOM     96  F   UNL A   1      37.900  34.295  38.825  1.00  0.00    -0.200 F 
ENDBRANCH  63  86
ENDBRANCH  37  38
ENDBRANCH  30  32
ENDBRANCH  29  30
ENDBRANCH  28  29
ENDBRANCH  27  28
ENDBRANCH  26  27
ENDBRANCH  25  26
ENDBRANCH   1  25
TORSDOF 22
ENDMDL
