MODEL 1
REMARK VINA RESULT:     -11.8      0.000      0.000
REMARK SMILES Cc1cc2c(c(C)c1Cl)C=C(C(=O)OCCOCCOCCOC(=O)c1ccc(-c3c4nc(c(-c5c(F)c(F)c(F)c(F)c5F)c5ccc([nH]5)c(-c5c(F)c(F)c(F)c(F)c5F)c5nc(c(-c6c(F)c(F)c(F)c(F)c6F)c6ccc3[nH]6)C=C5)C=C4)cc1)[C@@H](C(F)(F)F)O2
REMARK SMILES IDX 19 1 18 2 17 3 16 4 15 5 14 6 12 7 13 8 11 9 1 10 2 11 3 12
REMARK SMILES IDX 8 13 4 14 6 15 9 16 5 17 94 18 7 19 10 20 89 21 90 22 91 23
REMARK SMILES IDX 92 24 93 25 20 26 21 27 22 28 23 29 24 30 25 31 26 32 27 33
REMARK SMILES IDX 88 34 28 35 87 36 29 37 30 38 31 39 81 40 32 41 86 42 80 43
REMARK SMILES IDX 82 44 33 45 85 46 79 47 78 48 34 50 66 51 46 52 65 53 47 54
REMARK SMILES IDX 50 55 64 56 83 57 48 58 49 59 63 61 84 62 51 63 35 64 36 65
REMARK SMILES IDX 44 66 37 67 38 68 42 69 45 70 39 71 40 72 43 73 41 74 67 75
REMARK SMILES IDX 68 76 76 77 69 78 70 79 74 80 77 81 71 82 72 83 75 84 73 85
REMARK SMILES IDX 52 86 53 87 61 88 54 89 55 90 59 91 62 92 56 93 57 94 60 95
REMARK SMILES IDX 58 96
REMARK H PARENT 82 49 50 60
REMARK Flexibility Score: inf
ROOT
ATOM      1  C   UNL A   1      30.890  28.956  23.279  1.00  0.00     0.188 C 
ENDROOT
BRANCH   1   2
ATOM      2  C   UNL A   1      30.438  27.583  22.740  1.00  0.00     0.188 C 
BRANCH   2   3
ATOM      3  O   UNL A   1      30.212  26.497  23.621  1.00  0.00    -0.376 OA
BRANCH   3   4
ATOM      4  C   UNL A   1      30.548  26.602  24.996  1.00  0.00     0.202 C 
BRANCH   4   5
ATOM      5  C   UNL A   1      31.504  25.601  25.666  1.00  0.00     0.261 C 
BRANCH   5   6
ATOM      6  O   UNL A   1      32.896  25.939  25.582  1.00  0.00    -0.460 OA
BRANCH   6   7
ATOM      7  C   UNL A   1      33.520  25.545  24.447  1.00  0.00     0.338 C 
ATOM      8  O   UNL A   1      33.682  26.202  23.433  1.00  0.00    -0.246 OA
BRANCH   7   9
ATOM      9  C   UNL A   1      34.141  24.220  24.658  1.00  0.00     0.087 C 
ATOM     10  C   UNL A   1      38.158  19.166  25.006  1.00  0.00     0.046 C 
ATOM     11  C   UNL A   1      37.459  20.489  25.171  1.00  0.00    -0.028 A 
ATOM     12  C   UNL A   1      36.100  20.572  24.844  1.00  0.00     0.052 A 
ATOM     13  C   UNL A   1      38.113  21.637  25.659  1.00  0.00     0.047 A 
ATOM     14  C   UNL A   1      35.427  21.791  24.892  1.00  0.00     0.128 A 
ATOM     15  C   UNL A   1      37.441  22.881  25.735  1.00  0.00    -0.021 A 
ATOM     16  Cl  UNL A   1      39.774  21.499  26.149  1.00  0.00    -0.084 Cl
ATOM     17  C   UNL A   1      36.097  22.954  25.286  1.00  0.00     0.022 A 
ATOM     18  O   UNL A   1      34.112  21.740  24.527  1.00  0.00    -0.475 OA
ATOM     19  C   UNL A   1      38.123  24.122  26.263  1.00  0.00     0.047 C 
ATOM     20  C   UNL A   1      35.389  24.224  25.147  1.00  0.00     0.027 C 
ATOM     21  C   UNL A   1      33.376  22.973  24.323  1.00  0.00     0.316 C 
BRANCH  21  22
ATOM     22  C   UNL A   1      32.835  22.981  22.888  1.00  0.00     0.430 C 
ATOM     23  F   UNL A   1      31.809  23.856  22.754  1.00  0.00    -0.167 F 
ATOM     24  F   UNL A   1      33.782  23.354  21.995  1.00  0.00    -0.167 F 
ATOM     25  F   UNL A   1      32.383  21.763  22.513  1.00  0.00    -0.167 F 
ENDBRANCH  21  22
ENDBRANCH   7   9
ENDBRANCH   6   7
ENDBRANCH   5   6
ENDBRANCH   4   5
ENDBRANCH   3   4
ENDBRANCH   2   3
ENDBRANCH   1   2
BRANCH   1  26
ATOM     26  O   UNL A   1      32.260  29.117  23.537  1.00  0.00    -0.376 OA
BRANCH  26  27
ATOM     27  C   UNL A   1      32.714  29.441  24.842  1.00  0.00     0.202 C 
BRANCH  27  28
ATOM     28  C   UNL A   1      31.967  30.302  25.884  1.00  0.00     0.261 C 
BRANCH  28  29
ATOM     29  O   UNL A   1      32.559  30.482  27.172  1.00  0.00    -0.460 OA
BRANCH  29  30
ATOM     30  C   UNL A   1      33.274  31.623  27.340  1.00  0.00     0.338 C 
ATOM     31  O   UNL A   1      32.873  32.768  27.260  1.00  0.00    -0.246 OA
BRANCH  30  32
ATOM     32  C   UNL A   1      34.613  31.265  27.845  1.00  0.00     0.060 A 
ATOM     33  C   UNL A   1      34.876  29.921  28.149  1.00  0.00     0.016 A 
ATOM     34  C   UNL A   1      35.586  32.244  28.047  1.00  0.00     0.016 A 
ATOM     35  C   UNL A   1      36.110  29.554  28.681  1.00  0.00     0.010 A 
ATOM     36  C   UNL A   1      36.811  31.879  28.615  1.00  0.00     0.010 A 
ATOM     37  C   UNL A   1      37.063  30.540  28.964  1.00  0.00    -0.014 A 
BRANCH  37  38
ATOM     38  C   UNL A   1      38.209  30.216  29.848  1.00  0.00     0.031 A 
ATOM     39  C   UNL A   1      39.268  29.294  29.311  1.00  0.00     0.074 A 
ATOM     40  C   UNL A   1      38.327  30.740  31.079  1.00  0.00     0.049 A 
ATOM     41  N   UNL A   1      40.311  28.781  29.913  1.00  0.00    -0.248 NA
ATOM     42  C   UNL A   1      39.133  28.899  27.899  1.00  0.00     0.031 C 
ATOM     43  C   UNL A   1      37.412  31.706  31.681  1.00  0.00     0.029 A 
ATOM     44  N   UNL A   1      39.275  30.520  32.048  1.00  0.00    -0.354 N 
ATOM     45  C   UNL A   1      40.951  28.007  28.956  1.00  0.00     0.074 A 
ATOM     46  C   UNL A   1      40.170  28.093  27.742  1.00  0.00     0.031 C 
ATOM     47  C   UNL A   1      37.838  31.986  32.926  1.00  0.00     0.029 A 
ATOM     48  C   UNL A   1      39.027  31.187  33.221  1.00  0.00     0.049 A 
ATOM     49  H   UNL A   1      40.059  29.939  31.913  1.00  0.00     0.167 HD
ATOM     50  C   UNL A   1      42.095  27.292  29.076  1.00  0.00     0.037 A 
ATOM     51  C   UNL A   1      39.672  31.130  34.404  1.00  0.00     0.037 A 
ATOM     52  C   UNL A   1      42.862  27.195  30.287  1.00  0.00     0.049 A 
ATOM     53  C   UNL A   1      40.875  30.229  34.550  1.00  0.00     0.074 A 
ATOM     54  C   UNL A   1      44.023  26.479  30.517  1.00  0.00     0.029 A 
ATOM     55  N   UNL A   1      42.541  27.831  31.478  1.00  0.00    -0.354 N 
ATOM     56  N   UNL A   1      41.467  29.482  33.649  1.00  0.00    -0.248 NA
ATOM     57  C   UNL A   1      41.492  30.159  35.882  1.00  0.00     0.031 C 
ATOM     58  C   UNL A   1      44.376  26.639  31.860  1.00  0.00     0.029 A 
ATOM     59  C   UNL A   1      43.467  27.501  32.454  1.00  0.00     0.049 A 
ATOM     60  H   UNL A   1      41.769  28.428  31.609  1.00  0.00     0.167 HD
ATOM     61  C   UNL A   1      42.535  28.871  34.298  1.00  0.00     0.074 A 
ATOM     62  C   UNL A   1      42.523  29.354  35.663  1.00  0.00     0.031 C 
ATOM     63  C   UNL A   1      43.440  27.986  33.811  1.00  0.00     0.037 A 
BRANCH  50  64
ATOM     64  C   UNL A   1      42.567  26.534  27.872  1.00  0.00     0.064 A 
ATOM     65  C   UNL A   1      43.445  27.107  26.941  1.00  0.00     0.173 A 
ATOM     66  C   UNL A   1      42.169  25.204  27.669  1.00  0.00     0.173 A 
ATOM     67  F   UNL A   1      43.837  28.383  27.078  1.00  0.00    -0.203 F 
ATOM     68  C   UNL A   1      43.898  26.380  25.842  1.00  0.00     0.198 A 
ATOM     69  C   UNL A   1      42.648  24.472  26.586  1.00  0.00     0.198 A 
ATOM     70  F   UNL A   1      41.328  24.610  28.528  1.00  0.00    -0.203 F 
ATOM     71  F   UNL A   1      44.706  26.961  24.944  1.00  0.00    -0.200 F 
ATOM     72  C   UNL A   1      43.507  25.061  25.672  1.00  0.00     0.200 A 
ATOM     73  F   UNL A   1      42.277  23.193  26.429  1.00  0.00    -0.200 F 
ATOM     74  F   UNL A   1      43.956  24.358  24.622  1.00  0.00    -0.200 F 
ENDBRANCH  50  64
BRANCH  51  75
ATOM     75  C   UNL A   1      39.186  31.933  35.557  1.00  0.00     0.064 A 
ATOM     76  C   UNL A   1      38.358  31.363  36.535  1.00  0.00     0.173 A 
ATOM     77  C   UNL A   1      39.518  33.289  35.697  1.00  0.00     0.173 A 
ATOM     78  F   UNL A   1      37.983  30.079  36.429  1.00  0.00    -0.203 F 
ATOM     79  C   UNL A   1      37.876  32.119  37.602  1.00  0.00     0.198 A 
ATOM     80  C   UNL A   1      39.059  34.037  36.780  1.00  0.00     0.198 A 
ATOM     81  F   UNL A   1      40.295  33.887  34.783  1.00  0.00    -0.203 F 
ATOM     82  F   UNL A   1      37.050  31.559  38.497  1.00  0.00    -0.200 F 
ATOM     83  C   UNL A   1      38.233  33.453  37.729  1.00  0.00     0.200 A 
ATOM     84  F   UNL A   1      39.414  35.322  36.903  1.00  0.00    -0.200 F 
ATOM     85  F   UNL A   1      37.775  34.177  38.758  1.00  0.00    -0.200 F 
ENDBRANCH  51  75
BRANCH  63  86
ATOM     86  C   UNL A   1      44.502  27.487  34.751  1.00  0.00     0.064 A 
ATOM     87  C   UNL A   1      45.736  28.141  34.877  1.00  0.00     0.173 A 
ATOM     88  C   UNL A   1      44.263  26.373  35.573  1.00  0.00     0.173 A 
ATOM     89  F   UNL A   1      46.020  29.204  34.110  1.00  0.00    -0.203 F 
ATOM     90  C   UNL A   1      46.703  27.683  35.770  1.00  0.00     0.198 A 
ATOM     91  C   UNL A   1      45.218  25.940  36.489  1.00  0.00     0.198 A 
ATOM     92  F   UNL A   1      43.095  25.718  35.501  1.00  0.00    -0.203 F 
ATOM     93  F   UNL A   1      47.893  28.294  35.838  1.00  0.00    -0.200 F 
ATOM     94  C   UNL A   1      46.439  26.588  36.581  1.00  0.00     0.200 A 
ATOM     95  F   UNL A   1      44.953  24.894  37.284  1.00  0.00    -0.200 F 
ATOM     96  F   UNL A   1      47.366  26.156  37.446  1.00  0.00    -0.200 F 
ENDBRANCH  63  86
ENDBRANCH  37  38
ENDBRANCH  30  32
ENDBRANCH  29  30
ENDBRANCH  28  29
ENDBRANCH  27  28
ENDBRANCH  26  27
ENDBRANCH   1  26
TORSDOF 18
ENDMDL
MODEL 2
REMARK VINA RESULT:     -11.5      3.165      8.309
REMARK SMILES Cc1cc2c(c(C)c1Cl)C=C(C(=O)OCCOCCOCCOC(=O)c1ccc(-c3c4nc(c(-c5c(F)c(F)c(F)c(F)c5F)c5ccc([nH]5)c(-c5c(F)c(F)c(F)c(F)c5F)c5nc(c(-c6c(F)c(F)c(F)c(F)c6F)c6ccc3[nH]6)C=C5)C=C4)cc1)[C@@H](C(F)(F)F)O2
REMARK SMILES IDX 19 1 18 2 17 3 16 4 15 5 14 6 12 7 13 8 11 9 1 10 2 11 3 12
REMARK SMILES IDX 8 13 4 14 6 15 9 16 5 17 94 18 7 19 10 20 89 21 90 22 91 23
REMARK SMILES IDX 92 24 93 25 20 26 21 27 22 28 23 29 24 30 25 31 26 32 27 33
REMARK SMILES IDX 88 34 28 35 87 36 29 37 30 38 31 39 81 40 32 41 86 42 80 43
REMARK SMILES IDX 82 44 33 45 85 46 79 47 78 48 34 50 66 51 46 52 65 53 47 54
REMARK SMILES IDX 50 55 64 56 83 57 48 58 49 59 63 61 84 62 51 63 35 64 36 65
REMARK SMILES IDX 44 66 37 67 38 68 42 69 45 70 39 71 40 72 43 73 41 74 67 75
REMARK SMILES IDX 68 76 76 77 69 78 70 79 74 80 77 81 71 82 72 83 75 84 73 85
REMARK SMILES IDX 52 86 53 87 61 88 54 89 55 90 59 91 62 92 56 93 57 94 60 95
REMARK SMILES IDX 58 96
REMARK H PARENT 82 49 50 60
REMARK Flexibility Score: inf
ROOT
ATOM      1  C   UNL A   1      41.914  20.811  27.128  1.00  0.00     0.188 C 
ENDROOT
BRANCH   1   2
ATOM      2  C   UNL A   1      40.389  20.941  26.935  1.00  0.00     0.188 C 
BRANCH   2   3
ATOM      3  O   UNL A   1      39.856  21.680  25.850  1.00  0.00    -0.376 OA
BRANCH   3   4
ATOM      4  C   UNL A   1      38.453  21.815  25.689  1.00  0.00     0.202 C 
BRANCH   4   5
ATOM      5  C   UNL A   1      37.752  23.170  25.878  1.00  0.00     0.261 C 
BRANCH   5   6
ATOM      6  O   UNL A   1      36.660  23.420  24.983  1.00  0.00    -0.460 OA
BRANCH   6   7
ATOM      7  C   UNL A   1      35.431  23.422  25.553  1.00  0.00     0.338 C 
ATOM      8  O   UNL A   1      35.110  22.890  26.602  1.00  0.00    -0.246 OA
BRANCH   7   9
ATOM      9  C   UNL A   1      34.533  24.316  24.793  1.00  0.00     0.087 C 
ATOM     10  C   UNL A   1      30.051  28.586  22.928  1.00  0.00     0.046 C 
ATOM     11  C   UNL A   1      31.241  27.888  23.532  1.00  0.00    -0.028 A 
ATOM     12  C   UNL A   1      31.677  26.690  22.953  1.00  0.00     0.052 A 
ATOM     13  C   UNL A   1      31.940  28.403  24.641  1.00  0.00     0.047 A 
ATOM     14  C   UNL A   1      32.715  25.958  23.525  1.00  0.00     0.128 A 
ATOM     15  C   UNL A   1      33.011  27.684  25.224  1.00  0.00    -0.021 A 
ATOM     16  Cl  UNL A   1      31.447  29.936  25.293  1.00  0.00    -0.084 Cl
ATOM     17  C   UNL A   1      33.352  26.417  24.683  1.00  0.00     0.022 A 
ATOM     18  O   UNL A   1      33.029  24.797  22.876  1.00  0.00    -0.475 OA
ATOM     19  C   UNL A   1      33.778  28.222  26.410  1.00  0.00     0.047 C 
ATOM     20  C   UNL A   1      34.307  25.522  25.331  1.00  0.00     0.027 C 
ATOM     21  C   UNL A   1      33.931  23.848  23.500  1.00  0.00     0.316 C 
BRANCH  21  22
ATOM     22  C   UNL A   1      33.200  22.507  23.641  1.00  0.00     0.430 C 
ATOM     23  F   UNL A   1      32.528  22.192  22.508  1.00  0.00    -0.167 F 
ATOM     24  F   UNL A   1      34.059  21.488  23.879  1.00  0.00    -0.167 F 
ATOM     25  F   UNL A   1      32.303  22.526  24.654  1.00  0.00    -0.167 F 
ENDBRANCH  21  22
ENDBRANCH   7   9
ENDBRANCH   6   7
ENDBRANCH   5   6
ENDBRANCH   4   5
ENDBRANCH   3   4
ENDBRANCH   2   3
ENDBRANCH   1   2
BRANCH   1  26
ATOM     26  O   UNL A   1      42.655  20.337  26.034  1.00  0.00    -0.376 OA
BRANCH  26  27
ATOM     27  C   UNL A   1      43.789  21.052  25.569  1.00  0.00     0.202 C 
BRANCH  27  28
ATOM     28  C   UNL A   1      43.777  22.274  24.624  1.00  0.00     0.261 C 
BRANCH  28  29
ATOM     29  O   UNL A   1      43.012  23.421  25.001  1.00  0.00    -0.460 OA
BRANCH  29  30
ATOM     30  C   UNL A   1      43.713  24.570  25.166  1.00  0.00     0.338 C 
ATOM     31  O   UNL A   1      44.711  24.923  24.568  1.00  0.00    -0.246 OA
BRANCH  30  32
ATOM     32  C   UNL A   1      42.954  25.455  26.072  1.00  0.00     0.060 A 
ATOM     33  C   UNL A   1      43.181  26.838  26.000  1.00  0.00     0.016 A 
ATOM     34  C   UNL A   1      42.056  24.928  26.999  1.00  0.00     0.016 A 
ATOM     35  C   UNL A   1      42.525  27.699  26.877  1.00  0.00     0.010 A 
ATOM     36  C   UNL A   1      41.426  25.790  27.902  1.00  0.00     0.010 A 
ATOM     37  C   UNL A   1      41.684  27.172  27.866  1.00  0.00    -0.014 A 
BRANCH  37  38
ATOM     38  C   UNL A   1      41.278  28.025  29.008  1.00  0.00     0.031 A 
ATOM     39  C   UNL A   1      42.083  27.929  30.275  1.00  0.00     0.074 A 
ATOM     40  C   UNL A   1      40.245  28.880  28.925  1.00  0.00     0.049 A 
ATOM     41  N   UNL A   1      41.877  28.492  31.438  1.00  0.00    -0.248 NA
ATOM     42  C   UNL A   1      43.288  27.086  30.218  1.00  0.00     0.031 C 
ATOM     43  C   UNL A   1      39.440  29.123  27.731  1.00  0.00     0.029 A 
ATOM     44  N   UNL A   1      39.696  29.701  29.878  1.00  0.00    -0.354 N 
ATOM     45  C   UNL A   1      42.923  28.069  32.247  1.00  0.00     0.074 A 
ATOM     46  C   UNL A   1      43.747  27.185  31.455  1.00  0.00     0.031 C 
ATOM     47  C   UNL A   1      38.487  30.026  28.029  1.00  0.00     0.029 A 
ATOM     48  C   UNL A   1      38.591  30.388  29.442  1.00  0.00     0.049 A 
ATOM     49  H   UNL A   1      40.060  29.789  30.789  1.00  0.00     0.167 HD
ATOM     50  C   UNL A   1      43.177  28.396  33.536  1.00  0.00     0.037 A 
ATOM     51  C   UNL A   1      37.745  31.190  30.120  1.00  0.00     0.037 A 
ATOM     52  C   UNL A   1      42.348  29.262  34.328  1.00  0.00     0.049 A 
ATOM     53  C   UNL A   1      37.980  31.441  31.590  1.00  0.00     0.074 A 
ATOM     54  C   UNL A   1      42.508  29.638  35.649  1.00  0.00     0.029 A 
ATOM     55  N   UNL A   1      41.196  29.886  33.871  1.00  0.00    -0.354 N 
ATOM     56  N   UNL A   1      38.958  31.025  32.358  1.00  0.00    -0.248 NA
ATOM     57  C   UNL A   1      36.985  32.269  32.288  1.00  0.00     0.031 C 
ATOM     58  C   UNL A   1      41.426  30.447  36.008  1.00  0.00     0.029 A 
ATOM     59  C   UNL A   1      40.620  30.622  34.893  1.00  0.00     0.049 A 
ATOM     60  H   UNL A   1      40.841  29.816  32.955  1.00  0.00     0.167 HD
ATOM     61  C   UNL A   1      38.708  31.555  33.620  1.00  0.00     0.074 A 
ATOM     62  C   UNL A   1      37.499  32.343  33.508  1.00  0.00     0.031 C 
ATOM     63  C   UNL A   1      39.412  31.399  34.768  1.00  0.00     0.037 A 
BRANCH  50  64
ATOM     64  C   UNL A   1      44.387  27.787  34.179  1.00  0.00     0.064 A 
ATOM     65  C   UNL A   1      44.336  26.532  34.803  1.00  0.00     0.173 A 
ATOM     66  C   UNL A   1      45.624  28.449  34.133  1.00  0.00     0.173 A 
ATOM     67  F   UNL A   1      43.172  25.870  34.893  1.00  0.00    -0.203 F 
ATOM     68  C   UNL A   1      45.476  25.968  35.370  1.00  0.00     0.198 A 
ATOM     69  C   UNL A   1      46.766  27.867  34.674  1.00  0.00     0.198 A 
ATOM     70  F   UNL A   1      45.726  29.652  33.551  1.00  0.00    -0.203 F 
ATOM     71  F   UNL A   1      45.395  24.785  35.996  1.00  0.00    -0.200 F 
ATOM     72  C   UNL A   1      46.692  26.630  35.296  1.00  0.00     0.200 A 
ATOM     73  F   UNL A   1      47.943  28.505  34.592  1.00  0.00    -0.200 F 
ATOM     74  F   UNL A   1      47.790  26.079  35.828  1.00  0.00    -0.200 F 
ENDBRANCH  50  64
BRANCH  51  75
ATOM     75  C   UNL A   1      36.581  31.802  29.426  1.00  0.00     0.064 A 
ATOM     76  C   UNL A   1      35.487  31.021  29.027  1.00  0.00     0.173 A 
ATOM     77  C   UNL A   1      36.545  33.172  29.126  1.00  0.00     0.173 A 
ATOM     78  F   UNL A   1      35.489  29.700  29.259  1.00  0.00    -0.203 F 
ATOM     79  C   UNL A   1      34.406  31.584  28.350  1.00  0.00     0.198 A 
ATOM     80  C   UNL A   1      35.451  33.740  28.475  1.00  0.00     0.198 A 
ATOM     81  F   UNL A   1      37.571  33.963  29.473  1.00  0.00    -0.203 F 
ATOM     82  F   UNL A   1      33.395  30.805  27.942  1.00  0.00    -0.200 F 
ATOM     83  C   UNL A   1      34.385  32.945  28.082  1.00  0.00     0.200 A 
ATOM     84  F   UNL A   1      35.431  35.056  28.226  1.00  0.00    -0.200 F 
ATOM     85  F   UNL A   1      33.344  33.486  27.438  1.00  0.00    -0.200 F 
ENDBRANCH  51  75
BRANCH  63  86
ATOM     86  C   UNL A   1      38.905  32.100  35.998  1.00  0.00     0.064 A 
ATOM     87  C   UNL A   1      38.117  31.435  36.949  1.00  0.00     0.173 A 
ATOM     88  C   UNL A   1      39.252  33.436  36.254  1.00  0.00     0.173 A 
ATOM     89  F   UNL A   1      37.749  30.160  36.749  1.00  0.00    -0.203 F 
ATOM     90  C   UNL A   1      37.673  32.088  38.096  1.00  0.00     0.198 A 
ATOM     91  C   UNL A   1      38.836  34.075  37.419  1.00  0.00     0.198 A 
ATOM     92  F   UNL A   1      40.013  34.116  35.383  1.00  0.00    -0.203 F 
ATOM     93  F   UNL A   1      36.882  31.447  38.967  1.00  0.00    -0.200 F 
ATOM     94  C   UNL A   1      38.041  33.405  38.334  1.00  0.00     0.200 A 
ATOM     95  F   UNL A   1      39.208  35.341  37.655  1.00  0.00    -0.200 F 
ATOM     96  F   UNL A   1      37.622  34.028  39.444  1.00  0.00    -0.200 F 
ENDBRANCH  63  86
ENDBRANCH  37  38
ENDBRANCH  30  32
ENDBRANCH  29  30
ENDBRANCH  28  29
ENDBRANCH  27  28
ENDBRANCH  26  27
ENDBRANCH   1  26
TORSDOF 18
ENDMDL
MODEL 3
REMARK VINA RESULT:     -11.2      3.122      8.451
REMARK SMILES Cc1cc2c(c(C)c1Cl)C=C(C(=O)OCCOCCOCCOC(=O)c1ccc(-c3c4nc(c(-c5c(F)c(F)c(F)c(F)c5F)c5ccc([nH]5)c(-c5c(F)c(F)c(F)c(F)c5F)c5nc(c(-c6c(F)c(F)c(F)c(F)c6F)c6ccc3[nH]6)C=C5)C=C4)cc1)[C@@H](C(F)(F)F)O2
REMARK SMILES IDX 19 1 18 2 17 3 16 4 15 5 14 6 12 7 13 8 11 9 1 10 2 11 3 12
REMARK SMILES IDX 8 13 4 14 6 15 9 16 5 17 94 18 7 19 10 20 89 21 90 22 91 23
REMARK SMILES IDX 92 24 93 25 20 26 21 27 22 28 23 29 24 30 25 31 26 32 27 33
REMARK SMILES IDX 88 34 28 35 87 36 29 37 30 38 31 39 81 40 32 41 86 42 80 43
REMARK SMILES IDX 82 44 33 45 85 46 79 47 78 48 34 50 66 51 46 52 65 53 47 54
REMARK SMILES IDX 50 55 64 56 83 57 48 58 49 59 63 61 84 62 51 63 35 64 36 65
REMARK SMILES IDX 44 66 37 67 38 68 42 69 45 70 39 71 40 72 43 73 41 74 67 75
REMARK SMILES IDX 68 76 76 77 69 78 70 79 74 80 77 81 71 82 72 83 75 84 73 85
REMARK SMILES IDX 52 86 53 87 61 88 54 89 55 90 59 91 62 92 56 93 57 94 60 95
REMARK SMILES IDX 58 96
REMARK H PARENT 82 49 50 60
REMARK Flexibility Score: inf
ROOT
ATOM      1  C   UNL A   1      41.605  21.577  27.058  1.00  0.00     0.188 C 
ENDROOT
BRANCH   1   2
ATOM      2  C   UNL A   1      40.106  21.837  26.799  1.00  0.00     0.188 C 
BRANCH   2   3
ATOM      3  O   UNL A   1      39.378  21.033  25.888  1.00  0.00    -0.376 OA
BRANCH   3   4
ATOM      4  C   UNL A   1      38.130  21.473  25.376  1.00  0.00     0.202 C 
BRANCH   4   5
ATOM      5  C   UNL A   1      37.553  22.850  25.743  1.00  0.00     0.261 C 
BRANCH   5   6
ATOM      6  O   UNL A   1      36.475  23.300  24.911  1.00  0.00    -0.460 OA
BRANCH   6   7
ATOM      7  C   UNL A   1      35.250  23.280  25.488  1.00  0.00     0.338 C 
ATOM      8  O   UNL A   1      34.937  22.716  26.523  1.00  0.00    -0.246 OA
BRANCH   7   9
ATOM      9  C   UNL A   1      34.345  24.195  24.761  1.00  0.00     0.087 C 
ATOM     10  C   UNL A   1      29.894  28.565  23.060  1.00  0.00     0.046 C 
ATOM     11  C   UNL A   1      31.089  27.840  23.619  1.00  0.00    -0.028 A 
ATOM     12  C   UNL A   1      31.477  26.633  23.026  1.00  0.00     0.052 A 
ATOM     13  C   UNL A   1      31.842  28.339  24.701  1.00  0.00     0.047 A 
ATOM     14  C   UNL A   1      32.518  25.877  23.560  1.00  0.00     0.128 A 
ATOM     15  C   UNL A   1      32.916  27.596  25.244  1.00  0.00    -0.021 A 
ATOM     16  Cl  UNL A   1      31.408  29.884  25.370  1.00  0.00    -0.084 Cl
ATOM     17  C   UNL A   1      33.208  26.322  24.692  1.00  0.00     0.022 A 
ATOM     18  O   UNL A   1      32.781  24.709  22.901  1.00  0.00    -0.475 OA
ATOM     19  C   UNL A   1      33.740  28.117  26.400  1.00  0.00     0.047 C 
ATOM     20  C   UNL A   1      34.166  25.406  25.305  1.00  0.00     0.027 C 
ATOM     21  C   UNL A   1      33.685  23.740  23.492  1.00  0.00     0.316 C 
BRANCH  21  22
ATOM     22  C   UNL A   1      32.929  22.416  23.662  1.00  0.00     0.430 C 
ATOM     23  F   UNL A   1      32.064  22.474  24.703  1.00  0.00    -0.167 F 
ATOM     24  F   UNL A   1      32.196  22.112  22.565  1.00  0.00    -0.167 F 
ATOM     25  F   UNL A   1      33.769  21.381  23.887  1.00  0.00    -0.167 F 
ENDBRANCH  21  22
ENDBRANCH   7   9
ENDBRANCH   6   7
ENDBRANCH   5   6
ENDBRANCH   4   5
ENDBRANCH   3   4
ENDBRANCH   2   3
ENDBRANCH   1   2
BRANCH   1  26
ATOM     26  O   UNL A   1      42.384  21.196  25.954  1.00  0.00    -0.376 OA
BRANCH  26  27
ATOM     27  C   UNL A   1      43.585  21.886  25.648  1.00  0.00     0.202 C 
BRANCH  27  28
ATOM     28  C   UNL A   1      43.777  22.945  24.540  1.00  0.00     0.261 C 
BRANCH  28  29
ATOM     29  O   UNL A   1      43.120  24.207  24.681  1.00  0.00    -0.460 OA
BRANCH  29  30
ATOM     30  C   UNL A   1      43.900  25.236  25.097  1.00  0.00     0.338 C 
ATOM     31  O   UNL A   1      44.960  25.601  24.625  1.00  0.00    -0.246 OA
BRANCH  30  32
ATOM     32  C   UNL A   1      43.159  26.001  26.118  1.00  0.00     0.060 A 
ATOM     33  C   UNL A   1      43.564  27.316  26.392  1.00  0.00     0.016 A 
ATOM     34  C   UNL A   1      42.100  25.422  26.818  1.00  0.00     0.016 A 
ATOM     35  C   UNL A   1      42.925  28.050  27.389  1.00  0.00     0.010 A 
ATOM     36  C   UNL A   1      41.484  26.147  27.842  1.00  0.00     0.010 A 
ATOM     37  C   UNL A   1      41.917  27.449  28.153  1.00  0.00    -0.014 A 
BRANCH  37  38
ATOM     38  C   UNL A   1      41.492  28.079  29.425  1.00  0.00     0.031 A 
ATOM     39  C   UNL A   1      40.278  28.966  29.398  1.00  0.00     0.074 A 
ATOM     40  C   UNL A   1      42.141  27.856  30.580  1.00  0.00     0.049 A 
ATOM     41  N   UNL A   1      39.763  29.705  30.347  1.00  0.00    -0.248 NA
ATOM     42  C   UNL A   1      39.543  29.023  28.123  1.00  0.00     0.031 C 
ATOM     43  C   UNL A   1      43.278  26.956  30.753  1.00  0.00     0.029 A 
ATOM     44  N   UNL A   1      41.931  28.382  31.831  1.00  0.00    -0.354 N 
ATOM     45  C   UNL A   1      38.649  30.312  29.783  1.00  0.00     0.074 A 
ATOM     46  C   UNL A   1      38.574  29.879  28.406  1.00  0.00     0.031 C 
ATOM     47  C   UNL A   1      43.676  27.004  32.038  1.00  0.00     0.029 A 
ATOM     48  C   UNL A   1      42.849  27.969  32.763  1.00  0.00     0.049 A 
ATOM     49  H   UNL A   1      41.191  28.998  32.039  1.00  0.00     0.167 HD
ATOM     50  C   UNL A   1      37.761  31.152  30.366  1.00  0.00     0.037 A 
ATOM     51  C   UNL A   1      43.017  28.353  34.045  1.00  0.00     0.037 A 
ATOM     52  C   UNL A   1      37.845  31.595  31.731  1.00  0.00     0.049 A 
ATOM     53  C   UNL A   1      42.087  29.386  34.637  1.00  0.00     0.074 A 
ATOM     54  C   UNL A   1      37.007  32.461  32.409  1.00  0.00     0.029 A 
ATOM     55  N   UNL A   1      38.831  31.207  32.627  1.00  0.00    -0.354 N 
ATOM     56  N   UNL A   1      41.046  29.973  34.097  1.00  0.00    -0.248 NA
ATOM     57  C   UNL A   1      42.365  29.813  36.016  1.00  0.00     0.031 C 
ATOM     58  C   UNL A   1      37.515  32.640  33.699  1.00  0.00     0.029 A 
ATOM     59  C   UNL A   1      38.638  31.840  33.844  1.00  0.00     0.049 A 
ATOM     60  H   UNL A   1      39.559  30.576  32.427  1.00  0.00     0.167 HD
ATOM     61  C   UNL A   1      40.535  30.821  35.073  1.00  0.00     0.074 A 
ATOM     62  C   UNL A   1      41.365  30.653  36.247  1.00  0.00     0.031 C 
ATOM     63  C   UNL A   1      39.476  31.666  35.003  1.00  0.00     0.037 A 
BRANCH  50  64
ATOM     64  C   UNL A   1      36.639  31.670  29.518  1.00  0.00     0.064 A 
ATOM     65  C   UNL A   1      35.563  30.853  29.142  1.00  0.00     0.173 A 
ATOM     66  C   UNL A   1      36.619  33.013  29.109  1.00  0.00     0.173 A 
ATOM     67  F   UNL A   1      35.547  29.557  29.489  1.00  0.00    -0.203 F 
ATOM     68  C   UNL A   1      34.514  31.357  28.378  1.00  0.00     0.198 A 
ATOM     69  C   UNL A   1      35.554  33.520  28.371  1.00  0.00     0.198 A 
ATOM     70  F   UNL A   1      37.626  33.835  29.438  1.00  0.00    -0.203 F 
ATOM     71  F   UNL A   1      33.514  30.548  27.998  1.00  0.00    -0.200 F 
ATOM     72  C   UNL A   1      34.505  32.692  28.002  1.00  0.00     0.200 A 
ATOM     73  F   UNL A   1      35.542  34.813  28.017  1.00  0.00    -0.200 F 
ATOM     74  F   UNL A   1      33.487  33.179  27.279  1.00  0.00    -0.200 F 
ENDBRANCH  50  64
BRANCH  51  75
ATOM     75  C   UNL A   1      44.122  27.778  34.856  1.00  0.00     0.064 A 
ATOM     76  C   UNL A   1      43.942  26.595  35.586  1.00  0.00     0.173 A 
ATOM     77  C   UNL A   1      45.373  28.408  34.939  1.00  0.00     0.173 A 
ATOM     78  F   UNL A   1      42.753  25.973  35.568  1.00  0.00    -0.203 F 
ATOM     79  C   UNL A   1      44.966  26.068  36.371  1.00  0.00     0.198 A 
ATOM     80  C   UNL A   1      46.406  27.865  35.701  1.00  0.00     0.198 A 
ATOM     81  F   UNL A   1      45.596  29.550  34.272  1.00  0.00    -0.203 F 
ATOM     82  F   UNL A   1      44.750  24.959  37.093  1.00  0.00    -0.200 F 
ATOM     83  C   UNL A   1      46.200  26.698  36.422  1.00  0.00     0.200 A 
ATOM     84  F   UNL A   1      47.599  28.473  35.740  1.00  0.00    -0.200 F 
ATOM     85  F   UNL A   1      47.185  26.188  37.171  1.00  0.00    -0.200 F 
ENDBRANCH  51  75
BRANCH  63  86
ATOM     86  C   UNL A   1      39.144  32.470  36.230  1.00  0.00     0.064 A 
ATOM     87  C   UNL A   1      39.655  33.763  36.421  1.00  0.00     0.173 A 
ATOM     88  C   UNL A   1      38.264  31.964  37.200  1.00  0.00     0.173 A 
ATOM     89  F   UNL A   1      40.508  34.290  35.530  1.00  0.00    -0.203 F 
ATOM     90  C   UNL A   1      39.321  34.507  37.550  1.00  0.00     0.198 A 
ATOM     91  C   UNL A   1      37.904  32.724  38.309  1.00  0.00     0.198 A 
ATOM     92  F   UNL A   1      37.736  30.739  37.061  1.00  0.00    -0.203 F 
ATOM     93  F   UNL A   1      39.860  35.719  37.735  1.00  0.00    -0.200 F 
ATOM     94  C   UNL A   1      38.438  33.990  38.488  1.00  0.00     0.200 A 
ATOM     95  F   UNL A   1      37.037  32.232  39.204  1.00  0.00    -0.200 F 
ATOM     96  F   UNL A   1      38.109  34.713  39.567  1.00  0.00    -0.200 F 
ENDBRANCH  63  86
ENDBRANCH  37  38
ENDBRANCH  30  32
ENDBRANCH  29  30
ENDBRANCH  28  29
ENDBRANCH  27  28
ENDBRANCH  26  27
ENDBRANCH   1  26
TORSDOF 18
ENDMDL
