MODEL 1
REMARK VINA RESULT:     -11.1      0.000      0.000
REMARK SMILES CC1(C)C(C(=O)N2CCOC[C@H]2C(=O)OCCOCCOCCOC(=O)c2ccc(-c3c4nc(c(-c5c(F)c(F)c(F)c(F)c5F)c5ccc([nH]5)c(-c5c(F)c(F)c(F)c(F)c5F)c5nc(c(-c6c(F)c(F)c(F)c(F)c6F)c6ccc3[nH]6)C=C5)C=C4)cc2)C1(C)C
REMARK SMILES IDX 19 1 18 2 17 3 16 4 15 5 13 6 14 7 12 8 7 9 8 10 9 11 11 12
REMARK SMILES IDX 10 13 5 14 6 15 4 16 1 17 2 18 3 19 90 20 91 21 92 22 20 23
REMARK SMILES IDX 21 24 22 25 23 26 24 27 25 28 26 29 27 30 28 31 89 32 29 33
REMARK SMILES IDX 88 34 30 35 31 36 32 37 82 38 33 39 87 40 81 41 83 42 34 43
REMARK SMILES IDX 86 44 80 45 79 46 35 48 67 49 47 50 66 51 48 52 51 53 65 54
REMARK SMILES IDX 84 55 49 56 50 57 64 59 85 60 52 61 36 62 37 63 45 64 38 65
REMARK SMILES IDX 39 66 43 67 46 68 40 69 41 70 44 71 42 72 68 73 69 74 77 75
REMARK SMILES IDX 70 76 71 77 75 78 78 79 72 80 73 81 76 82 74 83 53 84 54 85
REMARK SMILES IDX 62 86 55 87 56 88 60 89 63 90 57 91 58 92 61 93 59 94
REMARK H PARENT 83 47 51 58
REMARK Flexibility Score: inf
ROOT
ATOM      1  C   UNL A   1      39.931  22.039  26.762  1.00  0.00     0.188 C 
ENDROOT
BRANCH   1   2
ATOM      2  O   UNL A   1      38.880  21.912  25.811  1.00  0.00    -0.376 OA
BRANCH   2   3
ATOM      3  C   UNL A   1      37.819  22.860  25.815  1.00  0.00     0.202 C 
BRANCH   3   4
ATOM      4  C   UNL A   1      36.932  22.991  24.568  1.00  0.00     0.261 C 
BRANCH   4   5
ATOM      5  O   UNL A   1      35.816  22.078  24.518  1.00  0.00    -0.462 OA
BRANCH   5   6
ATOM      6  C   UNL A   1      34.791  22.318  25.378  1.00  0.00     0.331 C 
ATOM      7  O   UNL A   1      34.624  21.697  26.426  1.00  0.00    -0.250 OA
BRANCH   6   8
ATOM      8  C   UNL A   1      33.753  23.351  24.881  1.00  0.00     0.221 C 
ATOM      9  N   UNL A   1      33.625  23.821  23.470  1.00  0.00    -0.324 N 
ATOM     10  C   UNL A   1      33.203  22.793  22.530  1.00  0.00     0.149 C 
ATOM     11  C   UNL A   1      31.954  22.056  23.038  1.00  0.00     0.181 C 
ATOM     12  C   UNL A   1      32.396  22.754  25.277  1.00  0.00     0.197 C 
ATOM     13  O   UNL A   1      32.065  21.649  24.413  1.00  0.00    -0.377 OA
BRANCH   9  14
ATOM     14  C   UNL A   1      33.839  25.171  23.219  1.00  0.00     0.227 C 
ATOM     15  O   UNL A   1      34.158  25.523  22.080  1.00  0.00    -0.275 OA
BRANCH  14  16
ATOM     16  C   UNL A   1      33.774  26.293  24.225  1.00  0.00     0.091 C 
ATOM     17  C   UNL A   1      33.975  28.445  25.659  1.00  0.00     0.012 C 
ATOM     18  C   UNL A   1      33.484  27.791  24.359  1.00  0.00    -0.017 C 
ATOM     19  C   UNL A   1      33.590  28.778  23.232  1.00  0.00     0.012 C 
ATOM     20  C   UNL A   1      32.322  26.799  24.459  1.00  0.00    -0.017 C 
ATOM     21  C   UNL A   1      31.670  26.487  25.790  1.00  0.00     0.012 C 
ATOM     22  C   UNL A   1      31.308  26.700  23.338  1.00  0.00     0.012 C 
ENDBRANCH  14  16
ENDBRANCH   9  14
ENDBRANCH   6   8
ENDBRANCH   5   6
ENDBRANCH   4   5
ENDBRANCH   3   4
ENDBRANCH   2   3
ENDBRANCH   1   2
BRANCH   1  23
ATOM     23  C   UNL A   1      40.823  20.821  27.070  1.00  0.00     0.188 C 
BRANCH  23  24
ATOM     24  O   UNL A   1      41.553  20.329  25.972  1.00  0.00    -0.376 OA
BRANCH  24  25
ATOM     25  C   UNL A   1      42.965  20.403  25.978  1.00  0.00     0.202 C 
BRANCH  25  26
ATOM     26  C   UNL A   1      43.756  21.681  25.641  1.00  0.00     0.261 C 
BRANCH  26  27
ATOM     27  O   UNL A   1      43.029  22.820  25.167  1.00  0.00    -0.460 OA
BRANCH  27  28
ATOM     28  C   UNL A   1      43.700  23.995  25.112  1.00  0.00     0.338 C 
ATOM     29  O   UNL A   1      44.598  24.296  24.352  1.00  0.00    -0.246 OA
BRANCH  28  30
ATOM     30  C   UNL A   1      43.015  24.946  26.016  1.00  0.00     0.060 A 
ATOM     31  C   UNL A   1      43.330  26.310  25.938  1.00  0.00     0.016 A 
ATOM     32  C   UNL A   1      42.071  24.489  26.936  1.00  0.00     0.016 A 
ATOM     33  C   UNL A   1      42.730  27.218  26.812  1.00  0.00     0.010 A 
ATOM     34  C   UNL A   1      41.488  25.394  27.826  1.00  0.00     0.010 A 
ATOM     35  C   UNL A   1      41.846  26.756  27.793  1.00  0.00    -0.014 A 
BRANCH  35  36
ATOM     36  C   UNL A   1      41.468  27.637  28.925  1.00  0.00     0.031 A 
ATOM     37  C   UNL A   1      42.284  27.558  30.186  1.00  0.00     0.074 A 
ATOM     38  C   UNL A   1      40.432  28.490  28.846  1.00  0.00     0.049 A 
ATOM     39  N   UNL A   1      42.106  28.150  31.339  1.00  0.00    -0.248 NA
ATOM     40  C   UNL A   1      43.461  26.676  30.138  1.00  0.00     0.031 C 
ATOM     41  C   UNL A   1      39.601  28.704  27.665  1.00  0.00     0.029 A 
ATOM     42  N   UNL A   1      39.900  29.328  29.794  1.00  0.00    -0.354 N 
ATOM     43  C   UNL A   1      43.132  27.695  32.156  1.00  0.00     0.074 A 
ATOM     44  C   UNL A   1      43.912  26.758  31.380  1.00  0.00     0.031 C 
ATOM     45  C   UNL A   1      38.655  29.614  27.960  1.00  0.00     0.029 A 
ATOM     46  C   UNL A   1      38.792  30.013  29.361  1.00  0.00     0.049 A 
ATOM     47  H   UNL A   1      40.278  29.429  30.697  1.00  0.00     0.167 HD
ATOM     48  C   UNL A   1      43.402  28.033  33.440  1.00  0.00     0.037 A 
ATOM     49  C   UNL A   1      37.973  30.847  30.031  1.00  0.00     0.037 A 
ATOM     50  C   UNL A   1      42.626  28.971  34.208  1.00  0.00     0.049 A 
ATOM     51  C   UNL A   1      38.246  31.147  31.484  1.00  0.00     0.074 A 
ATOM     52  C   UNL A   1      42.831  29.402  35.506  1.00  0.00     0.029 A 
ATOM     53  N   UNL A   1      41.487  29.615  33.748  1.00  0.00    -0.354 N 
ATOM     54  N   UNL A   1      39.226  30.731  32.251  1.00  0.00    -0.248 NA
ATOM     55  C   UNL A   1      37.293  32.035  32.166  1.00  0.00     0.031 C 
ATOM     56  C   UNL A   1      41.780  30.255  35.854  1.00  0.00     0.029 A 
ATOM     57  C   UNL A   1      40.958  30.415  34.749  1.00  0.00     0.049 A 
ATOM     58  H   UNL A   1      41.110  29.518  32.843  1.00  0.00     0.167 HD
ATOM     59  C   UNL A   1      39.033  31.338  33.486  1.00  0.00     0.074 A 
ATOM     60  C   UNL A   1      37.843  32.154  33.367  1.00  0.00     0.031 C 
ATOM     61  C   UNL A   1      39.779  31.235  34.615  1.00  0.00     0.037 A 
BRANCH  48  62
ATOM     62  C   UNL A   1      44.557  27.339  34.105  1.00  0.00     0.064 A 
ATOM     63  C   UNL A   1      45.847  27.891  34.127  1.00  0.00     0.173 A 
ATOM     64  C   UNL A   1      44.367  26.096  34.728  1.00  0.00     0.173 A 
ATOM     65  F   UNL A   1      46.089  29.070  33.533  1.00  0.00    -0.203 F 
ATOM     66  C   UNL A   1      46.910  27.204  34.708  1.00  0.00     0.198 A 
ATOM     67  C   UNL A   1      45.424  25.431  35.341  1.00  0.00     0.198 A 
ATOM     68  F   UNL A   1      43.154  25.524  34.741  1.00  0.00    -0.203 F 
ATOM     69  F   UNL A   1      48.148  27.719  34.655  1.00  0.00    -0.200 F 
ATOM     70  C   UNL A   1      46.697  25.979  35.320  1.00  0.00     0.200 A 
ATOM     71  F   UNL A   1      45.212  24.252  35.945  1.00  0.00    -0.200 F 
ATOM     72  F   UNL A   1      47.722  25.319  35.878  1.00  0.00    -0.200 F 
ENDBRANCH  48  62
BRANCH  49  73
ATOM     73  C   UNL A   1      36.815  31.468  29.335  1.00  0.00     0.064 A 
ATOM     74  C   UNL A   1      35.684  30.709  29.005  1.00  0.00     0.173 A 
ATOM     75  C   UNL A   1      36.821  32.823  28.970  1.00  0.00     0.173 A 
ATOM     76  F   UNL A   1      35.643  29.402  29.302  1.00  0.00    -0.203 F 
ATOM     77  C   UNL A   1      34.607  31.278  28.326  1.00  0.00     0.198 A 
ATOM     78  C   UNL A   1      35.732  33.397  28.318  1.00  0.00     0.198 A 
ATOM     79  F   UNL A   1      37.883  33.590  29.254  1.00  0.00    -0.203 F 
ATOM     80  F   UNL A   1      33.558  30.518  27.981  1.00  0.00    -0.200 F 
ATOM     81  C   UNL A   1      34.629  32.623  27.990  1.00  0.00     0.200 A 
ATOM     82  F   UNL A   1      35.754  34.698  28.000  1.00  0.00    -0.200 F 
ATOM     83  F   UNL A   1      33.593  33.170  27.341  1.00  0.00    -0.200 F 
ENDBRANCH  49  73
BRANCH  61  84
ATOM     84  C   UNL A   1      39.373  32.069  35.797  1.00  0.00     0.064 A 
ATOM     85  C   UNL A   1      39.887  33.356  36.013  1.00  0.00     0.173 A 
ATOM     86  C   UNL A   1      38.417  31.587  36.705  1.00  0.00     0.173 A 
ATOM     87  F   UNL A   1      40.811  33.863  35.183  1.00  0.00    -0.203 F 
ATOM     88  C   UNL A   1      39.482  34.116  37.108  1.00  0.00     0.198 A 
ATOM     89  C   UNL A   1      37.988  32.362  37.779  1.00  0.00     0.198 A 
ATOM     90  F   UNL A   1      37.885  30.366  36.543  1.00  0.00    -0.203 F 
ATOM     91  F   UNL A   1      40.026  35.322  37.324  1.00  0.00    -0.200 F 
ATOM     92  C   UNL A   1      38.527  33.622  37.986  1.00  0.00     0.200 A 
ATOM     93  F   UNL A   1      37.052  31.889  38.613  1.00  0.00    -0.200 F 
ATOM     94  F   UNL A   1      38.132  34.357  39.034  1.00  0.00    -0.200 F 
ENDBRANCH  61  84
ENDBRANCH  35  36
ENDBRANCH  28  30
ENDBRANCH  27  28
ENDBRANCH  26  27
ENDBRANCH  25  26
ENDBRANCH  24  25
ENDBRANCH  23  24
ENDBRANCH   1  23
TORSDOF 19
ENDMDL
MODEL 2
REMARK VINA RESULT:     -10.8      0.900      2.202
REMARK SMILES CC1(C)C(C(=O)N2CCOC[C@H]2C(=O)OCCOCCOCCOC(=O)c2ccc(-c3c4nc(c(-c5c(F)c(F)c(F)c(F)c5F)c5ccc([nH]5)c(-c5c(F)c(F)c(F)c(F)c5F)c5nc(c(-c6c(F)c(F)c(F)c(F)c6F)c6ccc3[nH]6)C=C5)C=C4)cc2)C1(C)C
REMARK SMILES IDX 19 1 18 2 17 3 16 4 15 5 13 6 14 7 12 8 7 9 8 10 9 11 11 12
REMARK SMILES IDX 10 13 5 14 6 15 4 16 1 17 2 18 3 19 90 20 91 21 92 22 20 23
REMARK SMILES IDX 21 24 22 25 23 26 24 27 25 28 26 29 27 30 28 31 89 32 29 33
REMARK SMILES IDX 88 34 30 35 31 36 32 37 82 38 33 39 87 40 81 41 83 42 34 43
REMARK SMILES IDX 86 44 80 45 79 46 35 48 67 49 47 50 66 51 48 52 51 53 65 54
REMARK SMILES IDX 84 55 49 56 50 57 64 59 85 60 52 61 36 62 37 63 45 64 38 65
REMARK SMILES IDX 39 66 43 67 46 68 40 69 41 70 44 71 42 72 68 73 69 74 77 75
REMARK SMILES IDX 70 76 71 77 75 78 78 79 72 80 73 81 76 82 74 83 53 84 54 85
REMARK SMILES IDX 62 86 55 87 56 88 60 89 63 90 57 91 58 92 61 93 59 94
REMARK H PARENT 83 47 51 58
REMARK Flexibility Score: inf
ROOT
ATOM      1  C   UNL A   1      39.665  21.853  26.879  1.00  0.00     0.188 C 
ENDROOT
BRANCH   1   2
ATOM      2  O   UNL A   1      39.142  22.059  25.571  1.00  0.00    -0.376 OA
BRANCH   2   3
ATOM      3  C   UNL A   1      37.737  22.204  25.399  1.00  0.00     0.202 C 
BRANCH   3   4
ATOM      4  C   UNL A   1      37.061  23.506  25.853  1.00  0.00     0.261 C 
BRANCH   4   5
ATOM      5  O   UNL A   1      35.842  23.834  25.153  1.00  0.00    -0.462 OA
BRANCH   5   6
ATOM      6  C   UNL A   1      34.746  23.088  25.453  1.00  0.00     0.331 C 
ATOM      7  O   UNL A   1      34.583  21.932  25.064  1.00  0.00    -0.250 OA
BRANCH   6   8
ATOM      8  C   UNL A   1      33.634  23.843  26.217  1.00  0.00     0.221 C 
ATOM      9  N   UNL A   1      32.548  24.641  25.574  1.00  0.00    -0.324 N 
ATOM     10  C   UNL A   1      31.613  23.855  24.783  1.00  0.00     0.149 C 
ATOM     11  C   UNL A   1      31.088  22.651  25.580  1.00  0.00     0.181 C 
ATOM     12  C   UNL A   1      32.951  22.764  27.067  1.00  0.00     0.197 C 
ATOM     13  O   UNL A   1      32.135  21.916  26.238  1.00  0.00    -0.377 OA
BRANCH   9  14
ATOM     14  C   UNL A   1      32.498  26.002  25.853  1.00  0.00     0.227 C 
ATOM     15  O   UNL A   1      31.959  26.377  26.897  1.00  0.00    -0.275 OA
BRANCH  14  16
ATOM     16  C   UNL A   1      32.998  27.118  24.970  1.00  0.00     0.091 C 
ATOM     17  C   UNL A   1      34.109  28.687  23.228  1.00  0.00     0.012 C 
ATOM     18  C   UNL A   1      33.111  27.553  23.506  1.00  0.00    -0.017 C 
ATOM     19  C   UNL A   1      33.089  26.609  22.338  1.00  0.00     0.012 C 
ATOM     20  C   UNL A   1      31.841  27.901  24.287  1.00  0.00    -0.017 C 
ATOM     21  C   UNL A   1      31.572  29.316  24.755  1.00  0.00     0.012 C 
ATOM     22  C   UNL A   1      30.539  27.191  23.979  1.00  0.00     0.012 C 
ENDBRANCH  14  16
ENDBRANCH   9  14
ENDBRANCH   6   8
ENDBRANCH   5   6
ENDBRANCH   4   5
ENDBRANCH   3   4
ENDBRANCH   2   3
ENDBRANCH   1   2
BRANCH   1  23
ATOM     23  C   UNL A   1      40.867  20.908  27.070  1.00  0.00     0.188 C 
BRANCH  23  24
ATOM     24  O   UNL A   1      41.482  20.482  25.878  1.00  0.00    -0.376 OA
BRANCH  24  25
ATOM     25  C   UNL A   1      42.892  20.491  25.775  1.00  0.00     0.202 C 
BRANCH  25  26
ATOM     26  C   UNL A   1      43.720  21.755  25.471  1.00  0.00     0.261 C 
BRANCH  26  27
ATOM     27  O   UNL A   1      43.022  22.942  25.082  1.00  0.00    -0.460 OA
BRANCH  27  28
ATOM     28  C   UNL A   1      43.734  24.093  25.063  1.00  0.00     0.338 C 
ATOM     29  O   UNL A   1      44.672  24.369  24.343  1.00  0.00    -0.246 OA
BRANCH  28  30
ATOM     30  C   UNL A   1      43.045  25.061  25.946  1.00  0.00     0.060 A 
ATOM     31  C   UNL A   1      43.520  26.379  26.019  1.00  0.00     0.016 A 
ATOM     32  C   UNL A   1      41.939  24.665  26.700  1.00  0.00     0.016 A 
ATOM     33  C   UNL A   1      42.915  27.295  26.880  1.00  0.00     0.010 A 
ATOM     34  C   UNL A   1      41.347  25.576  27.578  1.00  0.00     0.010 A 
ATOM     35  C   UNL A   1      41.859  26.883  27.701  1.00  0.00    -0.014 A 
BRANCH  35  36
ATOM     36  C   UNL A   1      41.433  27.729  28.842  1.00  0.00     0.031 A 
ATOM     37  C   UNL A   1      42.217  27.635  30.122  1.00  0.00     0.074 A 
ATOM     38  C   UNL A   1      40.383  28.563  28.755  1.00  0.00     0.049 A 
ATOM     39  N   UNL A   1      41.997  28.196  31.284  1.00  0.00    -0.248 NA
ATOM     40  C   UNL A   1      43.413  26.778  30.085  1.00  0.00     0.031 C 
ATOM     41  C   UNL A   1      39.579  28.789  27.558  1.00  0.00     0.029 A 
ATOM     42  N   UNL A   1      39.810  29.368  29.708  1.00  0.00    -0.354 N 
ATOM     43  C   UNL A   1      43.010  27.742  32.118  1.00  0.00     0.074 A 
ATOM     44  C   UNL A   1      43.829  26.838  31.340  1.00  0.00     0.031 C 
ATOM     45  C   UNL A   1      38.608  29.673  27.849  1.00  0.00     0.029 A 
ATOM     46  C   UNL A   1      38.699  30.041  29.262  1.00  0.00     0.049 A 
ATOM     47  H   UNL A   1      40.161  29.454  30.623  1.00  0.00     0.167 HD
ATOM     48  C   UNL A   1      43.239  28.054  33.415  1.00  0.00     0.037 A 
ATOM     49  C   UNL A   1      37.846  30.842  29.930  1.00  0.00     0.037 A 
ATOM     50  C   UNL A   1      42.425  28.958  34.184  1.00  0.00     0.049 A 
ATOM     51  C   UNL A   1      38.075  31.113  31.396  1.00  0.00     0.074 A 
ATOM     52  C   UNL A   1      42.587  29.361  35.497  1.00  0.00     0.029 A 
ATOM     53  N   UNL A   1      41.286  29.590  33.709  1.00  0.00    -0.354 N 
ATOM     54  N   UNL A   1      39.043  30.698  32.178  1.00  0.00    -0.248 NA
ATOM     55  C   UNL A   1      37.086  31.966  32.073  1.00  0.00     0.031 C 
ATOM     56  C   UNL A   1      41.509  30.186  35.837  1.00  0.00     0.029 A 
ATOM     57  C   UNL A   1      40.715  30.355  34.714  1.00  0.00     0.049 A 
ATOM     58  H   UNL A   1      40.934  29.508  32.793  1.00  0.00     0.167 HD
ATOM     59  C   UNL A   1      38.805  31.271  33.422  1.00  0.00     0.074 A 
ATOM     60  C   UNL A   1      37.602  32.066  33.290  1.00  0.00     0.031 C 
ATOM     61  C   UNL A   1      39.523  31.155  34.567  1.00  0.00     0.037 A 
BRANCH  48  62
ATOM     62  C   UNL A   1      44.390  27.367  34.094  1.00  0.00     0.064 A 
ATOM     63  C   UNL A   1      44.240  26.141  34.761  1.00  0.00     0.173 A 
ATOM     64  C   UNL A   1      45.666  27.950  34.079  1.00  0.00     0.173 A 
ATOM     65  F   UNL A   1      43.038  25.546  34.820  1.00  0.00    -0.203 F 
ATOM     66  C   UNL A   1      45.312  25.549  35.423  1.00  0.00     0.198 A 
ATOM     67  C   UNL A   1      46.745  27.336  34.709  1.00  0.00     0.198 A 
ATOM     68  F   UNL A   1      45.870  29.119  33.453  1.00  0.00    -0.203 F 
ATOM     69  F   UNL A   1      45.128  24.413  36.112  1.00  0.00    -0.200 F 
ATOM     70  C   UNL A   1      46.565  26.143  35.392  1.00  0.00     0.200 A 
ATOM     71  F   UNL A   1      47.958  27.906  34.665  1.00  0.00    -0.200 F 
ATOM     72  F   UNL A   1      47.596  25.572  36.030  1.00  0.00    -0.200 F 
ENDBRANCH  48  62
BRANCH  49  73
ATOM     73  C   UNL A   1      36.695  31.457  29.217  1.00  0.00     0.064 A 
ATOM     74  C   UNL A   1      36.673  32.830  28.937  1.00  0.00     0.173 A 
ATOM     75  C   UNL A   1      35.589  30.692  28.816  1.00  0.00     0.173 A 
ATOM     76  F   UNL A   1      37.692  33.610  29.329  1.00  0.00    -0.203 F 
ATOM     77  C   UNL A   1      35.585  33.418  28.295  1.00  0.00     0.198 A 
ATOM     78  C   UNL A   1      34.514  31.276  28.149  1.00  0.00     0.198 A 
ATOM     79  F   UNL A   1      35.555  29.376  29.068  1.00  0.00    -0.203 F 
ATOM     80  F   UNL A   1      35.570  34.741  28.083  1.00  0.00    -0.200 F 
ATOM     81  C   UNL A   1      34.510  32.639  27.895  1.00  0.00     0.200 A 
ATOM     82  F   UNL A   1      33.480  30.520  27.757  1.00  0.00    -0.200 F 
ATOM     83  F   UNL A   1      33.465  33.205  27.275  1.00  0.00    -0.200 F 
ENDBRANCH  49  73
BRANCH  61  84
ATOM     84  C   UNL A   1      39.069  31.953  35.758  1.00  0.00     0.064 A 
ATOM     85  C   UNL A   1      38.264  31.398  36.764  1.00  0.00     0.173 A 
ATOM     86  C   UNL A   1      39.486  33.284  35.915  1.00  0.00     0.173 A 
ATOM     87  F   UNL A   1      37.828  30.133  36.660  1.00  0.00    -0.203 F 
ATOM     88  C   UNL A   1      37.870  32.154  37.865  1.00  0.00     0.198 A 
ATOM     89  C   UNL A   1      39.119  34.026  37.034  1.00  0.00     0.198 A 
ATOM     90  F   UNL A   1      40.265  33.863  34.989  1.00  0.00    -0.203 F 
ATOM     91  F   UNL A   1      37.057  31.619  38.787  1.00  0.00    -0.200 F 
ATOM     92  C   UNL A   1      38.304  33.464  38.004  1.00  0.00     0.200 A 
ATOM     93  F   UNL A   1      39.556  35.285  37.175  1.00  0.00    -0.200 F 
ATOM     94  F   UNL A   1      37.931  34.187  39.069  1.00  0.00    -0.200 F 
ENDBRANCH  61  84
ENDBRANCH  35  36
ENDBRANCH  28  30
ENDBRANCH  27  28
ENDBRANCH  26  27
ENDBRANCH  25  26
ENDBRANCH  24  25
ENDBRANCH  23  24
ENDBRANCH   1  23
TORSDOF 19
ENDMDL
MODEL 3
REMARK VINA RESULT:     -10.5      4.785      9.255
REMARK SMILES CC1(C)C(C(=O)N2CCOC[C@H]2C(=O)OCCOCCOCCOC(=O)c2ccc(-c3c4nc(c(-c5c(F)c(F)c(F)c(F)c5F)c5ccc([nH]5)c(-c5c(F)c(F)c(F)c(F)c5F)c5nc(c(-c6c(F)c(F)c(F)c(F)c6F)c6ccc3[nH]6)C=C5)C=C4)cc2)C1(C)C
REMARK SMILES IDX 19 1 18 2 17 3 16 4 15 5 13 6 14 7 12 8 7 9 8 10 9 11 11 12
REMARK SMILES IDX 10 13 5 14 6 15 4 16 1 17 2 18 3 19 90 20 91 21 92 22 20 23
REMARK SMILES IDX 21 24 22 25 23 26 24 27 25 28 26 29 27 30 28 31 89 32 29 33
REMARK SMILES IDX 88 34 30 35 31 36 32 37 82 38 33 39 87 40 81 41 83 42 34 43
REMARK SMILES IDX 86 44 80 45 79 46 35 48 67 49 47 50 66 51 48 52 51 53 65 54
REMARK SMILES IDX 84 55 49 56 50 57 64 59 85 60 52 61 36 62 37 63 45 64 38 65
REMARK SMILES IDX 39 66 43 67 46 68 40 69 41 70 44 71 42 72 68 73 69 74 77 75
REMARK SMILES IDX 70 76 71 77 75 78 78 79 72 80 73 81 76 82 74 83 53 84 54 85
REMARK SMILES IDX 62 86 55 87 56 88 60 89 63 90 57 91 58 92 61 93 59 94
REMARK H PARENT 83 47 51 58
REMARK Flexibility Score: inf
ROOT
ATOM      1  C   UNL A   1      36.541  23.436  25.709  1.00  0.00     0.188 C 
ENDROOT
BRANCH   1   2
ATOM      2  O   UNL A   1      35.599  23.213  26.752  1.00  0.00    -0.376 OA
BRANCH   2   3
ATOM      3  C   UNL A   1      34.711  22.105  26.662  1.00  0.00     0.202 C 
BRANCH   3   4
ATOM      4  C   UNL A   1      33.324  22.207  27.315  1.00  0.00     0.261 C 
BRANCH   4   5
ATOM      5  O   UNL A   1      32.221  22.289  26.388  1.00  0.00    -0.462 OA
BRANCH   5   6
ATOM      6  C   UNL A   1      31.218  23.149  26.707  1.00  0.00     0.331 C 
ATOM      7  O   UNL A   1      30.420  22.955  27.622  1.00  0.00    -0.250 OA
BRANCH   6   8
ATOM      8  C   UNL A   1      31.058  24.347  25.742  1.00  0.00     0.221 C 
ATOM      9  N   UNL A   1      32.020  25.483  25.625  1.00  0.00    -0.324 N 
ATOM     10  C   UNL A   1      33.328  25.111  25.109  1.00  0.00     0.149 C 
ATOM     11  C   UNL A   1      33.202  24.290  23.816  1.00  0.00     0.181 C 
ATOM     12  C   UNL A   1      30.950  23.710  24.351  1.00  0.00     0.197 C 
ATOM     13  O   UNL A   1      32.237  23.228  23.920  1.00  0.00    -0.377 OA
BRANCH   9  14
ATOM     14  C   UNL A   1      31.555  26.755  25.938  1.00  0.00     0.227 C 
ATOM     15  O   UNL A   1      31.421  27.066  27.125  1.00  0.00    -0.275 OA
BRANCH  14  16
ATOM     16  C   UNL A   1      31.132  27.822  24.960  1.00  0.00     0.091 C 
ATOM     17  C   UNL A   1      30.200  29.868  23.664  1.00  0.00     0.012 C 
ATOM     18  C   UNL A   1      31.196  29.331  24.703  1.00  0.00    -0.017 C 
ATOM     19  C   UNL A   1      31.406  30.364  25.774  1.00  0.00     0.012 C 
ATOM     20  C   UNL A   1      32.338  28.445  24.200  1.00  0.00    -0.017 C 
ATOM     21  C   UNL A   1      32.489  28.122  22.728  1.00  0.00     0.012 C 
ATOM     22  C   UNL A   1      33.695  28.499  24.870  1.00  0.00     0.012 C 
ENDBRANCH  14  16
ENDBRANCH   9  14
ENDBRANCH   6   8
ENDBRANCH   5   6
ENDBRANCH   4   5
ENDBRANCH   3   4
ENDBRANCH   2   3
ENDBRANCH   1   2
BRANCH   1  23
ATOM     23  C   UNL A   1      37.763  22.506  25.584  1.00  0.00     0.188 C 
BRANCH  23  24
ATOM     24  O   UNL A   1      37.642  21.494  24.614  1.00  0.00    -0.376 OA
BRANCH  24  25
ATOM     25  C   UNL A   1      37.673  20.137  25.009  1.00  0.00     0.202 C 
BRANCH  25  26
ATOM     26  C   UNL A   1      38.966  19.381  25.373  1.00  0.00     0.261 C 
BRANCH  26  27
ATOM     27  O   UNL A   1      39.893  20.019  26.257  1.00  0.00    -0.460 OA
BRANCH  27  28
ATOM     28  C   UNL A   1      41.193  19.653  26.150  1.00  0.00     0.338 C 
ATOM     29  O   UNL A   1      41.629  18.590  25.755  1.00  0.00    -0.246 OA
BRANCH  28  30
ATOM     30  C   UNL A   1      42.020  20.851  26.412  1.00  0.00     0.060 A 
ATOM     31  C   UNL A   1      42.287  21.221  27.738  1.00  0.00     0.016 A 
ATOM     32  C   UNL A   1      42.525  21.606  25.351  1.00  0.00     0.016 A 
ATOM     33  C   UNL A   1      43.026  22.374  28.008  1.00  0.00     0.010 A 
ATOM     34  C   UNL A   1      43.245  22.771  25.622  1.00  0.00     0.010 A 
ATOM     35  C   UNL A   1      43.464  23.181  26.951  1.00  0.00    -0.014 A 
BRANCH  35  36
ATOM     36  C   UNL A   1      43.946  24.558  27.221  1.00  0.00     0.031 A 
ATOM     37  C   UNL A   1      42.950  25.572  27.714  1.00  0.00     0.074 A 
ATOM     38  C   UNL A   1      45.230  24.909  27.038  1.00  0.00     0.049 A 
ATOM     39  N   UNL A   1      43.098  26.853  27.935  1.00  0.00    -0.248 NA
ATOM     40  C   UNL A   1      41.596  25.066  27.986  1.00  0.00     0.031 C 
ATOM     41  C   UNL A   1      46.302  24.009  26.621  1.00  0.00     0.029 A 
ATOM     42  N   UNL A   1      45.843  26.130  27.173  1.00  0.00    -0.354 N 
ATOM     43  C   UNL A   1      41.852  27.307  28.348  1.00  0.00     0.074 A 
ATOM     44  C   UNL A   1      40.954  26.174  28.321  1.00  0.00     0.031 C 
ATOM     45  C   UNL A   1      47.445  24.712  26.527  1.00  0.00     0.029 A 
ATOM     46  C   UNL A   1      47.174  26.116  26.838  1.00  0.00     0.049 A 
ATOM     47  H   UNL A   1      45.373  26.938  27.481  1.00  0.00     0.167 HD
ATOM     48  C   UNL A   1      41.491  28.558  28.720  1.00  0.00     0.037 A 
ATOM     49  C   UNL A   1      48.060  27.128  26.770  1.00  0.00     0.037 A 
ATOM     50  C   UNL A   1      42.389  29.682  28.751  1.00  0.00     0.049 A 
ATOM     51  C   UNL A   1      47.616  28.529  27.113  1.00  0.00     0.074 A 
ATOM     52  C   UNL A   1      42.128  30.985  29.138  1.00  0.00     0.029 A 
ATOM     53  N   UNL A   1      43.721  29.638  28.367  1.00  0.00    -0.354 N 
ATOM     54  N   UNL A   1      46.444  28.954  27.521  1.00  0.00    -0.248 NA
ATOM     55  C   UNL A   1      48.623  29.593  26.983  1.00  0.00     0.031 C 
ATOM     56  C   UNL A   1      43.284  31.742  28.926  1.00  0.00     0.029 A 
ATOM     57  C   UNL A   1      44.287  30.898  28.476  1.00  0.00     0.049 A 
ATOM     58  H   UNL A   1      44.194  28.830  28.062  1.00  0.00     0.167 HD
ATOM     59  C   UNL A   1      46.584  30.320  27.736  1.00  0.00     0.074 A 
ATOM     60  C   UNL A   1      47.956  30.653  27.417  1.00  0.00     0.031 C 
ATOM     61  C   UNL A   1      45.660  31.216  28.168  1.00  0.00     0.037 A 
BRANCH  48  62
ATOM     62  C   UNL A   1      40.047  28.780  29.073  1.00  0.00     0.064 A 
ATOM     63  C   UNL A   1      39.564  28.614  30.380  1.00  0.00     0.173 A 
ATOM     64  C   UNL A   1      39.131  29.163  28.081  1.00  0.00     0.173 A 
ATOM     65  F   UNL A   1      40.393  28.234  31.365  1.00  0.00    -0.203 F 
ATOM     66  C   UNL A   1      38.212  28.779  30.671  1.00  0.00     0.198 A 
ATOM     67  C   UNL A   1      37.787  29.364  28.383  1.00  0.00     0.198 A 
ATOM     68  F   UNL A   1      39.538  29.341  26.816  1.00  0.00    -0.203 F 
ATOM     69  F   UNL A   1      37.761  28.546  31.912  1.00  0.00    -0.200 F 
ATOM     70  C   UNL A   1      37.326  29.160  29.675  1.00  0.00     0.200 A 
ATOM     71  F   UNL A   1      36.936  29.746  27.421  1.00  0.00    -0.200 F 
ATOM     72  F   UNL A   1      36.025  29.318  29.956  1.00  0.00    -0.200 F 
ENDBRANCH  48  62
BRANCH  49  73
ATOM     73  C   UNL A   1      49.466  26.858  26.368  1.00  0.00     0.064 A 
ATOM     74  C   UNL A   1      50.434  26.516  27.322  1.00  0.00     0.173 A 
ATOM     75  C   UNL A   1      49.875  26.951  25.029  1.00  0.00     0.173 A 
ATOM     76  F   UNL A   1      50.100  26.446  28.619  1.00  0.00    -0.203 F 
ATOM     77  C   UNL A   1      51.759  26.288  26.956  1.00  0.00     0.198 A 
ATOM     78  C   UNL A   1      51.194  26.695  24.660  1.00  0.00     0.198 A 
ATOM     79  F   UNL A   1      48.990  27.284  24.078  1.00  0.00    -0.203 F 
ATOM     80  F   UNL A   1      52.674  26.009  27.894  1.00  0.00    -0.200 F 
ATOM     81  C   UNL A   1      52.137  26.371  25.623  1.00  0.00     0.200 A 
ATOM     82  F   UNL A   1      51.554  26.770  23.371  1.00  0.00    -0.200 F 
ATOM     83  F   UNL A   1      53.410  26.150  25.271  1.00  0.00    -0.200 F 
ENDBRANCH  49  73
BRANCH  61  84
ATOM     84  C   UNL A   1      46.112  32.633  28.382  1.00  0.00     0.064 A 
ATOM     85  C   UNL A   1      46.105  33.583  27.350  1.00  0.00     0.173 A 
ATOM     86  C   UNL A   1      46.517  33.059  29.658  1.00  0.00     0.173 A 
ATOM     87  F   UNL A   1      45.738  33.228  26.109  1.00  0.00    -0.203 F 
ATOM     88  C   UNL A   1      46.514  34.894  27.578  1.00  0.00     0.198 A 
ATOM     89  C   UNL A   1      46.891  34.379  29.891  1.00  0.00     0.198 A 
ATOM     90  F   UNL A   1      46.534  32.197  30.685  1.00  0.00    -0.203 F 
ATOM     91  F   UNL A   1      46.550  35.770  26.564  1.00  0.00    -0.200 F 
ATOM     92  C   UNL A   1      46.899  35.294  28.850  1.00  0.00     0.200 A 
ATOM     93  F   UNL A   1      47.244  34.766  31.125  1.00  0.00    -0.200 F 
ATOM     94  F   UNL A   1      47.283  36.559  29.070  1.00  0.00    -0.200 F 
ENDBRANCH  61  84
ENDBRANCH  35  36
ENDBRANCH  28  30
ENDBRANCH  27  28
ENDBRANCH  26  27
ENDBRANCH  25  26
ENDBRANCH  24  25
ENDBRANCH  23  24
ENDBRANCH   1  23
TORSDOF 19
ENDMDL
