MODEL 1
REMARK VINA RESULT:     -12.3      0.000      0.000
REMARK SMILES O=C(OCCOCCOCCOC(=O)[C@H]1CC2=c3ccccc3=N[C@H]2[C@@H](c2ccccc2)[NH2+]1)c1ccc(-c2c3nc(c(-c4c(F)c(F)c(F)c(F)c4F)c4ccc([nH]4)c(-c4c(F)c(F)c(F)c(F)c4F)c4nc(c(-c5c(F)c(F)c(F)c(F)c5F)c5ccc2[nH]5)C=C4)C=C3)cc1
REMARK SMILES IDX 7 1 6 2 5 3 4 4 3 5 2 6 1 7 34 8 35 9 96 10 36 11 95 12
REMARK SMILES IDX 37 13 38 14 39 15 89 16 40 17 94 18 88 19 90 20 41 21 93 22
REMARK SMILES IDX 87 23 86 24 42 26 74 27 54 28 73 29 55 30 58 31 72 32 91 33
REMARK SMILES IDX 56 34 57 35 71 37 92 38 59 39 43 40 44 41 52 42 45 43 46 44
REMARK SMILES IDX 50 45 53 46 47 47 48 48 51 49 49 50 75 51 76 52 84 53 77 54
REMARK SMILES IDX 78 55 82 56 85 57 79 58 80 59 83 60 81 61 60 62 61 63 69 64
REMARK SMILES IDX 62 65 63 66 67 67 70 68 64 69 65 70 68 71 66 72 8 73 9 74
REMARK SMILES IDX 10 75 11 76 12 77 13 78 14 79 15 80 16 81 33 82 17 83 26 84
REMARK SMILES IDX 18 87 25 88 19 89 23 90 24 91 20 92 22 93 21 94 27 95 28 96
REMARK SMILES IDX 32 97 29 98 31 99 30 100
REMARK H PARENT 90 25 58 36 33 85 33 86
REMARK Flexibility Score: inf
ROOT
ATOM      1  C   UNL A   1      41.407  19.895  27.025  1.00  0.00     0.188 C 
ENDROOT
BRANCH   1   2
ATOM      2  O   UNL A   1      42.336  19.137  27.815  1.00  0.00    -0.376 OA
BRANCH   2   3
ATOM      3  C   UNL A   1      43.086  18.188  27.062  1.00  0.00     0.202 C 
BRANCH   3   4
ATOM      4  C   UNL A   1      43.086  18.404  25.542  1.00  0.00     0.261 C 
BRANCH   4   5
ATOM      5  O   UNL A   1      44.403  18.348  24.963  1.00  0.00    -0.460 OA
BRANCH   5   6
ATOM      6  C   UNL A   1      45.160  19.327  24.412  1.00  0.00     0.338 C 
ATOM      7  O   UNL A   1      46.131  18.987  23.737  1.00  0.00    -0.246 OA
BRANCH   6   8
ATOM      8  C   UNL A   1      45.002  20.801  24.708  1.00  0.00     0.060 A 
ATOM      9  C   UNL A   1      45.280  21.251  26.021  1.00  0.00     0.016 A 
ATOM     10  C   UNL A   1      44.609  21.772  23.803  1.00  0.00     0.016 A 
ATOM     11  C   UNL A   1      45.188  22.619  26.411  1.00  0.00     0.010 A 
ATOM     12  C   UNL A   1      44.525  23.136  24.191  1.00  0.00     0.010 A 
ATOM     13  C   UNL A   1      44.813  23.602  25.493  1.00  0.00    -0.014 A 
BRANCH  13  14
ATOM     14  C   UNL A   1      45.044  25.097  25.686  1.00  0.00     0.031 A 
ATOM     15  C   UNL A   1      46.356  25.864  25.497  1.00  0.00     0.074 A 
ATOM     16  C   UNL A   1      44.082  25.712  26.389  1.00  0.00     0.049 A 
ATOM     17  N   UNL A   1      46.770  27.094  25.681  1.00  0.00    -0.248 NA
ATOM     18  C   UNL A   1      47.449  24.986  25.166  1.00  0.00     0.031 C 
ATOM     19  C   UNL A   1      42.776  25.138  26.712  1.00  0.00     0.029 A 
ATOM     20  N   UNL A   1      44.092  26.926  27.008  1.00  0.00    -0.354 N 
ATOM     21  C   UNL A   1      48.173  27.071  25.474  1.00  0.00     0.074 A 
ATOM     22  C   UNL A   1      48.508  25.759  24.975  1.00  0.00     0.031 C 
ATOM     23  C   UNL A   1      42.096  26.014  27.463  1.00  0.00     0.029 A 
ATOM     24  C   UNL A   1      42.921  27.198  27.660  1.00  0.00     0.049 A 
ATOM     25  H   UNL A   1      44.860  27.541  26.989  1.00  0.00     0.167 HD
ATOM     26  C   UNL A   1      49.141  27.941  25.884  1.00  0.00     0.037 A 
ATOM     27  C   UNL A   1      42.548  28.317  28.295  1.00  0.00     0.037 A 
ATOM     28  C   UNL A   1      48.833  29.125  26.636  1.00  0.00     0.049 A 
ATOM     29  C   UNL A   1      43.517  29.455  28.402  1.00  0.00     0.074 A 
ATOM     30  C   UNL A   1      49.675  30.109  27.126  1.00  0.00     0.029 A 
ATOM     31  N   UNL A   1      47.558  29.435  27.060  1.00  0.00    -0.354 N 
ATOM     32  N   UNL A   1      44.795  29.480  28.123  1.00  0.00    -0.248 NA
ATOM     33  C   UNL A   1      42.979  30.735  28.877  1.00  0.00     0.031 C 
ATOM     34  C   UNL A   1      48.919  30.961  27.936  1.00  0.00     0.029 A 
ATOM     35  C   UNL A   1      47.592  30.600  27.792  1.00  0.00     0.049 A 
ATOM     36  H   UNL A   1      46.750  28.906  26.870  1.00  0.00     0.167 HD
ATOM     37  C   UNL A   1      45.199  30.788  28.337  1.00  0.00     0.074 A 
ATOM     38  C   UNL A   1      44.035  31.527  28.766  1.00  0.00     0.031 C 
ATOM     39  C   UNL A   1      46.427  31.328  28.184  1.00  0.00     0.037 A 
BRANCH  26  40
ATOM     40  C   UNL A   1      50.621  27.640  25.666  1.00  0.00     0.064 A 
ATOM     41  C   UNL A   1      51.294  28.012  24.493  1.00  0.00     0.173 A 
ATOM     42  C   UNL A   1      51.412  27.116  26.712  1.00  0.00     0.173 A 
ATOM     43  F   UNL A   1      50.611  28.504  23.449  1.00  0.00    -0.203 F 
ATOM     44  C   UNL A   1      52.684  27.902  24.385  1.00  0.00     0.198 A 
ATOM     45  C   UNL A   1      52.804  27.062  26.623  1.00  0.00     0.198 A 
ATOM     46  F   UNL A   1      50.845  26.716  27.861  1.00  0.00    -0.203 F 
ATOM     47  F   UNL A   1      53.296  28.241  23.242  1.00  0.00    -0.200 F 
ATOM     48  C   UNL A   1      53.439  27.456  25.459  1.00  0.00     0.200 A 
ATOM     49  F   UNL A   1      53.529  26.644  27.670  1.00  0.00    -0.200 F 
ATOM     50  F   UNL A   1      54.775  27.385  25.364  1.00  0.00    -0.200 F 
ENDBRANCH  26  40
BRANCH  27  51
ATOM     51  C   UNL A   1      41.121  28.487  28.625  1.00  0.00     0.064 A 
ATOM     52  C   UNL A   1      40.263  28.983  27.633  1.00  0.00     0.173 A 
ATOM     53  C   UNL A   1      40.575  28.127  29.859  1.00  0.00     0.173 A 
ATOM     54  F   UNL A   1      40.754  29.309  26.428  1.00  0.00    -0.203 F 
ATOM     55  C   UNL A   1      38.913  29.177  27.887  1.00  0.00     0.198 A 
ATOM     56  C   UNL A   1      39.214  28.293  30.102  1.00  0.00     0.198 A 
ATOM     57  F   UNL A   1      41.352  27.590  30.811  1.00  0.00    -0.203 F 
ATOM     58  F   UNL A   1      38.129  29.708  26.940  1.00  0.00    -0.200 F 
ATOM     59  C   UNL A   1      38.390  28.834  29.122  1.00  0.00     0.200 A 
ATOM     60  F   UNL A   1      38.698  27.929  31.283  1.00  0.00    -0.200 F 
ATOM     61  F   UNL A   1      37.088  29.026  29.371  1.00  0.00    -0.200 F 
ENDBRANCH  27  51
BRANCH  39  62
ATOM     62  C   UNL A   1      46.613  32.795  28.379  1.00  0.00     0.064 A 
ATOM     63  C   UNL A   1      46.488  33.709  27.328  1.00  0.00     0.173 A 
ATOM     64  C   UNL A   1      46.770  33.294  29.683  1.00  0.00     0.173 A 
ATOM     65  F   UNL A   1      46.321  33.274  26.068  1.00  0.00    -0.203 F 
ATOM     66  C   UNL A   1      46.532  35.076  27.572  1.00  0.00     0.198 A 
ATOM     67  C   UNL A   1      46.783  34.661  29.926  1.00  0.00     0.198 A 
ATOM     68  F   UNL A   1      46.875  32.451  30.722  1.00  0.00    -0.203 F 
ATOM     69  F   UNL A   1      46.434  35.938  26.551  1.00  0.00    -0.200 F 
ATOM     70  C   UNL A   1      46.667  35.550  28.870  1.00  0.00     0.200 A 
ATOM     71  F   UNL A   1      46.889  35.114  31.182  1.00  0.00    -0.200 F 
ATOM     72  F   UNL A   1      46.680  36.869  29.104  1.00  0.00    -0.200 F 
ENDBRANCH  39  62
ENDBRANCH  13  14
ENDBRANCH   6   8
ENDBRANCH   5   6
ENDBRANCH   4   5
ENDBRANCH   3   4
ENDBRANCH   2   3
ENDBRANCH   1   2
BRANCH   1  73
ATOM     73  C   UNL A   1      41.661  21.401  27.142  1.00  0.00     0.188 C 
BRANCH  73  74
ATOM     74  O   UNL A   1      40.705  22.169  27.877  1.00  0.00    -0.376 OA
BRANCH  74  75
ATOM     75  C   UNL A   1      39.771  22.972  27.157  1.00  0.00     0.202 C 
BRANCH  75  76
ATOM     76  C   UNL A   1      38.916  22.254  26.111  1.00  0.00     0.261 C 
BRANCH  76  77
ATOM     77  O   UNL A   1      37.831  23.074  25.706  1.00  0.00    -0.459 OA
BRANCH  77  78
ATOM     78  C   UNL A   1      36.774  22.455  25.127  1.00  0.00     0.365 C 
ATOM     79  O   UNL A   1      36.647  22.228  23.924  1.00  0.00    -0.245 OA
BRANCH  78  80
ATOM     80  C   UNL A   1      35.754  22.010  26.179  1.00  0.00     0.298 C 
ATOM     81  C   UNL A   1      34.724  23.128  26.456  1.00  0.00     0.111 C 
ATOM     82  N   UNL A   1      35.250  20.659  25.811  1.00  0.00    -0.326 N 
ATOM     83  C   UNL A   1      33.737  23.185  25.343  1.00  0.00    -0.024 C 
ATOM     84  C   UNL A   1      33.839  20.550  25.426  1.00  0.00     0.243 C 
ATOM     85  H   UNL A   1      35.398  20.049  26.615  1.00  0.00     0.347 HD
ATOM     86  H   UNL A   1      35.773  20.405  24.973  1.00  0.00     0.347 HD
ATOM     87  C   UNL A   1      33.072  24.111  24.655  1.00  0.00     0.002 A 
ATOM     88  C   UNL A   1      33.098  21.874  25.185  1.00  0.00     0.196 C 
ATOM     89  C   UNL A   1      33.035  25.538  24.634  1.00  0.00     0.010 A 
ATOM     90  C   UNL A   1      31.978  23.311  24.043  1.00  0.00     0.066 A 
ATOM     91  N   UNL A   1      31.992  22.020  24.225  1.00  0.00    -0.270 NA
ATOM     92  C   UNL A   1      31.964  26.158  24.105  1.00  0.00     0.001 A 
ATOM     93  C   UNL A   1      30.900  24.069  23.371  1.00  0.00     0.028 A 
ATOM     94  C   UNL A   1      30.896  25.409  23.463  1.00  0.00     0.002 A 
BRANCH  84  95
ATOM     95  C   UNL A   1      33.585  19.398  24.487  1.00  0.00     0.012 A 
ATOM     96  C   UNL A   1      32.529  19.395  23.574  1.00  0.00     0.010 A 
ATOM     97  C   UNL A   1      34.459  18.294  24.521  1.00  0.00     0.010 A 
ATOM     98  C   UNL A   1      32.342  18.310  22.721  1.00  0.00     0.001 A 
ATOM     99  C   UNL A   1      34.288  17.224  23.651  1.00  0.00     0.001 A 
ATOM    100  C   UNL A   1      33.228  17.235  22.748  1.00  0.00     0.000 A 
ENDBRANCH  84  95
ENDBRANCH  78  80
ENDBRANCH  77  78
ENDBRANCH  76  77
ENDBRANCH  75  76
ENDBRANCH  74  75
ENDBRANCH  73  74
ENDBRANCH   1  73
TORSDOF 18
ENDMDL
MODEL 2
REMARK VINA RESULT:     -12.2      2.822      5.636
REMARK SMILES O=C(OCCOCCOCCOC(=O)[C@H]1CC2=c3ccccc3=N[C@H]2[C@@H](c2ccccc2)[NH2+]1)c1ccc(-c2c3nc(c(-c4c(F)c(F)c(F)c(F)c4F)c4ccc([nH]4)c(-c4c(F)c(F)c(F)c(F)c4F)c4nc(c(-c5c(F)c(F)c(F)c(F)c5F)c5ccc2[nH]5)C=C4)C=C3)cc1
REMARK SMILES IDX 7 1 6 2 5 3 4 4 3 5 2 6 1 7 34 8 35 9 96 10 36 11 95 12
REMARK SMILES IDX 37 13 38 14 39 15 89 16 40 17 94 18 88 19 90 20 41 21 93 22
REMARK SMILES IDX 87 23 86 24 42 26 74 27 54 28 73 29 55 30 58 31 72 32 91 33
REMARK SMILES IDX 56 34 57 35 71 37 92 38 59 39 43 40 44 41 52 42 45 43 46 44
REMARK SMILES IDX 50 45 53 46 47 47 48 48 51 49 49 50 75 51 76 52 84 53 77 54
REMARK SMILES IDX 78 55 82 56 85 57 79 58 80 59 83 60 81 61 60 62 61 63 69 64
REMARK SMILES IDX 62 65 63 66 67 67 70 68 64 69 65 70 68 71 66 72 8 73 9 74
REMARK SMILES IDX 10 75 11 76 12 77 13 78 14 79 15 80 16 81 33 82 17 83 26 84
REMARK SMILES IDX 18 87 25 88 19 89 23 90 24 91 20 92 22 93 21 94 27 95 28 96
REMARK SMILES IDX 32 97 29 98 31 99 30 100
REMARK H PARENT 90 25 58 36 33 85 33 86
REMARK Flexibility Score: inf
ROOT
ATOM      1  C   UNL A   1      35.410  20.741  25.307  1.00  0.00     0.188 C 
ENDROOT
BRANCH   1   2
ATOM      2  O   UNL A   1      36.720  21.217  25.651  1.00  0.00    -0.376 OA
BRANCH   2   3
ATOM      3  C   UNL A   1      37.758  20.666  24.846  1.00  0.00     0.202 C 
BRANCH   3   4
ATOM      4  C   UNL A   1      38.601  19.571  25.514  1.00  0.00     0.261 C 
BRANCH   4   5
ATOM      5  O   UNL A   1      39.951  19.988  25.792  1.00  0.00    -0.460 OA
BRANCH   5   6
ATOM      6  C   UNL A   1      40.481  20.558  26.902  1.00  0.00     0.338 C 
ATOM      7  O   UNL A   1      40.724  19.823  27.859  1.00  0.00    -0.246 OA
BRANCH   6   8
ATOM      8  C   UNL A   1      40.632  22.046  27.113  1.00  0.00     0.060 A 
ATOM      9  C   UNL A   1      41.533  22.491  28.110  1.00  0.00     0.016 A 
ATOM     10  C   UNL A   1      39.966  23.036  26.411  1.00  0.00     0.016 A 
ATOM     11  C   UNL A   1      41.774  23.868  28.384  1.00  0.00     0.010 A 
ATOM     12  C   UNL A   1      40.213  24.409  26.680  1.00  0.00     0.010 A 
ATOM     13  C   UNL A   1      41.119  24.868  27.661  1.00  0.00    -0.014 A 
BRANCH  13  14
ATOM     14  C   UNL A   1      41.567  26.325  27.602  1.00  0.00     0.031 A 
ATOM     15  C   UNL A   1      42.863  26.872  27.000  1.00  0.00     0.074 A 
ATOM     16  C   UNL A   1      40.901  27.135  28.437  1.00  0.00     0.049 A 
ATOM     17  N   UNL A   1      43.453  28.040  26.919  1.00  0.00    -0.248 NA
ATOM     18  C   UNL A   1      43.721  25.817  26.522  1.00  0.00     0.031 C 
ATOM     19  C   UNL A   1      39.667  26.789  29.143  1.00  0.00     0.029 A 
ATOM     20  N   UNL A   1      41.215  28.386  28.877  1.00  0.00    -0.354 N 
ATOM     21  C   UNL A   1      44.740  27.795  26.377  1.00  0.00     0.074 A 
ATOM     22  C   UNL A   1      44.776  26.408  25.979  1.00  0.00     0.031 C 
ATOM     23  C   UNL A   1      39.314  27.819  29.922  1.00  0.00     0.029 A 
ATOM     24  C   UNL A   1      40.296  28.883  29.759  1.00  0.00     0.049 A 
ATOM     25  H   UNL A   1      42.017  28.878  28.592  1.00  0.00     0.167 HD
ATOM     26  C   UNL A   1      45.876  28.548  26.422  1.00  0.00     0.037 A 
ATOM     27  C   UNL A   1      40.235  30.098  30.320  1.00  0.00     0.037 A 
ATOM     28  C   UNL A   1      45.917  29.828  27.071  1.00  0.00     0.049 A 
ATOM     29  C   UNL A   1      41.325  31.088  30.041  1.00  0.00     0.074 A 
ATOM     30  C   UNL A   1      46.968  30.720  27.211  1.00  0.00     0.029 A 
ATOM     31  N   UNL A   1      44.843  30.358  27.756  1.00  0.00    -0.354 N 
ATOM     32  N   UNL A   1      42.479  30.901  29.453  1.00  0.00    -0.248 NA
ATOM     33  C   UNL A   1      41.084  32.471  30.469  1.00  0.00     0.031 C 
ATOM     34  C   UNL A   1      46.555  31.743  28.068  1.00  0.00     0.029 A 
ATOM     35  C   UNL A   1      45.204  31.567  28.303  1.00  0.00     0.049 A 
ATOM     36  H   UNL A   1      43.957  29.937  27.839  1.00  0.00     0.167 HD
ATOM     37  C   UNL A   1      43.075  32.151  29.395  1.00  0.00     0.074 A 
ATOM     38  C   UNL A   1      42.159  33.087  30.002  1.00  0.00     0.031 C 
ATOM     39  C   UNL A   1      44.276  32.490  28.877  1.00  0.00     0.037 A 
BRANCH  26  40
ATOM     40  C   UNL A   1      47.202  28.016  25.885  1.00  0.00     0.064 A 
ATOM     41  C   UNL A   1      48.206  27.522  26.729  1.00  0.00     0.173 A 
ATOM     42  C   UNL A   1      47.402  27.850  24.496  1.00  0.00     0.173 A 
ATOM     43  F   UNL A   1      48.097  27.655  28.059  1.00  0.00    -0.203 F 
ATOM     44  C   UNL A   1      49.331  26.866  26.218  1.00  0.00     0.198 A 
ATOM     45  C   UNL A   1      48.495  27.144  23.993  1.00  0.00     0.198 A 
ATOM     46  F   UNL A   1      46.500  28.312  23.617  1.00  0.00    -0.203 F 
ATOM     47  F   UNL A   1      50.287  26.428  27.049  1.00  0.00    -0.200 F 
ATOM     48  C   UNL A   1      49.459  26.652  24.854  1.00  0.00     0.200 A 
ATOM     49  F   UNL A   1      48.606  26.927  22.674  1.00  0.00    -0.200 F 
ATOM     50  F   UNL A   1      50.521  25.991  24.370  1.00  0.00    -0.200 F 
ENDBRANCH  26  40
BRANCH  27  51
ATOM     51  C   UNL A   1      38.975  30.503  30.969  1.00  0.00     0.064 A 
ATOM     52  C   UNL A   1      38.898  30.443  32.369  1.00  0.00     0.173 A 
ATOM     53  C   UNL A   1      37.875  30.994  30.262  1.00  0.00     0.173 A 
ATOM     54  F   UNL A   1      39.950  30.004  33.076  1.00  0.00    -0.203 F 
ATOM     55  C   UNL A   1      37.736  30.798  33.037  1.00  0.00     0.198 A 
ATOM     56  C   UNL A   1      36.719  31.380  30.937  1.00  0.00     0.198 A 
ATOM     57  F   UNL A   1      37.933  31.126  28.928  1.00  0.00    -0.203 F 
ATOM     58  F   UNL A   1      37.671  30.674  34.369  1.00  0.00    -0.200 F 
ATOM     59  C   UNL A   1      36.646  31.265  32.320  1.00  0.00     0.200 A 
ATOM     60  F   UNL A   1      35.677  31.865  30.250  1.00  0.00    -0.200 F 
ATOM     61  F   UNL A   1      35.521  31.602  32.963  1.00  0.00    -0.200 F 
ENDBRANCH  27  51
BRANCH  39  62
ATOM     62  C   UNL A   1      44.676  33.926  28.834  1.00  0.00     0.064 A 
ATOM     63  C   UNL A   1      45.487  34.504  29.816  1.00  0.00     0.173 A 
ATOM     64  C   UNL A   1      44.355  34.688  27.698  1.00  0.00     0.173 A 
ATOM     65  F   UNL A   1      45.829  33.805  30.910  1.00  0.00    -0.203 F 
ATOM     66  C   UNL A   1      45.951  35.807  29.671  1.00  0.00     0.198 A 
ATOM     67  C   UNL A   1      44.845  35.978  27.544  1.00  0.00     0.198 A 
ATOM     68  F   UNL A   1      43.595  34.164  26.725  1.00  0.00    -0.203 F 
ATOM     69  F   UNL A   1      46.708  36.354  30.631  1.00  0.00    -0.200 F 
ATOM     70  C   UNL A   1      45.639  36.537  28.532  1.00  0.00     0.200 A 
ATOM     71  F   UNL A   1      44.562  36.670  26.432  1.00  0.00    -0.200 F 
ATOM     72  F   UNL A   1      46.112  37.781  28.383  1.00  0.00    -0.200 F 
ENDBRANCH  39  62
ENDBRANCH  13  14
ENDBRANCH   6   8
ENDBRANCH   5   6
ENDBRANCH   4   5
ENDBRANCH   3   4
ENDBRANCH   2   3
ENDBRANCH   1   2
BRANCH   1  73
ATOM     73  C   UNL A   1      34.312  21.649  25.869  1.00  0.00     0.188 C 
BRANCH  73  74
ATOM     74  O   UNL A   1      33.633  22.503  24.946  1.00  0.00    -0.376 OA
BRANCH  74  75
ATOM     75  C   UNL A   1      34.180  22.674  23.639  1.00  0.00     0.202 C 
BRANCH  75  76
ATOM     76  C   UNL A   1      34.767  24.050  23.317  1.00  0.00     0.261 C 
BRANCH  76  77
ATOM     77  O   UNL A   1      33.887  24.782  22.480  1.00  0.00    -0.459 OA
BRANCH  77  78
ATOM     78  C   UNL A   1      33.423  25.962  22.958  1.00  0.00     0.365 C 
ATOM     79  O   UNL A   1      33.806  27.078  22.608  1.00  0.00    -0.245 OA
BRANCH  78  80
ATOM     80  C   UNL A   1      32.299  25.742  23.975  1.00  0.00     0.298 C 
ATOM     81  C   UNL A   1      32.759  26.128  25.398  1.00  0.00     0.111 C 
ATOM     82  N   UNL A   1      31.051  26.352  23.444  1.00  0.00    -0.326 N 
ATOM     83  C   UNL A   1      32.761  27.610  25.537  1.00  0.00    -0.024 C 
ATOM     84  C   UNL A   1      30.510  27.510  24.164  1.00  0.00     0.243 C 
ATOM     85  H   UNL A   1      30.333  25.627  23.443  1.00  0.00     0.347 HD
ATOM     86  H   UNL A   1      31.306  26.709  22.523  1.00  0.00     0.347 HD
ATOM     87  C   UNL A   1      33.506  28.550  26.116  1.00  0.00     0.002 A 
ATOM     88  C   UNL A   1      31.426  28.134  25.228  1.00  0.00     0.196 C 
ATOM     89  C   UNL A   1      34.725  28.575  26.860  1.00  0.00     0.010 A 
ATOM     90  C   UNL A   1      32.570  29.705  26.148  1.00  0.00     0.066 A 
ATOM     91  N   UNL A   1      31.409  29.565  25.573  1.00  0.00    -0.270 NA
ATOM     92  C   UNL A   1      34.993  29.634  27.643  1.00  0.00     0.001 A 
ATOM     93  C   UNL A   1      32.999  30.883  26.934  1.00  0.00     0.028 A 
ATOM     94  C   UNL A   1      34.121  30.798  27.669  1.00  0.00     0.002 A 
BRANCH  84  95
ATOM     95  C   UNL A   1      29.713  28.424  23.269  1.00  0.00     0.012 A 
ATOM     96  C   UNL A   1      28.319  28.481  23.307  1.00  0.00     0.010 A 
ATOM     97  C   UNL A   1      30.405  29.266  22.376  1.00  0.00     0.010 A 
ATOM     98  C   UNL A   1      27.628  29.349  22.466  1.00  0.00     0.001 A 
ATOM     99  C   UNL A   1      29.716  30.152  21.556  1.00  0.00     0.001 A 
ATOM    100  C   UNL A   1      28.326  30.194  21.604  1.00  0.00     0.000 A 
ENDBRANCH  84  95
ENDBRANCH  78  80
ENDBRANCH  77  78
ENDBRANCH  76  77
ENDBRANCH  75  76
ENDBRANCH  74  75
ENDBRANCH  73  74
ENDBRANCH   1  73
TORSDOF 18
ENDMDL
MODEL 3
REMARK VINA RESULT:     -12.1      4.994      7.151
REMARK SMILES O=C(OCCOCCOCCOC(=O)[C@H]1CC2=c3ccccc3=N[C@H]2[C@@H](c2ccccc2)[NH2+]1)c1ccc(-c2c3nc(c(-c4c(F)c(F)c(F)c(F)c4F)c4ccc([nH]4)c(-c4c(F)c(F)c(F)c(F)c4F)c4nc(c(-c5c(F)c(F)c(F)c(F)c5F)c5ccc2[nH]5)C=C4)C=C3)cc1
REMARK SMILES IDX 7 1 6 2 5 3 4 4 3 5 2 6 1 7 34 8 35 9 96 10 36 11 95 12
REMARK SMILES IDX 37 13 38 14 39 15 89 16 40 17 94 18 88 19 90 20 41 21 93 22
REMARK SMILES IDX 87 23 86 24 42 26 74 27 54 28 73 29 55 30 58 31 72 32 91 33
REMARK SMILES IDX 56 34 57 35 71 37 92 38 59 39 43 40 44 41 52 42 45 43 46 44
REMARK SMILES IDX 50 45 53 46 47 47 48 48 51 49 49 50 75 51 76 52 84 53 77 54
REMARK SMILES IDX 78 55 82 56 85 57 79 58 80 59 83 60 81 61 60 62 61 63 69 64
REMARK SMILES IDX 62 65 63 66 67 67 70 68 64 69 65 70 68 71 66 72 8 73 9 74
REMARK SMILES IDX 10 75 11 76 12 77 13 78 14 79 15 80 16 81 33 82 17 83 26 84
REMARK SMILES IDX 18 87 25 88 19 89 23 90 24 91 20 92 22 93 21 94 27 95 28 96
REMARK SMILES IDX 32 97 29 98 31 99 30 100
REMARK H PARENT 90 25 58 36 33 85 33 86
REMARK Flexibility Score: inf
ROOT
ATOM      1  C   UNL A   1      41.984  19.521  26.793  1.00  0.00     0.188 C 
ENDROOT
BRANCH   1   2
ATOM      2  O   UNL A   1      42.489  19.579  25.450  1.00  0.00    -0.376 OA
BRANCH   2   3
ATOM      3  C   UNL A   1      43.869  19.926  25.373  1.00  0.00     0.202 C 
BRANCH   3   4
ATOM      4  C   UNL A   1      44.205  21.087  24.427  1.00  0.00     0.261 C 
BRANCH   4   5
ATOM      5  O   UNL A   1      43.471  22.289  24.725  1.00  0.00    -0.460 OA
BRANCH   5   6
ATOM      6  C   UNL A   1      43.878  23.582  24.744  1.00  0.00     0.338 C 
ATOM      7  O   UNL A   1      44.826  23.892  24.022  1.00  0.00    -0.246 OA
BRANCH   6   8
ATOM      8  C   UNL A   1      43.370  24.627  25.709  1.00  0.00     0.060 A 
ATOM      9  C   UNL A   1      42.456  24.221  26.711  1.00  0.00     0.016 A 
ATOM     10  C   UNL A   1      43.719  25.966  25.713  1.00  0.00     0.016 A 
ATOM     11  C   UNL A   1      41.926  25.111  27.690  1.00  0.00     0.010 A 
ATOM     12  C   UNL A   1      43.197  26.851  26.693  1.00  0.00     0.010 A 
ATOM     13  C   UNL A   1      42.295  26.458  27.707  1.00  0.00    -0.014 A 
BRANCH  13  14
ATOM     14  C   UNL A   1      42.102  27.391  28.898  1.00  0.00     0.031 A 
ATOM     15  C   UNL A   1      42.845  27.353  30.236  1.00  0.00     0.074 A 
ATOM     16  C   UNL A   1      40.959  28.091  28.863  1.00  0.00     0.049 A 
ATOM     17  N   UNL A   1      42.776  27.993  31.377  1.00  0.00    -0.248 NA
ATOM     18  C   UNL A   1      43.758  26.241  30.312  1.00  0.00     0.031 C 
ATOM     19  C   UNL A   1      40.084  28.220  27.697  1.00  0.00     0.029 A 
ATOM     20  N   UNL A   1      40.314  28.763  29.858  1.00  0.00    -0.354 N 
ATOM     21  C   UNL A   1      43.654  27.316  32.261  1.00  0.00     0.074 A 
ATOM     22  C   UNL A   1      44.377  26.341  31.480  1.00  0.00     0.031 C 
ATOM     23  C   UNL A   1      39.015  28.949  28.041  1.00  0.00     0.029 A 
ATOM     24  C   UNL A   1      39.143  29.332  29.441  1.00  0.00     0.049 A 
ATOM     25  H   UNL A   1      40.654  28.830  30.779  1.00  0.00     0.167 HD
ATOM     26  C   UNL A   1      43.701  27.304  33.625  1.00  0.00     0.037 A 
ATOM     27  C   UNL A   1      38.304  30.129  30.116  1.00  0.00     0.037 A 
ATOM     28  C   UNL A   1      42.787  28.070  34.425  1.00  0.00     0.049 A 
ATOM     29  C   UNL A   1      38.585  30.437  31.555  1.00  0.00     0.074 A 
ATOM     30  C   UNL A   1      42.690  28.179  35.803  1.00  0.00     0.029 A 
ATOM     31  N   UNL A   1      41.756  28.811  33.886  1.00  0.00    -0.354 N 
ATOM     32  N   UNL A   1      39.460  29.890  32.360  1.00  0.00    -0.248 NA
ATOM     33  C   UNL A   1      37.786  31.503  32.168  1.00  0.00     0.031 C 
ATOM     34  C   UNL A   1      41.534  28.908  36.097  1.00  0.00     0.029 A 
ATOM     35  C   UNL A   1      41.032  29.390  34.903  1.00  0.00     0.049 A 
ATOM     36  H   UNL A   1      41.568  28.912  32.925  1.00  0.00     0.167 HD
ATOM     37  C   UNL A   1      39.352  30.583  33.555  1.00  0.00     0.074 A 
ATOM     38  C   UNL A   1      38.332  31.588  33.372  1.00  0.00     0.031 C 
ATOM     39  C   UNL A   1      40.044  30.402  34.701  1.00  0.00     0.037 A 
BRANCH  26  40
ATOM     40  C   UNL A   1      44.654  26.381  34.378  1.00  0.00     0.064 A 
ATOM     41  C   UNL A   1      44.320  25.055  34.689  1.00  0.00     0.173 A 
ATOM     42  C   UNL A   1      45.981  26.781  34.648  1.00  0.00     0.173 A 
ATOM     43  F   UNL A   1      43.076  24.603  34.476  1.00  0.00    -0.203 F 
ATOM     44  C   UNL A   1      45.269  24.167  35.207  1.00  0.00     0.198 A 
ATOM     45  C   UNL A   1      46.940  25.878  35.109  1.00  0.00     0.198 A 
ATOM     46  F   UNL A   1      46.379  28.039  34.399  1.00  0.00    -0.203 F 
ATOM     47  F   UNL A   1      44.914  22.913  35.519  1.00  0.00    -0.200 F 
ATOM     48  C   UNL A   1      46.583  24.570  35.388  1.00  0.00     0.200 A 
ATOM     49  F   UNL A   1      48.213  26.269  35.267  1.00  0.00    -0.200 F 
ATOM     50  F   UNL A   1      47.498  23.707  35.851  1.00  0.00    -0.200 F 
ENDBRANCH  26  40
BRANCH  27  51
ATOM     51  C   UNL A   1      37.292  30.881  29.351  1.00  0.00     0.064 A 
ATOM     52  C   UNL A   1      36.085  30.240  29.034  1.00  0.00     0.173 A 
ATOM     53  C   UNL A   1      37.455  32.216  28.975  1.00  0.00     0.173 A 
ATOM     54  F   UNL A   1      35.888  28.966  29.408  1.00  0.00    -0.203 F 
ATOM     55  C   UNL A   1      35.100  30.889  28.306  1.00  0.00     0.198 A 
ATOM     56  C   UNL A   1      36.452  32.877  28.271  1.00  0.00     0.198 A 
ATOM     57  F   UNL A   1      38.569  32.883  29.315  1.00  0.00    -0.203 F 
ATOM     58  F   UNL A   1      33.983  30.233  27.967  1.00  0.00    -0.200 F 
ATOM     59  C   UNL A   1      35.284  32.208  27.923  1.00  0.00     0.200 A 
ATOM     60  F   UNL A   1      36.612  34.162  27.930  1.00  0.00    -0.200 F 
ATOM     61  F   UNL A   1      34.337  32.835  27.215  1.00  0.00    -0.200 F 
ENDBRANCH  27  51
BRANCH  39  62
ATOM     62  C   UNL A   1      39.828  31.338  35.842  1.00  0.00     0.064 A 
ATOM     63  C   UNL A   1      40.684  32.415  36.095  1.00  0.00     0.173 A 
ATOM     64  C   UNL A   1      38.650  31.227  36.599  1.00  0.00     0.173 A 
ATOM     65  F   UNL A   1      41.812  32.566  35.383  1.00  0.00    -0.203 F 
ATOM     66  C   UNL A   1      40.376  33.345  37.082  1.00  0.00     0.198 A 
ATOM     67  C   UNL A   1      38.332  32.175  37.564  1.00  0.00     0.198 A 
ATOM     68  F   UNL A   1      37.794  30.219  36.376  1.00  0.00    -0.203 F 
ATOM     69  F   UNL A   1      41.217  34.358  37.327  1.00  0.00    -0.200 F 
ATOM     70  C   UNL A   1      39.197  33.230  37.806  1.00  0.00     0.200 A 
ATOM     71  F   UNL A   1      37.183  32.074  38.244  1.00  0.00    -0.200 F 
ATOM     72  F   UNL A   1      38.891  34.143  38.737  1.00  0.00    -0.200 F 
ENDBRANCH  39  62
ENDBRANCH  13  14
ENDBRANCH   6   8
ENDBRANCH   5   6
ENDBRANCH   4   5
ENDBRANCH   3   4
ENDBRANCH   2   3
ENDBRANCH   1   2
BRANCH   1  73
ATOM     73  C   UNL A   1      40.973  20.639  27.066  1.00  0.00     0.188 C 
BRANCH  73  74
ATOM     74  O   UNL A   1      40.452  21.341  25.934  1.00  0.00    -0.376 OA
BRANCH  74  75
ATOM     75  C   UNL A   1      39.052  21.606  25.876  1.00  0.00     0.202 C 
BRANCH  75  76
ATOM     76  C   UNL A   1      38.598  22.989  26.348  1.00  0.00     0.261 C 
BRANCH  76  77
ATOM     77  O   UNL A   1      37.731  23.580  25.393  1.00  0.00    -0.459 OA
BRANCH  77  78
ATOM     78  C   UNL A   1      36.730  22.807  24.909  1.00  0.00     0.365 C 
ATOM     79  O   UNL A   1      36.583  22.477  23.732  1.00  0.00    -0.245 OA
BRANCH  78  80
ATOM     80  C   UNL A   1      35.807  22.333  26.035  1.00  0.00     0.298 C 
ATOM     81  C   UNL A   1      34.700  23.374  26.316  1.00  0.00     0.111 C 
ATOM     82  N   UNL A   1      35.403  20.928  25.761  1.00  0.00    -0.326 N 
ATOM     83  C   UNL A   1      33.656  23.291  25.258  1.00  0.00    -0.024 C 
ATOM     84  C   UNL A   1      33.989  20.681  25.460  1.00  0.00     0.243 C 
ATOM     85  H   UNL A   1      35.644  20.375  26.583  1.00  0.00     0.347 HD
ATOM     86  H   UNL A   1      35.902  20.675  24.907  1.00  0.00     0.347 HD
ATOM     87  C   UNL A   1      32.879  24.122  24.565  1.00  0.00     0.002 A 
ATOM     88  C   UNL A   1      33.125  21.925  25.198  1.00  0.00     0.196 C 
ATOM     89  C   UNL A   1      32.718  25.538  24.478  1.00  0.00     0.010 A 
ATOM     90  C   UNL A   1      31.828  23.202  24.053  1.00  0.00     0.066 A 
ATOM     91  N   UNL A   1      31.963  21.928  24.295  1.00  0.00    -0.270 NA
ATOM     92  C   UNL A   1      31.573  26.037  23.981  1.00  0.00     0.001 A 
ATOM     93  C   UNL A   1      30.655  23.831  23.407  1.00  0.00     0.028 A 
ATOM     94  C   UNL A   1      30.541  25.170  23.436  1.00  0.00     0.002 A 
BRANCH  84  95
ATOM     95  C   UNL A   1      33.787  19.466  24.592  1.00  0.00     0.012 A 
ATOM     96  C   UNL A   1      34.689  18.399  24.575  1.00  0.00     0.010 A 
ATOM     97  C   UNL A   1      32.637  19.397  23.783  1.00  0.00     0.010 A 
ATOM     98  C   UNL A   1      34.453  17.293  23.763  1.00  0.00     0.001 A 
ATOM     99  C   UNL A   1      32.388  18.281  22.992  1.00  0.00     0.001 A 
ATOM    100  C   UNL A   1      33.298  17.228  22.985  1.00  0.00     0.000 A 
ENDBRANCH  84  95
ENDBRANCH  78  80
ENDBRANCH  77  78
ENDBRANCH  76  77
ENDBRANCH  75  76
ENDBRANCH  74  75
ENDBRANCH  73  74
ENDBRANCH   1  73
TORSDOF 18
ENDMDL
