MODEL 1
REMARK VINA RESULT:     -11.0      0.000      0.000
REMARK SMILES CCc1cc(C(=O)c2[nH]c3cc(Cl)ccc3c2CC(=O)OCCOCCOCCOC(=O)c2ccc(-c3c4nc(c(-c5c(F)c(F)c(F)c(F)c5F)c5ccc([nH]5)c(-c5c(F)c(F)c(F)c(F)c5F)c5nc(c(-c6c(F)c(F)c(F)c(F)c6F)c6ccc3[nH]6)C=C5)C=C4)cc2)ncc1Cl
REMARK SMILES IDX 25 1 24 2 23 3 22 4 21 5 19 6 20 7 18 8 17 9 8 10 9 11 10 12
REMARK SMILES IDX 16 14 11 15 15 16 12 17 14 18 13 19 6 20 7 21 5 22 3 23 4 24
REMARK SMILES IDX 98 25 97 26 99 27 96 28 2 29 1 30 26 31 27 32 28 33 29 34
REMARK SMILES IDX 30 35 31 36 32 37 33 38 34 39 95 40 35 41 94 42 36 43 37 44
REMARK SMILES IDX 38 45 88 46 39 47 93 48 87 49 89 50 40 51 92 52 86 53 85 54
REMARK SMILES IDX 41 56 73 57 53 58 72 59 54 60 57 61 71 62 90 63 55 64 56 65
REMARK SMILES IDX 70 67 91 68 58 69 42 70 43 71 51 72 44 73 45 74 49 75 52 76
REMARK SMILES IDX 46 77 47 78 50 79 48 80 74 81 75 82 83 83 76 84 77 85 81 86
REMARK SMILES IDX 84 87 78 88 79 89 82 90 80 91 59 92 60 93 68 94 61 95 62 96
REMARK SMILES IDX 66 97 69 98 63 99 64 100 67 101 65 102
REMARK H PARENT 9 13 89 55 57 66
REMARK Flexibility Score: inf
ROOT
ATOM      1  C   UNL A   1      35.038  31.922  28.507  1.00  0.00     0.188 C 
ENDROOT
BRANCH   1   2
ATOM      2  O   UNL A   1      34.093  31.296  27.647  1.00  0.00    -0.376 OA
BRANCH   2   3
ATOM      3  C   UNL A   1      34.123  29.877  27.554  1.00  0.00     0.202 C 
BRANCH   3   4
ATOM      4  C   UNL A   1      32.791  29.221  27.190  1.00  0.00     0.261 C 
BRANCH   4   5
ATOM      5  O   UNL A   1      32.890  27.780  27.084  1.00  0.00    -0.463 OA
BRANCH   5   6
ATOM      6  C   UNL A   1      33.466  27.317  25.946  1.00  0.00     0.310 C 
ATOM      7  O   UNL A   1      34.105  26.267  25.893  1.00  0.00    -0.252 OA
BRANCH   6   8
ATOM      8  C   UNL A   1      33.310  28.172  24.704  1.00  0.00     0.161 C 
BRANCH   8   9
ATOM      9  C   UNL A   1      32.106  28.039  23.798  1.00  0.00     0.000 A 
ATOM     10  C   UNL A   1      31.963  27.203  22.683  1.00  0.00     0.093 A 
ATOM     11  N   UNL A   1      30.704  27.421  22.173  1.00  0.00    -0.351 N 
ATOM     12  C   UNL A   1      30.183  28.582  22.685  1.00  0.00     0.048 A 
ATOM     13  H   UNL A   1      30.244  26.829  21.534  1.00  0.00     0.167 HD
ATOM     14  C   UNL A   1      31.015  28.973  23.732  1.00  0.00     0.004 A 
ATOM     15  C   UNL A   1      29.062  29.316  22.279  1.00  0.00     0.047 A 
ATOM     16  C   UNL A   1      30.709  30.169  24.416  1.00  0.00     0.012 A 
ATOM     17  C   UNL A   1      28.820  30.524  22.937  1.00  0.00     0.043 A 
ATOM     18  C   UNL A   1      29.623  30.947  23.991  1.00  0.00     0.021 A 
ATOM     19  Cl  UNL A   1      27.523  31.523  22.402  1.00  0.00    -0.084 Cl
BRANCH  10  20
ATOM     20  C   UNL A   1      32.916  26.256  22.134  1.00  0.00     0.227 C 
ATOM     21  O   UNL A   1      33.643  26.533  21.182  1.00  0.00    -0.285 OA
BRANCH  20  22
ATOM     22  C   UNL A   1      33.021  24.875  22.703  1.00  0.00     0.113 A 
ATOM     23  C   UNL A   1      34.293  23.145  23.819  1.00  0.00    -0.026 A 
ATOM     24  C   UNL A   1      34.253  24.292  22.993  1.00  0.00     0.037 A 
ATOM     25  C   UNL A   1      33.082  22.680  24.352  1.00  0.00     0.062 A 
ATOM     26  C   UNL A   1      31.904  23.272  23.924  1.00  0.00     0.132 A 
ATOM     27  Cl  UNL A   1      32.972  21.476  25.576  1.00  0.00    -0.082 Cl
ATOM     28  N   UNL A   1      31.847  24.337  23.093  1.00  0.00    -0.251 NA
BRANCH  23  29
ATOM     29  C   UNL A   1      35.633  22.524  24.154  1.00  0.00     0.034 C 
ATOM     30  C   UNL A   1      36.387  23.217  25.287  1.00  0.00     0.009 C 
ENDBRANCH  23  29
ENDBRANCH  20  22
ENDBRANCH  10  20
ENDBRANCH   8   9
ENDBRANCH   6   8
ENDBRANCH   5   6
ENDBRANCH   4   5
ENDBRANCH   3   4
ENDBRANCH   2   3
ENDBRANCH   1   2
BRANCH   1  31
ATOM     31  C   UNL A   1      35.476  33.364  28.187  1.00  0.00     0.188 C 
BRANCH  31  32
ATOM     32  O   UNL A   1      35.066  34.412  29.059  1.00  0.00    -0.376 OA
BRANCH  32  33
ATOM     33  C   UNL A   1      34.317  35.477  28.486  1.00  0.00     0.202 C 
BRANCH  33  34
ATOM     34  C   UNL A   1      32.905  35.598  29.045  1.00  0.00     0.261 C 
BRANCH  34  35
ATOM     35  O   UNL A   1      32.791  34.832  30.257  1.00  0.00    -0.460 OA
BRANCH  35  36
ATOM     36  C   UNL A   1      32.816  35.569  31.388  1.00  0.00     0.338 C 
ATOM     37  O   UNL A   1      32.121  36.533  31.657  1.00  0.00    -0.246 OA
BRANCH  36  38
ATOM     38  C   UNL A   1      33.838  35.059  32.318  1.00  0.00     0.060 A 
ATOM     39  C   UNL A   1      35.070  35.698  32.416  1.00  0.00     0.016 A 
ATOM     40  C   UNL A   1      33.664  33.798  32.880  1.00  0.00     0.016 A 
ATOM     41  C   UNL A   1      36.177  35.008  32.914  1.00  0.00     0.010 A 
ATOM     42  C   UNL A   1      34.751  33.149  33.474  1.00  0.00     0.010 A 
ATOM     43  C   UNL A   1      36.039  33.711  33.421  1.00  0.00    -0.014 A 
BRANCH  43  44
ATOM     44  C   UNL A   1      37.235  32.897  33.788  1.00  0.00     0.031 A 
ATOM     45  C   UNL A   1      37.953  33.151  35.094  1.00  0.00     0.074 A 
ATOM     46  C   UNL A   1      37.670  31.903  32.988  1.00  0.00     0.049 A 
ATOM     47  N   UNL A   1      39.085  32.658  35.533  1.00  0.00    -0.248 NA
ATOM     48  C   UNL A   1      37.302  34.073  36.038  1.00  0.00     0.031 C 
ATOM     49  C   UNL A   1      37.029  31.467  31.748  1.00  0.00     0.029 A 
ATOM     50  N   UNL A   1      38.769  31.084  33.099  1.00  0.00    -0.354 N 
ATOM     51  C   UNL A   1      39.280  33.211  36.794  1.00  0.00     0.074 A 
ATOM     52  C   UNL A   1      38.167  34.099  37.042  1.00  0.00     0.031 C 
ATOM     53  C   UNL A   1      37.740  30.463  31.216  1.00  0.00     0.029 A 
ATOM     54  C   UNL A   1      38.938  30.250  32.021  1.00  0.00     0.049 A 
ATOM     55  H   UNL A   1      39.375  31.094  33.876  1.00  0.00     0.167 HD
ATOM     56  C   UNL A   1      40.294  33.002  37.669  1.00  0.00     0.037 A 
ATOM     57  C   UNL A   1      39.969  29.455  31.676  1.00  0.00     0.037 A 
ATOM     58  C   UNL A   1      41.422  32.145  37.416  1.00  0.00     0.049 A 
ATOM     59  C   UNL A   1      41.177  29.388  32.569  1.00  0.00     0.074 A 
ATOM     60  C   UNL A   1      42.523  31.905  38.218  1.00  0.00     0.029 A 
ATOM     61  N   UNL A   1      41.598  31.399  36.261  1.00  0.00    -0.354 N 
ATOM     62  N   UNL A   1      41.377  29.947  33.736  1.00  0.00    -0.248 NA
ATOM     63  C   UNL A   1      42.314  28.595  32.082  1.00  0.00     0.031 C 
ATOM     64  C   UNL A   1      43.398  31.064  37.522  1.00  0.00     0.029 A 
ATOM     65  C   UNL A   1      42.814  30.734  36.309  1.00  0.00     0.049 A 
ATOM     66  H   UNL A   1      40.956  31.349  35.517  1.00  0.00     0.167 HD
ATOM     67  C   UNL A   1      42.650  29.562  34.132  1.00  0.00     0.074 A 
ATOM     68  C   UNL A   1      43.172  28.709  33.085  1.00  0.00     0.031 C 
ATOM     69  C   UNL A   1      43.325  29.888  35.262  1.00  0.00     0.037 A 
BRANCH  56  70
ATOM     70  C   UNL A   1      40.255  33.756  38.965  1.00  0.00     0.064 A 
ATOM     71  C   UNL A   1      40.937  34.970  39.133  1.00  0.00     0.173 A 
ATOM     72  C   UNL A   1      39.503  33.269  40.045  1.00  0.00     0.173 A 
ATOM     73  F   UNL A   1      41.679  35.472  38.135  1.00  0.00    -0.203 F 
ATOM     74  C   UNL A   1      40.882  35.659  40.343  1.00  0.00     0.198 A 
ATOM     75  C   UNL A   1      39.432  33.972  41.244  1.00  0.00     0.198 A 
ATOM     76  F   UNL A   1      38.830  32.114  39.933  1.00  0.00    -0.203 F 
ATOM     77  F   UNL A   1      41.570  36.800  40.496  1.00  0.00    -0.200 F 
ATOM     78  C   UNL A   1      40.127  35.163  41.395  1.00  0.00     0.200 A 
ATOM     79  F   UNL A   1      38.694  33.495  42.257  1.00  0.00    -0.200 F 
ATOM     80  F   UNL A   1      40.072  35.829  42.557  1.00  0.00    -0.200 F 
ENDBRANCH  56  70
BRANCH  57  81
ATOM     81  C   UNL A   1      39.933  28.727  30.381  1.00  0.00     0.064 A 
ATOM     82  C   UNL A   1      40.451  29.296  29.211  1.00  0.00     0.173 A 
ATOM     83  C   UNL A   1      39.378  27.439  30.290  1.00  0.00     0.173 A 
ATOM     84  F   UNL A   1      40.960  30.537  29.239  1.00  0.00    -0.203 F 
ATOM     85  C   UNL A   1      40.414  28.608  28.000  1.00  0.00     0.198 A 
ATOM     86  C   UNL A   1      39.373  26.739  29.086  1.00  0.00     0.198 A 
ATOM     87  F   UNL A   1      38.857  26.854  31.377  1.00  0.00    -0.203 F 
ATOM     88  F   UNL A   1      40.878  29.192  26.887  1.00  0.00    -0.200 F 
ATOM     89  C   UNL A   1      39.886  27.327  27.941  1.00  0.00     0.200 A 
ATOM     90  F   UNL A   1      38.873  25.497  29.038  1.00  0.00    -0.200 F 
ATOM     91  F   UNL A   1      39.861  26.662  26.778  1.00  0.00    -0.200 F 
ENDBRANCH  57  81
BRANCH  69  92
ATOM     92  C   UNL A   1      44.691  29.296  35.440  1.00  0.00     0.064 A 
ATOM     93  C   UNL A   1      44.877  28.044  36.044  1.00  0.00     0.173 A 
ATOM     94  C   UNL A   1      45.827  29.975  34.972  1.00  0.00     0.173 A 
ATOM     95  F   UNL A   1      43.825  27.363  36.523  1.00  0.00    -0.203 F 
ATOM     96  C   UNL A   1      46.152  27.506  36.197  1.00  0.00     0.198 A 
ATOM     97  C   UNL A   1      47.097  29.420  35.100  1.00  0.00     0.198 A 
ATOM     98  F   UNL A   1      45.703  31.172  34.381  1.00  0.00    -0.203 F 
ATOM     99  F   UNL A   1      46.310  26.331  36.821  1.00  0.00    -0.200 F 
ATOM    100  C   UNL A   1      47.259  28.191  35.719  1.00  0.00     0.200 A 
ATOM    101  F   UNL A   1      48.164  30.078  34.626  1.00  0.00    -0.200 F 
ATOM    102  F   UNL A   1      48.485  27.668  35.862  1.00  0.00    -0.200 F 
ENDBRANCH  69  92
ENDBRANCH  43  44
ENDBRANCH  36  38
ENDBRANCH  35  36
ENDBRANCH  34  35
ENDBRANCH  33  34
ENDBRANCH  32  33
ENDBRANCH  31  32
ENDBRANCH   1  31
TORSDOF 21
ENDMDL
MODEL 2
REMARK VINA RESULT:     -10.5      4.184      6.831
REMARK SMILES CCc1cc(C(=O)c2[nH]c3cc(Cl)ccc3c2CC(=O)OCCOCCOCCOC(=O)c2ccc(-c3c4nc(c(-c5c(F)c(F)c(F)c(F)c5F)c5ccc([nH]5)c(-c5c(F)c(F)c(F)c(F)c5F)c5nc(c(-c6c(F)c(F)c(F)c(F)c6F)c6ccc3[nH]6)C=C5)C=C4)cc2)ncc1Cl
REMARK SMILES IDX 25 1 24 2 23 3 22 4 21 5 19 6 20 7 18 8 17 9 8 10 9 11 10 12
REMARK SMILES IDX 16 14 11 15 15 16 12 17 14 18 13 19 6 20 7 21 5 22 3 23 4 24
REMARK SMILES IDX 98 25 97 26 99 27 96 28 2 29 1 30 26 31 27 32 28 33 29 34
REMARK SMILES IDX 30 35 31 36 32 37 33 38 34 39 95 40 35 41 94 42 36 43 37 44
REMARK SMILES IDX 38 45 88 46 39 47 93 48 87 49 89 50 40 51 92 52 86 53 85 54
REMARK SMILES IDX 41 56 73 57 53 58 72 59 54 60 57 61 71 62 90 63 55 64 56 65
REMARK SMILES IDX 70 67 91 68 58 69 42 70 43 71 51 72 44 73 45 74 49 75 52 76
REMARK SMILES IDX 46 77 47 78 50 79 48 80 74 81 75 82 83 83 76 84 77 85 81 86
REMARK SMILES IDX 84 87 78 88 79 89 82 90 80 91 59 92 60 93 68 94 61 95 62 96
REMARK SMILES IDX 66 97 69 98 63 99 64 100 67 101 65 102
REMARK H PARENT 9 13 89 55 57 66
REMARK Flexibility Score: inf
ROOT
ATOM      1  C   UNL A   1      34.519  33.451  30.075  1.00  0.00     0.188 C 
ENDROOT
BRANCH   1   2
ATOM      2  O   UNL A   1      34.276  32.921  28.777  1.00  0.00    -0.376 OA
BRANCH   2   3
ATOM      3  C   UNL A   1      34.382  31.513  28.608  1.00  0.00     0.202 C 
BRANCH   3   4
ATOM      4  C   UNL A   1      34.198  31.013  27.175  1.00  0.00     0.261 C 
BRANCH   4   5
ATOM      5  O   UNL A   1      33.208  29.961  27.074  1.00  0.00    -0.463 OA
BRANCH   5   6
ATOM      6  C   UNL A   1      32.090  30.279  26.375  1.00  0.00     0.310 C 
ATOM      7  O   UNL A   1      31.649  31.425  26.294  1.00  0.00    -0.252 OA
BRANCH   6   8
ATOM      8  C   UNL A   1      31.363  29.139  25.689  1.00  0.00     0.161 C 
BRANCH   8   9
ATOM      9  C   UNL A   1      31.033  29.186  24.214  1.00  0.00     0.000 A 
ATOM     10  C   UNL A   1      31.780  28.657  23.153  1.00  0.00     0.093 A 
ATOM     11  N   UNL A   1      31.092  28.939  21.994  1.00  0.00    -0.351 N 
ATOM     12  C   UNL A   1      30.147  29.904  22.231  1.00  0.00     0.048 A 
ATOM     13  H   UNL A   1      31.256  28.510  21.123  1.00  0.00     0.167 HD
ATOM     14  C   UNL A   1      30.055  30.053  23.614  1.00  0.00     0.004 A 
ATOM     15  C   UNL A   1      29.397  30.664  21.325  1.00  0.00     0.047 A 
ATOM     16  C   UNL A   1      29.160  31.017  24.122  1.00  0.00     0.012 A 
ATOM     17  C   UNL A   1      28.564  31.650  21.858  1.00  0.00     0.043 A 
ATOM     18  C   UNL A   1      28.440  31.826  23.233  1.00  0.00     0.021 A 
ATOM     19  Cl  UNL A   1      27.706  32.691  20.787  1.00  0.00    -0.084 Cl
BRANCH  10  20
ATOM     20  C   UNL A   1      33.033  27.928  23.204  1.00  0.00     0.227 C 
ATOM     21  O   UNL A   1      34.123  28.498  23.240  1.00  0.00    -0.285 OA
BRANCH  20  22
ATOM     22  C   UNL A   1      33.039  26.432  23.181  1.00  0.00     0.113 A 
ATOM     23  C   UNL A   1      33.749  24.310  24.105  1.00  0.00    -0.026 A 
ATOM     24  C   UNL A   1      33.980  25.690  23.891  1.00  0.00     0.037 A 
ATOM     25  C   UNL A   1      32.546  23.768  23.630  1.00  0.00     0.062 A 
ATOM     26  C   UNL A   1      31.724  24.568  22.853  1.00  0.00     0.132 A 
ATOM     27  Cl  UNL A   1      31.982  22.191  24.029  1.00  0.00    -0.082 Cl
ATOM     28  N   UNL A   1      31.957  25.875  22.596  1.00  0.00    -0.251 NA
BRANCH  23  29
ATOM     29  C   UNL A   1      34.760  23.508  24.896  1.00  0.00     0.034 C 
ATOM     30  C   UNL A   1      34.476  23.432  26.395  1.00  0.00     0.009 C 
ENDBRANCH  23  29
ENDBRANCH  20  22
ENDBRANCH  10  20
ENDBRANCH   8   9
ENDBRANCH   6   8
ENDBRANCH   5   6
ENDBRANCH   4   5
ENDBRANCH   3   4
ENDBRANCH   2   3
ENDBRANCH   1   2
BRANCH   1  31
ATOM     31  C   UNL A   1      33.688  34.663  30.538  1.00  0.00     0.188 C 
BRANCH  31  32
ATOM     32  O   UNL A   1      34.272  35.582  31.454  1.00  0.00    -0.376 OA
BRANCH  32  33
ATOM     33  C   UNL A   1      34.192  35.258  32.838  1.00  0.00     0.202 C 
BRANCH  33  34
ATOM     34  C   UNL A   1      35.496  34.718  33.413  1.00  0.00     0.261 C 
BRANCH  34  35
ATOM     35  O   UNL A   1      35.557  33.292  33.233  1.00  0.00    -0.460 OA
BRANCH  35  36
ATOM     36  C   UNL A   1      36.522  32.681  33.952  1.00  0.00     0.338 C 
ATOM     37  O   UNL A   1      36.799  32.865  35.124  1.00  0.00    -0.246 OA
BRANCH  36  38
ATOM     38  C   UNL A   1      37.255  31.711  33.120  1.00  0.00     0.060 A 
ATOM     39  C   UNL A   1      37.838  30.592  33.706  1.00  0.00     0.016 A 
ATOM     40  C   UNL A   1      37.588  32.063  31.815  1.00  0.00     0.016 A 
ATOM     41  C   UNL A   1      38.882  29.929  33.060  1.00  0.00     0.010 A 
ATOM     42  C   UNL A   1      38.562  31.332  31.128  1.00  0.00     0.010 A 
ATOM     43  C   UNL A   1      39.282  30.310  31.774  1.00  0.00    -0.014 A 
BRANCH  43  44
ATOM     44  C   UNL A   1      40.507  29.735  31.146  1.00  0.00     0.031 A 
ATOM     45  C   UNL A   1      41.827  30.465  31.253  1.00  0.00     0.074 A 
ATOM     46  C   UNL A   1      40.470  28.548  30.511  1.00  0.00     0.049 A 
ATOM     47  N   UNL A   1      42.970  30.212  30.664  1.00  0.00    -0.248 NA
ATOM     48  C   UNL A   1      41.870  31.626  32.156  1.00  0.00     0.031 C 
ATOM     49  C   UNL A   1      39.300  27.675  30.409  1.00  0.00     0.029 A 
ATOM     50  N   UNL A   1      41.448  27.874  29.819  1.00  0.00    -0.354 N 
ATOM     51  C   UNL A   1      43.858  31.180  31.120  1.00  0.00     0.074 A 
ATOM     52  C   UNL A   1      43.119  32.044  32.014  1.00  0.00     0.031 C 
ATOM     53  C   UNL A   1      39.627  26.584  29.702  1.00  0.00     0.029 A 
ATOM     54  C   UNL A   1      40.996  26.725  29.217  1.00  0.00     0.049 A 
ATOM     55  H   UNL A   1      42.381  28.183  29.761  1.00  0.00     0.167 HD
ATOM     56  C   UNL A   1      45.171  31.339  30.824  1.00  0.00     0.037 A 
ATOM     57  C   UNL A   1      41.586  25.910  28.320  1.00  0.00     0.037 A 
ATOM     58  C   UNL A   1      45.905  30.505  29.910  1.00  0.00     0.049 A 
ATOM     59  C   UNL A   1      42.981  26.219  27.852  1.00  0.00     0.074 A 
ATOM     60  C   UNL A   1      47.224  30.615  29.507  1.00  0.00     0.029 A 
ATOM     61  N   UNL A   1      45.373  29.412  29.244  1.00  0.00    -0.354 N 
ATOM     62  N   UNL A   1      43.800  27.160  28.251  1.00  0.00    -0.248 NA
ATOM     63  C   UNL A   1      43.524  25.362  26.789  1.00  0.00     0.031 C 
ATOM     64  C   UNL A   1      47.472  29.626  28.548  1.00  0.00     0.029 A 
ATOM     65  C   UNL A   1      46.324  28.865  28.396  1.00  0.00     0.049 A 
ATOM     66  H   UNL A   1      44.456  29.073  29.356  1.00  0.00     0.167 HD
ATOM     67  C   UNL A   1      44.959  27.000  27.505  1.00  0.00     0.074 A 
ATOM     68  C   UNL A   1      44.743  25.861  26.637  1.00  0.00     0.031 C 
ATOM     69  C   UNL A   1      46.099  27.733  27.536  1.00  0.00     0.037 A 
BRANCH  56  70
ATOM     70  C   UNL A   1      45.887  32.496  31.456  1.00  0.00     0.064 A 
ATOM     71  C   UNL A   1      46.562  32.368  32.678  1.00  0.00     0.173 A 
ATOM     72  C   UNL A   1      45.918  33.744  30.815  1.00  0.00     0.173 A 
ATOM     73  F   UNL A   1      46.552  31.198  33.336  1.00  0.00    -0.203 F 
ATOM     74  C   UNL A   1      47.228  33.453  33.245  1.00  0.00     0.198 A 
ATOM     75  C   UNL A   1      46.604  34.820  31.373  1.00  0.00     0.198 A 
ATOM     76  F   UNL A   1      45.291  33.918  29.643  1.00  0.00    -0.203 F 
ATOM     77  F   UNL A   1      47.837  33.319  34.432  1.00  0.00    -0.200 F 
ATOM     78  C   UNL A   1      47.252  34.675  32.591  1.00  0.00     0.200 A 
ATOM     79  F   UNL A   1      46.633  35.999  30.735  1.00  0.00    -0.200 F 
ATOM     80  F   UNL A   1      47.895  35.718  33.136  1.00  0.00    -0.200 F 
ENDBRANCH  56  70
BRANCH  57  81
ATOM     81  C   UNL A   1      40.819  24.775  27.744  1.00  0.00     0.064 A 
ATOM     82  C   UNL A   1      41.093  23.451  28.109  1.00  0.00     0.173 A 
ATOM     83  C   UNL A   1      39.790  24.995  26.813  1.00  0.00     0.173 A 
ATOM     84  F   UNL A   1      42.088  23.186  28.969  1.00  0.00    -0.203 F 
ATOM     85  C   UNL A   1      40.370  22.391  27.564  1.00  0.00     0.198 A 
ATOM     86  C   UNL A   1      39.046  23.938  26.296  1.00  0.00     0.198 A 
ATOM     87  F   UNL A   1      39.496  26.242  26.419  1.00  0.00    -0.203 F 
ATOM     88  F   UNL A   1      40.680  21.131  27.899  1.00  0.00    -0.200 F 
ATOM     89  C   UNL A   1      39.341  22.636  26.668  1.00  0.00     0.200 A 
ATOM     90  F   UNL A   1      38.045  24.182  25.439  1.00  0.00    -0.200 F 
ATOM     91  F   UNL A   1      38.639  21.617  26.154  1.00  0.00    -0.200 F 
ENDBRANCH  57  81
BRANCH  69  92
ATOM     92  C   UNL A   1      47.213  27.308  26.627  1.00  0.00     0.064 A 
ATOM     93  C   UNL A   1      47.290  27.755  25.299  1.00  0.00     0.173 A 
ATOM     94  C   UNL A   1      48.235  26.470  27.097  1.00  0.00     0.173 A 
ATOM     95  F   UNL A   1      46.329  28.545  24.797  1.00  0.00    -0.203 F 
ATOM     96  C   UNL A   1      48.335  27.357  24.470  1.00  0.00     0.198 A 
ATOM     97  C   UNL A   1      49.293  26.097  26.274  1.00  0.00     0.198 A 
ATOM     98  F   UNL A   1      48.212  26.020  28.361  1.00  0.00    -0.203 F 
ATOM     99  F   UNL A   1      48.362  27.756  23.191  1.00  0.00    -0.200 F 
ATOM    100  C   UNL A   1      49.338  26.535  24.960  1.00  0.00     0.200 A 
ATOM    101  F   UNL A   1      50.269  25.313  26.753  1.00  0.00    -0.200 F 
ATOM    102  F   UNL A   1      50.346  26.156  24.160  1.00  0.00    -0.200 F 
ENDBRANCH  69  92
ENDBRANCH  43  44
ENDBRANCH  36  38
ENDBRANCH  35  36
ENDBRANCH  34  35
ENDBRANCH  33  34
ENDBRANCH  32  33
ENDBRANCH  31  32
ENDBRANCH   1  31
TORSDOF 21
ENDMDL
MODEL 3
REMARK VINA RESULT:     -10.4      1.145      3.713
REMARK SMILES CCc1cc(C(=O)c2[nH]c3cc(Cl)ccc3c2CC(=O)OCCOCCOCCOC(=O)c2ccc(-c3c4nc(c(-c5c(F)c(F)c(F)c(F)c5F)c5ccc([nH]5)c(-c5c(F)c(F)c(F)c(F)c5F)c5nc(c(-c6c(F)c(F)c(F)c(F)c6F)c6ccc3[nH]6)C=C5)C=C4)cc2)ncc1Cl
REMARK SMILES IDX 25 1 24 2 23 3 22 4 21 5 19 6 20 7 18 8 17 9 8 10 9 11 10 12
REMARK SMILES IDX 16 14 11 15 15 16 12 17 14 18 13 19 6 20 7 21 5 22 3 23 4 24
REMARK SMILES IDX 98 25 97 26 99 27 96 28 2 29 1 30 26 31 27 32 28 33 29 34
REMARK SMILES IDX 30 35 31 36 32 37 33 38 34 39 95 40 35 41 94 42 36 43 37 44
REMARK SMILES IDX 38 45 88 46 39 47 93 48 87 49 89 50 40 51 92 52 86 53 85 54
REMARK SMILES IDX 41 56 73 57 53 58 72 59 54 60 57 61 71 62 90 63 55 64 56 65
REMARK SMILES IDX 70 67 91 68 58 69 42 70 43 71 51 72 44 73 45 74 49 75 52 76
REMARK SMILES IDX 46 77 47 78 50 79 48 80 74 81 75 82 83 83 76 84 77 85 81 86
REMARK SMILES IDX 84 87 78 88 79 89 82 90 80 91 59 92 60 93 68 94 61 95 62 96
REMARK SMILES IDX 66 97 69 98 63 99 64 100 67 101 65 102
REMARK H PARENT 9 13 89 55 57 66
REMARK Flexibility Score: inf
ROOT
ATOM      1  C   UNL A   1      34.545  31.174  28.320  1.00  0.00     0.188 C 
ENDROOT
BRANCH   1   2
ATOM      2  O   UNL A   1      33.898  30.307  27.395  1.00  0.00    -0.376 OA
BRANCH   2   3
ATOM      3  C   UNL A   1      34.523  29.063  27.108  1.00  0.00     0.202 C 
BRANCH   3   4
ATOM      4  C   UNL A   1      33.980  28.330  25.880  1.00  0.00     0.261 C 
BRANCH   4   5
ATOM      5  O   UNL A   1      32.533  28.283  25.853  1.00  0.00    -0.463 OA
BRANCH   5   6
ATOM      6  C   UNL A   1      31.962  27.432  26.740  1.00  0.00     0.310 C 
ATOM      7  O   UNL A   1      31.585  27.778  27.860  1.00  0.00    -0.252 OA
BRANCH   6   8
ATOM      8  C   UNL A   1      31.815  25.987  26.306  1.00  0.00     0.161 C 
BRANCH   8   9
ATOM      9  C   UNL A   1      32.541  25.448  25.093  1.00  0.00     0.000 A 
ATOM     10  C   UNL A   1      32.014  25.209  23.817  1.00  0.00     0.093 A 
ATOM     11  N   UNL A   1      33.040  24.721  23.040  1.00  0.00    -0.351 N 
ATOM     12  C   UNL A   1      34.080  24.316  23.836  1.00  0.00     0.048 A 
ATOM     13  H   UNL A   1      33.028  24.671  22.057  1.00  0.00     0.167 HD
ATOM     14  C   UNL A   1      33.819  24.791  25.120  1.00  0.00     0.004 A 
ATOM     15  C   UNL A   1      35.207  23.548  23.516  1.00  0.00     0.047 A 
ATOM     16  C   UNL A   1      34.738  24.482  26.145  1.00  0.00     0.012 A 
ATOM     17  C   UNL A   1      36.065  23.209  24.564  1.00  0.00     0.043 A 
ATOM     18  C   UNL A   1      35.843  23.669  25.858  1.00  0.00     0.021 A 
ATOM     19  Cl  UNL A   1      37.403  22.171  24.249  1.00  0.00    -0.084 Cl
BRANCH  10  20
ATOM     20  C   UNL A   1      30.661  25.430  23.341  1.00  0.00     0.227 C 
ATOM     21  O   UNL A   1      29.876  24.505  23.140  1.00  0.00    -0.285 OA
BRANCH  20  22
ATOM     22  C   UNL A   1      30.182  26.816  23.043  1.00  0.00     0.113 A 
ATOM     23  C   UNL A   1      28.524  28.567  23.255  1.00  0.00    -0.026 A 
ATOM     24  C   UNL A   1      28.853  27.191  23.232  1.00  0.00     0.037 A 
ATOM     25  C   UNL A   1      29.571  29.492  23.137  1.00  0.00     0.062 A 
ATOM     26  C   UNL A   1      30.842  29.016  22.856  1.00  0.00     0.132 A 
ATOM     27  Cl  UNL A   1      29.392  31.182  23.410  1.00  0.00    -0.082 Cl
ATOM     28  N   UNL A   1      31.163  27.705  22.779  1.00  0.00    -0.251 NA
BRANCH  23  29
ATOM     29  C   UNL A   1      27.084  28.976  23.484  1.00  0.00     0.034 C 
ATOM     30  C   UNL A   1      26.155  27.829  23.877  1.00  0.00     0.009 C 
ENDBRANCH  23  29
ENDBRANCH  20  22
ENDBRANCH  10  20
ENDBRANCH   8   9
ENDBRANCH   6   8
ENDBRANCH   5   6
ENDBRANCH   4   5
ENDBRANCH   3   4
ENDBRANCH   2   3
ENDBRANCH   1   2
BRANCH   1  31
ATOM     31  C   UNL A   1      34.691  32.662  27.948  1.00  0.00     0.188 C 
BRANCH  31  32
ATOM     32  O   UNL A   1      34.959  33.602  28.982  1.00  0.00    -0.376 OA
BRANCH  32  33
ATOM     33  C   UNL A   1      34.643  34.965  28.720  1.00  0.00     0.202 C 
BRANCH  33  34
ATOM     34  C   UNL A   1      33.152  35.268  28.784  1.00  0.00     0.261 C 
BRANCH  34  35
ATOM     35  O   UNL A   1      32.622  34.852  30.056  1.00  0.00    -0.460 OA
BRANCH  35  36
ATOM     36  C   UNL A   1      32.891  35.696  31.074  1.00  0.00     0.338 C 
ATOM     37  O   UNL A   1      32.463  36.826  31.231  1.00  0.00    -0.246 OA
BRANCH  36  38
ATOM     38  C   UNL A   1      33.818  35.072  32.035  1.00  0.00     0.060 A 
ATOM     39  C   UNL A   1      34.986  35.732  32.403  1.00  0.00     0.016 A 
ATOM     40  C   UNL A   1      33.653  33.727  32.349  1.00  0.00     0.016 A 
ATOM     41  C   UNL A   1      36.062  35.011  32.923  1.00  0.00     0.010 A 
ATOM     42  C   UNL A   1      34.694  33.027  32.967  1.00  0.00     0.010 A 
ATOM     43  C   UNL A   1      35.942  33.640  33.182  1.00  0.00    -0.014 A 
BRANCH  43  44
ATOM     44  C   UNL A   1      37.130  32.823  33.564  1.00  0.00     0.031 A 
ATOM     45  C   UNL A   1      37.812  33.053  34.894  1.00  0.00     0.074 A 
ATOM     46  C   UNL A   1      37.590  31.846  32.758  1.00  0.00     0.049 A 
ATOM     47  N   UNL A   1      38.934  32.554  35.354  1.00  0.00    -0.248 NA
ATOM     48  C   UNL A   1      37.134  33.954  35.839  1.00  0.00     0.031 C 
ATOM     49  C   UNL A   1      36.983  31.433  31.493  1.00  0.00     0.029 A 
ATOM     50  N   UNL A   1      38.688  31.028  32.882  1.00  0.00    -0.354 N 
ATOM     51  C   UNL A   1      39.093  33.084  36.630  1.00  0.00     0.074 A 
ATOM     52  C   UNL A   1      37.971  33.963  36.866  1.00  0.00     0.031 C 
ATOM     53  C   UNL A   1      37.711  30.441  30.960  1.00  0.00     0.029 A 
ATOM     54  C   UNL A   1      38.888  30.216  31.793  1.00  0.00     0.049 A 
ATOM     55  H   UNL A   1      39.273  31.024  33.674  1.00  0.00     0.167 HD
ATOM     56  C   UNL A   1      40.084  32.860  37.527  1.00  0.00     0.037 A 
ATOM     57  C   UNL A   1      39.930  29.430  31.460  1.00  0.00     0.037 A 
ATOM     58  C   UNL A   1      41.222  32.012  37.288  1.00  0.00     0.049 A 
ATOM     59  C   UNL A   1      41.114  29.349  32.383  1.00  0.00     0.074 A 
ATOM     60  C   UNL A   1      42.302  31.759  38.115  1.00  0.00     0.029 A 
ATOM     61  N   UNL A   1      41.431  31.289  36.124  1.00  0.00    -0.354 N 
ATOM     62  N   UNL A   1      41.281  29.886  33.566  1.00  0.00    -0.248 NA
ATOM     63  C   UNL A   1      42.267  28.570  31.911  1.00  0.00     0.031 C 
ATOM     64  C   UNL A   1      43.197  30.934  37.425  1.00  0.00     0.029 A 
ATOM     65  C   UNL A   1      42.647  30.626  36.191  1.00  0.00     0.049 A 
ATOM     66  H   UNL A   1      40.809  31.251  35.362  1.00  0.00     0.167 HD
ATOM     67  C   UNL A   1      42.545  29.497  33.988  1.00  0.00     0.074 A 
ATOM     68  C   UNL A   1      43.098  28.666  32.939  1.00  0.00     0.031 C 
ATOM     69  C   UNL A   1      43.189  29.803  35.142  1.00  0.00     0.037 A 
BRANCH  56  70
ATOM     70  C   UNL A   1      40.008  33.588  38.836  1.00  0.00     0.064 A 
ATOM     71  C   UNL A   1      40.707  34.784  39.057  1.00  0.00     0.173 A 
ATOM     72  C   UNL A   1      39.203  33.095  39.875  1.00  0.00     0.173 A 
ATOM     73  F   UNL A   1      41.499  35.290  38.100  1.00  0.00    -0.203 F 
ATOM     74  C   UNL A   1      40.618  35.450  40.278  1.00  0.00     0.198 A 
ATOM     75  C   UNL A   1      39.099  33.776  41.085  1.00  0.00     0.198 A 
ATOM     76  F   UNL A   1      38.513  31.958  39.712  1.00  0.00    -0.203 F 
ATOM     77  F   UNL A   1      41.322  36.572  40.482  1.00  0.00    -0.200 F 
ATOM     78  C   UNL A   1      39.811  34.948  41.288  1.00  0.00     0.200 A 
ATOM     79  F   UNL A   1      38.311  33.294  42.057  1.00  0.00    -0.200 F 
ATOM     80  F   UNL A   1      39.722  35.591  42.461  1.00  0.00    -0.200 F 
ENDBRANCH  56  70
BRANCH  57  81
ATOM     81  C   UNL A   1      39.932  28.728  30.150  1.00  0.00     0.064 A 
ATOM     82  C   UNL A   1      40.480  29.321  29.006  1.00  0.00     0.173 A 
ATOM     83  C   UNL A   1      39.383  27.441  30.019  1.00  0.00     0.173 A 
ATOM     84  F   UNL A   1      40.985  30.562  29.072  1.00  0.00    -0.203 F 
ATOM     85  C   UNL A   1      40.477  28.656  27.781  1.00  0.00     0.198 A 
ATOM     86  C   UNL A   1      39.412  26.765  28.802  1.00  0.00     0.198 A 
ATOM     87  F   UNL A   1      38.834  26.833  31.080  1.00  0.00    -0.203 F 
ATOM     88  F   UNL A   1      40.970  29.263  26.692  1.00  0.00    -0.200 F 
ATOM     89  C   UNL A   1      39.954  27.375  27.683  1.00  0.00     0.200 A 
ATOM     90  F   UNL A   1      38.916  25.523  28.717  1.00  0.00    -0.200 F 
ATOM     91  F   UNL A   1      39.963  26.734  26.507  1.00  0.00    -0.200 F 
ENDBRANCH  57  81
BRANCH  69  92
ATOM     92  C   UNL A   1      44.552  29.211  35.345  1.00  0.00     0.064 A 
ATOM     93  C   UNL A   1      45.714  29.895  34.958  1.00  0.00     0.173 A 
ATOM     94  C   UNL A   1      44.700  27.960  35.963  1.00  0.00     0.173 A 
ATOM     95  F   UNL A   1      45.626  31.086  34.349  1.00  0.00    -0.203 F 
ATOM     96  C   UNL A   1      46.973  29.334  35.160  1.00  0.00     0.198 A 
ATOM     97  C   UNL A   1      45.960  27.417  36.189  1.00  0.00     0.198 A 
ATOM     98  F   UNL A   1      43.619  27.269  36.356  1.00  0.00    -0.203 F 
ATOM     99  F   UNL A   1      48.068  29.982  34.739  1.00  0.00    -0.200 F 
ATOM    100  C   UNL A   1      47.095  28.100  35.781  1.00  0.00     0.200 A 
ATOM    101  F   UNL A   1      46.077  26.230  36.800  1.00  0.00    -0.200 F 
ATOM    102  F   UNL A   1      48.308  27.565  35.978  1.00  0.00    -0.200 F 
ENDBRANCH  69  92
ENDBRANCH  43  44
ENDBRANCH  36  38
ENDBRANCH  35  36
ENDBRANCH  34  35
ENDBRANCH  33  34
ENDBRANCH  32  33
ENDBRANCH  31  32
ENDBRANCH   1  31
TORSDOF 21
ENDMDL
