MODEL 1
REMARK VINA RESULT:     -10.7      0.000      0.000
REMARK SMILES CC[C@@H]1SC[C@H](C(=O)OCCOCCOCCOC(=O)c2ccc(-c3c4nc(c(-c5c(F)c(F)c(F)c(F)c5F)c5ccc([nH]5)c(-c5c(F)c(F)c(F)c(F)c5F)c5nc(c(-c6c(F)c(F)c(F)c(F)c6F)c6ccc3[nH]6)C=C5)C=C4)cc2)N1C(=O)c1ccc(C)cc1F
REMARK SMILES IDX 13 1 12 2 11 3 10 4 9 5 7 6 8 7 6 8 3 9 4 10 84 11 5 12 2 13
REMARK SMILES IDX 1 14 85 15 86 16 87 17 88 18 93 19 89 20 92 21 94 22 90 23
REMARK SMILES IDX 91 24 14 25 15 26 16 27 17 28 18 29 19 30 20 31 21 32 22 33
REMARK SMILES IDX 83 34 23 35 82 36 24 37 25 38 26 39 76 40 27 41 81 42 75 43
REMARK SMILES IDX 77 44 28 45 80 46 74 47 73 48 29 50 61 51 41 52 60 53 42 54
REMARK SMILES IDX 45 55 59 56 78 57 43 58 44 59 58 61 79 62 46 63 30 64 31 65
REMARK SMILES IDX 39 66 32 67 33 68 37 69 40 70 34 71 35 72 38 73 36 74 62 75
REMARK SMILES IDX 63 76 71 77 64 78 65 79 69 80 72 81 66 82 67 83 70 84 68 85
REMARK SMILES IDX 47 86 48 87 56 88 49 89 50 90 54 91 57 92 51 93 52 94 55 95
REMARK SMILES IDX 53 96
REMARK H PARENT 77 49 45 60
REMARK Flexibility Score: inf
ROOT
ATOM      1  C   UNL A   1      34.771  31.616  28.484  1.00  0.00     0.188 C 
ENDROOT
BRANCH   1   2
ATOM      2  O   UNL A   1      34.156  31.369  27.228  1.00  0.00    -0.376 OA
BRANCH   2   3
ATOM      3  C   UNL A   1      33.192  30.340  27.100  1.00  0.00     0.202 C 
BRANCH   3   4
ATOM      4  C   UNL A   1      33.596  28.885  27.349  1.00  0.00     0.261 C 
BRANCH   4   5
ATOM      5  O   UNL A   1      32.990  27.897  26.509  1.00  0.00    -0.462 OA
BRANCH   5   6
ATOM      6  C   UNL A   1      31.749  27.484  26.893  1.00  0.00     0.329 C 
ATOM      7  O   UNL A   1      31.218  27.765  27.964  1.00  0.00    -0.250 OA
BRANCH   6   8
ATOM      8  C   UNL A   1      31.005  26.716  25.791  1.00  0.00     0.206 C 
ATOM      9  C   UNL A   1      31.137  25.167  23.924  1.00  0.00     0.144 C 
ATOM     10  S   UNL A   1      30.921  26.782  23.103  1.00  0.00    -0.134 SA
ATOM     11  N   UNL A   1      31.649  25.499  25.258  1.00  0.00    -0.312 N 
ATOM     12  C   UNL A   1      30.662  27.676  24.650  1.00  0.00     0.109 C 
BRANCH   9  13
ATOM     13  C   UNL A   1      31.866  24.206  22.978  1.00  0.00     0.033 C 
ATOM     14  C   UNL A   1      32.680  24.939  21.911  1.00  0.00     0.007 C 
ENDBRANCH   9  13
BRANCH  11  15
ATOM     15  C   UNL A   1      31.995  24.581  26.260  1.00  0.00     0.258 C 
ATOM     16  O   UNL A   1      31.289  24.387  27.251  1.00  0.00    -0.269 OA
BRANCH  15  17
ATOM     17  C   UNL A   1      33.185  23.744  26.161  1.00  0.00     0.075 A 
ATOM     18  C   UNL A   1      33.029  22.380  26.411  1.00  0.00     0.017 A 
ATOM     19  C   UNL A   1      34.434  24.266  25.842  1.00  0.00     0.136 A 
ATOM     20  C   UNL A   1      34.099  21.518  26.197  1.00  0.00     0.004 A 
ATOM     21  C   UNL A   1      35.505  23.404  25.611  1.00  0.00     0.043 A 
ATOM     22  F   UNL A   1      34.604  25.580  25.642  1.00  0.00    -0.206 F 
ATOM     23  C   UNL A   1      35.326  22.018  25.738  1.00  0.00    -0.048 A 
ATOM     24  C   UNL A   1      36.421  21.059  25.380  1.00  0.00     0.044 C 
ENDBRANCH  15  17
ENDBRANCH  11  15
ENDBRANCH   6   8
ENDBRANCH   5   6
ENDBRANCH   4   5
ENDBRANCH   3   4
ENDBRANCH   2   3
ENDBRANCH   1   2
BRANCH   1  25
ATOM     25  C   UNL A   1      34.465  32.898  29.290  1.00  0.00     0.188 C 
BRANCH  25  26
ATOM     26  O   UNL A   1      33.762  33.876  28.568  1.00  0.00    -0.376 OA
BRANCH  26  27
ATOM     27  C   UNL A   1      33.948  35.247  28.850  1.00  0.00     0.202 C 
BRANCH  27  28
ATOM     28  C   UNL A   1      32.901  36.164  29.514  1.00  0.00     0.261 C 
BRANCH  28  29
ATOM     29  O   UNL A   1      33.107  36.587  30.865  1.00  0.00    -0.460 OA
BRANCH  29  30
ATOM     30  C   UNL A   1      32.665  35.764  31.842  1.00  0.00     0.338 C 
ATOM     31  O   UNL A   1      31.503  35.537  32.149  1.00  0.00    -0.246 OA
BRANCH  30  32
ATOM     32  C   UNL A   1      33.818  35.037  32.415  1.00  0.00     0.060 A 
ATOM     33  C   UNL A   1      35.089  35.630  32.377  1.00  0.00     0.016 A 
ATOM     34  C   UNL A   1      33.648  33.772  32.979  1.00  0.00     0.016 A 
ATOM     35  C   UNL A   1      36.199  34.944  32.883  1.00  0.00     0.010 A 
ATOM     36  C   UNL A   1      34.762  33.078  33.462  1.00  0.00     0.010 A 
ATOM     37  C   UNL A   1      36.049  33.646  33.392  1.00  0.00    -0.014 A 
BRANCH  37  38
ATOM     38  C   UNL A   1      37.237  32.794  33.663  1.00  0.00     0.031 A 
ATOM     39  C   UNL A   1      38.007  33.036  34.935  1.00  0.00     0.074 A 
ATOM     40  C   UNL A   1      37.640  31.835  32.810  1.00  0.00     0.049 A 
ATOM     41  N   UNL A   1      39.145  32.528  35.333  1.00  0.00    -0.248 NA
ATOM     42  C   UNL A   1      37.408  33.987  35.885  1.00  0.00     0.031 C 
ATOM     43  C   UNL A   1      36.959  31.456  31.575  1.00  0.00     0.029 A 
ATOM     44  N   UNL A   1      38.744  31.015  32.850  1.00  0.00    -0.354 N 
ATOM     45  C   UNL A   1      39.398  33.098  36.575  1.00  0.00     0.074 A 
ATOM     46  C   UNL A   1      38.316  34.020  36.848  1.00  0.00     0.031 C 
ATOM     47  C   UNL A   1      37.672  30.493  30.961  1.00  0.00     0.029 A 
ATOM     48  C   UNL A   1      38.880  30.219  31.738  1.00  0.00     0.049 A 
ATOM     49  H   UNL A   1      39.377  31.001  33.604  1.00  0.00     0.167 HD
ATOM     50  C   UNL A   1      40.431  32.868  37.419  1.00  0.00     0.037 A 
ATOM     51  C   UNL A   1      39.884  29.393  31.378  1.00  0.00     0.037 A 
ATOM     52  C   UNL A   1      41.516  31.964  37.145  1.00  0.00     0.049 A 
ATOM     53  C   UNL A   1      41.085  29.243  32.284  1.00  0.00     0.074 A 
ATOM     54  C   UNL A   1      42.625  31.683  37.925  1.00  0.00     0.029 A 
ATOM     55  N   UNL A   1      41.629  31.194  35.997  1.00  0.00    -0.354 N 
ATOM     56  N   UNL A   1      41.317  29.782  33.456  1.00  0.00    -0.248 NA
ATOM     57  C   UNL A   1      42.168  28.364  31.812  1.00  0.00     0.031 C 
ATOM     58  C   UNL A   1      43.431  30.778  37.228  1.00  0.00     0.029 A 
ATOM     59  C   UNL A   1      42.795  30.447  36.043  1.00  0.00     0.049 A 
ATOM     60  H   UNL A   1      40.978  31.181  35.258  1.00  0.00     0.167 HD
ATOM     61  C   UNL A   1      42.539  29.270  33.881  1.00  0.00     0.074 A 
ATOM     62  C   UNL A   1      42.999  28.372  32.844  1.00  0.00     0.031 C 
ATOM     63  C   UNL A   1      43.221  29.523  35.026  1.00  0.00     0.037 A 
BRANCH  50  64
ATOM     64  C   UNL A   1      40.445  33.614  38.720  1.00  0.00     0.064 A 
ATOM     65  C   UNL A   1      39.682  33.186  39.817  1.00  0.00     0.173 A 
ATOM     66  C   UNL A   1      41.268  34.737  38.893  1.00  0.00     0.173 A 
ATOM     67  F   UNL A   1      38.868  32.126  39.701  1.00  0.00    -0.203 F 
ATOM     68  C   UNL A   1      39.728  33.866  41.031  1.00  0.00     0.198 A 
ATOM     69  C   UNL A   1      41.336  35.395  40.117  1.00  0.00     0.198 A 
ATOM     70  F   UNL A   1      42.022  35.186  37.877  1.00  0.00    -0.203 F 
ATOM     71  F   UNL A   1      38.959  33.463  42.053  1.00  0.00    -0.200 F 
ATOM     72  C   UNL A   1      40.563  34.963  41.183  1.00  0.00     0.200 A 
ATOM     73  F   UNL A   1      42.155  36.446  40.267  1.00  0.00    -0.200 F 
ATOM     74  F   UNL A   1      40.617  35.607  42.357  1.00  0.00    -0.200 F 
ENDBRANCH  50  64
BRANCH  51  75
ATOM     75  C   UNL A   1      39.836  28.653  30.084  1.00  0.00     0.064 A 
ATOM     76  C   UNL A   1      39.291  27.363  30.007  1.00  0.00     0.173 A 
ATOM     77  C   UNL A   1      40.413  29.181  28.918  1.00  0.00     0.173 A 
ATOM     78  F   UNL A   1      38.755  26.798  31.101  1.00  0.00    -0.203 F 
ATOM     79  C   UNL A   1      39.360  26.615  28.833  1.00  0.00     0.198 A 
ATOM     80  C   UNL A   1      40.448  28.448  27.734  1.00  0.00     0.198 A 
ATOM     81  F   UNL A   1      40.959  30.407  28.933  1.00  0.00    -0.203 F 
ATOM     82  F   UNL A   1      38.904  25.356  28.816  1.00  0.00    -0.200 F 
ATOM     83  C   UNL A   1      39.937  27.160  27.696  1.00  0.00     0.200 A 
ATOM     84  F   UNL A   1      41.000  28.981  26.635  1.00  0.00    -0.200 F 
ATOM     85  F   UNL A   1      40.018  26.436  26.572  1.00  0.00    -0.200 F 
ENDBRANCH  51  75
BRANCH  63  86
ATOM     86  C   UNL A   1      44.493  28.759  35.267  1.00  0.00     0.064 A 
ATOM     87  C   UNL A   1      44.506  27.517  35.918  1.00  0.00     0.173 A 
ATOM     88  C   UNL A   1      45.714  29.259  34.784  1.00  0.00     0.173 A 
ATOM     89  F   UNL A   1      43.371  27.000  36.409  1.00  0.00    -0.203 F 
ATOM     90  C   UNL A   1      45.697  26.818  36.101  1.00  0.00     0.198 A 
ATOM     91  C   UNL A   1      46.897  28.540  34.937  1.00  0.00     0.198 A 
ATOM     92  F   UNL A   1      45.758  30.437  34.144  1.00  0.00    -0.203 F 
ATOM     93  F   UNL A   1      45.693  25.656  36.770  1.00  0.00    -0.200 F 
ATOM     94  C   UNL A   1      46.889  27.324  35.603  1.00  0.00     0.200 A 
ATOM     95  F   UNL A   1      48.042  29.023  34.438  1.00  0.00    -0.200 F 
ATOM     96  F   UNL A   1      48.030  26.643  35.768  1.00  0.00    -0.200 F 
ENDBRANCH  63  86
ENDBRANCH  37  38
ENDBRANCH  30  32
ENDBRANCH  29  30
ENDBRANCH  28  29
ENDBRANCH  27  28
ENDBRANCH  26  27
ENDBRANCH  25  26
ENDBRANCH   1  25
TORSDOF 20
ENDMDL
MODEL 2
REMARK VINA RESULT:     -10.4      5.056      7.301
REMARK SMILES CC[C@@H]1SC[C@H](C(=O)OCCOCCOCCOC(=O)c2ccc(-c3c4nc(c(-c5c(F)c(F)c(F)c(F)c5F)c5ccc([nH]5)c(-c5c(F)c(F)c(F)c(F)c5F)c5nc(c(-c6c(F)c(F)c(F)c(F)c6F)c6ccc3[nH]6)C=C5)C=C4)cc2)N1C(=O)c1ccc(C)cc1F
REMARK SMILES IDX 13 1 12 2 11 3 10 4 9 5 7 6 8 7 6 8 3 9 4 10 84 11 5 12 2 13
REMARK SMILES IDX 1 14 85 15 86 16 87 17 88 18 93 19 89 20 92 21 94 22 90 23
REMARK SMILES IDX 91 24 14 25 15 26 16 27 17 28 18 29 19 30 20 31 21 32 22 33
REMARK SMILES IDX 83 34 23 35 82 36 24 37 25 38 26 39 76 40 27 41 81 42 75 43
REMARK SMILES IDX 77 44 28 45 80 46 74 47 73 48 29 50 61 51 41 52 60 53 42 54
REMARK SMILES IDX 45 55 59 56 78 57 43 58 44 59 58 61 79 62 46 63 30 64 31 65
REMARK SMILES IDX 39 66 32 67 33 68 37 69 40 70 34 71 35 72 38 73 36 74 62 75
REMARK SMILES IDX 63 76 71 77 64 78 65 79 69 80 72 81 66 82 67 83 70 84 68 85
REMARK SMILES IDX 47 86 48 87 56 88 49 89 50 90 54 91 57 92 51 93 52 94 55 95
REMARK SMILES IDX 53 96
REMARK H PARENT 77 49 45 60
REMARK Flexibility Score: inf
ROOT
ATOM      1  C   UNL A   1      34.471  31.477  27.665  1.00  0.00     0.188 C 
ENDROOT
BRANCH   1   2
ATOM      2  O   UNL A   1      33.837  30.218  27.494  1.00  0.00    -0.376 OA
BRANCH   2   3
ATOM      3  C   UNL A   1      32.516  30.152  26.990  1.00  0.00     0.202 C 
BRANCH   3   4
ATOM      4  C   UNL A   1      31.798  28.802  26.916  1.00  0.00     0.261 C 
BRANCH   4   5
ATOM      5  O   UNL A   1      32.611  27.656  26.637  1.00  0.00    -0.462 OA
BRANCH   5   6
ATOM      6  C   UNL A   1      33.059  27.555  25.355  1.00  0.00     0.329 C 
ATOM      7  O   UNL A   1      34.023  28.163  24.899  1.00  0.00    -0.250 OA
BRANCH   6   8
ATOM      8  C   UNL A   1      32.305  26.494  24.539  1.00  0.00     0.206 C 
ATOM      9  C   UNL A   1      32.406  24.751  22.849  1.00  0.00     0.144 C 
ATOM     10  S   UNL A   1      31.642  26.147  21.955  1.00  0.00    -0.134 SA
ATOM     11  N   UNL A   1      33.093  25.376  23.985  1.00  0.00    -0.312 N 
ATOM     12  C   UNL A   1      31.509  27.182  23.428  1.00  0.00     0.109 C 
BRANCH   9  13
ATOM     13  C   UNL A   1      33.127  23.839  21.852  1.00  0.00     0.033 C 
ATOM     14  C   UNL A   1      32.596  22.405  21.880  1.00  0.00     0.007 C 
ENDBRANCH   9  13
BRANCH  11  15
ATOM     15  C   UNL A   1      33.852  24.708  24.957  1.00  0.00     0.258 C 
ATOM     16  O   UNL A   1      34.629  25.298  25.710  1.00  0.00    -0.269 OA
BRANCH  15  17
ATOM     17  C   UNL A   1      33.721  23.274  25.185  1.00  0.00     0.075 A 
ATOM     18  C   UNL A   1      32.570  22.834  25.841  1.00  0.00     0.017 A 
ATOM     19  C   UNL A   1      34.696  22.367  24.781  1.00  0.00     0.136 A 
ATOM     20  C   UNL A   1      32.331  21.469  25.961  1.00  0.00     0.004 A 
ATOM     21  C   UNL A   1      34.451  20.999  24.886  1.00  0.00     0.043 A 
ATOM     22  F   UNL A   1      35.824  22.782  24.189  1.00  0.00    -0.206 F 
ATOM     23  C   UNL A   1      33.241  20.544  25.431  1.00  0.00    -0.048 A 
ATOM     24  C   UNL A   1      32.896  19.086  25.445  1.00  0.00     0.044 C 
ENDBRANCH  15  17
ENDBRANCH  11  15
ENDBRANCH   6   8
ENDBRANCH   5   6
ENDBRANCH   4   5
ENDBRANCH   3   4
ENDBRANCH   2   3
ENDBRANCH   1   2
BRANCH   1  25
ATOM     25  C   UNL A   1      33.713  32.684  28.260  1.00  0.00     0.188 C 
BRANCH  25  26
ATOM     26  O   UNL A   1      34.545  33.730  28.690  1.00  0.00    -0.376 OA
BRANCH  26  27
ATOM     27  C   UNL A   1      34.214  34.485  29.837  1.00  0.00     0.202 C 
BRANCH  27  28
ATOM     28  C   UNL A   1      34.222  33.947  31.282  1.00  0.00     0.261 C 
BRANCH  28  29
ATOM     29  O   UNL A   1      34.538  32.570  31.507  1.00  0.00    -0.460 OA
BRANCH  29  30
ATOM     30  C   UNL A   1      35.494  32.299  32.423  1.00  0.00     0.338 C 
ATOM     31  O   UNL A   1      35.459  32.538  33.623  1.00  0.00    -0.246 OA
BRANCH  30  32
ATOM     32  C   UNL A   1      36.568  31.514  31.778  1.00  0.00     0.060 A 
ATOM     33  C   UNL A   1      37.432  30.748  32.576  1.00  0.00     0.016 A 
ATOM     34  C   UNL A   1      36.727  31.539  30.391  1.00  0.00     0.016 A 
ATOM     35  C   UNL A   1      38.476  30.026  31.986  1.00  0.00     0.010 A 
ATOM     36  C   UNL A   1      37.786  30.835  29.807  1.00  0.00     0.010 A 
ATOM     37  C   UNL A   1      38.684  30.097  30.602  1.00  0.00    -0.014 A 
BRANCH  37  38
ATOM     38  C   UNL A   1      39.940  29.583  29.995  1.00  0.00     0.031 A 
ATOM     39  C   UNL A   1      41.090  30.541  29.828  1.00  0.00     0.074 A 
ATOM     40  C   UNL A   1      40.069  28.307  29.587  1.00  0.00     0.049 A 
ATOM     41  N   UNL A   1      42.231  30.379  29.208  1.00  0.00    -0.248 NA
ATOM     42  C   UNL A   1      40.924  31.867  30.444  1.00  0.00     0.031 C 
ATOM     43  C   UNL A   1      39.060  27.262  29.740  1.00  0.00     0.029 A 
ATOM     44  N   UNL A   1      41.107  27.680  28.939  1.00  0.00    -0.354 N 
ATOM     45  C   UNL A   1      42.915  31.579  29.358  1.00  0.00     0.074 A 
ATOM     46  C   UNL A   1      42.047  32.474  30.093  1.00  0.00     0.031 C 
ATOM     47  C   UNL A   1      39.519  26.128  29.178  1.00  0.00     0.029 A 
ATOM     48  C   UNL A   1      40.835  26.379  28.591  1.00  0.00     0.049 A 
ATOM     49  H   UNL A   1      41.964  28.123  28.742  1.00  0.00     0.167 HD
ATOM     50  C   UNL A   1      44.159  31.904  28.933  1.00  0.00     0.037 A 
ATOM     51  C   UNL A   1      41.553  25.508  27.852  1.00  0.00     0.037 A 
ATOM     52  C   UNL A   1      45.018  31.023  28.188  1.00  0.00     0.049 A 
ATOM     53  C   UNL A   1      42.890  25.936  27.288  1.00  0.00     0.074 A 
ATOM     54  C   UNL A   1      46.285  31.270  27.688  1.00  0.00     0.029 A 
ATOM     55  N   UNL A   1      44.695  29.721  27.836  1.00  0.00    -0.354 N 
ATOM     56  N   UNL A   1      43.531  27.070  27.435  1.00  0.00    -0.248 NA
ATOM     57  C   UNL A   1      43.602  24.958  26.451  1.00  0.00     0.031 C 
ATOM     58  C   UNL A   1      46.710  30.134  26.994  1.00  0.00     0.029 A 
ATOM     59  C   UNL A   1      45.736  29.157  27.115  1.00  0.00     0.049 A 
ATOM     60  H   UNL A   1      43.853  29.265  28.063  1.00  0.00     0.167 HD
ATOM     61  C   UNL A   1      44.736  26.921  26.757  1.00  0.00     0.074 A 
ATOM     62  C   UNL A   1      44.742  25.585  26.203  1.00  0.00     0.031 C 
ATOM     63  C   UNL A   1      45.748  27.811  26.605  1.00  0.00     0.037 A 
BRANCH  50  64
ATOM     64  C   UNL A   1      44.665  33.280  29.253  1.00  0.00     0.064 A 
ATOM     65  C   UNL A   1      45.473  33.519  30.375  1.00  0.00     0.173 A 
ATOM     66  C   UNL A   1      44.384  34.362  28.405  1.00  0.00     0.173 A 
ATOM     67  F   UNL A   1      45.759  32.522  31.226  1.00  0.00    -0.203 F 
ATOM     68  C   UNL A   1      45.965  34.793  30.646  1.00  0.00     0.198 A 
ATOM     69  C   UNL A   1      44.905  35.627  28.660  1.00  0.00     0.198 A 
ATOM     70  F   UNL A   1      43.620  34.187  27.316  1.00  0.00    -0.203 F 
ATOM     71  F   UNL A   1      46.702  35.006  31.745  1.00  0.00    -0.200 F 
ATOM     72  C   UNL A   1      45.690  35.843  29.782  1.00  0.00     0.200 A 
ATOM     73  F   UNL A   1      44.650  36.637  27.817  1.00  0.00    -0.200 F 
ATOM     74  F   UNL A   1      46.177  37.065  30.036  1.00  0.00    -0.200 F 
ENDBRANCH  50  64
BRANCH  51  75
ATOM     75  C   UNL A   1      41.031  24.142  27.561  1.00  0.00     0.064 A 
ATOM     76  C   UNL A   1      41.632  23.003  28.118  1.00  0.00     0.173 A 
ATOM     77  C   UNL A   1      39.979  23.940  26.654  1.00  0.00     0.173 A 
ATOM     78  F   UNL A   1      42.662  23.139  28.967  1.00  0.00    -0.203 F 
ATOM     79  C   UNL A   1      41.233  21.720  27.749  1.00  0.00     0.198 A 
ATOM     80  C   UNL A   1      39.555  22.657  26.314  1.00  0.00     0.198 A 
ATOM     81  F   UNL A   1      39.372  24.991  26.082  1.00  0.00    -0.203 F 
ATOM     82  F   UNL A   1      41.881  20.653  28.235  1.00  0.00    -0.200 F 
ATOM     83  C   UNL A   1      40.193  21.548  26.849  1.00  0.00     0.200 A 
ATOM     84  F   UNL A   1      38.544  22.495  25.449  1.00  0.00    -0.200 F 
ATOM     85  F   UNL A   1      39.819  20.314  26.482  1.00  0.00    -0.200 F 
ENDBRANCH  51  75
BRANCH  63  86
ATOM     86  C   UNL A   1      46.985  27.351  25.885  1.00  0.00     0.064 A 
ATOM     87  C   UNL A   1      47.169  27.560  24.511  1.00  0.00     0.173 A 
ATOM     88  C   UNL A   1      48.029  26.742  26.601  1.00  0.00     0.173 A 
ATOM     89  F   UNL A   1      46.200  28.126  23.778  1.00  0.00    -0.203 F 
ATOM     90  C   UNL A   1      48.339  27.150  23.875  1.00  0.00     0.198 A 
ATOM     91  C   UNL A   1      49.212  26.366  25.969  1.00  0.00     0.198 A 
ATOM     92  F   UNL A   1      47.912  26.529  27.920  1.00  0.00    -0.203 F 
ATOM     93  F   UNL A   1      48.473  27.314  22.551  1.00  0.00    -0.200 F 
ATOM     94  C   UNL A   1      49.363  26.563  24.605  1.00  0.00     0.200 A 
ATOM     95  F   UNL A   1      50.205  25.817  26.680  1.00  0.00    -0.200 F 
ATOM     96  F   UNL A   1      50.492  26.182  23.994  1.00  0.00    -0.200 F 
ENDBRANCH  63  86
ENDBRANCH  37  38
ENDBRANCH  30  32
ENDBRANCH  29  30
ENDBRANCH  28  29
ENDBRANCH  27  28
ENDBRANCH  26  27
ENDBRANCH  25  26
ENDBRANCH   1  25
TORSDOF 20
ENDMDL
MODEL 3
REMARK VINA RESULT:     -10.3      5.133      9.494
REMARK SMILES CC[C@@H]1SC[C@H](C(=O)OCCOCCOCCOC(=O)c2ccc(-c3c4nc(c(-c5c(F)c(F)c(F)c(F)c5F)c5ccc([nH]5)c(-c5c(F)c(F)c(F)c(F)c5F)c5nc(c(-c6c(F)c(F)c(F)c(F)c6F)c6ccc3[nH]6)C=C5)C=C4)cc2)N1C(=O)c1ccc(C)cc1F
REMARK SMILES IDX 13 1 12 2 11 3 10 4 9 5 7 6 8 7 6 8 3 9 4 10 84 11 5 12 2 13
REMARK SMILES IDX 1 14 85 15 86 16 87 17 88 18 93 19 89 20 92 21 94 22 90 23
REMARK SMILES IDX 91 24 14 25 15 26 16 27 17 28 18 29 19 30 20 31 21 32 22 33
REMARK SMILES IDX 83 34 23 35 82 36 24 37 25 38 26 39 76 40 27 41 81 42 75 43
REMARK SMILES IDX 77 44 28 45 80 46 74 47 73 48 29 50 61 51 41 52 60 53 42 54
REMARK SMILES IDX 45 55 59 56 78 57 43 58 44 59 58 61 79 62 46 63 30 64 31 65
REMARK SMILES IDX 39 66 32 67 33 68 37 69 40 70 34 71 35 72 38 73 36 74 62 75
REMARK SMILES IDX 63 76 71 77 64 78 65 79 69 80 72 81 66 82 67 83 70 84 68 85
REMARK SMILES IDX 47 86 48 87 56 88 49 89 50 90 54 91 57 92 51 93 52 94 55 95
REMARK SMILES IDX 53 96
REMARK H PARENT 77 49 45 60
REMARK Flexibility Score: inf
ROOT
ATOM      1  C   UNL A   1      35.773  24.040  25.387  1.00  0.00     0.188 C 
ENDROOT
BRANCH   1   2
ATOM      2  O   UNL A   1      34.917  23.447  26.353  1.00  0.00    -0.376 OA
BRANCH   2   3
ATOM      3  C   UNL A   1      33.513  23.490  26.179  1.00  0.00     0.202 C 
BRANCH   3   4
ATOM      4  C   UNL A   1      32.786  24.837  26.201  1.00  0.00     0.261 C 
BRANCH   4   5
ATOM      5  O   UNL A   1      31.365  24.804  26.024  1.00  0.00    -0.462 OA
BRANCH   5   6
ATOM      6  C   UNL A   1      30.760  26.020  25.925  1.00  0.00     0.329 C 
ATOM      7  O   UNL A   1      30.564  26.784  26.866  1.00  0.00    -0.250 OA
BRANCH   6   8
ATOM      8  C   UNL A   1      30.445  26.416  24.475  1.00  0.00     0.206 C 
ATOM      9  C   UNL A   1      30.155  28.201  22.853  1.00  0.00     0.144 C 
ATOM     10  S   UNL A   1      28.441  27.683  23.204  1.00  0.00    -0.134 SA
ATOM     11  N   UNL A   1      30.925  27.733  24.011  1.00  0.00    -0.312 N 
ATOM     12  C   UNL A   1      28.941  26.284  24.230  1.00  0.00     0.109 C 
BRANCH   9  13
ATOM     13  C   UNL A   1      30.163  29.664  22.396  1.00  0.00     0.033 C 
ATOM     14  C   UNL A   1      28.767  30.173  22.034  1.00  0.00     0.007 C 
ENDBRANCH   9  13
BRANCH  11  15
ATOM     15  C   UNL A   1      32.300  27.917  24.215  1.00  0.00     0.258 C 
ATOM     16  O   UNL A   1      33.149  27.447  23.456  1.00  0.00    -0.269 OA
BRANCH  15  17
ATOM     17  C   UNL A   1      32.814  28.734  25.308  1.00  0.00     0.075 A 
ATOM     18  C   UNL A   1      34.021  28.337  25.887  1.00  0.00     0.017 A 
ATOM     19  C   UNL A   1      32.142  29.859  25.774  1.00  0.00     0.136 A 
ATOM     20  C   UNL A   1      34.625  29.154  26.837  1.00  0.00     0.004 A 
ATOM     21  C   UNL A   1      32.752  30.687  26.714  1.00  0.00     0.043 A 
ATOM     22  F   UNL A   1      30.963  30.224  25.254  1.00  0.00    -0.206 F 
ATOM     23  C   UNL A   1      34.023  30.364  27.211  1.00  0.00    -0.048 A 
ATOM     24  C   UNL A   1      34.757  31.295  28.128  1.00  0.00     0.044 C 
ENDBRANCH  15  17
ENDBRANCH  11  15
ENDBRANCH   6   8
ENDBRANCH   5   6
ENDBRANCH   4   5
ENDBRANCH   3   4
ENDBRANCH   2   3
ENDBRANCH   1   2
BRANCH   1  25
ATOM     25  C   UNL A   1      35.649  23.697  23.886  1.00  0.00     0.188 C 
BRANCH  25  26
ATOM     26  O   UNL A   1      36.408  22.585  23.486  1.00  0.00    -0.376 OA
BRANCH  26  27
ATOM     27  C   UNL A   1      36.307  21.361  24.183  1.00  0.00     0.202 C 
BRANCH  27  28
ATOM     28  C   UNL A   1      37.458  20.689  24.960  1.00  0.00     0.261 C 
BRANCH  28  29
ATOM     29  O   UNL A   1      38.026  21.370  26.083  1.00  0.00    -0.460 OA
BRANCH  29  30
ATOM     30  C   UNL A   1      39.344  21.181  26.316  1.00  0.00     0.338 C 
ATOM     31  O   UNL A   1      40.005  20.185  26.057  1.00  0.00    -0.246 OA
BRANCH  30  32
ATOM     32  C   UNL A   1      39.929  22.445  26.812  1.00  0.00     0.060 A 
ATOM     33  C   UNL A   1      39.428  23.666  26.337  1.00  0.00     0.016 A 
ATOM     34  C   UNL A   1      40.975  22.425  27.736  1.00  0.00     0.016 A 
ATOM     35  C   UNL A   1      39.992  24.872  26.768  1.00  0.00     0.010 A 
ATOM     36  C   UNL A   1      41.553  23.631  28.147  1.00  0.00     0.010 A 
ATOM     37  C   UNL A   1      41.085  24.861  27.645  1.00  0.00    -0.014 A 
BRANCH  37  38
ATOM     38  C   UNL A   1      41.877  26.095  27.888  1.00  0.00     0.031 A 
ATOM     39  C   UNL A   1      41.230  27.212  28.665  1.00  0.00     0.074 A 
ATOM     40  C   UNL A   1      43.134  26.241  27.430  1.00  0.00     0.049 A 
ATOM     41  N   UNL A   1      41.653  28.429  28.890  1.00  0.00    -0.248 NA
ATOM     42  C   UNL A   1      39.921  26.909  29.266  1.00  0.00     0.031 C 
ATOM     43  C   UNL A   1      43.900  25.224  26.716  1.00  0.00     0.029 A 
ATOM     44  N   UNL A   1      43.980  27.324  27.483  1.00  0.00    -0.354 N 
ATOM     45  C   UNL A   1      40.663  29.036  29.654  1.00  0.00     0.074 A 
ATOM     46  C   UNL A   1      39.602  28.067  29.822  1.00  0.00     0.031 C 
ATOM     47  C   UNL A   1      45.097  25.738  26.376  1.00  0.00     0.029 A 
ATOM     48  C   UNL A   1      45.164  27.133  26.812  1.00  0.00     0.049 A 
ATOM     49  H   UNL A   1      43.759  28.157  27.958  1.00  0.00     0.167 HD
ATOM     50  C   UNL A   1      40.645  30.283  30.180  1.00  0.00     0.037 A 
ATOM     51  C   UNL A   1      46.166  27.998  26.551  1.00  0.00     0.037 A 
ATOM     52  C   UNL A   1      41.692  31.254  30.002  1.00  0.00     0.049 A 
ATOM     53  C   UNL A   1      46.066  29.422  27.049  1.00  0.00     0.074 A 
ATOM     54  C   UNL A   1      41.753  32.555  30.472  1.00  0.00     0.029 A 
ATOM     55  N   UNL A   1      42.863  31.029  29.295  1.00  0.00    -0.354 N 
ATOM     56  N   UNL A   1      45.131  29.989  27.773  1.00  0.00    -0.248 NA
ATOM     57  C   UNL A   1      47.169  30.330  26.691  1.00  0.00     0.031 C 
ATOM     58  C   UNL A   1      42.940  33.132  30.011  1.00  0.00     0.029 A 
ATOM     59  C   UNL A   1      43.648  32.171  29.307  1.00  0.00     0.049 A 
ATOM     60  H   UNL A   1      43.102  30.184  28.850  1.00  0.00     0.167 HD
ATOM     61  C   UNL A   1      45.556  31.294  27.997  1.00  0.00     0.074 A 
ATOM     62  C   UNL A   1      46.837  31.436  27.340  1.00  0.00     0.031 C 
ATOM     63  C   UNL A   1      44.941  32.287  28.686  1.00  0.00     0.037 A 
BRANCH  50  64
ATOM     64  C   UNL A   1      39.447  30.677  30.993  1.00  0.00     0.064 A 
ATOM     65  C   UNL A   1      38.384  31.397  30.427  1.00  0.00     0.173 A 
ATOM     66  C   UNL A   1      39.334  30.287  32.337  1.00  0.00     0.173 A 
ATOM     67  F   UNL A   1      38.449  31.806  29.151  1.00  0.00    -0.203 F 
ATOM     68  C   UNL A   1      37.261  31.728  31.181  1.00  0.00     0.198 A 
ATOM     69  C   UNL A   1      38.196  30.592  33.078  1.00  0.00     0.198 A 
ATOM     70  F   UNL A   1      40.320  29.593  32.925  1.00  0.00    -0.203 F 
ATOM     71  F   UNL A   1      36.276  32.452  30.631  1.00  0.00    -0.200 F 
ATOM     72  C   UNL A   1      37.164  31.316  32.502  1.00  0.00     0.200 A 
ATOM     73  F   UNL A   1      38.097  30.180  34.349  1.00  0.00    -0.200 F 
ATOM     74  F   UNL A   1      36.076  31.623  33.222  1.00  0.00    -0.200 F 
ENDBRANCH  50  64
BRANCH  51  75
ATOM     75  C   UNL A   1      47.352  27.574  25.752  1.00  0.00     0.064 A 
ATOM     76  C   UNL A   1      48.521  27.119  26.378  1.00  0.00     0.173 A 
ATOM     77  C   UNL A   1      47.373  27.699  24.354  1.00  0.00     0.173 A 
ATOM     78  F   UNL A   1      48.565  27.011  27.715  1.00  0.00    -0.203 F 
ATOM     79  C   UNL A   1      49.675  26.845  25.646  1.00  0.00     0.198 A 
ATOM     80  C   UNL A   1      48.515  27.389  23.619  1.00  0.00     0.198 A 
ATOM     81  F   UNL A   1      46.287  28.139  23.701  1.00  0.00    -0.203 F 
ATOM     82  F   UNL A   1      50.800  26.492  26.281  1.00  0.00    -0.200 F 
ATOM     83  C   UNL A   1      49.671  26.979  24.266  1.00  0.00     0.200 A 
ATOM     84  F   UNL A   1      48.505  27.513  22.285  1.00  0.00    -0.200 F 
ATOM     85  F   UNL A   1      50.784  26.731  23.564  1.00  0.00    -0.200 F 
ENDBRANCH  51  75
BRANCH  63  86
ATOM     86  C   UNL A   1      45.673  33.591  28.842  1.00  0.00     0.064 A 
ATOM     87  C   UNL A   1      45.501  34.655  27.945  1.00  0.00     0.173 A 
ATOM     88  C   UNL A   1      46.518  33.794  29.945  1.00  0.00     0.173 A 
ATOM     89  F   UNL A   1      44.714  34.511  26.869  1.00  0.00    -0.203 F 
ATOM     90  C   UNL A   1      46.170  35.863  28.131  1.00  0.00     0.198 A 
ATOM     91  C   UNL A   1      47.157  35.015  30.147  1.00  0.00     0.198 A 
ATOM     92  F   UNL A   1      46.710  32.814  30.841  1.00  0.00    -0.203 F 
ATOM     93  F   UNL A   1      46.029  36.850  27.234  1.00  0.00    -0.200 F 
ATOM     94  C   UNL A   1      46.989  36.046  29.236  1.00  0.00     0.200 A 
ATOM     95  F   UNL A   1      47.932  35.193  31.225  1.00  0.00    -0.200 F 
ATOM     96  F   UNL A   1      47.620  37.213  29.420  1.00  0.00    -0.200 F 
ENDBRANCH  63  86
ENDBRANCH  37  38
ENDBRANCH  30  32
ENDBRANCH  29  30
ENDBRANCH  28  29
ENDBRANCH  27  28
ENDBRANCH  26  27
ENDBRANCH  25  26
ENDBRANCH   1  25
TORSDOF 20
ENDMDL
