MODEL 1
REMARK VINA RESULT:     -12.3      0.000      0.000
REMARK SMILES O=C1C[C@H](c2cn[nH]c2C(=O)OCCOCCOCCOC(=O)c2ccc(-c3c4nc(c(-c5c(F)c(F)c(F)c(F)c5F)c5ccc([nH]5)c(-c5c(F)c(F)c(F)c(F)c5F)c5nc(c(-c6c(F)c(F)c(F)c(F)c6F)c6ccc3[nH]6)C=C5)C=C4)cc2)c2c(-c3cccs3)n[nH]c2N1
REMARK SMILES IDX 16 1 15 2 14 3 13 4 12 5 10 6 11 7 9 8 5 9 6 10 7 11 8 12
REMARK SMILES IDX 4 14 1 15 2 16 3 17 97 18 96 19 87 21 95 22 88 23 94 24
REMARK SMILES IDX 89 26 90 27 93 28 91 29 92 30 17 31 18 32 19 33 20 34 21 35
REMARK SMILES IDX 22 36 23 37 24 38 25 39 86 40 26 41 85 42 27 43 28 44 29 45
REMARK SMILES IDX 79 46 30 47 84 48 78 49 80 50 31 51 83 52 77 53 76 54 32 56
REMARK SMILES IDX 64 57 44 58 63 59 45 60 48 61 62 62 81 63 46 64 47 65 61 67
REMARK SMILES IDX 82 68 49 69 33 70 34 71 42 72 35 73 36 74 40 75 43 76 37 77
REMARK SMILES IDX 38 78 41 79 39 80 65 81 66 82 74 83 67 84 68 85 72 86 75 87
REMARK SMILES IDX 69 88 70 89 73 90 71 91 50 92 51 93 59 94 52 95 53 96 57 97
REMARK SMILES IDX 60 98 54 99 55 100 58 101 56 102
REMARK H PARENT 8 13 97 20 95 25 80 55 48 66
REMARK Flexibility Score: inf
ROOT
ATOM      1  C   UNL A   1      38.043  21.258  25.650  1.00  0.00     0.188 C 
ENDROOT
BRANCH   1   2
ATOM      2  O   UNL A   1      37.413  21.551  24.422  1.00  0.00    -0.376 OA
BRANCH   2   3
ATOM      3  C   UNL A   1      36.892  22.848  24.180  1.00  0.00     0.202 C 
BRANCH   3   4
ATOM      4  C   UNL A   1      35.563  23.345  24.772  1.00  0.00     0.261 C 
BRANCH   4   5
ATOM      5  O   UNL A   1      35.494  24.751  25.055  1.00  0.00    -0.459 OA
BRANCH   5   6
ATOM      6  C   UNL A   1      34.239  25.284  25.066  1.00  0.00     0.356 C 
ATOM      7  O   UNL A   1      33.756  25.882  26.004  1.00  0.00    -0.244 OA
BRANCH   6   8
ATOM      8  C   UNL A   1      33.618  25.254  23.758  1.00  0.00     0.147 A 
ATOM      9  C   UNL A   1      32.532  24.654  23.113  1.00  0.00     0.013 A 
ATOM     10  C   UNL A   1      32.613  25.189  21.788  1.00  0.00     0.140 A 
ATOM     11  N   UNL A   1      33.649  25.997  21.600  1.00  0.00    -0.183 NA
ATOM     12  N   UNL A   1      34.215  26.048  22.805  1.00  0.00    -0.271 N 
ATOM     13  H   UNL A   1      34.999  26.610  22.999  1.00  0.00     0.190 HD
BRANCH   9  14
ATOM     14  C   UNL A   1      31.376  23.751  23.527  1.00  0.00     0.069 C 
ATOM     15  O   UNL A   1      32.461  20.441  24.929  1.00  0.00    -0.275 OA
ATOM     16  C   UNL A   1      31.876  21.523  24.842  1.00  0.00     0.226 C 
ATOM     17  C   UNL A   1      31.750  22.246  23.506  1.00  0.00     0.114 C 
ATOM     18  N   UNL A   1      31.211  22.025  25.929  1.00  0.00    -0.311 N 
ATOM     19  C   UNL A   1      30.664  23.273  25.870  1.00  0.00     0.132 A 
ATOM     20  H   UNL A   1      31.128  21.488  26.750  1.00  0.00     0.171 HD
ATOM     21  C   UNL A   1      30.675  24.102  24.784  1.00  0.00     0.031 A 
ATOM     22  N   UNL A   1      30.095  23.966  26.892  1.00  0.00    -0.262 N 
ATOM     23  C   UNL A   1      29.964  25.250  25.211  1.00  0.00     0.108 A 
ATOM     24  N   UNL A   1      29.690  25.200  26.526  1.00  0.00    -0.173 NA
ATOM     25  H   UNL A   1      29.989  23.605  27.801  1.00  0.00     0.192 HD
BRANCH  23  26
ATOM     26  C   UNL A   1      29.686  26.450  24.364  1.00  0.00     0.055 A 
ATOM     27  C   UNL A   1      28.485  26.686  23.733  1.00  0.00     0.022 A 
ATOM     28  S   UNL A   1      30.788  27.737  24.150  1.00  0.00    -0.142 S 
ATOM     29  C   UNL A   1      28.431  28.002  23.181  1.00  0.00     0.012 A 
ATOM     30  C   UNL A   1      29.637  28.657  23.288  1.00  0.00     0.065 A 
ENDBRANCH  23  26
ENDBRANCH   9  14
ENDBRANCH   6   8
ENDBRANCH   5   6
ENDBRANCH   4   5
ENDBRANCH   3   4
ENDBRANCH   2   3
ENDBRANCH   1   2
BRANCH   1  31
ATOM     31  C   UNL A   1      39.298  22.041  26.098  1.00  0.00     0.188 C 
BRANCH  31  32
ATOM     32  O   UNL A   1      40.601  21.541  25.893  1.00  0.00    -0.376 OA
BRANCH  32  33
ATOM     33  C   UNL A   1      41.258  20.590  26.708  1.00  0.00     0.202 C 
BRANCH  33  34
ATOM     34  C   UNL A   1      42.562  19.895  26.376  1.00  0.00     0.261 C 
BRANCH  34  35
ATOM     35  O   UNL A   1      43.017  20.152  25.075  1.00  0.00    -0.460 OA
BRANCH  35  36
ATOM     36  C   UNL A   1      44.355  20.271  24.998  1.00  0.00     0.338 C 
ATOM     37  O   UNL A   1      45.190  19.383  25.000  1.00  0.00    -0.246 OA
BRANCH  36  38
ATOM     38  C   UNL A   1      44.672  21.693  25.003  1.00  0.00     0.060 A 
ATOM     39  C   UNL A   1      45.646  22.097  25.914  1.00  0.00     0.016 A 
ATOM     40  C   UNL A   1      43.742  22.572  24.431  1.00  0.00     0.016 A 
ATOM     41  C   UNL A   1      45.483  23.326  26.491  1.00  0.00     0.010 A 
ATOM     42  C   UNL A   1      43.563  23.786  25.027  1.00  0.00     0.010 A 
ATOM     43  C   UNL A   1      44.367  24.087  26.118  1.00  0.00    -0.014 A 
BRANCH  43  44
ATOM     44  C   UNL A   1      44.087  25.277  26.875  1.00  0.00     0.031 A 
ATOM     45  C   UNL A   1      45.115  26.305  26.661  1.00  0.00     0.074 A 
ATOM     46  C   UNL A   1      42.983  25.410  27.626  1.00  0.00     0.049 A 
ATOM     47  N   UNL A   1      46.031  26.665  27.493  1.00  0.00    -0.248 NA
ATOM     48  C   UNL A   1      45.283  26.834  25.298  1.00  0.00     0.031 C 
ATOM     49  C   UNL A   1      41.797  24.553  27.688  1.00  0.00     0.029 A 
ATOM     50  N   UNL A   1      42.668  26.428  28.464  1.00  0.00    -0.354 N 
ATOM     51  C   UNL A   1      46.771  27.626  26.824  1.00  0.00     0.074 A 
ATOM     52  C   UNL A   1      46.407  27.538  25.435  1.00  0.00     0.031 C 
ATOM     53  C   UNL A   1      40.810  25.208  28.345  1.00  0.00     0.029 A 
ATOM     54  C   UNL A   1      41.340  26.458  28.864  1.00  0.00     0.049 A 
ATOM     55  H   UNL A   1      43.329  27.094  28.765  1.00  0.00     0.167 HD
ATOM     56  C   UNL A   1      47.404  28.605  27.520  1.00  0.00     0.037 A 
ATOM     57  C   UNL A   1      40.741  27.492  29.506  1.00  0.00     0.037 A 
ATOM     58  C   UNL A   1      47.557  28.245  28.907  1.00  0.00     0.049 A 
ATOM     59  C   UNL A   1      41.823  28.313  30.120  1.00  0.00     0.074 A 
ATOM     60  C   UNL A   1      48.209  27.226  29.574  1.00  0.00     0.029 A 
ATOM     61  N   UNL A   1      46.648  28.757  29.801  1.00  0.00    -0.354 N 
ATOM     62  N   UNL A   1      42.565  27.903  31.112  1.00  0.00    -0.248 NA
ATOM     63  C   UNL A   1      42.390  29.390  29.322  1.00  0.00     0.031 C 
ATOM     64  C   UNL A   1      47.352  26.881  30.661  1.00  0.00     0.029 A 
ATOM     65  C   UNL A   1      46.255  27.744  30.638  1.00  0.00     0.049 A 
ATOM     66  H   UNL A   1      46.332  29.689  29.834  1.00  0.00     0.167 HD
ATOM     67  C   UNL A   1      43.843  28.346  30.804  1.00  0.00     0.074 A 
ATOM     68  C   UNL A   1      43.659  29.325  29.734  1.00  0.00     0.031 C 
ATOM     69  C   UNL A   1      44.944  27.663  31.237  1.00  0.00     0.037 A 
BRANCH  56  70
ATOM     70  C   UNL A   1      47.498  30.024  27.031  1.00  0.00     0.064 A 
ATOM     71  C   UNL A   1      48.732  30.690  27.116  1.00  0.00     0.173 A 
ATOM     72  C   UNL A   1      46.375  30.840  26.765  1.00  0.00     0.173 A 
ATOM     73  F   UNL A   1      49.855  30.012  27.396  1.00  0.00    -0.203 F 
ATOM     74  C   UNL A   1      48.823  32.079  27.009  1.00  0.00     0.198 A 
ATOM     75  C   UNL A   1      46.478  32.217  26.600  1.00  0.00     0.198 A 
ATOM     76  F   UNL A   1      45.123  30.367  26.774  1.00  0.00    -0.203 F 
ATOM     77  F   UNL A   1      49.998  32.685  27.223  1.00  0.00    -0.200 F 
ATOM     78  C   UNL A   1      47.696  32.841  26.753  1.00  0.00     0.200 A 
ATOM     79  F   UNL A   1      45.370  32.937  26.377  1.00  0.00    -0.200 F 
ATOM     80  F   UNL A   1      47.773  34.177  26.709  1.00  0.00    -0.200 F 
ENDBRANCH  56  70
BRANCH  57  81
ATOM     81  C   UNL A   1      39.369  28.017  29.315  1.00  0.00     0.064 A 
ATOM     82  C   UNL A   1      38.503  28.180  30.410  1.00  0.00     0.173 A 
ATOM     83  C   UNL A   1      38.983  28.644  28.114  1.00  0.00     0.173 A 
ATOM     84  F   UNL A   1      38.818  27.655  31.603  1.00  0.00    -0.203 F 
ATOM     85  C   UNL A   1      37.338  28.950  30.317  1.00  0.00     0.198 A 
ATOM     86  C   UNL A   1      37.818  29.407  28.022  1.00  0.00     0.198 A 
ATOM     87  F   UNL A   1      39.777  28.613  27.036  1.00  0.00    -0.203 F 
ATOM     88  F   UNL A   1      36.573  29.139  31.401  1.00  0.00    -0.200 F 
ATOM     89  C   UNL A   1      37.003  29.572  29.126  1.00  0.00     0.200 A 
ATOM     90  F   UNL A   1      37.526  30.037  26.875  1.00  0.00    -0.200 F 
ATOM     91  F   UNL A   1      35.924  30.365  29.054  1.00  0.00    -0.200 F 
ENDBRANCH  57  81
BRANCH  69  92
ATOM     92  C   UNL A   1      44.732  26.594  32.274  1.00  0.00     0.064 A 
ATOM     93  C   UNL A   1      44.616  26.838  33.654  1.00  0.00     0.173 A 
ATOM     94  C   UNL A   1      44.510  25.282  31.833  1.00  0.00     0.173 A 
ATOM     95  F   UNL A   1      44.716  28.080  34.145  1.00  0.00    -0.203 F 
ATOM     96  C   UNL A   1      44.340  25.806  34.551  1.00  0.00     0.198 A 
ATOM     97  C   UNL A   1      44.196  24.262  32.727  1.00  0.00     0.198 A 
ATOM     98  F   UNL A   1      44.554  24.998  30.523  1.00  0.00    -0.203 F 
ATOM     99  F   UNL A   1      44.253  26.061  35.865  1.00  0.00    -0.200 F 
ATOM    100  C   UNL A   1      44.123  24.520  34.085  1.00  0.00     0.200 A 
ATOM    101  F   UNL A   1      43.938  23.030  32.265  1.00  0.00    -0.200 F 
ATOM    102  F   UNL A   1      43.819  23.535  34.942  1.00  0.00    -0.200 F 
ENDBRANCH  69  92
ENDBRANCH  43  44
ENDBRANCH  36  38
ENDBRANCH  35  36
ENDBRANCH  34  35
ENDBRANCH  33  34
ENDBRANCH  32  33
ENDBRANCH  31  32
ENDBRANCH   1  31
TORSDOF 19
ENDMDL
MODEL 2
REMARK VINA RESULT:     -12.3      1.401      2.488
REMARK SMILES O=C1C[C@H](c2cn[nH]c2C(=O)OCCOCCOCCOC(=O)c2ccc(-c3c4nc(c(-c5c(F)c(F)c(F)c(F)c5F)c5ccc([nH]5)c(-c5c(F)c(F)c(F)c(F)c5F)c5nc(c(-c6c(F)c(F)c(F)c(F)c6F)c6ccc3[nH]6)C=C5)C=C4)cc2)c2c(-c3cccs3)n[nH]c2N1
REMARK SMILES IDX 16 1 15 2 14 3 13 4 12 5 10 6 11 7 9 8 5 9 6 10 7 11 8 12
REMARK SMILES IDX 4 14 1 15 2 16 3 17 97 18 96 19 87 21 95 22 88 23 94 24
REMARK SMILES IDX 89 26 90 27 93 28 91 29 92 30 17 31 18 32 19 33 20 34 21 35
REMARK SMILES IDX 22 36 23 37 24 38 25 39 86 40 26 41 85 42 27 43 28 44 29 45
REMARK SMILES IDX 79 46 30 47 84 48 78 49 80 50 31 51 83 52 77 53 76 54 32 56
REMARK SMILES IDX 64 57 44 58 63 59 45 60 48 61 62 62 81 63 46 64 47 65 61 67
REMARK SMILES IDX 82 68 49 69 33 70 34 71 42 72 35 73 36 74 40 75 43 76 37 77
REMARK SMILES IDX 38 78 41 79 39 80 65 81 66 82 74 83 67 84 68 85 72 86 75 87
REMARK SMILES IDX 69 88 70 89 73 90 71 91 50 92 51 93 59 94 52 95 53 96 57 97
REMARK SMILES IDX 60 98 54 99 55 100 58 101 56 102
REMARK H PARENT 8 13 97 20 95 25 80 55 48 66
REMARK Flexibility Score: inf
ROOT
ATOM      1  C   UNL A   1      39.527  21.088  25.881  1.00  0.00     0.188 C 
ENDROOT
BRANCH   1   2
ATOM      2  O   UNL A   1      38.299  21.710  25.569  1.00  0.00    -0.376 OA
BRANCH   2   3
ATOM      3  C   UNL A   1      38.037  23.030  26.015  1.00  0.00     0.202 C 
BRANCH   3   4
ATOM      4  C   UNL A   1      36.762  23.806  25.647  1.00  0.00     0.261 C 
BRANCH   4   5
ATOM      5  O   UNL A   1      35.785  23.076  24.889  1.00  0.00    -0.459 OA
BRANCH   5   6
ATOM      6  C   UNL A   1      35.776  23.328  23.549  1.00  0.00     0.356 C 
ATOM      7  O   UNL A   1      36.593  22.895  22.765  1.00  0.00    -0.244 OA
BRANCH   6   8
ATOM      8  C   UNL A   1      34.562  23.991  23.123  1.00  0.00     0.147 A 
ATOM      9  C   UNL A   1      33.639  24.926  23.603  1.00  0.00     0.013 A 
ATOM     10  C   UNL A   1      32.718  25.053  22.515  1.00  0.00     0.140 A 
ATOM     11  N   UNL A   1      32.995  24.263  21.485  1.00  0.00    -0.183 NA
ATOM     12  N   UNL A   1      34.125  23.664  21.860  1.00  0.00    -0.271 N 
ATOM     13  H   UNL A   1      34.610  23.036  21.277  1.00  0.00     0.190 HD
BRANCH   9  14
ATOM     14  C   UNL A   1      33.510  25.796  24.848  1.00  0.00     0.069 C 
ATOM     15  O   UNL A   1      32.300  29.280  24.148  1.00  0.00    -0.275 OA
ATOM     16  C   UNL A   1      32.368  28.163  24.665  1.00  0.00     0.226 C 
ATOM     17  C   UNL A   1      33.625  27.311  24.538  1.00  0.00     0.114 C 
ATOM     18  N   UNL A   1      31.355  27.729  25.479  1.00  0.00    -0.311 N 
ATOM     19  C   UNL A   1      31.372  26.452  25.956  1.00  0.00     0.132 A 
ATOM     20  H   UNL A   1      30.618  28.336  25.718  1.00  0.00     0.171 HD
ATOM     21  C   UNL A   1      32.351  25.525  25.732  1.00  0.00     0.031 A 
ATOM     22  N   UNL A   1      30.390  25.827  26.657  1.00  0.00    -0.262 N 
ATOM     23  C   UNL A   1      31.928  24.384  26.455  1.00  0.00     0.108 A 
ATOM     24  N   UNL A   1      30.686  24.542  26.944  1.00  0.00    -0.173 NA
ATOM     25  H   UNL A   1      29.550  26.265  26.927  1.00  0.00     0.192 HD
BRANCH  23  26
ATOM     26  C   UNL A   1      32.681  23.095  26.539  1.00  0.00     0.055 A 
ATOM     27  C   UNL A   1      33.600  22.803  27.522  1.00  0.00     0.022 A 
ATOM     28  S   UNL A   1      32.426  21.776  25.486  1.00  0.00    -0.142 S 
ATOM     29  C   UNL A   1      33.995  21.431  27.482  1.00  0.00     0.012 A 
ATOM     30  C   UNL A   1      33.474  20.776  26.389  1.00  0.00     0.065 A 
ENDBRANCH  23  26
ENDBRANCH   9  14
ENDBRANCH   6   8
ENDBRANCH   5   6
ENDBRANCH   4   5
ENDBRANCH   3   4
ENDBRANCH   2   3
ENDBRANCH   1   2
BRANCH   1  31
ATOM     31  C   UNL A   1      40.364  21.559  27.091  1.00  0.00     0.188 C 
BRANCH  31  32
ATOM     32  O   UNL A   1      41.504  20.854  27.529  1.00  0.00    -0.376 OA
BRANCH  32  33
ATOM     33  C   UNL A   1      41.895  19.566  27.096  1.00  0.00     0.202 C 
BRANCH  33  34
ATOM     34  C   UNL A   1      42.898  19.270  26.001  1.00  0.00     0.261 C 
BRANCH  34  35
ATOM     35  O   UNL A   1      43.158  20.368  25.169  1.00  0.00    -0.460 OA
BRANCH  35  36
ATOM     36  C   UNL A   1      44.457  20.486  24.840  1.00  0.00     0.338 C 
ATOM     37  O   UNL A   1      45.255  19.596  24.599  1.00  0.00    -0.246 OA
BRANCH  36  38
ATOM     38  C   UNL A   1      44.804  21.899  24.908  1.00  0.00     0.060 A 
ATOM     39  C   UNL A   1      45.722  22.254  25.894  1.00  0.00     0.016 A 
ATOM     40  C   UNL A   1      43.933  22.815  24.300  1.00  0.00     0.016 A 
ATOM     41  C   UNL A   1      45.546  23.471  26.495  1.00  0.00     0.010 A 
ATOM     42  C   UNL A   1      43.741  24.016  24.919  1.00  0.00     0.010 A 
ATOM     43  C   UNL A   1      44.475  24.268  26.070  1.00  0.00    -0.014 A 
BRANCH  43  44
ATOM     44  C   UNL A   1      44.170  25.442  26.840  1.00  0.00     0.031 A 
ATOM     45  C   UNL A   1      45.169  26.499  26.630  1.00  0.00     0.074 A 
ATOM     46  C   UNL A   1      43.068  25.539  27.601  1.00  0.00     0.049 A 
ATOM     47  N   UNL A   1      46.081  26.874  27.459  1.00  0.00    -0.248 NA
ATOM     48  C   UNL A   1      45.313  27.046  25.271  1.00  0.00     0.031 C 
ATOM     49  C   UNL A   1      41.906  24.651  27.663  1.00  0.00     0.029 A 
ATOM     50  N   UNL A   1      42.733  26.540  28.452  1.00  0.00    -0.354 N 
ATOM     51  C   UNL A   1      46.792  27.861  26.795  1.00  0.00     0.074 A 
ATOM     52  C   UNL A   1      46.419  27.778  25.407  1.00  0.00     0.031 C 
ATOM     53  C   UNL A   1      40.907  25.274  28.334  1.00  0.00     0.029 A 
ATOM     54  C   UNL A   1      41.408  26.531  28.862  1.00  0.00     0.049 A 
ATOM     55  H   UNL A   1      43.378  27.220  28.754  1.00  0.00     0.167 HD
ATOM     56  C   UNL A   1      47.404  28.849  27.496  1.00  0.00     0.037 A 
ATOM     57  C   UNL A   1      40.787  27.543  29.518  1.00  0.00     0.037 A 
ATOM     58  C   UNL A   1      47.576  28.479  28.878  1.00  0.00     0.049 A 
ATOM     59  C   UNL A   1      41.852  28.386  30.133  1.00  0.00     0.074 A 
ATOM     60  C   UNL A   1      48.260  27.471  29.530  1.00  0.00     0.029 A 
ATOM     61  N   UNL A   1      46.661  28.959  29.783  1.00  0.00    -0.354 N 
ATOM     62  N   UNL A   1      42.611  27.985  31.115  1.00  0.00    -0.248 NA
ATOM     63  C   UNL A   1      42.385  29.485  29.341  1.00  0.00     0.031 C 
ATOM     64  C   UNL A   1      47.420  27.092  30.620  1.00  0.00     0.029 A 
ATOM     65  C   UNL A   1      46.301  27.927  30.614  1.00  0.00     0.049 A 
ATOM     66  H   UNL A   1      46.321  29.882  29.828  1.00  0.00     0.167 HD
ATOM     67  C   UNL A   1      43.875  28.464  30.803  1.00  0.00     0.074 A 
ATOM     68  C   UNL A   1      43.658  29.449  29.744  1.00  0.00     0.031 C 
ATOM     69  C   UNL A   1      44.996  27.806  31.221  1.00  0.00     0.037 A 
BRANCH  56  70
ATOM     70  C   UNL A   1      47.457  30.274  27.021  1.00  0.00     0.064 A 
ATOM     71  C   UNL A   1      48.683  30.960  27.069  1.00  0.00     0.173 A 
ATOM     72  C   UNL A   1      46.313  31.076  26.807  1.00  0.00     0.173 A 
ATOM     73  F   UNL A   1      49.826  30.297  27.299  1.00  0.00    -0.203 F 
ATOM     74  C   UNL A   1      48.748  32.351  26.975  1.00  0.00     0.198 A 
ATOM     75  C   UNL A   1      46.388  32.456  26.654  1.00  0.00     0.198 A 
ATOM     76  F   UNL A   1      45.069  30.582  26.855  1.00  0.00    -0.203 F 
ATOM     77  F   UNL A   1      49.921  32.974  27.153  1.00  0.00    -0.200 F 
ATOM     78  C   UNL A   1      47.601  33.098  26.770  1.00  0.00     0.200 A 
ATOM     79  F   UNL A   1      45.262  33.160  26.480  1.00  0.00    -0.200 F 
ATOM     80  F   UNL A   1      47.655  34.435  26.738  1.00  0.00    -0.200 F 
ENDBRANCH  56  70
BRANCH  57  81
ATOM     81  C   UNL A   1      39.400  28.034  29.343  1.00  0.00     0.064 A 
ATOM     82  C   UNL A   1      38.545  28.183  30.448  1.00  0.00     0.173 A 
ATOM     83  C   UNL A   1      38.983  28.645  28.143  1.00  0.00     0.173 A 
ATOM     84  F   UNL A   1      38.888  27.673  31.639  1.00  0.00    -0.203 F 
ATOM     85  C   UNL A   1      37.361  28.924  30.366  1.00  0.00     0.198 A 
ATOM     86  C   UNL A   1      37.800  29.379  28.062  1.00  0.00     0.198 A 
ATOM     87  F   UNL A   1      39.764  28.626  27.055  1.00  0.00    -0.203 F 
ATOM     88  F   UNL A   1      36.605  29.101  31.459  1.00  0.00    -0.200 F 
ATOM     89  C   UNL A   1      36.995  29.531  29.176  1.00  0.00     0.200 A 
ATOM     90  F   UNL A   1      37.478  29.995  26.915  1.00  0.00    -0.200 F 
ATOM     91  F   UNL A   1      35.897  30.298  29.114  1.00  0.00    -0.200 F 
ENDBRANCH  57  81
BRANCH  69  92
ATOM     92  C   UNL A   1      44.821  26.721  32.248  1.00  0.00     0.064 A 
ATOM     93  C   UNL A   1      44.725  26.947  33.633  1.00  0.00     0.173 A 
ATOM     94  C   UNL A   1      44.612  25.411  31.796  1.00  0.00     0.173 A 
ATOM     95  F   UNL A   1      44.813  28.185  34.138  1.00  0.00    -0.203 F 
ATOM     96  C   UNL A   1      44.481  25.901  34.522  1.00  0.00     0.198 A 
ATOM     97  C   UNL A   1      44.330  24.376  32.682  1.00  0.00     0.198 A 
ATOM     98  F   UNL A   1      44.638  25.143  30.481  1.00  0.00    -0.203 F 
ATOM     99  F   UNL A   1      44.413  26.139  35.841  1.00  0.00    -0.200 F 
ATOM    100  C   UNL A   1      44.277  24.617  34.044  1.00  0.00     0.200 A 
ATOM    101  F   UNL A   1      44.084  23.145  32.210  1.00  0.00    -0.200 F 
ATOM    102  F   UNL A   1      44.004  23.616  34.894  1.00  0.00    -0.200 F 
ENDBRANCH  69  92
ENDBRANCH  43  44
ENDBRANCH  36  38
ENDBRANCH  35  36
ENDBRANCH  34  35
ENDBRANCH  33  34
ENDBRANCH  32  33
ENDBRANCH  31  32
ENDBRANCH   1  31
TORSDOF 19
ENDMDL
MODEL 3
REMARK VINA RESULT:     -12.1      4.488      9.933
REMARK SMILES O=C1C[C@H](c2cn[nH]c2C(=O)OCCOCCOCCOC(=O)c2ccc(-c3c4nc(c(-c5c(F)c(F)c(F)c(F)c5F)c5ccc([nH]5)c(-c5c(F)c(F)c(F)c(F)c5F)c5nc(c(-c6c(F)c(F)c(F)c(F)c6F)c6ccc3[nH]6)C=C5)C=C4)cc2)c2c(-c3cccs3)n[nH]c2N1
REMARK SMILES IDX 16 1 15 2 14 3 13 4 12 5 10 6 11 7 9 8 5 9 6 10 7 11 8 12
REMARK SMILES IDX 4 14 1 15 2 16 3 17 97 18 96 19 87 21 95 22 88 23 94 24
REMARK SMILES IDX 89 26 90 27 93 28 91 29 92 30 17 31 18 32 19 33 20 34 21 35
REMARK SMILES IDX 22 36 23 37 24 38 25 39 86 40 26 41 85 42 27 43 28 44 29 45
REMARK SMILES IDX 79 46 30 47 84 48 78 49 80 50 31 51 83 52 77 53 76 54 32 56
REMARK SMILES IDX 64 57 44 58 63 59 45 60 48 61 62 62 81 63 46 64 47 65 61 67
REMARK SMILES IDX 82 68 49 69 33 70 34 71 42 72 35 73 36 74 40 75 43 76 37 77
REMARK SMILES IDX 38 78 41 79 39 80 65 81 66 82 74 83 67 84 68 85 72 86 75 87
REMARK SMILES IDX 69 88 70 89 73 90 71 91 50 92 51 93 59 94 52 95 53 96 57 97
REMARK SMILES IDX 60 98 54 99 55 100 58 101 56 102
REMARK H PARENT 8 13 97 20 95 25 80 55 48 66
REMARK Flexibility Score: inf
ROOT
ATOM      1  C   UNL A   1      34.036  32.027  28.364  1.00  0.00     0.188 C 
ENDROOT
BRANCH   1   2
ATOM      2  O   UNL A   1      33.951  31.043  27.355  1.00  0.00    -0.376 OA
BRANCH   2   3
ATOM      3  C   UNL A   1      32.686  30.545  26.951  1.00  0.00     0.202 C 
BRANCH   3   4
ATOM      4  C   UNL A   1      32.489  29.651  25.715  1.00  0.00     0.261 C 
BRANCH   4   5
ATOM      5  O   UNL A   1      31.793  28.416  25.944  1.00  0.00    -0.459 OA
BRANCH   5   6
ATOM      6  C   UNL A   1      32.588  27.322  26.125  1.00  0.00     0.356 C 
ATOM      7  O   UNL A   1      33.756  27.370  26.449  1.00  0.00    -0.244 OA
BRANCH   6   8
ATOM      8  C   UNL A   1      31.835  26.086  26.104  1.00  0.00     0.147 A 
ATOM      9  C   UNL A   1      31.013  25.360  25.237  1.00  0.00     0.013 A 
ATOM     10  C   UNL A   1      30.686  24.198  26.006  1.00  0.00     0.140 A 
ATOM     11  N   UNL A   1      31.200  24.204  27.229  1.00  0.00    -0.183 NA
ATOM     12  N   UNL A   1      31.914  25.329  27.251  1.00  0.00    -0.271 N 
ATOM     13  H   UNL A   1      32.457  25.598  28.027  1.00  0.00     0.190 HD
BRANCH   9  14
ATOM     14  C   UNL A   1      30.555  25.499  23.790  1.00  0.00     0.069 C 
ATOM     15  O   UNL A   1      29.054  28.847  22.989  1.00  0.00    -0.275 OA
ATOM     16  C   UNL A   1      29.779  27.854  22.895  1.00  0.00     0.226 C 
ATOM     17  C   UNL A   1      29.431  26.555  23.613  1.00  0.00     0.114 C 
ATOM     18  N   UNL A   1      30.841  27.867  22.031  1.00  0.00    -0.311 N 
ATOM     19  C   UNL A   1      31.711  26.816  22.013  1.00  0.00     0.132 A 
ATOM     20  H   UNL A   1      30.978  28.631  21.426  1.00  0.00     0.171 HD
ATOM     21  C   UNL A   1      31.615  25.683  22.771  1.00  0.00     0.031 A 
ATOM     22  N   UNL A   1      32.877  26.732  21.321  1.00  0.00    -0.262 N 
ATOM     23  C   UNL A   1      32.723  24.897  22.371  1.00  0.00     0.108 A 
ATOM     24  N   UNL A   1      33.541  25.579  21.551  1.00  0.00    -0.173 NA
ATOM     25  H   UNL A   1      33.203  27.436  20.716  1.00  0.00     0.192 HD
BRANCH  23  26
ATOM     26  C   UNL A   1      33.048  23.540  22.906  1.00  0.00     0.055 A 
ATOM     27  C   UNL A   1      34.171  23.254  23.650  1.00  0.00     0.022 A 
ATOM     28  S   UNL A   1      32.019  22.187  22.750  1.00  0.00    -0.142 S 
ATOM     29  C   UNL A   1      34.111  21.941  24.208  1.00  0.00     0.012 A 
ATOM     30  C   UNL A   1      33.022  21.235  23.751  1.00  0.00     0.065 A 
ENDBRANCH  23  26
ENDBRANCH   9  14
ENDBRANCH   6   8
ENDBRANCH   5   6
ENDBRANCH   4   5
ENDBRANCH   3   4
ENDBRANCH   2   3
ENDBRANCH   1   2
BRANCH   1  31
ATOM     31  C   UNL A   1      33.878  33.524  28.017  1.00  0.00     0.188 C 
BRANCH  31  32
ATOM     32  O   UNL A   1      32.879  34.325  28.608  1.00  0.00    -0.376 OA
BRANCH  32  33
ATOM     33  C   UNL A   1      33.001  35.697  28.927  1.00  0.00     0.202 C 
BRANCH  33  34
ATOM     34  C   UNL A   1      33.104  36.272  30.325  1.00  0.00     0.261 C 
BRANCH  34  35
ATOM     35  O   UNL A   1      34.081  35.649  31.115  1.00  0.00    -0.460 OA
BRANCH  35  36
ATOM     36  C   UNL A   1      33.569  35.022  32.190  1.00  0.00     0.338 C 
ATOM     37  O   UNL A   1      32.431  35.077  32.621  1.00  0.00    -0.246 OA
BRANCH  36  38
ATOM     38  C   UNL A   1      34.658  34.307  32.843  1.00  0.00     0.060 A 
ATOM     39  C   UNL A   1      35.849  35.013  32.990  1.00  0.00     0.016 A 
ATOM     40  C   UNL A   1      34.581  32.907  32.896  1.00  0.00     0.016 A 
ATOM     41  C   UNL A   1      37.011  34.300  32.875  1.00  0.00     0.010 A 
ATOM     42  C   UNL A   1      35.739  32.201  32.752  1.00  0.00     0.010 A 
ATOM     43  C   UNL A   1      36.919  32.923  32.632  1.00  0.00    -0.014 A 
BRANCH  43  44
ATOM     44  C   UNL A   1      38.129  32.220  32.306  1.00  0.00     0.031 A 
ATOM     45  C   UNL A   1      38.979  32.032  33.489  1.00  0.00     0.074 A 
ATOM     46  C   UNL A   1      38.384  31.761  31.070  1.00  0.00     0.049 A 
ATOM     47  N   UNL A   1      40.075  32.654  33.758  1.00  0.00    -0.248 NA
ATOM     48  C   UNL A   1      38.441  31.228  34.598  1.00  0.00     0.031 C 
ATOM     49  C   UNL A   1      37.492  31.677  29.912  1.00  0.00     0.029 A 
ATOM     50  N   UNL A   1      39.527  31.189  30.618  1.00  0.00    -0.354 N 
ATOM     51  C   UNL A   1      40.478  32.162  34.990  1.00  0.00     0.074 A 
ATOM     52  C   UNL A   1      39.351  31.461  35.546  1.00  0.00     0.031 C 
ATOM     53  C   UNL A   1      38.062  30.885  28.971  1.00  0.00     0.029 A 
ATOM     54  C   UNL A   1      39.403  30.532  29.403  1.00  0.00     0.049 A 
ATOM     55  H   UNL A   1      40.378  31.236  31.112  1.00  0.00     0.167 HD
ATOM     56  C   UNL A   1      41.796  32.128  35.311  1.00  0.00     0.037 A 
ATOM     57  C   UNL A   1      40.332  29.702  28.866  1.00  0.00     0.037 A 
ATOM     58  C   UNL A   1      42.562  33.015  34.472  1.00  0.00     0.049 A 
ATOM     59  C   UNL A   1      41.632  30.015  29.523  1.00  0.00     0.074 A 
ATOM     60  C   UNL A   1      42.559  34.379  34.252  1.00  0.00     0.029 A 
ATOM     61  N   UNL A   1      43.225  32.463  33.403  1.00  0.00    -0.354 N 
ATOM     62  N   UNL A   1      42.279  31.134  29.346  1.00  0.00    -0.248 NA
ATOM     63  C   UNL A   1      41.967  29.288  30.739  1.00  0.00     0.031 C 
ATOM     64  C   UNL A   1      42.810  34.534  32.856  1.00  0.00     0.029 A 
ATOM     65  C   UNL A   1      43.014  33.266  32.310  1.00  0.00     0.049 A 
ATOM     66  H   UNL A   1      43.758  31.636  33.417  1.00  0.00     0.167 HD
ATOM     67  C   UNL A   1      42.761  31.467  30.603  1.00  0.00     0.074 A 
ATOM     68  C   UNL A   1      42.608  30.254  31.404  1.00  0.00     0.031 C 
ATOM     69  C   UNL A   1      42.959  32.773  30.953  1.00  0.00     0.037 A 
BRANCH  56  70
ATOM     70  C   UNL A   1      42.418  31.001  36.087  1.00  0.00     0.064 A 
ATOM     71  C   UNL A   1      43.265  31.306  37.166  1.00  0.00     0.173 A 
ATOM     72  C   UNL A   1      42.456  29.662  35.636  1.00  0.00     0.173 A 
ATOM     73  F   UNL A   1      43.330  32.555  37.650  1.00  0.00    -0.203 F 
ATOM     74  C   UNL A   1      44.133  30.355  37.707  1.00  0.00     0.198 A 
ATOM     75  C   UNL A   1      43.277  28.703  36.217  1.00  0.00     0.198 A 
ATOM     76  F   UNL A   1      41.795  29.251  34.546  1.00  0.00    -0.203 F 
ATOM     77  F   UNL A   1      45.013  30.721  38.648  1.00  0.00    -0.200 F 
ATOM     78  C   UNL A   1      44.140  29.056  37.232  1.00  0.00     0.200 A 
ATOM     79  F   UNL A   1      43.285  27.457  35.724  1.00  0.00    -0.200 F 
ATOM     80  F   UNL A   1      45.012  28.160  37.710  1.00  0.00    -0.200 F 
ENDBRANCH  56  70
BRANCH  57  81
ATOM     81  C   UNL A   1      40.112  28.439  28.122  1.00  0.00     0.064 A 
ATOM     82  C   UNL A   1      40.767  28.201  26.901  1.00  0.00     0.173 A 
ATOM     83  C   UNL A   1      39.496  27.327  28.729  1.00  0.00     0.173 A 
ATOM     84  F   UNL A   1      41.418  29.194  26.280  1.00  0.00    -0.203 F 
ATOM     85  C   UNL A   1      40.828  26.920  26.339  1.00  0.00     0.198 A 
ATOM     86  C   UNL A   1      39.554  26.052  28.164  1.00  0.00     0.198 A 
ATOM     87  F   UNL A   1      38.913  27.434  29.930  1.00  0.00    -0.203 F 
ATOM     88  F   UNL A   1      41.520  26.719  25.209  1.00  0.00    -0.200 F 
ATOM     89  C   UNL A   1      40.232  25.846  26.977  1.00  0.00     0.200 A 
ATOM     90  F   UNL A   1      39.006  25.014  28.811  1.00  0.00    -0.200 F 
ATOM     91  F   UNL A   1      40.348  24.608  26.474  1.00  0.00    -0.200 F 
ENDBRANCH  57  81
BRANCH  69  92
ATOM     92  C   UNL A   1      42.904  33.800  29.856  1.00  0.00     0.064 A 
ATOM     93  C   UNL A   1      43.985  34.120  29.014  1.00  0.00     0.173 A 
ATOM     94  C   UNL A   1      41.667  34.392  29.566  1.00  0.00     0.173 A 
ATOM     95  F   UNL A   1      45.175  33.524  29.162  1.00  0.00    -0.203 F 
ATOM     96  C   UNL A   1      43.840  35.026  27.964  1.00  0.00     0.198 A 
ATOM     97  C   UNL A   1      41.517  35.265  28.493  1.00  0.00     0.198 A 
ATOM     98  F   UNL A   1      40.588  34.084  30.301  1.00  0.00    -0.203 F 
ATOM     99  F   UNL A   1      44.890  35.329  27.186  1.00  0.00    -0.200 F 
ATOM    100  C   UNL A   1      42.604  35.593  27.700  1.00  0.00     0.200 A 
ATOM    101  F   UNL A   1      40.307  35.771  28.213  1.00  0.00    -0.200 F 
ATOM    102  F   UNL A   1      42.454  36.434  26.667  1.00  0.00    -0.200 F 
ENDBRANCH  69  92
ENDBRANCH  43  44
ENDBRANCH  36  38
ENDBRANCH  35  36
ENDBRANCH  34  35
ENDBRANCH  33  34
ENDBRANCH  32  33
ENDBRANCH  31  32
ENDBRANCH   1  31
TORSDOF 19
ENDMDL
