MODEL 1
REMARK VINA RESULT:      -9.1      0.000      0.000
REMARK SMILES [NH3+][C@@H](CCC1=c2ccccc2=[NH+]C1)C(=O)OCCOCCOCCOC(=O)c1ccc(-c2c3nc(c(-c4c(F)c(F)c(F)c(F)c4F)c4ccc([nH]4)c(-c4c(F)c(F)c(F)c(F)c4F)c4nc(c(-c5c(F)c(F)c(F)c(F)c5F)c5ccc2[nH]5)C=C4)C=C3)cc1
REMARK SMILES IDX 20 1 19 2 18 3 17 4 16 5 14 6 15 7 2 8 1 9 3 13 4 14 5 15
REMARK SMILES IDX 6 16 13 17 7 18 11 19 12 20 8 21 10 22 9 24 21 25 22 26
REMARK SMILES IDX 23 27 24 28 25 29 26 30 27 31 28 32 29 33 90 34 30 35 89 36
REMARK SMILES IDX 31 37 32 38 33 39 83 40 34 41 88 42 82 43 84 44 35 45 87 46
REMARK SMILES IDX 81 47 80 48 36 50 68 51 48 52 67 53 49 54 52 55 66 56 85 57
REMARK SMILES IDX 50 58 51 59 65 61 86 62 53 63 37 64 38 65 46 66 39 67 40 68
REMARK SMILES IDX 44 69 47 70 41 71 42 72 45 73 43 74 69 75 70 76 78 77 71 78
REMARK SMILES IDX 72 79 76 80 79 81 73 82 74 83 77 84 75 85 54 86 55 87 63 88
REMARK SMILES IDX 56 89 57 90 61 91 64 92 58 93 59 94 62 95 60 96
REMARK H PARENT 1 10 1 11 1 12 12 23 84 49 52 60
REMARK Flexibility Score: inf
ROOT
ATOM      1  C   UNL A   1      43.487  18.187  26.505  1.00  0.00     0.188 C 
ENDROOT
BRANCH   1   2
ATOM      2  O   UNL A   1      44.634  18.109  25.672  1.00  0.00    -0.376 OA
BRANCH   2   3
ATOM      3  C   UNL A   1      44.512  18.632  24.347  1.00  0.00     0.202 C 
BRANCH   3   4
ATOM      4  C   UNL A   1      45.438  19.791  23.966  1.00  0.00     0.261 C 
BRANCH   4   5
ATOM      5  O   UNL A   1      44.764  21.068  24.031  1.00  0.00    -0.459 OA
BRANCH   5   6
ATOM      6  C   UNL A   1      45.070  21.851  25.102  1.00  0.00     0.364 C 
ATOM      7  O   UNL A   1      46.033  21.667  25.841  1.00  0.00    -0.245 OA
BRANCH   6   8
ATOM      8  C   UNL A   1      44.057  22.984  25.359  1.00  0.00     0.292 C 
BRANCH   8   9
ATOM      9  N   UNL A   1      42.731  22.779  24.752  1.00  0.00    -0.346 N 
ATOM     10  H   UNL A   1      42.348  21.888  25.066  1.00  0.00     0.345 HD
ATOM     11  H   UNL A   1      42.820  22.772  23.736  1.00  0.00     0.345 HD
ATOM     12  H   UNL A   1      42.108  23.535  25.034  1.00  0.00     0.345 HD
ENDBRANCH   8   9
BRANCH   8  13
ATOM     13  C   UNL A   1      43.980  23.347  26.846  1.00  0.00     0.082 C 
BRANCH  13  14
ATOM     14  C   UNL A   1      43.508  24.768  27.192  1.00  0.00     0.045 C 
BRANCH  14  15
ATOM     15  C   UNL A   1      44.174  25.875  26.444  1.00  0.00     0.008 C 
ATOM     16  C   UNL A   1      45.355  26.443  26.685  1.00  0.00     0.051 A 
ATOM     17  C   UNL A   1      43.507  26.531  25.270  1.00  0.00     0.381 C 
ATOM     18  C   UNL A   1      46.395  26.269  27.649  1.00  0.00     0.015 A 
ATOM     19  C   UNL A   1      45.455  27.454  25.619  1.00  0.00     0.206 A 
ATOM     20  N   UNL A   1      44.457  27.565  24.795  1.00  0.00    -0.237 N 
ATOM     21  C   UNL A   1      47.493  27.037  27.560  1.00  0.00     0.001 A 
ATOM     22  C   UNL A   1      46.699  28.251  25.578  1.00  0.00     0.079 A 
ATOM     23  H   UNL A   1      44.357  28.186  24.038  1.00  0.00     0.446 HD
ATOM     24  C   UNL A   1      47.644  28.028  26.508  1.00  0.00     0.007 A 
ENDBRANCH  14  15
ENDBRANCH  13  14
ENDBRANCH   8  13
ENDBRANCH   6   8
ENDBRANCH   5   6
ENDBRANCH   4   5
ENDBRANCH   3   4
ENDBRANCH   2   3
ENDBRANCH   1   2
BRANCH   1  25
ATOM     25  C   UNL A   1      42.185  18.731  25.893  1.00  0.00     0.188 C 
BRANCH  25  26
ATOM     26  O   UNL A   1      41.908  20.096  26.090  1.00  0.00    -0.376 OA
BRANCH  26  27
ATOM     27  C   UNL A   1      41.279  20.540  27.282  1.00  0.00     0.202 C 
BRANCH  27  28
ATOM     28  C   UNL A   1      40.553  21.888  27.493  1.00  0.00     0.261 C 
BRANCH  28  29
ATOM     29  O   UNL A   1      40.372  22.736  26.360  1.00  0.00    -0.460 OA
BRANCH  29  30
ATOM     30  C   UNL A   1      39.244  23.497  26.356  1.00  0.00     0.338 C 
ATOM     31  O   UNL A   1      38.144  23.189  25.960  1.00  0.00    -0.246 OA
BRANCH  30  32
ATOM     32  C   UNL A   1      39.535  24.698  27.173  1.00  0.00     0.060 A 
ATOM     33  C   UNL A   1      39.047  24.810  28.476  1.00  0.00     0.016 A 
ATOM     34  C   UNL A   1      40.225  25.763  26.575  1.00  0.00     0.016 A 
ATOM     35  C   UNL A   1      39.272  25.985  29.192  1.00  0.00     0.010 A 
ATOM     36  C   UNL A   1      40.432  26.946  27.285  1.00  0.00     0.010 A 
ATOM     37  C   UNL A   1      39.977  27.054  28.607  1.00  0.00    -0.014 A 
BRANCH  37  38
ATOM     38  C   UNL A   1      40.430  28.171  29.466  1.00  0.00     0.031 A 
ATOM     39  C   UNL A   1      41.821  28.268  30.002  1.00  0.00     0.074 A 
ATOM     40  C   UNL A   1      39.529  29.134  29.733  1.00  0.00     0.049 A 
ATOM     41  N   UNL A   1      42.386  29.269  30.631  1.00  0.00    -0.248 NA
ATOM     42  C   UNL A   1      42.690  27.098  29.824  1.00  0.00     0.031 C 
ATOM     43  C   UNL A   1      38.135  29.116  29.287  1.00  0.00     0.029 A 
ATOM     44  N   UNL A   1      39.650  30.314  30.417  1.00  0.00    -0.354 N 
ATOM     45  C   UNL A   1      43.686  28.869  30.896  1.00  0.00     0.074 A 
ATOM     46  C   UNL A   1      43.812  27.508  30.407  1.00  0.00     0.031 C 
ATOM     47  C   UNL A   1      37.536  30.247  29.682  1.00  0.00     0.029 A 
ATOM     48  C   UNL A   1      38.500  31.063  30.415  1.00  0.00     0.049 A 
ATOM     49  H   UNL A   1      40.478  30.597  30.868  1.00  0.00     0.167 HD
ATOM     50  C   UNL A   1      44.680  29.584  31.476  1.00  0.00     0.037 A 
ATOM     51  C   UNL A   1      38.252  32.281  30.926  1.00  0.00     0.037 A 
ATOM     52  C   UNL A   1      44.532  30.931  31.976  1.00  0.00     0.049 A 
ATOM     53  C   UNL A   1      39.363  33.037  31.592  1.00  0.00     0.074 A 
ATOM     54  C   UNL A   1      45.498  31.757  32.525  1.00  0.00     0.029 A 
ATOM     55  N   UNL A   1      43.340  31.641  32.007  1.00  0.00    -0.354 N 
ATOM     56  N   UNL A   1      40.618  32.692  31.747  1.00  0.00    -0.248 NA
ATOM     57  C   UNL A   1      39.027  34.354  32.147  1.00  0.00     0.031 C 
ATOM     58  C   UNL A   1      44.881  32.943  32.937  1.00  0.00     0.029 A 
ATOM     59  C   UNL A   1      43.539  32.879  32.601  1.00  0.00     0.049 A 
ATOM     60  H   UNL A   1      42.479  31.313  31.659  1.00  0.00     0.167 HD
ATOM     61  C   UNL A   1      41.226  33.751  32.405  1.00  0.00     0.074 A 
ATOM     62  C   UNL A   1      40.204  34.761  32.601  1.00  0.00     0.031 C 
ATOM     63  C   UNL A   1      42.513  33.870  32.810  1.00  0.00     0.037 A 
BRANCH  50  64
ATOM     64  C   UNL A   1      46.032  28.943  31.593  1.00  0.00     0.064 A 
ATOM     65  C   UNL A   1      47.007  29.116  30.600  1.00  0.00     0.173 A 
ATOM     66  C   UNL A   1      46.396  28.238  32.752  1.00  0.00     0.173 A 
ATOM     67  F   UNL A   1      46.713  29.786  29.475  1.00  0.00    -0.203 F 
ATOM     68  C   UNL A   1      48.290  28.596  30.754  1.00  0.00     0.198 A 
ATOM     69  C   UNL A   1      47.686  27.740  32.913  1.00  0.00     0.198 A 
ATOM     70  F   UNL A   1      45.507  28.059  33.741  1.00  0.00    -0.203 F 
ATOM     71  F   UNL A   1      49.198  28.757  29.782  1.00  0.00    -0.200 F 
ATOM     72  C   UNL A   1      48.631  27.916  31.913  1.00  0.00     0.200 A 
ATOM     73  F   UNL A   1      48.020  27.101  34.043  1.00  0.00    -0.200 F 
ATOM     74  F   UNL A   1      49.872  27.435  32.070  1.00  0.00    -0.200 F 
ENDBRANCH  50  64
BRANCH  51  75
ATOM     75  C   UNL A   1      36.902  32.870  30.759  1.00  0.00     0.064 A 
ATOM     76  C   UNL A   1      35.948  32.773  31.779  1.00  0.00     0.173 A 
ATOM     77  C   UNL A   1      36.563  33.594  29.607  1.00  0.00     0.173 A 
ATOM     78  F   UNL A   1      36.227  32.081  32.894  1.00  0.00    -0.203 F 
ATOM     79  C   UNL A   1      34.699  33.376  31.652  1.00  0.00     0.198 A 
ATOM     80  C   UNL A   1      35.324  34.217  29.491  1.00  0.00     0.198 A 
ATOM     81  F   UNL A   1      37.450  33.723  28.610  1.00  0.00    -0.203 F 
ATOM     82  F   UNL A   1      33.796  33.253  32.633  1.00  0.00    -0.200 F 
ATOM     83  C   UNL A   1      34.392  34.105  30.513  1.00  0.00     0.200 A 
ATOM     84  F   UNL A   1      35.037  34.937  28.398  1.00  0.00    -0.200 F 
ATOM     85  F   UNL A   1      33.198  34.702  30.400  1.00  0.00    -0.200 F 
ENDBRANCH  51  75
BRANCH  63  86
ATOM     86  C   UNL A   1      42.895  35.136  33.522  1.00  0.00     0.064 A 
ATOM     87  C   UNL A   1      43.294  36.278  32.813  1.00  0.00     0.173 A 
ATOM     88  C   UNL A   1      42.810  35.225  34.919  1.00  0.00     0.173 A 
ATOM     89  F   UNL A   1      43.408  36.239  31.477  1.00  0.00    -0.203 F 
ATOM     90  C   UNL A   1      43.607  37.461  33.479  1.00  0.00     0.198 A 
ATOM     91  C   UNL A   1      43.098  36.417  35.580  1.00  0.00     0.198 A 
ATOM     92  F   UNL A   1      42.432  34.162  35.644  1.00  0.00    -0.203 F 
ATOM     93  F   UNL A   1      44.021  38.529  32.783  1.00  0.00    -0.200 F 
ATOM     94  C   UNL A   1      43.499  37.533  34.859  1.00  0.00     0.200 A 
ATOM     95  F   UNL A   1      42.982  36.488  36.912  1.00  0.00    -0.200 F 
ATOM     96  F   UNL A   1      43.788  38.675  35.497  1.00  0.00    -0.200 F 
ENDBRANCH  63  86
ENDBRANCH  37  38
ENDBRANCH  30  32
ENDBRANCH  29  30
ENDBRANCH  28  29
ENDBRANCH  27  28
ENDBRANCH  26  27
ENDBRANCH  25  26
ENDBRANCH   1  25
TORSDOF 21
ENDMDL
MODEL 2
REMARK VINA RESULT:      -9.1      5.881     11.800
REMARK SMILES [NH3+][C@@H](CCC1=c2ccccc2=[NH+]C1)C(=O)OCCOCCOCCOC(=O)c1ccc(-c2c3nc(c(-c4c(F)c(F)c(F)c(F)c4F)c4ccc([nH]4)c(-c4c(F)c(F)c(F)c(F)c4F)c4nc(c(-c5c(F)c(F)c(F)c(F)c5F)c5ccc2[nH]5)C=C4)C=C3)cc1
REMARK SMILES IDX 20 1 19 2 18 3 17 4 16 5 14 6 15 7 2 8 1 9 3 13 4 14 5 15
REMARK SMILES IDX 6 16 13 17 7 18 11 19 12 20 8 21 10 22 9 24 21 25 22 26
REMARK SMILES IDX 23 27 24 28 25 29 26 30 27 31 28 32 29 33 90 34 30 35 89 36
REMARK SMILES IDX 31 37 32 38 33 39 83 40 34 41 88 42 82 43 84 44 35 45 87 46
REMARK SMILES IDX 81 47 80 48 36 50 68 51 48 52 67 53 49 54 52 55 66 56 85 57
REMARK SMILES IDX 50 58 51 59 65 61 86 62 53 63 37 64 38 65 46 66 39 67 40 68
REMARK SMILES IDX 44 69 47 70 41 71 42 72 45 73 43 74 69 75 70 76 78 77 71 78
REMARK SMILES IDX 72 79 76 80 79 81 73 82 74 83 77 84 75 85 54 86 55 87 63 88
REMARK SMILES IDX 56 89 57 90 61 91 64 92 58 93 59 94 62 95 60 96
REMARK H PARENT 1 10 1 11 1 12 12 23 84 49 52 60
REMARK Flexibility Score: inf
ROOT
ATOM      1  C   UNL A   1      34.297  31.651  28.148  1.00  0.00     0.188 C 
ENDROOT
BRANCH   1   2
ATOM      2  O   UNL A   1      33.719  30.807  27.164  1.00  0.00    -0.376 OA
BRANCH   2   3
ATOM      3  C   UNL A   1      34.490  29.681  26.738  1.00  0.00     0.202 C 
BRANCH   3   4
ATOM      4  C   UNL A   1      33.888  28.293  26.974  1.00  0.00     0.261 C 
BRANCH   4   5
ATOM      5  O   UNL A   1      33.367  27.713  25.755  1.00  0.00    -0.459 OA
BRANCH   5   6
ATOM      6  C   UNL A   1      33.310  26.353  25.718  1.00  0.00     0.364 C 
ATOM      7  O   UNL A   1      34.289  25.623  25.594  1.00  0.00    -0.245 OA
BRANCH   6   8
ATOM      8  C   UNL A   1      31.880  25.785  25.786  1.00  0.00     0.292 C 
BRANCH   8   9
ATOM      9  N   UNL A   1      30.930  26.589  26.574  1.00  0.00    -0.346 N 
ATOM     10  H   UNL A   1      30.942  26.276  27.544  1.00  0.00     0.345 HD
ATOM     11  H   UNL A   1      29.992  26.477  26.191  1.00  0.00     0.345 HD
ATOM     12  H   UNL A   1      31.200  27.572  26.530  1.00  0.00     0.345 HD
ENDBRANCH   8   9
BRANCH   8  13
ATOM     13  C   UNL A   1      31.345  25.429  24.394  1.00  0.00     0.082 C 
BRANCH  13  14
ATOM     14  C   UNL A   1      30.058  26.137  23.941  1.00  0.00     0.045 C 
BRANCH  14  15
ATOM     15  C   UNL A   1      30.245  27.449  23.252  1.00  0.00     0.008 C 
ATOM     16  C   UNL A   1      29.326  28.371  22.969  1.00  0.00     0.051 A 
ATOM     17  C   UNL A   1      31.591  27.875  22.743  1.00  0.00     0.381 C 
ATOM     18  C   UNL A   1      27.919  28.509  23.174  1.00  0.00     0.015 A 
ATOM     19  C   UNL A   1      30.113  29.420  22.299  1.00  0.00     0.206 A 
ATOM     20  N   UNL A   1      31.383  29.210  22.131  1.00  0.00    -0.237 N 
ATOM     21  C   UNL A   1      27.313  29.633  22.759  1.00  0.00     0.001 A 
ATOM     22  C   UNL A   1      29.378  30.634  21.884  1.00  0.00     0.079 A 
ATOM     23  H   UNL A   1      32.048  29.796  21.703  1.00  0.00     0.446 HD
ATOM     24  C   UNL A   1      28.057  30.705  22.118  1.00  0.00     0.007 A 
ENDBRANCH  14  15
ENDBRANCH  13  14
ENDBRANCH   8  13
ENDBRANCH   6   8
ENDBRANCH   5   6
ENDBRANCH   4   5
ENDBRANCH   3   4
ENDBRANCH   2   3
ENDBRANCH   1   2
BRANCH   1  25
ATOM     25  C   UNL A   1      34.015  33.161  28.062  1.00  0.00     0.188 C 
BRANCH  25  26
ATOM     26  O   UNL A   1      34.770  34.001  28.900  1.00  0.00    -0.376 OA
BRANCH  26  27
ATOM     27  C   UNL A   1      34.263  34.406  30.163  1.00  0.00     0.202 C 
BRANCH  27  28
ATOM     28  C   UNL A   1      34.438  33.664  31.507  1.00  0.00     0.261 C 
BRANCH  28  29
ATOM     29  O   UNL A   1      35.049  32.376  31.485  1.00  0.00    -0.460 OA
BRANCH  29  30
ATOM     30  C   UNL A   1      36.005  32.150  32.429  1.00  0.00     0.338 C 
ATOM     31  O   UNL A   1      35.898  32.247  33.628  1.00  0.00    -0.246 OA
BRANCH  30  32
ATOM     32  C   UNL A   1      37.143  31.501  31.738  1.00  0.00     0.060 A 
ATOM     33  C   UNL A   1      37.246  31.535  30.346  1.00  0.00     0.016 A 
ATOM     34  C   UNL A   1      38.060  30.766  32.503  1.00  0.00     0.016 A 
ATOM     35  C   UNL A   1      38.286  30.849  29.720  1.00  0.00     0.010 A 
ATOM     36  C   UNL A   1      39.089  30.064  31.874  1.00  0.00     0.010 A 
ATOM     37  C   UNL A   1      39.221  30.122  30.480  1.00  0.00    -0.014 A 
BRANCH  37  38
ATOM     38  C   UNL A   1      40.454  29.630  29.824  1.00  0.00     0.031 A 
ATOM     39  C   UNL A   1      40.591  28.240  29.296  1.00  0.00     0.074 A 
ATOM     40  C   UNL A   1      41.464  30.510  29.696  1.00  0.00     0.049 A 
ATOM     41  N   UNL A   1      41.554  27.737  28.564  1.00  0.00    -0.248 NA
ATOM     42  C   UNL A   1      39.526  27.287  29.632  1.00  0.00     0.031 C 
ATOM     43  C   UNL A   1      41.444  31.880  30.211  1.00  0.00     0.029 A 
ATOM     44  N   UNL A   1      42.684  30.396  29.083  1.00  0.00    -0.354 N 
ATOM     45  C   UNL A   1      41.200  26.418  28.321  1.00  0.00     0.074 A 
ATOM     46  C   UNL A   1      39.956  26.183  29.031  1.00  0.00     0.031 C 
ATOM     47  C   UNL A   1      42.585  32.492  29.865  1.00  0.00     0.029 A 
ATOM     48  C   UNL A   1      43.416  31.556  29.115  1.00  0.00     0.049 A 
ATOM     49  H   UNL A   1      43.004  29.566  28.664  1.00  0.00     0.167 HD
ATOM     50  C   UNL A   1      41.849  25.504  27.560  1.00  0.00     0.037 A 
ATOM     51  C   UNL A   1      44.616  31.844  28.581  1.00  0.00     0.037 A 
ATOM     52  C   UNL A   1      43.097  25.748  26.877  1.00  0.00     0.049 A 
ATOM     53  C   UNL A   1      45.327  30.801  27.771  1.00  0.00     0.074 A 
ATOM     54  C   UNL A   1      43.798  24.903  26.033  1.00  0.00     0.029 A 
ATOM     55  N   UNL A   1      43.840  26.917  26.973  1.00  0.00    -0.354 N 
ATOM     56  N   UNL A   1      44.935  29.590  27.460  1.00  0.00    -0.248 NA
ATOM     57  C   UNL A   1      46.642  31.168  27.229  1.00  0.00     0.031 C 
ATOM     58  C   UNL A   1      44.990  25.537  25.665  1.00  0.00     0.029 A 
ATOM     59  C   UNL A   1      45.011  26.798  26.237  1.00  0.00     0.049 A 
ATOM     60  H   UNL A   1      43.576  27.713  27.489  1.00  0.00     0.167 HD
ATOM     61  C   UNL A   1      45.946  29.052  26.677  1.00  0.00     0.074 A 
ATOM     62  C   UNL A   1      46.961  30.079  26.543  1.00  0.00     0.031 C 
ATOM     63  C   UNL A   1      46.024  27.818  26.124  1.00  0.00     0.037 A 
BRANCH  50  64
ATOM     64  C   UNL A   1      41.221  24.150  27.399  1.00  0.00     0.064 A 
ATOM     65  C   UNL A   1      40.090  23.964  26.592  1.00  0.00     0.173 A 
ATOM     66  C   UNL A   1      41.813  23.011  27.971  1.00  0.00     0.173 A 
ATOM     67  F   UNL A   1      39.489  25.018  26.018  1.00  0.00    -0.203 F 
ATOM     68  C   UNL A   1      39.565  22.693  26.372  1.00  0.00     0.198 A 
ATOM     69  C   UNL A   1      41.299  21.740  27.730  1.00  0.00     0.198 A 
ATOM     70  F   UNL A   1      42.907  23.131  28.737  1.00  0.00    -0.203 F 
ATOM     71  F   UNL A   1      38.472  22.542  25.613  1.00  0.00    -0.200 F 
ATOM     72  C   UNL A   1      40.175  21.581  26.934  1.00  0.00     0.200 A 
ATOM     73  F   UNL A   1      41.903  20.665  28.257  1.00  0.00    -0.200 F 
ATOM     74  F   UNL A   1      39.681  20.356  26.704  1.00  0.00    -0.200 F 
ENDBRANCH  50  64
BRANCH  51  75
ATOM     75  C   UNL A   1      45.173  33.206  28.756  1.00  0.00     0.064 A 
ATOM     76  C   UNL A   1      46.015  33.502  29.835  1.00  0.00     0.173 A 
ATOM     77  C   UNL A   1      44.927  34.217  27.816  1.00  0.00     0.173 A 
ATOM     78  F   UNL A   1      46.268  32.567  30.763  1.00  0.00    -0.203 F 
ATOM     79  C   UNL A   1      46.589  34.763  29.971  1.00  0.00     0.198 A 
ATOM     80  C   UNL A   1      45.522  35.470  27.940  1.00  0.00     0.198 A 
ATOM     81  F   UNL A   1      44.137  33.975  26.760  1.00  0.00    -0.203 F 
ATOM     82  F   UNL A   1      47.376  35.029  31.022  1.00  0.00    -0.200 F 
ATOM     83  C   UNL A   1      46.350  35.742  29.018  1.00  0.00     0.200 A 
ATOM     84  F   UNL A   1      45.303  36.407  27.008  1.00  0.00    -0.200 F 
ATOM     85  F   UNL A   1      46.918  36.950  29.139  1.00  0.00    -0.200 F 
ENDBRANCH  51  75
BRANCH  63  86
ATOM     86  C   UNL A   1      47.257  27.497  25.330  1.00  0.00     0.064 A 
ATOM     87  C   UNL A   1      48.361  26.866  25.922  1.00  0.00     0.173 A 
ATOM     88  C   UNL A   1      47.315  27.771  23.956  1.00  0.00     0.173 A 
ATOM     89  F   UNL A   1      48.361  26.598  27.237  1.00  0.00    -0.203 F 
ATOM     90  C   UNL A   1      49.484  26.534  25.169  1.00  0.00     0.198 A 
ATOM     91  C   UNL A   1      48.429  27.414  23.200  1.00  0.00     0.198 A 
ATOM     92  F   UNL A   1      46.285  28.371  23.341  1.00  0.00    -0.203 F 
ATOM     93  F   UNL A   1      50.542  25.965  25.763  1.00  0.00    -0.200 F 
ATOM     94  C   UNL A   1      49.514  26.799  23.808  1.00  0.00     0.200 A 
ATOM     95  F   UNL A   1      48.452  27.660  21.884  1.00  0.00    -0.200 F 
ATOM     96  F   UNL A   1      50.591  26.468  23.083  1.00  0.00    -0.200 F 
ENDBRANCH  63  86
ENDBRANCH  37  38
ENDBRANCH  30  32
ENDBRANCH  29  30
ENDBRANCH  28  29
ENDBRANCH  27  28
ENDBRANCH  26  27
ENDBRANCH  25  26
ENDBRANCH   1  25
TORSDOF 21
ENDMDL
MODEL 3
REMARK VINA RESULT:      -8.7      1.019      7.530
REMARK SMILES [NH3+][C@@H](CCC1=c2ccccc2=[NH+]C1)C(=O)OCCOCCOCCOC(=O)c1ccc(-c2c3nc(c(-c4c(F)c(F)c(F)c(F)c4F)c4ccc([nH]4)c(-c4c(F)c(F)c(F)c(F)c4F)c4nc(c(-c5c(F)c(F)c(F)c(F)c5F)c5ccc2[nH]5)C=C4)C=C3)cc1
REMARK SMILES IDX 20 1 19 2 18 3 17 4 16 5 14 6 15 7 2 8 1 9 3 13 4 14 5 15
REMARK SMILES IDX 6 16 13 17 7 18 11 19 12 20 8 21 10 22 9 24 21 25 22 26
REMARK SMILES IDX 23 27 24 28 25 29 26 30 27 31 28 32 29 33 90 34 30 35 89 36
REMARK SMILES IDX 31 37 32 38 33 39 83 40 34 41 88 42 82 43 84 44 35 45 87 46
REMARK SMILES IDX 81 47 80 48 36 50 68 51 48 52 67 53 49 54 52 55 66 56 85 57
REMARK SMILES IDX 50 58 51 59 65 61 86 62 53 63 37 64 38 65 46 66 39 67 40 68
REMARK SMILES IDX 44 69 47 70 41 71 42 72 45 73 43 74 69 75 70 76 78 77 71 78
REMARK SMILES IDX 72 79 76 80 79 81 73 82 74 83 77 84 75 85 54 86 55 87 63 88
REMARK SMILES IDX 56 89 57 90 61 91 64 92 58 93 59 94 62 95 60 96
REMARK H PARENT 1 10 1 11 1 12 12 23 84 49 52 60
REMARK Flexibility Score: inf
ROOT
ATOM      1  C   UNL A   1      43.749  18.155  26.456  1.00  0.00     0.188 C 
ENDROOT
BRANCH   1   2
ATOM      2  O   UNL A   1      44.933  18.025  25.684  1.00  0.00    -0.376 OA
BRANCH   2   3
ATOM      3  C   UNL A   1      45.049  18.853  24.525  1.00  0.00     0.202 C 
BRANCH   3   4
ATOM      4  C   UNL A   1      45.594  20.270  24.731  1.00  0.00     0.261 C 
BRANCH   4   5
ATOM      5  O   UNL A   1      44.669  21.107  25.462  1.00  0.00    -0.459 OA
BRANCH   5   6
ATOM      6  C   UNL A   1      45.064  22.393  25.671  1.00  0.00     0.364 C 
ATOM      7  O   UNL A   1      46.047  22.717  26.331  1.00  0.00    -0.245 OA
BRANCH   6   8
ATOM      8  C   UNL A   1      44.126  23.444  25.047  1.00  0.00     0.292 C 
BRANCH   8   9
ATOM      9  N   UNL A   1      42.809  22.932  24.632  1.00  0.00    -0.346 N 
ATOM     10  H   UNL A   1      42.076  23.521  25.027  1.00  0.00     0.345 HD
ATOM     11  H   UNL A   1      42.696  21.976  24.969  1.00  0.00     0.345 HD
ATOM     12  H   UNL A   1      42.744  22.944  23.615  1.00  0.00     0.345 HD
ENDBRANCH   8   9
BRANCH   8  13
ATOM     13  C   UNL A   1      44.027  24.702  25.918  1.00  0.00     0.082 C 
BRANCH  13  14
ATOM     14  C   UNL A   1      43.803  26.037  25.190  1.00  0.00     0.045 C 
BRANCH  14  15
ATOM     15  C   UNL A   1      44.811  27.105  25.463  1.00  0.00     0.008 C 
ATOM     16  C   UNL A   1      44.616  28.305  26.006  1.00  0.00     0.051 A 
ATOM     17  C   UNL A   1      46.253  26.925  25.090  1.00  0.00     0.381 C 
ATOM     18  C   UNL A   1      43.494  29.026  26.517  1.00  0.00     0.015 A 
ATOM     19  C   UNL A   1      45.970  28.884  26.012  1.00  0.00     0.206 A 
ATOM     20  N   UNL A   1      46.934  28.173  25.510  1.00  0.00    -0.237 N 
ATOM     21  C   UNL A   1      43.692  30.251  27.030  1.00  0.00     0.001 A 
ATOM     22  C   UNL A   1      46.111  30.231  26.606  1.00  0.00     0.079 A 
ATOM     23  H   UNL A   1      47.887  28.407  25.429  1.00  0.00     0.446 HD
ATOM     24  C   UNL A   1      45.016  30.849  27.080  1.00  0.00     0.007 A 
ENDBRANCH  14  15
ENDBRANCH  13  14
ENDBRANCH   8  13
ENDBRANCH   6   8
ENDBRANCH   5   6
ENDBRANCH   4   5
ENDBRANCH   3   4
ENDBRANCH   2   3
ENDBRANCH   1   2
BRANCH   1  25
ATOM     25  C   UNL A   1      42.409  18.274  25.709  1.00  0.00     0.188 C 
BRANCH  25  26
ATOM     26  O   UNL A   1      41.711  19.488  25.837  1.00  0.00    -0.376 OA
BRANCH  26  27
ATOM     27  C   UNL A   1      41.548  20.097  27.109  1.00  0.00     0.202 C 
BRANCH  27  28
ATOM     28  C   UNL A   1      40.787  21.408  27.411  1.00  0.00     0.261 C 
BRANCH  28  29
ATOM     29  O   UNL A   1      40.550  22.309  26.331  1.00  0.00    -0.460 OA
BRANCH  29  30
ATOM     30  C   UNL A   1      39.368  22.984  26.364  1.00  0.00     0.338 C 
ATOM     31  O   UNL A   1      38.268  22.563  26.094  1.00  0.00    -0.246 OA
BRANCH  30  32
ATOM     32  C   UNL A   1      39.628  24.271  27.049  1.00  0.00     0.060 A 
ATOM     33  C   UNL A   1      39.158  24.498  28.344  1.00  0.00     0.016 A 
ATOM     34  C   UNL A   1      40.269  25.293  26.333  1.00  0.00     0.016 A 
ATOM     35  C   UNL A   1      39.352  25.747  28.932  1.00  0.00     0.010 A 
ATOM     36  C   UNL A   1      40.445  26.548  26.916  1.00  0.00     0.010 A 
ATOM     37  C   UNL A   1      40.008  26.774  28.229  1.00  0.00    -0.014 A 
BRANCH  37  38
ATOM     38  C   UNL A   1      40.434  27.988  28.961  1.00  0.00     0.031 A 
ATOM     39  C   UNL A   1      39.514  29.132  29.237  1.00  0.00     0.074 A 
ATOM     40  C   UNL A   1      41.706  28.015  29.400  1.00  0.00     0.049 A 
ATOM     41  N   UNL A   1      39.719  30.178  30.000  1.00  0.00    -0.248 NA
ATOM     42  C   UNL A   1      38.206  29.115  28.573  1.00  0.00     0.031 C 
ATOM     43  C   UNL A   1      42.695  26.965  29.152  1.00  0.00     0.029 A 
ATOM     44  N   UNL A   1      42.376  28.938  30.159  1.00  0.00    -0.354 N 
ATOM     45  C   UNL A   1      38.555  30.929  29.937  1.00  0.00     0.074 A 
ATOM     46  C   UNL A   1      37.666  30.245  29.017  1.00  0.00     0.031 C 
ATOM     47  C   UNL A   1      43.837  27.286  29.773  1.00  0.00     0.029 A 
ATOM     48  C   UNL A   1      43.663  28.565  30.454  1.00  0.00     0.049 A 
ATOM     49  H   UNL A   1      41.975  29.785  30.461  1.00  0.00     0.167 HD
ATOM     50  C   UNL A   1      38.260  32.070  30.605  1.00  0.00     0.037 A 
ATOM     51  C   UNL A   1      44.595  29.174  31.207  1.00  0.00     0.037 A 
ATOM     52  C   UNL A   1      39.164  32.749  31.503  1.00  0.00     0.049 A 
ATOM     53  C   UNL A   1      44.251  30.454  31.908  1.00  0.00     0.074 A 
ATOM     54  C   UNL A   1      38.931  33.878  32.271  1.00  0.00     0.029 A 
ATOM     55  N   UNL A   1      40.480  32.375  31.738  1.00  0.00    -0.354 N 
ATOM     56  N   UNL A   1      43.113  31.104  31.926  1.00  0.00    -0.248 NA
ATOM     57  C   UNL A   1      45.316  31.082  32.701  1.00  0.00     0.031 C 
ATOM     58  C   UNL A   1      40.120  34.218  32.926  1.00  0.00     0.029 A 
ATOM     59  C   UNL A   1      41.082  33.273  32.608  1.00  0.00     0.049 A 
ATOM     60  H   UNL A   1      40.922  31.588  31.345  1.00  0.00     0.167 HD
ATOM     61  C   UNL A   1      43.317  32.209  32.739  1.00  0.00     0.074 A 
ATOM     62  C   UNL A   1      44.685  32.130  33.213  1.00  0.00     0.031 C 
ATOM     63  C   UNL A   1      42.449  33.198  33.059  1.00  0.00     0.037 A 
BRANCH  50  64
ATOM     64  C   UNL A   1      36.893  32.662  30.416  1.00  0.00     0.064 A 
ATOM     65  C   UNL A   1      35.886  32.489  31.376  1.00  0.00     0.173 A 
ATOM     66  C   UNL A   1      36.617  33.495  29.319  1.00  0.00     0.173 A 
ATOM     67  F   UNL A   1      36.100  31.707  32.445  1.00  0.00    -0.203 F 
ATOM     68  C   UNL A   1      34.649  33.115  31.241  1.00  0.00     0.198 A 
ATOM     69  C   UNL A   1      35.387  34.138  29.199  1.00  0.00     0.198 A 
ATOM     70  F   UNL A   1      37.551  33.709  28.380  1.00  0.00    -0.203 F 
ATOM     71  F   UNL A   1      33.696  32.919  32.162  1.00  0.00    -0.200 F 
ATOM     72  C   UNL A   1      34.404  33.945  30.157  1.00  0.00     0.200 A 
ATOM     73  F   UNL A   1      35.160  34.957  28.163  1.00  0.00    -0.200 F 
ATOM     74  F   UNL A   1      33.220  34.564  30.040  1.00  0.00    -0.200 F 
ENDBRANCH  50  64
BRANCH  51  75
ATOM     75  C   UNL A   1      45.919  28.529  31.373  1.00  0.00     0.064 A 
ATOM     76  C   UNL A   1      47.015  28.933  30.601  1.00  0.00     0.173 A 
ATOM     77  C   UNL A   1      46.128  27.544  32.350  1.00  0.00     0.173 A 
ATOM     78  F   UNL A   1      46.856  29.864  29.649  1.00  0.00    -0.203 F 
ATOM     79  C   UNL A   1      48.274  28.371  30.796  1.00  0.00     0.198 A 
ATOM     80  C   UNL A   1      47.393  27.001  32.560  1.00  0.00     0.198 A 
ATOM     81  F   UNL A   1      45.111  27.135  33.121  1.00  0.00    -0.203 F 
ATOM     82  F   UNL A   1      49.304  28.759  30.031  1.00  0.00    -0.200 F 
ATOM     83  C   UNL A   1      48.464  27.414  31.781  1.00  0.00     0.200 A 
ATOM     84  F   UNL A   1      47.577  26.091  33.525  1.00  0.00    -0.200 F 
ATOM     85  F   UNL A   1      49.681  26.888  31.981  1.00  0.00    -0.200 F 
ENDBRANCH  51  75
BRANCH  63  86
ATOM     86  C   UNL A   1      42.952  34.291  33.958  1.00  0.00     0.064 A 
ATOM     87  C   UNL A   1      42.875  34.179  35.354  1.00  0.00     0.173 A 
ATOM     88  C   UNL A   1      43.565  35.433  33.423  1.00  0.00     0.173 A 
ATOM     89  F   UNL A   1      42.282  33.113  35.914  1.00  0.00    -0.203 F 
ATOM     90  C   UNL A   1      43.381  35.178  36.181  1.00  0.00     0.198 A 
ATOM     91  C   UNL A   1      44.095  36.418  34.253  1.00  0.00     0.198 A 
ATOM     92  F   UNL A   1      43.666  35.587  32.094  1.00  0.00    -0.203 F 
ATOM     93  F   UNL A   1      43.264  35.067  37.511  1.00  0.00    -0.200 F 
ATOM     94  C   UNL A   1      43.999  36.291  35.631  1.00  0.00     0.200 A 
ATOM     95  F   UNL A   1      44.702  37.487  33.721  1.00  0.00    -0.200 F 
ATOM     96  F   UNL A   1      44.497  37.245  36.429  1.00  0.00    -0.200 F 
ENDBRANCH  63  86
ENDBRANCH  37  38
ENDBRANCH  30  32
ENDBRANCH  29  30
ENDBRANCH  28  29
ENDBRANCH  27  28
ENDBRANCH  26  27
ENDBRANCH  25  26
ENDBRANCH   1  25
TORSDOF 21
ENDMDL
