MODEL 1
REMARK VINA RESULT:     -11.1      0.000      0.000
REMARK SMILES Cc1cccc([C@@H](CC(F)(F)F)C(=O)OCCOCCOCCOC(=O)c2ccc(-c3c4nc(c(-c5c(F)c(F)c(F)c(F)c5F)c5ccc([nH]5)c(-c5c(F)c(F)c(F)c(F)c5F)c5nc(c(-c6c(F)c(F)c(F)c(F)c6F)c6ccc3[nH]6)C=C5)C=C4)cc2)c1
REMARK SMILES IDX 19 1 18 2 17 3 16 4 15 5 13 6 14 7 7 8 6 9 1 10 2 11 3 12
REMARK SMILES IDX 90 13 4 14 5 15 8 16 9 17 10 18 11 19 12 20 20 21 21 22
REMARK SMILES IDX 22 23 23 24 24 25 25 26 26 27 27 28 28 29 89 30 29 31 88 32
REMARK SMILES IDX 30 33 31 34 32 35 82 36 33 37 87 38 81 39 83 40 34 41 86 42
REMARK SMILES IDX 80 43 79 44 35 46 67 47 47 48 66 49 48 50 51 51 65 52 84 53
REMARK SMILES IDX 49 54 50 55 64 57 85 58 52 59 36 60 37 61 45 62 38 63 39 64
REMARK SMILES IDX 43 65 46 66 40 67 41 68 44 69 42 70 68 71 69 72 77 73 70 74
REMARK SMILES IDX 71 75 75 76 78 77 72 78 73 79 76 80 74 81 53 82 54 83 62 84
REMARK SMILES IDX 55 85 56 86 60 87 63 88 57 89 58 90 61 91 59 92
REMARK H PARENT 83 45 51 56
REMARK Flexibility Score: inf
ROOT
ATOM      1  C   UNL A   1      34.270  32.856  28.110  1.00  0.00     0.188 C 
ENDROOT
BRANCH   1   2
ATOM      2  O   UNL A   1      33.665  31.616  28.359  1.00  0.00    -0.376 OA
BRANCH   2   3
ATOM      3  C   UNL A   1      33.185  30.847  27.268  1.00  0.00     0.202 C 
BRANCH   3   4
ATOM      4  C   UNL A   1      33.821  29.479  26.811  1.00  0.00     0.261 C 
BRANCH   4   5
ATOM      5  O   UNL A   1      33.502  28.000  27.094  1.00  0.00    -0.463 OA
BRANCH   5   6
ATOM      6  C   UNL A   1      32.529  27.181  26.523  1.00  0.00     0.313 C 
ATOM      7  O   UNL A   1      31.541  26.877  27.175  1.00  0.00    -0.252 OA
BRANCH   6   8
ATOM      8  C   UNL A   1      32.532  26.823  25.009  1.00  0.00     0.138 C 
BRANCH   8   9
ATOM      9  C   UNL A   1      33.396  25.668  24.498  1.00  0.00    -0.033 A 
ATOM     10  C   UNL A   1      36.395  23.733  25.828  1.00  0.00     0.044 C 
ATOM     11  C   UNL A   1      35.296  24.182  24.916  1.00  0.00    -0.051 A 
ATOM     12  C   UNL A   1      35.038  23.486  23.733  1.00  0.00     0.003 A 
ATOM     13  C   UNL A   1      34.474  25.257  25.289  1.00  0.00     0.008 A 
ATOM     14  C   UNL A   1      33.989  23.882  22.915  1.00  0.00     0.001 A 
ATOM     15  C   UNL A   1      33.186  24.965  23.291  1.00  0.00     0.004 A 
ENDBRANCH   8   9
BRANCH   8  16
ATOM     16  C   UNL A   1      31.102  26.810  24.353  1.00  0.00     0.135 C 
BRANCH  16  17
ATOM     17  C   UNL A   1      30.495  28.043  23.695  1.00  0.00     0.390 C 
ATOM     18  F   UNL A   1      30.831  29.187  24.295  1.00  0.00    -0.171 F 
ATOM     19  F   UNL A   1      30.936  28.128  22.411  1.00  0.00    -0.171 F 
ATOM     20  F   UNL A   1      29.151  27.996  23.603  1.00  0.00    -0.171 F 
ENDBRANCH  16  17
ENDBRANCH   8  16
ENDBRANCH   6   8
ENDBRANCH   5   6
ENDBRANCH   4   5
ENDBRANCH   3   4
ENDBRANCH   2   3
ENDBRANCH   1   2
BRANCH   1  21
ATOM     21  C   UNL A   1      33.341  34.072  27.979  1.00  0.00     0.188 C 
BRANCH  21  22
ATOM     22  O   UNL A   1      32.773  34.502  29.213  1.00  0.00    -0.376 OA
BRANCH  22  23
ATOM     23  C   UNL A   1      32.795  35.922  29.402  1.00  0.00     0.202 C 
BRANCH  23  24
ATOM     24  C   UNL A   1      32.755  36.357  30.877  1.00  0.00     0.261 C 
BRANCH  24  25
ATOM     25  O   UNL A   1      32.695  35.185  31.711  1.00  0.00    -0.460 OA
BRANCH  25  26
ATOM     26  C   UNL A   1      33.742  35.046  32.545  1.00  0.00     0.338 C 
ATOM     27  O   UNL A   1      33.997  35.793  33.505  1.00  0.00    -0.246 OA
BRANCH  26  28
ATOM     28  C   UNL A   1      34.702  34.082  31.955  1.00  0.00     0.060 A 
ATOM     29  C   UNL A   1      34.879  32.874  32.593  1.00  0.00     0.016 A 
ATOM     30  C   UNL A   1      35.623  34.433  30.960  1.00  0.00     0.016 A 
ATOM     31  C   UNL A   1      36.055  32.147  32.338  1.00  0.00     0.010 A 
ATOM     32  C   UNL A   1      36.831  33.713  30.799  1.00  0.00     0.010 A 
ATOM     33  C   UNL A   1      37.133  32.603  31.585  1.00  0.00    -0.014 A 
BRANCH  33  34
ATOM     34  C   UNL A   1      38.519  31.979  31.563  1.00  0.00     0.031 A 
ATOM     35  C   UNL A   1      38.658  30.727  30.754  1.00  0.00     0.074 A 
ATOM     36  C   UNL A   1      39.698  32.309  32.211  1.00  0.00     0.049 A 
ATOM     37  N   UNL A   1      39.626  29.879  30.892  1.00  0.00    -0.248 NA
ATOM     38  C   UNL A   1      37.664  30.294  29.776  1.00  0.00     0.031 C 
ATOM     39  C   UNL A   1      41.060  32.003  31.744  1.00  0.00     0.029 A 
ATOM     40  N   UNL A   1      39.980  32.837  33.481  1.00  0.00    -0.354 N 
ATOM     41  C   UNL A   1      39.554  28.977  29.874  1.00  0.00     0.074 A 
ATOM     42  C   UNL A   1      38.281  29.239  29.234  1.00  0.00     0.031 C 
ATOM     43  C   UNL A   1      41.967  32.210  32.717  1.00  0.00     0.029 A 
ATOM     44  C   UNL A   1      41.298  32.613  33.940  1.00  0.00     0.049 A 
ATOM     45  H   UNL A   1      39.311  33.326  34.012  1.00  0.00     0.167 HD
ATOM     46  C   UNL A   1      40.627  28.188  29.586  1.00  0.00     0.037 A 
ATOM     47  C   UNL A   1      41.680  32.369  35.246  1.00  0.00     0.037 A 
ATOM     48  C   UNL A   1      41.761  28.354  30.494  1.00  0.00     0.049 A 
ATOM     49  C   UNL A   1      42.284  30.988  35.377  1.00  0.00     0.074 A 
ATOM     50  C   UNL A   1      42.967  29.033  30.405  1.00  0.00     0.029 A 
ATOM     51  N   UNL A   1      41.654  27.971  31.827  1.00  0.00    -0.354 N 
ATOM     52  N   UNL A   1      42.521  30.216  34.361  1.00  0.00    -0.248 NA
ATOM     53  C   UNL A   1      42.502  30.299  36.657  1.00  0.00     0.031 C 
ATOM     54  C   UNL A   1      43.628  28.961  31.656  1.00  0.00     0.029 A 
ATOM     55  C   UNL A   1      42.818  28.258  32.526  1.00  0.00     0.049 A 
ATOM     56  H   UNL A   1      40.856  27.551  32.224  1.00  0.00     0.167 HD
ATOM     57  C   UNL A   1      42.764  28.952  34.805  1.00  0.00     0.074 A 
ATOM     58  C   UNL A   1      42.722  29.041  36.249  1.00  0.00     0.031 C 
ATOM     59  C   UNL A   1      42.946  27.923  33.935  1.00  0.00     0.037 A 
BRANCH  46  60
ATOM     60  C   UNL A   1      40.696  27.496  28.253  1.00  0.00     0.064 A 
ATOM     61  C   UNL A   1      40.232  26.178  28.082  1.00  0.00     0.173 A 
ATOM     62  C   UNL A   1      41.327  28.067  27.133  1.00  0.00     0.173 A 
ATOM     63  F   UNL A   1      39.532  25.549  29.033  1.00  0.00    -0.203 F 
ATOM     64  C   UNL A   1      40.505  25.441  26.930  1.00  0.00     0.198 A 
ATOM     65  C   UNL A   1      41.654  27.312  26.006  1.00  0.00     0.198 A 
ATOM     66  F   UNL A   1      41.661  29.367  27.125  1.00  0.00    -0.203 F 
ATOM     67  F   UNL A   1      40.065  24.179  26.830  1.00  0.00    -0.200 F 
ATOM     68  C   UNL A   1      41.258  25.992  25.912  1.00  0.00     0.200 A 
ATOM     69  F   UNL A   1      42.386  27.860  25.026  1.00  0.00    -0.200 F 
ATOM     70  F   UNL A   1      41.594  25.255  24.846  1.00  0.00    -0.200 F 
ENDBRANCH  46  60
BRANCH  47  71
ATOM     71  C   UNL A   1      40.994  33.032  36.421  1.00  0.00     0.064 A 
ATOM     72  C   UNL A   1      41.611  34.127  37.057  1.00  0.00     0.173 A 
ATOM     73  C   UNL A   1      39.684  32.744  36.848  1.00  0.00     0.173 A 
ATOM     74  F   UNL A   1      42.887  34.428  36.777  1.00  0.00    -0.203 F 
ATOM     75  C   UNL A   1      40.883  35.017  37.864  1.00  0.00     0.198 A 
ATOM     76  C   UNL A   1      38.960  33.628  37.656  1.00  0.00     0.198 A 
ATOM     77  F   UNL A   1      39.040  31.647  36.426  1.00  0.00    -0.203 F 
ATOM     78  F   UNL A   1      41.451  36.151  38.298  1.00  0.00    -0.200 F 
ATOM     79  C   UNL A   1      39.540  34.795  38.111  1.00  0.00     0.200 A 
ATOM     80  F   UNL A   1      37.665  33.383  37.910  1.00  0.00    -0.200 F 
ATOM     81  F   UNL A   1      38.798  35.719  38.738  1.00  0.00    -0.200 F 
ENDBRANCH  47  71
BRANCH  59  82
ATOM     82  C   UNL A   1      43.354  26.549  34.361  1.00  0.00     0.064 A 
ATOM     83  C   UNL A   1      44.647  26.041  34.141  1.00  0.00     0.173 A 
ATOM     84  C   UNL A   1      42.408  25.641  34.873  1.00  0.00     0.173 A 
ATOM     85  F   UNL A   1      45.599  26.787  33.562  1.00  0.00    -0.203 F 
ATOM     86  C   UNL A   1      44.986  24.730  34.471  1.00  0.00     0.198 A 
ATOM     87  C   UNL A   1      42.735  24.314  35.145  1.00  0.00     0.198 A 
ATOM     88  F   UNL A   1      41.145  26.018  35.125  1.00  0.00    -0.203 F 
ATOM     89  F   UNL A   1      46.246  24.306  34.294  1.00  0.00    -0.200 F 
ATOM     90  C   UNL A   1      44.027  23.863  34.958  1.00  0.00     0.200 A 
ATOM     91  F   UNL A   1      41.787  23.472  35.581  1.00  0.00    -0.200 F 
ATOM     92  F   UNL A   1      44.345  22.592  35.235  1.00  0.00    -0.200 F 
ENDBRANCH  59  82
ENDBRANCH  33  34
ENDBRANCH  26  28
ENDBRANCH  25  26
ENDBRANCH  24  25
ENDBRANCH  23  24
ENDBRANCH  22  23
ENDBRANCH  21  22
ENDBRANCH   1  21
TORSDOF 20
ENDMDL
MODEL 2
REMARK VINA RESULT:     -10.9      5.711     11.315
REMARK SMILES Cc1cccc([C@@H](CC(F)(F)F)C(=O)OCCOCCOCCOC(=O)c2ccc(-c3c4nc(c(-c5c(F)c(F)c(F)c(F)c5F)c5ccc([nH]5)c(-c5c(F)c(F)c(F)c(F)c5F)c5nc(c(-c6c(F)c(F)c(F)c(F)c6F)c6ccc3[nH]6)C=C5)C=C4)cc2)c1
REMARK SMILES IDX 19 1 18 2 17 3 16 4 15 5 13 6 14 7 7 8 6 9 1 10 2 11 3 12
REMARK SMILES IDX 90 13 4 14 5 15 8 16 9 17 10 18 11 19 12 20 20 21 21 22
REMARK SMILES IDX 22 23 23 24 24 25 25 26 26 27 27 28 28 29 89 30 29 31 88 32
REMARK SMILES IDX 30 33 31 34 32 35 82 36 33 37 87 38 81 39 83 40 34 41 86 42
REMARK SMILES IDX 80 43 79 44 35 46 67 47 47 48 66 49 48 50 51 51 65 52 84 53
REMARK SMILES IDX 49 54 50 55 64 57 85 58 52 59 36 60 37 61 45 62 38 63 39 64
REMARK SMILES IDX 43 65 46 66 40 67 41 68 44 69 42 70 68 71 69 72 77 73 70 74
REMARK SMILES IDX 71 75 75 76 78 77 72 78 73 79 76 80 74 81 53 82 54 83 62 84
REMARK SMILES IDX 55 85 56 86 60 87 63 88 57 89 58 90 61 91 59 92
REMARK H PARENT 83 45 51 56
REMARK Flexibility Score: inf
ROOT
ATOM      1  C   UNL A   1      40.057  21.445  26.879  1.00  0.00     0.188 C 
ENDROOT
BRANCH   1   2
ATOM      2  O   UNL A   1      39.915  22.636  26.152  1.00  0.00    -0.376 OA
BRANCH   2   3
ATOM      3  C   UNL A   1      38.765  23.440  26.357  1.00  0.00     0.202 C 
BRANCH   3   4
ATOM      4  C   UNL A   1      37.379  23.189  25.651  1.00  0.00     0.261 C 
BRANCH   4   5
ATOM      5  O   UNL A   1      36.122  24.048  25.418  1.00  0.00    -0.463 OA
BRANCH   5   6
ATOM      6  C   UNL A   1      34.804  23.808  25.800  1.00  0.00     0.313 C 
ATOM      7  O   UNL A   1      34.579  23.192  26.832  1.00  0.00    -0.252 OA
BRANCH   6   8
ATOM      8  C   UNL A   1      33.598  24.490  25.092  1.00  0.00     0.138 C 
BRANCH   8   9
ATOM      9  C   UNL A   1      33.575  26.009  24.914  1.00  0.00    -0.033 A 
ATOM     10  C   UNL A   1      33.669  29.012  27.257  1.00  0.00     0.044 C 
ATOM     11  C   UNL A   1      33.596  28.204  25.998  1.00  0.00    -0.051 A 
ATOM     12  C   UNL A   1      33.623  28.840  24.754  1.00  0.00     0.003 A 
ATOM     13  C   UNL A   1      33.578  26.803  26.067  1.00  0.00     0.008 A 
ATOM     14  C   UNL A   1      33.598  28.083  23.592  1.00  0.00     0.001 A 
ATOM     15  C   UNL A   1      33.566  26.685  23.674  1.00  0.00     0.004 A 
ENDBRANCH   8   9
BRANCH   8  16
ATOM     16  C   UNL A   1      33.119  23.748  23.789  1.00  0.00     0.135 C 
BRANCH  16  17
ATOM     17  C   UNL A   1      31.649  23.460  23.508  1.00  0.00     0.390 C 
ATOM     18  F   UNL A   1      31.048  24.412  22.792  1.00  0.00    -0.171 F 
ATOM     19  F   UNL A   1      31.549  22.307  22.793  1.00  0.00    -0.171 F 
ATOM     20  F   UNL A   1      30.921  23.248  24.622  1.00  0.00    -0.171 F 
ENDBRANCH  16  17
ENDBRANCH   8  16
ENDBRANCH   6   8
ENDBRANCH   5   6
ENDBRANCH   4   5
ENDBRANCH   3   4
ENDBRANCH   2   3
ENDBRANCH   1   2
BRANCH   1  21
ATOM     21  C   UNL A   1      41.331  21.289  27.721  1.00  0.00     0.188 C 
BRANCH  21  22
ATOM     22  O   UNL A   1      41.961  20.017  27.589  1.00  0.00    -0.376 OA
BRANCH  22  23
ATOM     23  C   UNL A   1      41.794  19.415  26.300  1.00  0.00     0.202 C 
BRANCH  23  24
ATOM     24  C   UNL A   1      43.025  18.632  25.813  1.00  0.00     0.261 C 
BRANCH  24  25
ATOM     25  O   UNL A   1      44.154  19.524  25.748  1.00  0.00    -0.460 OA
BRANCH  25  26
ATOM     26  C   UNL A   1      44.314  20.125  24.555  1.00  0.00     0.338 C 
ATOM     27  O   UNL A   1      44.486  19.538  23.473  1.00  0.00    -0.246 OA
BRANCH  26  28
ATOM     28  C   UNL A   1      44.577  21.568  24.775  1.00  0.00     0.060 A 
ATOM     29  C   UNL A   1      45.678  21.917  25.527  1.00  0.00     0.016 A 
ATOM     30  C   UNL A   1      43.637  22.568  24.498  1.00  0.00     0.016 A 
ATOM     31  C   UNL A   1      45.711  23.193  26.115  1.00  0.00     0.010 A 
ATOM     32  C   UNL A   1      43.670  23.809  25.178  1.00  0.00     0.010 A 
ATOM     33  C   UNL A   1      44.662  24.107  26.112  1.00  0.00    -0.014 A 
BRANCH  33  34
ATOM     34  C   UNL A   1      44.561  25.337  26.997  1.00  0.00     0.031 A 
ATOM     35  C   UNL A   1      43.243  26.047  26.981  1.00  0.00     0.074 A 
ATOM     36  C   UNL A   1      45.491  25.992  27.790  1.00  0.00     0.049 A 
ATOM     37  N   UNL A   1      43.073  27.270  27.371  1.00  0.00    -0.248 NA
ATOM     38  C   UNL A   1      42.022  25.452  26.444  1.00  0.00     0.031 C 
ATOM     39  C   UNL A   1      45.196  26.810  28.977  1.00  0.00     0.029 A 
ATOM     40  N   UNL A   1      46.869  26.225  27.658  1.00  0.00    -0.354 N 
ATOM     41  C   UNL A   1      41.736  27.524  27.414  1.00  0.00     0.074 A 
ATOM     42  C   UNL A   1      41.118  26.381  26.774  1.00  0.00     0.031 C 
ATOM     43  C   UNL A   1      46.272  27.523  29.357  1.00  0.00     0.029 A 
ATOM     44  C   UNL A   1      47.367  27.299  28.431  1.00  0.00     0.049 A 
ATOM     45  H   UNL A   1      47.445  25.683  27.072  1.00  0.00     0.167 HD
ATOM     46  C   UNL A   1      41.270  28.604  28.101  1.00  0.00     0.037 A 
ATOM     47  C   UNL A   1      48.372  28.175  28.064  1.00  0.00     0.037 A 
ATOM     48  C   UNL A   1      42.314  29.452  28.677  1.00  0.00     0.049 A 
ATOM     49  C   UNL A   1      47.838  29.586  27.955  1.00  0.00     0.074 A 
ATOM     50  C   UNL A   1      42.837  29.590  29.955  1.00  0.00     0.029 A 
ATOM     51  N   UNL A   1      43.174  30.166  27.850  1.00  0.00    -0.354 N 
ATOM     52  N   UNL A   1      46.630  29.918  28.298  1.00  0.00    -0.248 NA
ATOM     53  C   UNL A   1      48.548  30.690  27.295  1.00  0.00     0.031 C 
ATOM     54  C   UNL A   1      43.942  30.474  29.904  1.00  0.00     0.029 A 
ATOM     55  C   UNL A   1      44.118  30.862  28.591  1.00  0.00     0.049 A 
ATOM     56  H   UNL A   1      43.120  30.176  26.866  1.00  0.00     0.167 HD
ATOM     57  C   UNL A   1      46.349  31.156  27.805  1.00  0.00     0.074 A 
ATOM     58  C   UNL A   1      47.569  31.597  27.165  1.00  0.00     0.031 C 
ATOM     59  C   UNL A   1      45.110  31.701  27.938  1.00  0.00     0.037 A 
BRANCH  46  60
ATOM     60  C   UNL A   1      39.816  28.667  28.479  1.00  0.00     0.064 A 
ATOM     61  C   UNL A   1      38.866  29.294  27.652  1.00  0.00     0.173 A 
ATOM     62  C   UNL A   1      39.335  28.213  29.720  1.00  0.00     0.173 A 
ATOM     63  F   UNL A   1      39.164  29.688  26.409  1.00  0.00    -0.203 F 
ATOM     64  C   UNL A   1      37.571  29.573  28.092  1.00  0.00     0.198 A 
ATOM     65  C   UNL A   1      38.061  28.546  30.184  1.00  0.00     0.198 A 
ATOM     66  F   UNL A   1      40.106  27.457  30.519  1.00  0.00    -0.203 F 
ATOM     67  F   UNL A   1      36.713  30.200  27.275  1.00  0.00    -0.200 F 
ATOM     68  C   UNL A   1      37.185  29.242  29.375  1.00  0.00     0.200 A 
ATOM     69  F   UNL A   1      37.700  28.217  31.433  1.00  0.00    -0.200 F 
ATOM     70  F   UNL A   1      35.972  29.588  29.826  1.00  0.00    -0.200 F 
ENDBRANCH  46  60
BRANCH  47  71
ATOM     71  C   UNL A   1      49.566  27.731  27.246  1.00  0.00     0.064 A 
ATOM     72  C   UNL A   1      50.758  27.364  27.902  1.00  0.00     0.173 A 
ATOM     73  C   UNL A   1      49.541  27.494  25.860  1.00  0.00     0.173 A 
ATOM     74  F   UNL A   1      50.908  27.628  29.208  1.00  0.00    -0.203 F 
ATOM     75  C   UNL A   1      51.740  26.588  27.266  1.00  0.00     0.198 A 
ATOM     76  C   UNL A   1      50.522  26.723  25.224  1.00  0.00     0.198 A 
ATOM     77  F   UNL A   1      48.525  27.923  25.098  1.00  0.00    -0.203 F 
ATOM     78  F   UNL A   1      52.769  26.095  27.970  1.00  0.00    -0.200 F 
ATOM     79  C   UNL A   1      51.587  26.217  25.942  1.00  0.00     0.200 A 
ATOM     80  F   UNL A   1      50.373  26.397  23.931  1.00  0.00    -0.200 F 
ATOM     81  F   UNL A   1      52.430  25.342  25.375  1.00  0.00    -0.200 F 
ENDBRANCH  47  71
BRANCH  59  82
ATOM     82  C   UNL A   1      44.785  33.106  27.543  1.00  0.00     0.064 A 
ATOM     83  C   UNL A   1      45.037  34.206  28.383  1.00  0.00     0.173 A 
ATOM     84  C   UNL A   1      44.067  33.376  26.362  1.00  0.00     0.173 A 
ATOM     85  F   UNL A   1      45.622  34.048  29.580  1.00  0.00    -0.203 F 
ATOM     86  C   UNL A   1      44.653  35.499  28.033  1.00  0.00     0.198 A 
ATOM     87  C   UNL A   1      43.631  34.661  26.045  1.00  0.00     0.198 A 
ATOM     88  F   UNL A   1      43.774  32.403  25.487  1.00  0.00    -0.203 F 
ATOM     89  F   UNL A   1      44.963  36.524  28.840  1.00  0.00    -0.200 F 
ATOM     90  C   UNL A   1      43.937  35.724  26.873  1.00  0.00     0.200 A 
ATOM     91  F   UNL A   1      42.905  34.862  24.937  1.00  0.00    -0.200 F 
ATOM     92  F   UNL A   1      43.533  36.962  26.560  1.00  0.00    -0.200 F 
ENDBRANCH  59  82
ENDBRANCH  33  34
ENDBRANCH  26  28
ENDBRANCH  25  26
ENDBRANCH  24  25
ENDBRANCH  23  24
ENDBRANCH  22  23
ENDBRANCH  21  22
ENDBRANCH   1  21
TORSDOF 20
ENDMDL
MODEL 3
REMARK VINA RESULT:     -10.7      1.275      2.354
REMARK SMILES Cc1cccc([C@@H](CC(F)(F)F)C(=O)OCCOCCOCCOC(=O)c2ccc(-c3c4nc(c(-c5c(F)c(F)c(F)c(F)c5F)c5ccc([nH]5)c(-c5c(F)c(F)c(F)c(F)c5F)c5nc(c(-c6c(F)c(F)c(F)c(F)c6F)c6ccc3[nH]6)C=C5)C=C4)cc2)c1
REMARK SMILES IDX 19 1 18 2 17 3 16 4 15 5 13 6 14 7 7 8 6 9 1 10 2 11 3 12
REMARK SMILES IDX 90 13 4 14 5 15 8 16 9 17 10 18 11 19 12 20 20 21 21 22
REMARK SMILES IDX 22 23 23 24 24 25 25 26 26 27 27 28 28 29 89 30 29 31 88 32
REMARK SMILES IDX 30 33 31 34 32 35 82 36 33 37 87 38 81 39 83 40 34 41 86 42
REMARK SMILES IDX 80 43 79 44 35 46 67 47 47 48 66 49 48 50 51 51 65 52 84 53
REMARK SMILES IDX 49 54 50 55 64 57 85 58 52 59 36 60 37 61 45 62 38 63 39 64
REMARK SMILES IDX 43 65 46 66 40 67 41 68 44 69 42 70 68 71 69 72 77 73 70 74
REMARK SMILES IDX 71 75 75 76 78 77 72 78 73 79 76 80 74 81 53 82 54 83 62 84
REMARK SMILES IDX 55 85 56 86 60 87 63 88 57 89 58 90 61 91 59 92
REMARK H PARENT 83 45 51 56
REMARK Flexibility Score: inf
ROOT
ATOM      1  C   UNL A   1      33.389  32.870  27.844  1.00  0.00     0.188 C 
ENDROOT
BRANCH   1   2
ATOM      2  O   UNL A   1      32.239  32.332  27.250  1.00  0.00    -0.376 OA
BRANCH   2   3
ATOM      3  C   UNL A   1      32.268  30.999  26.764  1.00  0.00     0.202 C 
BRANCH   3   4
ATOM      4  C   UNL A   1      33.543  30.074  26.811  1.00  0.00     0.261 C 
BRANCH   4   5
ATOM      5  O   UNL A   1      34.013  28.853  26.000  1.00  0.00    -0.463 OA
BRANCH   5   6
ATOM      6  C   UNL A   1      33.390  28.209  24.932  1.00  0.00     0.313 C 
ATOM      7  O   UNL A   1      33.924  28.214  23.833  1.00  0.00    -0.252 OA
BRANCH   6   8
ATOM      8  C   UNL A   1      32.156  27.283  25.129  1.00  0.00     0.138 C 
BRANCH   8   9
ATOM      9  C   UNL A   1      30.828  27.623  24.449  1.00  0.00    -0.033 A 
ATOM     10  C   UNL A   1      29.296  30.752  22.908  1.00  0.00     0.044 C 
ATOM     11  C   UNL A   1      29.446  29.339  23.382  1.00  0.00    -0.051 A 
ATOM     12  C   UNL A   1      28.458  28.395  23.097  1.00  0.00     0.003 A 
ATOM     13  C   UNL A   1      30.618  28.946  24.046  1.00  0.00     0.008 A 
ATOM     14  C   UNL A   1      28.625  27.078  23.501  1.00  0.00     0.001 A 
ATOM     15  C   UNL A   1      29.792  26.701  24.177  1.00  0.00     0.004 A 
ENDBRANCH   8   9
BRANCH   8  16
ATOM     16  C   UNL A   1      32.484  25.748  25.021  1.00  0.00     0.135 C 
BRANCH  16  17
ATOM     17  C   UNL A   1      33.899  25.203  25.180  1.00  0.00     0.390 C 
ATOM     18  F   UNL A   1      34.614  25.244  24.054  1.00  0.00    -0.171 F 
ATOM     19  F   UNL A   1      34.566  25.952  26.098  1.00  0.00    -0.171 F 
ATOM     20  F   UNL A   1      33.938  23.943  25.657  1.00  0.00    -0.171 F 
ENDBRANCH  16  17
ENDBRANCH   8  16
ENDBRANCH   6   8
ENDBRANCH   5   6
ENDBRANCH   4   5
ENDBRANCH   3   4
ENDBRANCH   2   3
ENDBRANCH   1   2
BRANCH   1  21
ATOM     21  C   UNL A   1      33.442  34.396  28.005  1.00  0.00     0.188 C 
BRANCH  21  22
ATOM     22  O   UNL A   1      32.617  34.896  29.055  1.00  0.00    -0.376 OA
BRANCH  22  23
ATOM     23  C   UNL A   1      32.870  36.265  29.392  1.00  0.00     0.202 C 
BRANCH  23  24
ATOM     24  C   UNL A   1      32.747  36.571  30.895  1.00  0.00     0.261 C 
BRANCH  24  25
ATOM     25  O   UNL A   1      32.744  35.332  31.628  1.00  0.00    -0.460 OA
BRANCH  25  26
ATOM     26  C   UNL A   1      33.755  35.207  32.507  1.00  0.00     0.338 C 
ATOM     27  O   UNL A   1      34.042  36.032  33.391  1.00  0.00    -0.246 OA
BRANCH  26  28
ATOM     28  C   UNL A   1      34.654  34.118  32.054  1.00  0.00     0.060 A 
ATOM     29  C   UNL A   1      34.942  33.106  32.942  1.00  0.00     0.016 A 
ATOM     30  C   UNL A   1      35.429  34.201  30.890  1.00  0.00     0.016 A 
ATOM     31  C   UNL A   1      36.092  32.328  32.723  1.00  0.00     0.010 A 
ATOM     32  C   UNL A   1      36.623  33.453  30.756  1.00  0.00     0.010 A 
ATOM     33  C   UNL A   1      37.052  32.572  31.746  1.00  0.00    -0.014 A 
BRANCH  33  34
ATOM     34  C   UNL A   1      38.438  31.950  31.697  1.00  0.00     0.031 A 
ATOM     35  C   UNL A   1      38.562  30.695  30.889  1.00  0.00     0.074 A 
ATOM     36  C   UNL A   1      39.630  32.284  32.320  1.00  0.00     0.049 A 
ATOM     37  N   UNL A   1      39.534  29.849  31.010  1.00  0.00    -0.248 NA
ATOM     38  C   UNL A   1      37.548  30.258  29.933  1.00  0.00     0.031 C 
ATOM     39  C   UNL A   1      40.982  31.978  31.826  1.00  0.00     0.029 A 
ATOM     40  N   UNL A   1      39.937  32.816  33.582  1.00  0.00    -0.354 N 
ATOM     41  C   UNL A   1      39.443  28.944  29.996  1.00  0.00     0.074 A 
ATOM     42  C   UNL A   1      38.157  29.203  29.381  1.00  0.00     0.031 C 
ATOM     43  C   UNL A   1      41.908  32.189  32.779  1.00  0.00     0.029 A 
ATOM     44  C   UNL A   1      41.264  32.594  34.015  1.00  0.00     0.049 A 
ATOM     45  H   UNL A   1      39.278  33.305  34.126  1.00  0.00     0.167 HD
ATOM     46  C   UNL A   1      40.510  28.156  29.688  1.00  0.00     0.037 A 
ATOM     47  C   UNL A   1      41.673  32.355  35.313  1.00  0.00     0.037 A 
ATOM     48  C   UNL A   1      41.663  28.326  30.573  1.00  0.00     0.049 A 
ATOM     49  C   UNL A   1      42.282  30.975  35.436  1.00  0.00     0.074 A 
ATOM     50  C   UNL A   1      42.866  29.007  30.457  1.00  0.00     0.029 A 
ATOM     51  N   UNL A   1      41.583  27.947  31.908  1.00  0.00    -0.354 N 
ATOM     52  N   UNL A   1      42.499  30.200  34.417  1.00  0.00    -0.248 NA
ATOM     53  C   UNL A   1      42.527  30.291  36.713  1.00  0.00     0.031 C 
ATOM     54  C   UNL A   1      43.552  28.939  31.694  1.00  0.00     0.029 A 
ATOM     55  C   UNL A   1      42.761  28.238  32.582  1.00  0.00     0.049 A 
ATOM     56  H   UNL A   1      40.794  27.527  32.322  1.00  0.00     0.167 HD
ATOM     57  C   UNL A   1      42.753  28.938  34.860  1.00  0.00     0.074 A 
ATOM     58  C   UNL A   1      42.741  29.031  36.304  1.00  0.00     0.031 C 
ATOM     59  C   UNL A   1      42.919  27.907  33.989  1.00  0.00     0.037 A 
BRANCH  46  60
ATOM     60  C   UNL A   1      40.553  27.460  28.356  1.00  0.00     0.064 A 
ATOM     61  C   UNL A   1      40.025  26.167  28.183  1.00  0.00     0.173 A 
ATOM     62  C   UNL A   1      41.218  27.998  27.240  1.00  0.00     0.173 A 
ATOM     63  F   UNL A   1      39.289  25.574  29.129  1.00  0.00    -0.203 F 
ATOM     64  C   UNL A   1      40.269  25.416  27.033  1.00  0.00     0.198 A 
ATOM     65  C   UNL A   1      41.515  27.227  26.115  1.00  0.00     0.198 A 
ATOM     66  F   UNL A   1      41.616  29.281  27.232  1.00  0.00    -0.203 F 
ATOM     67  F   UNL A   1      39.767  24.177  26.931  1.00  0.00    -0.200 F 
ATOM     68  C   UNL A   1      41.054  25.928  26.020  1.00  0.00     0.200 A 
ATOM     69  F   UNL A   1      42.279  27.738  25.139  1.00  0.00    -0.200 F 
ATOM     70  F   UNL A   1      41.360  25.175  24.956  1.00  0.00    -0.200 F 
ENDBRANCH  46  60
BRANCH  47  71
ATOM     71  C   UNL A   1      41.010  33.020  36.500  1.00  0.00     0.064 A 
ATOM     72  C   UNL A   1      41.619  34.143  37.095  1.00  0.00     0.173 A 
ATOM     73  C   UNL A   1      39.725  32.705  36.979  1.00  0.00     0.173 A 
ATOM     74  F   UNL A   1      42.876  34.473  36.765  1.00  0.00    -0.203 F 
ATOM     75  C   UNL A   1      40.895  35.027  37.912  1.00  0.00     0.198 A 
ATOM     76  C   UNL A   1      39.005  33.583  37.796  1.00  0.00     0.198 A 
ATOM     77  F   UNL A   1      39.097  31.583  36.598  1.00  0.00    -0.203 F 
ATOM     78  F   UNL A   1      41.446  36.185  38.306  1.00  0.00    -0.200 F 
ATOM     79  C   UNL A   1      39.568  34.774  38.210  1.00  0.00     0.200 A 
ATOM     80  F   UNL A   1      37.727  33.308  38.099  1.00  0.00    -0.200 F 
ATOM     81  F   UNL A   1      38.823  35.689  38.847  1.00  0.00    -0.200 F 
ENDBRANCH  47  71
BRANCH  59  82
ATOM     82  C   UNL A   1      43.337  26.535  34.411  1.00  0.00     0.064 A 
ATOM     83  C   UNL A   1      44.647  26.054  34.231  1.00  0.00     0.173 A 
ATOM     84  C   UNL A   1      42.391  25.602  34.876  1.00  0.00     0.173 A 
ATOM     85  F   UNL A   1      45.605  26.827  33.697  1.00  0.00    -0.203 F 
ATOM     86  C   UNL A   1      44.999  24.745  34.555  1.00  0.00     0.198 A 
ATOM     87  C   UNL A   1      42.733  24.278  35.141  1.00  0.00     0.198 A 
ATOM     88  F   UNL A   1      41.113  25.952  35.087  1.00  0.00    -0.203 F 
ATOM     89  F   UNL A   1      46.272  24.348  34.417  1.00  0.00    -0.200 F 
ATOM     90  C   UNL A   1      44.040  23.854  34.995  1.00  0.00     0.200 A 
ATOM     91  F   UNL A   1      41.787  23.412  35.530  1.00  0.00    -0.200 F 
ATOM     92  F   UNL A   1      44.372  22.585  35.266  1.00  0.00    -0.200 F 
ENDBRANCH  59  82
ENDBRANCH  33  34
ENDBRANCH  26  28
ENDBRANCH  25  26
ENDBRANCH  24  25
ENDBRANCH  23  24
ENDBRANCH  22  23
ENDBRANCH  21  22
ENDBRANCH   1  21
TORSDOF 20
ENDMDL
