MODEL 1
REMARK VINA RESULT:     -11.1      0.000      0.000
REMARK SMILES COc1cc(OC)cc(-c2ccc(C(=O)OCCOCCOCCOC(=O)c3ccc(-c4c5nc(c(-c6c(F)c(F)c(F)c(F)c6F)c6ccc([nH]6)c(-c6c(F)c(F)c(F)c(F)c6F)c6nc(c(-c7c(F)c(F)c(F)c(F)c7F)c7ccc4[nH]7)C=C6)C=C5)cc3)o2)c1
REMARK SMILES IDX 20 1 19 2 18 3 17 4 16 5 14 6 15 7 13 8 10 9 11 10 91 11
REMARK SMILES IDX 12 12 9 13 3 14 4 15 92 16 5 17 8 18 2 19 1 20 6 21 7 22
REMARK SMILES IDX 21 23 22 24 23 25 24 26 25 27 26 28 27 29 28 30 29 31 90 32
REMARK SMILES IDX 30 33 89 34 31 35 32 36 33 37 83 38 34 39 88 40 82 41 84 42
REMARK SMILES IDX 35 43 87 44 81 45 80 46 36 48 68 49 48 50 67 51 49 52 52 53
REMARK SMILES IDX 66 54 85 55 50 56 51 57 65 59 86 60 53 61 37 62 38 63 46 64
REMARK SMILES IDX 39 65 40 66 44 67 47 68 41 69 42 70 45 71 43 72 69 73 70 74
REMARK SMILES IDX 78 75 71 76 72 77 76 78 79 79 73 80 74 81 77 82 75 83 54 84
REMARK SMILES IDX 55 85 63 86 56 87 57 88 61 89 64 90 58 91 59 92 62 93 60 94
REMARK H PARENT 84 47 52 58
REMARK Flexibility Score: inf
ROOT
ATOM      1  C   UNL A   1      44.459  18.836  24.669  1.00  0.00     0.188 C 
ENDROOT
BRANCH   1   2
ATOM      2  O   UNL A   1      43.331  18.333  25.376  1.00  0.00    -0.376 OA
BRANCH   2   3
ATOM      3  C   UNL A   1      42.708  19.133  26.371  1.00  0.00     0.202 C 
BRANCH   3   4
ATOM      4  C   UNL A   1      41.243  19.499  26.131  1.00  0.00     0.261 C 
BRANCH   4   5
ATOM      5  O   UNL A   1      41.063  20.915  25.969  1.00  0.00    -0.457 OA
BRANCH   5   6
ATOM      6  C   UNL A   1      40.602  21.593  27.063  1.00  0.00     0.374 C 
ATOM      7  O   UNL A   1      41.095  21.529  28.183  1.00  0.00    -0.242 OA
BRANCH   6   8
ATOM      8  C   UNL A   1      39.527  22.474  26.665  1.00  0.00     0.212 A 
ATOM      9  C   UNL A   1      37.546  22.911  25.804  1.00  0.00     0.135 A 
ATOM     10  C   UNL A   1      38.012  24.101  26.313  1.00  0.00     0.052 A 
ATOM     11  O   UNL A   1      38.461  21.923  25.998  1.00  0.00    -0.449 OA
ATOM     12  C   UNL A   1      39.288  23.823  26.865  1.00  0.00     0.059 A 
BRANCH   9  13
ATOM     13  C   UNL A   1      36.347  22.528  25.085  1.00  0.00     0.025 A 
ATOM     14  C   UNL A   1      34.698  23.049  23.389  1.00  0.00     0.123 A 
ATOM     15  C   UNL A   1      33.985  21.908  23.757  1.00  0.00     0.092 A 
ATOM     16  C   UNL A   1      35.879  23.358  24.057  1.00  0.00     0.058 A 
ATOM     17  C   UNL A   1      34.442  21.065  24.773  1.00  0.00     0.123 A 
ATOM     18  C   UNL A   1      35.633  21.371  25.434  1.00  0.00     0.058 A 
BRANCH  14  19
ATOM     19  O   UNL A   1      34.123  23.792  22.395  1.00  0.00    -0.497 OA
ATOM     20  C   UNL A   1      32.829  23.384  21.965  1.00  0.00     0.278 C 
ENDBRANCH  14  19
BRANCH  17  21
ATOM     21  O   UNL A   1      33.628  19.993  25.017  1.00  0.00    -0.497 OA
ATOM     22  C   UNL A   1      32.536  19.787  24.133  1.00  0.00     0.278 C 
ENDBRANCH  17  21
ENDBRANCH   9  13
ENDBRANCH   6   8
ENDBRANCH   5   6
ENDBRANCH   4   5
ENDBRANCH   3   4
ENDBRANCH   2   3
ENDBRANCH   1   2
BRANCH   1  23
ATOM     23  C   UNL A   1      45.863  18.720  25.290  1.00  0.00     0.188 C 
BRANCH  23  24
ATOM     24  O   UNL A   1      46.536  19.963  25.430  1.00  0.00    -0.376 OA
BRANCH  24  25
ATOM     25  C   UNL A   1      45.871  21.092  24.881  1.00  0.00     0.202 C 
BRANCH  25  26
ATOM     26  C   UNL A   1      45.643  22.187  25.925  1.00  0.00     0.261 C 
BRANCH  26  27
ATOM     27  O   UNL A   1      44.396  22.885  25.783  1.00  0.00    -0.460 OA
BRANCH  27  28
ATOM     28  C   UNL A   1      44.460  24.148  25.310  1.00  0.00     0.338 C 
ATOM     29  O   UNL A   1      44.911  24.519  24.242  1.00  0.00    -0.246 OA
BRANCH  28  30
ATOM     30  C   UNL A   1      43.736  25.022  26.251  1.00  0.00     0.060 A 
ATOM     31  C   UNL A   1      43.999  26.396  26.233  1.00  0.00     0.016 A 
ATOM     32  C   UNL A   1      42.810  24.485  27.150  1.00  0.00     0.016 A 
ATOM     33  C   UNL A   1      43.352  27.234  27.140  1.00  0.00     0.010 A 
ATOM     34  C   UNL A   1      42.176  25.325  28.068  1.00  0.00     0.010 A 
ATOM     35  C   UNL A   1      42.466  26.698  28.086  1.00  0.00    -0.014 A 
BRANCH  35  36
ATOM     36  C   UNL A   1      41.969  27.545  29.197  1.00  0.00     0.031 A 
ATOM     37  C   UNL A   1      42.698  27.510  30.510  1.00  0.00     0.074 A 
ATOM     38  C   UNL A   1      40.892  28.334  29.045  1.00  0.00     0.049 A 
ATOM     39  N   UNL A   1      42.433  28.139  31.628  1.00  0.00    -0.248 NA
ATOM     40  C   UNL A   1      43.889  26.648  30.572  1.00  0.00     0.031 C 
ATOM     41  C   UNL A   1      40.120  28.486  27.816  1.00  0.00     0.029 A 
ATOM     42  N   UNL A   1      40.259  29.153  29.947  1.00  0.00    -0.354 N 
ATOM     43  C   UNL A   1      43.421  27.749  32.522  1.00  0.00     0.074 A 
ATOM     44  C   UNL A   1      44.276  26.811  31.828  1.00  0.00     0.031 C 
ATOM     45  C   UNL A   1      39.110  29.346  28.039  1.00  0.00     0.029 A 
ATOM     46  C   UNL A   1      39.150  29.779  29.436  1.00  0.00     0.049 A 
ATOM     47  H   UNL A   1      40.571  29.280  30.873  1.00  0.00     0.167 HD
ATOM     48  C   UNL A   1      43.604  28.143  33.804  1.00  0.00     0.037 A 
ATOM     49  C   UNL A   1      38.262  30.598  30.035  1.00  0.00     0.037 A 
ATOM     50  C   UNL A   1      42.753  29.069  34.501  1.00  0.00     0.049 A 
ATOM     51  C   UNL A   1      38.437  30.950  31.490  1.00  0.00     0.074 A 
ATOM     52  C   UNL A   1      42.875  29.551  35.792  1.00  0.00     0.029 A 
ATOM     53  N   UNL A   1      41.610  29.643  33.965  1.00  0.00    -0.354 N 
ATOM     54  N   UNL A   1      39.395  30.608  32.318  1.00  0.00    -0.248 NA
ATOM     55  C   UNL A   1      37.400  31.800  32.095  1.00  0.00     0.031 C 
ATOM     56  C   UNL A   1      41.780  30.382  36.053  1.00  0.00     0.029 A 
ATOM     57  C   UNL A   1      40.999  30.451  34.910  1.00  0.00     0.049 A 
ATOM     58  H   UNL A   1      41.281  29.499  33.048  1.00  0.00     0.167 HD
ATOM     59  C   UNL A   1      39.096  31.227  33.525  1.00  0.00     0.074 A 
ATOM     60  C   UNL A   1      37.868  31.966  33.325  1.00  0.00     0.031 C 
ATOM     61  C   UNL A   1      39.782  31.189  34.695  1.00  0.00     0.037 A 
BRANCH  48  62
ATOM     62  C   UNL A   1      44.761  27.544  34.544  1.00  0.00     0.064 A 
ATOM     63  C   UNL A   1      44.643  26.327  35.229  1.00  0.00     0.173 A 
ATOM     64  C   UNL A   1      46.004  28.194  34.561  1.00  0.00     0.173 A 
ATOM     65  F   UNL A   1      43.469  25.678  35.258  1.00  0.00    -0.203 F 
ATOM     66  C   UNL A   1      45.723  25.793  35.927  1.00  0.00     0.198 A 
ATOM     67  C   UNL A   1      47.088  27.645  35.240  1.00  0.00     0.198 A 
ATOM     68  F   UNL A   1      46.165  29.361  33.921  1.00  0.00    -0.203 F 
ATOM     69  F   UNL A   1      45.577  24.651  36.615  1.00  0.00    -0.200 F 
ATOM     70  C   UNL A   1      46.946  26.449  35.928  1.00  0.00     0.200 A 
ATOM     71  F   UNL A   1      48.269  28.277  35.236  1.00  0.00    -0.200 F 
ATOM     72  F   UNL A   1      47.983  25.935  36.601  1.00  0.00    -0.200 F 
ENDBRANCH  48  62
BRANCH  49  73
ATOM     73  C   UNL A   1      37.119  31.146  29.263  1.00  0.00     0.064 A 
ATOM     74  C   UNL A   1      37.077  32.500  28.905  1.00  0.00     0.173 A 
ATOM     75  C   UNL A   1      36.035  30.337  28.893  1.00  0.00     0.173 A 
ATOM     76  F   UNL A   1      38.075  33.319  29.269  1.00  0.00    -0.203 F 
ATOM     77  C   UNL A   1      35.988  33.028  28.216  1.00  0.00     0.198 A 
ATOM     78  C   UNL A   1      34.956  30.862  28.184  1.00  0.00     0.198 A 
ATOM     79  F   UNL A   1      36.022  29.037  29.224  1.00  0.00    -0.203 F 
ATOM     80  F   UNL A   1      35.951  34.336  27.925  1.00  0.00    -0.200 F 
ATOM     81  C   UNL A   1      34.931  32.207  27.852  1.00  0.00     0.200 A 
ATOM     82  F   UNL A   1      33.936  30.065  27.835  1.00  0.00    -0.200 F 
ATOM     83  F   UNL A   1      33.881  32.716  27.193  1.00  0.00    -0.200 F 
ENDBRANCH  49  73
BRANCH  61  84
ATOM     84  C   UNL A   1      39.243  31.997  35.838  1.00  0.00     0.064 A 
ATOM     85  C   UNL A   1      38.329  31.457  36.754  1.00  0.00     0.173 A 
ATOM     86  C   UNL A   1      39.685  33.313  36.047  1.00  0.00     0.173 A 
ATOM     87  F   UNL A   1      37.866  30.208  36.590  1.00  0.00    -0.203 F 
ATOM     88  C   UNL A   1      37.862  32.212  37.827  1.00  0.00     0.198 A 
ATOM     89  C   UNL A   1      39.234  34.056  37.134  1.00  0.00     0.198 A 
ATOM     90  F   UNL A   1      40.563  33.872  35.202  1.00  0.00    -0.203 F 
ATOM     91  F   UNL A   1      36.960  31.689  38.670  1.00  0.00    -0.200 F 
ATOM     92  C   UNL A   1      38.319  33.507  38.020  1.00  0.00     0.200 A 
ATOM     93  F   UNL A   1      39.686  35.303  37.325  1.00  0.00    -0.200 F 
ATOM     94  F   UNL A   1      37.874  34.229  39.058  1.00  0.00    -0.200 F 
ENDBRANCH  61  84
ENDBRANCH  35  36
ENDBRANCH  28  30
ENDBRANCH  27  28
ENDBRANCH  26  27
ENDBRANCH  25  26
ENDBRANCH  24  25
ENDBRANCH  23  24
ENDBRANCH   1  23
TORSDOF 20
ENDMDL
MODEL 2
REMARK VINA RESULT:     -10.5      0.683      7.190
REMARK SMILES COc1cc(OC)cc(-c2ccc(C(=O)OCCOCCOCCOC(=O)c3ccc(-c4c5nc(c(-c6c(F)c(F)c(F)c(F)c6F)c6ccc([nH]6)c(-c6c(F)c(F)c(F)c(F)c6F)c6nc(c(-c7c(F)c(F)c(F)c(F)c7F)c7ccc4[nH]7)C=C6)C=C5)cc3)o2)c1
REMARK SMILES IDX 20 1 19 2 18 3 17 4 16 5 14 6 15 7 13 8 10 9 11 10 91 11
REMARK SMILES IDX 12 12 9 13 3 14 4 15 92 16 5 17 8 18 2 19 1 20 6 21 7 22
REMARK SMILES IDX 21 23 22 24 23 25 24 26 25 27 26 28 27 29 28 30 29 31 90 32
REMARK SMILES IDX 30 33 89 34 31 35 32 36 33 37 83 38 34 39 88 40 82 41 84 42
REMARK SMILES IDX 35 43 87 44 81 45 80 46 36 48 68 49 48 50 67 51 49 52 52 53
REMARK SMILES IDX 66 54 85 55 50 56 51 57 65 59 86 60 53 61 37 62 38 63 46 64
REMARK SMILES IDX 39 65 40 66 44 67 47 68 41 69 42 70 45 71 43 72 69 73 70 74
REMARK SMILES IDX 78 75 71 76 72 77 76 78 79 79 73 80 74 81 77 82 75 83 54 84
REMARK SMILES IDX 55 85 63 86 56 87 57 88 61 89 64 90 58 91 59 92 62 93 60 94
REMARK H PARENT 84 47 52 58
REMARK Flexibility Score: inf
ROOT
ATOM      1  C   UNL A   1      44.110  19.325  24.903  1.00  0.00     0.188 C 
ENDROOT
BRANCH   1   2
ATOM      2  O   UNL A   1      43.314  18.311  25.507  1.00  0.00    -0.376 OA
BRANCH   2   3
ATOM      3  C   UNL A   1      42.416  18.649  26.554  1.00  0.00     0.202 C 
BRANCH   3   4
ATOM      4  C   UNL A   1      41.084  19.273  26.133  1.00  0.00     0.261 C 
BRANCH   4   5
ATOM      5  O   UNL A   1      41.151  20.707  26.098  1.00  0.00    -0.457 OA
BRANCH   5   6
ATOM      6  C   UNL A   1      40.645  21.362  27.186  1.00  0.00     0.374 C 
ATOM      7  O   UNL A   1      41.050  21.222  28.334  1.00  0.00    -0.242 OA
BRANCH   6   8
ATOM      8  C   UNL A   1      39.651  22.317  26.754  1.00  0.00     0.212 A 
ATOM      9  C   UNL A   1      37.702  22.891  25.899  1.00  0.00     0.135 A 
ATOM     10  C   UNL A   1      38.288  24.058  26.332  1.00  0.00     0.052 A 
ATOM     11  O   UNL A   1      38.524  21.833  26.137  1.00  0.00    -0.449 OA
ATOM     12  C   UNL A   1      39.543  23.691  26.879  1.00  0.00     0.059 A 
BRANCH   9  13
ATOM     13  C   UNL A   1      36.457  22.584  25.222  1.00  0.00     0.025 A 
ATOM     14  C   UNL A   1      34.925  23.046  23.404  1.00  0.00     0.123 A 
ATOM     15  C   UNL A   1      34.029  22.125  23.950  1.00  0.00     0.092 A 
ATOM     16  C   UNL A   1      36.139  23.275  24.045  1.00  0.00     0.058 A 
ATOM     17  C   UNL A   1      34.336  21.422  25.117  1.00  0.00     0.123 A 
ATOM     18  C   UNL A   1      35.559  21.644  25.751  1.00  0.00     0.058 A 
BRANCH  14  19
ATOM     19  O   UNL A   1      34.485  23.675  22.272  1.00  0.00    -0.497 OA
ATOM     20  C   UNL A   1      33.429  24.614  22.437  1.00  0.00     0.278 C 
ENDBRANCH  14  19
BRANCH  17  21
ATOM     21  O   UNL A   1      33.352  20.562  25.525  1.00  0.00    -0.497 OA
ATOM     22  C   UNL A   1      32.219  20.418  24.681  1.00  0.00     0.278 C 
ENDBRANCH  17  21
ENDBRANCH   9  13
ENDBRANCH   6   8
ENDBRANCH   5   6
ENDBRANCH   4   5
ENDBRANCH   3   4
ENDBRANCH   2   3
ENDBRANCH   1   2
BRANCH   1  23
ATOM     23  C   UNL A   1      45.639  19.161  24.842  1.00  0.00     0.188 C 
BRANCH  23  24
ATOM     24  O   UNL A   1      46.361  20.345  25.152  1.00  0.00    -0.376 OA
BRANCH  24  25
ATOM     25  C   UNL A   1      45.759  21.562  24.732  1.00  0.00     0.202 C 
BRANCH  25  26
ATOM     26  C   UNL A   1      45.874  22.654  25.797  1.00  0.00     0.261 C 
BRANCH  26  27
ATOM     27  O   UNL A   1      44.692  23.458  25.946  1.00  0.00    -0.460 OA
BRANCH  27  28
ATOM     28  C   UNL A   1      44.807  24.767  25.635  1.00  0.00     0.338 C 
ATOM     29  O   UNL A   1      45.310  25.252  24.638  1.00  0.00    -0.246 OA
BRANCH  28  30
ATOM     30  C   UNL A   1      44.066  25.540  26.649  1.00  0.00     0.060 A 
ATOM     31  C   UNL A   1      44.362  26.898  26.808  1.00  0.00     0.016 A 
ATOM     32  C   UNL A   1      43.093  24.925  27.441  1.00  0.00     0.016 A 
ATOM     33  C   UNL A   1      43.699  27.638  27.786  1.00  0.00     0.010 A 
ATOM     34  C   UNL A   1      42.443  25.665  28.430  1.00  0.00     0.010 A 
ATOM     35  C   UNL A   1      42.764  27.017  28.627  1.00  0.00    -0.014 A 
BRANCH  35  36
ATOM     36  C   UNL A   1      42.243  27.737  29.813  1.00  0.00     0.031 A 
ATOM     37  C   UNL A   1      40.964  28.514  29.679  1.00  0.00     0.074 A 
ATOM     38  C   UNL A   1      42.889  27.701  30.991  1.00  0.00     0.049 A 
ATOM     39  N   UNL A   1      40.332  29.241  30.566  1.00  0.00    -0.248 NA
ATOM     40  C   UNL A   1      40.305  28.463  28.364  1.00  0.00     0.031 C 
ATOM     41  C   UNL A   1      44.114  26.957  31.262  1.00  0.00     0.029 A 
ATOM     42  N   UNL A   1      42.596  28.320  32.181  1.00  0.00    -0.354 N 
ATOM     43  C   UNL A   1      39.208  29.733  29.918  1.00  0.00     0.074 A 
ATOM     44  C   UNL A   1      39.254  29.245  28.557  1.00  0.00     0.031 C 
ATOM     45  C   UNL A   1      44.476  27.165  32.541  1.00  0.00     0.029 A 
ATOM     46  C   UNL A   1      43.520  28.080  33.166  1.00  0.00     0.049 A 
ATOM     47  H   UNL A   1      41.799  28.882  32.316  1.00  0.00     0.167 HD
ATOM     48  C   UNL A   1      38.221  30.516  30.414  1.00  0.00     0.037 A 
ATOM     49  C   UNL A   1      43.592  28.558  34.425  1.00  0.00     0.037 A 
ATOM     50  C   UNL A   1      38.174  31.010  31.764  1.00  0.00     0.049 A 
ATOM     51  C   UNL A   1      42.528  29.502  34.925  1.00  0.00     0.074 A 
ATOM     52  C   UNL A   1      37.200  31.786  32.366  1.00  0.00     0.029 A 
ATOM     53  N   UNL A   1      39.156  30.787  32.717  1.00  0.00    -0.354 N 
ATOM     54  N   UNL A   1      41.448  29.931  34.319  1.00  0.00    -0.248 NA
ATOM     55  C   UNL A   1      42.700  30.030  36.287  1.00  0.00     0.031 C 
ATOM     56  C   UNL A   1      37.614  32.071  33.672  1.00  0.00     0.029 A 
ATOM     57  C   UNL A   1      38.826  31.437  33.896  1.00  0.00     0.049 A 
ATOM     58  H   UNL A   1      39.968  30.247  32.578  1.00  0.00     0.167 HD
ATOM     59  C   UNL A   1      40.796  30.749  35.234  1.00  0.00     0.074 A 
ATOM     60  C   UNL A   1      41.600  30.757  36.437  1.00  0.00     0.031 C 
ATOM     61  C   UNL A   1      39.632  31.429  35.089  1.00  0.00     0.037 A 
BRANCH  48  62
ATOM     62  C   UNL A   1      37.123  30.908  29.474  1.00  0.00     0.064 A 
ATOM     63  C   UNL A   1      37.046  32.199  28.933  1.00  0.00     0.173 A 
ATOM     64  C   UNL A   1      36.139  29.978  29.105  1.00  0.00     0.173 A 
ATOM     65  F   UNL A   1      37.952  33.129  29.271  1.00  0.00    -0.203 F 
ATOM     66  C   UNL A   1      36.008  32.553  28.074  1.00  0.00     0.198 A 
ATOM     67  C   UNL A   1      35.118  30.329  28.228  1.00  0.00     0.198 A 
ATOM     68  F   UNL A   1      36.170  28.731  29.598  1.00  0.00    -0.203 F 
ATOM     69  F   UNL A   1      35.926  33.806  27.605  1.00  0.00    -0.200 F 
ATOM     70  C   UNL A   1      35.048  31.617  27.719  1.00  0.00     0.200 A 
ATOM     71  F   UNL A   1      34.193  29.423  27.882  1.00  0.00    -0.200 F 
ATOM     72  F   UNL A   1      34.049  31.960  26.894  1.00  0.00    -0.200 F 
ENDBRANCH  48  62
BRANCH  49  73
ATOM     73  C   UNL A   1      44.715  28.157  35.309  1.00  0.00     0.064 A 
ATOM     74  C   UNL A   1      45.959  28.798  35.227  1.00  0.00     0.173 A 
ATOM     75  C   UNL A   1      44.578  27.109  36.230  1.00  0.00     0.173 A 
ATOM     76  F   UNL A   1      46.146  29.783  34.335  1.00  0.00    -0.203 F 
ATOM     77  C   UNL A   1      47.027  28.398  36.026  1.00  0.00     0.198 A 
ATOM     78  C   UNL A   1      45.642  26.724  37.044  1.00  0.00     0.198 A 
ATOM     79  F   UNL A   1      43.412  26.455  36.337  1.00  0.00    -0.203 F 
ATOM     80  F   UNL A   1      48.219  28.998  35.896  1.00  0.00    -0.200 F 
ATOM     81  C   UNL A   1      46.866  27.366  36.937  1.00  0.00     0.200 A 
ATOM     82  F   UNL A   1      45.483  25.726  37.924  1.00  0.00    -0.200 F 
ATOM     83  F   UNL A   1      47.896  26.978  37.703  1.00  0.00    -0.200 F 
ENDBRANCH  49  73
BRANCH  61  84
ATOM     84  C   UNL A   1      39.135  32.208  36.271  1.00  0.00     0.064 A 
ATOM     85  C   UNL A   1      38.226  31.658  37.186  1.00  0.00     0.173 A 
ATOM     86  C   UNL A   1      39.613  33.505  36.517  1.00  0.00     0.173 A 
ATOM     87  F   UNL A   1      37.731  30.427  36.988  1.00  0.00    -0.203 F 
ATOM     88  C   UNL A   1      37.799  32.385  38.295  1.00  0.00     0.198 A 
ATOM     89  C   UNL A   1      39.201  34.220  37.638  1.00  0.00     0.198 A 
ATOM     90  F   UNL A   1      40.488  34.074  35.675  1.00  0.00    -0.203 F 
ATOM     91  F   UNL A   1      36.901  31.854  39.136  1.00  0.00    -0.200 F 
ATOM     92  C   UNL A   1      38.291  33.662  38.524  1.00  0.00     0.200 A 
ATOM     93  F   UNL A   1      39.688  35.448  37.864  1.00  0.00    -0.200 F 
ATOM     94  F   UNL A   1      37.885  34.356  39.594  1.00  0.00    -0.200 F 
ENDBRANCH  61  84
ENDBRANCH  35  36
ENDBRANCH  28  30
ENDBRANCH  27  28
ENDBRANCH  26  27
ENDBRANCH  25  26
ENDBRANCH  24  25
ENDBRANCH  23  24
ENDBRANCH   1  23
TORSDOF 20
ENDMDL
MODEL 3
REMARK VINA RESULT:     -10.4      0.540      2.267
REMARK SMILES COc1cc(OC)cc(-c2ccc(C(=O)OCCOCCOCCOC(=O)c3ccc(-c4c5nc(c(-c6c(F)c(F)c(F)c(F)c6F)c6ccc([nH]6)c(-c6c(F)c(F)c(F)c(F)c6F)c6nc(c(-c7c(F)c(F)c(F)c(F)c7F)c7ccc4[nH]7)C=C6)C=C5)cc3)o2)c1
REMARK SMILES IDX 20 1 19 2 18 3 17 4 16 5 14 6 15 7 13 8 10 9 11 10 91 11
REMARK SMILES IDX 12 12 9 13 3 14 4 15 92 16 5 17 8 18 2 19 1 20 6 21 7 22
REMARK SMILES IDX 21 23 22 24 23 25 24 26 25 27 26 28 27 29 28 30 29 31 90 32
REMARK SMILES IDX 30 33 89 34 31 35 32 36 33 37 83 38 34 39 88 40 82 41 84 42
REMARK SMILES IDX 35 43 87 44 81 45 80 46 36 48 68 49 48 50 67 51 49 52 52 53
REMARK SMILES IDX 66 54 85 55 50 56 51 57 65 59 86 60 53 61 37 62 38 63 46 64
REMARK SMILES IDX 39 65 40 66 44 67 47 68 41 69 42 70 45 71 43 72 69 73 70 74
REMARK SMILES IDX 78 75 71 76 72 77 76 78 79 79 73 80 74 81 77 82 75 83 54 84
REMARK SMILES IDX 55 85 63 86 56 87 57 88 61 89 64 90 58 91 59 92 62 93 60 94
REMARK H PARENT 84 47 52 58
REMARK Flexibility Score: inf
ROOT
ATOM      1  C   UNL A   1      43.864  19.366  25.014  1.00  0.00     0.188 C 
ENDROOT
BRANCH   1   2
ATOM      2  O   UNL A   1      42.995  18.384  25.567  1.00  0.00    -0.376 OA
BRANCH   2   3
ATOM      3  C   UNL A   1      42.030  18.764  26.539  1.00  0.00     0.202 C 
BRANCH   3   4
ATOM      4  C   UNL A   1      40.843  19.586  26.033  1.00  0.00     0.261 C 
BRANCH   4   5
ATOM      5  O   UNL A   1      41.116  20.996  26.063  1.00  0.00    -0.457 OA
BRANCH   5   6
ATOM      6  C   UNL A   1      40.622  21.684  27.136  1.00  0.00     0.374 C 
ATOM      7  O   UNL A   1      41.084  21.634  28.269  1.00  0.00    -0.242 OA
BRANCH   6   8
ATOM      8  C   UNL A   1      39.554  22.555  26.699  1.00  0.00     0.212 A 
ATOM      9  C   UNL A   1      37.521  22.971  25.956  1.00  0.00     0.135 A 
ATOM     10  C   UNL A   1      38.087  24.196  26.228  1.00  0.00     0.052 A 
ATOM     11  O   UNL A   1      38.406  21.972  26.224  1.00  0.00    -0.449 OA
ATOM     12  C   UNL A   1      39.396  23.930  26.702  1.00  0.00     0.059 A 
BRANCH   9  13
ATOM     13  C   UNL A   1      36.243  22.554  25.416  1.00  0.00     0.025 A 
ATOM     14  C   UNL A   1      34.756  20.750  24.781  1.00  0.00     0.123 A 
ATOM     15  C   UNL A   1      33.859  21.691  24.276  1.00  0.00     0.092 A 
ATOM     16  C   UNL A   1      35.950  21.185  25.349  1.00  0.00     0.058 A 
ATOM     17  C   UNL A   1      34.132  23.059  24.342  1.00  0.00     0.123 A 
ATOM     18  C   UNL A   1      35.324  23.494  24.923  1.00  0.00     0.058 A 
BRANCH  14  19
ATOM     19  O   UNL A   1      34.370  19.446  24.630  1.00  0.00    -0.497 OA
ATOM     20  C   UNL A   1      33.171  19.058  25.291  1.00  0.00     0.278 C 
ENDBRANCH  14  19
BRANCH  17  21
ATOM     21  O   UNL A   1      33.156  23.849  23.798  1.00  0.00    -0.497 OA
ATOM     22  C   UNL A   1      33.477  24.561  22.612  1.00  0.00     0.278 C 
ENDBRANCH  17  21
ENDBRANCH   9  13
ENDBRANCH   6   8
ENDBRANCH   5   6
ENDBRANCH   4   5
ENDBRANCH   3   4
ENDBRANCH   2   3
ENDBRANCH   1   2
BRANCH   1  23
ATOM     23  C   UNL A   1      45.374  19.081  24.916  1.00  0.00     0.188 C 
BRANCH  23  24
ATOM     24  O   UNL A   1      46.194  20.210  25.182  1.00  0.00    -0.376 OA
BRANCH  24  25
ATOM     25  C   UNL A   1      45.684  21.461  24.742  1.00  0.00     0.202 C 
BRANCH  25  26
ATOM     26  C   UNL A   1      45.662  22.498  25.866  1.00  0.00     0.261 C 
BRANCH  26  27
ATOM     27  O   UNL A   1      44.511  23.358  25.851  1.00  0.00    -0.460 OA
BRANCH  27  28
ATOM     28  C   UNL A   1      44.724  24.649  25.516  1.00  0.00     0.338 C 
ATOM     29  O   UNL A   1      45.309  25.075  24.537  1.00  0.00    -0.246 OA
BRANCH  28  30
ATOM     30  C   UNL A   1      43.980  25.493  26.468  1.00  0.00     0.060 A 
ATOM     31  C   UNL A   1      44.332  26.842  26.590  1.00  0.00     0.016 A 
ATOM     32  C   UNL A   1      42.947  24.953  27.240  1.00  0.00     0.016 A 
ATOM     33  C   UNL A   1      43.665  27.647  27.511  1.00  0.00     0.010 A 
ATOM     34  C   UNL A   1      42.293  25.759  28.173  1.00  0.00     0.010 A 
ATOM     35  C   UNL A   1      42.669  27.102  28.334  1.00  0.00    -0.014 A 
BRANCH  35  36
ATOM     36  C   UNL A   1      42.134  27.890  29.470  1.00  0.00     0.031 A 
ATOM     37  C   UNL A   1      42.848  27.825  30.790  1.00  0.00     0.074 A 
ATOM     38  C   UNL A   1      41.036  28.652  29.335  1.00  0.00     0.049 A 
ATOM     39  N   UNL A   1      42.552  28.402  31.928  1.00  0.00    -0.248 NA
ATOM     40  C   UNL A   1      44.064  26.997  30.834  1.00  0.00     0.031 C 
ATOM     41  C   UNL A   1      40.274  28.830  28.103  1.00  0.00     0.029 A 
ATOM     42  N   UNL A   1      40.369  29.417  30.261  1.00  0.00    -0.354 N 
ATOM     43  C   UNL A   1      43.541  28.006  32.819  1.00  0.00     0.074 A 
ATOM     44  C   UNL A   1      44.431  27.121  32.100  1.00  0.00     0.031 C 
ATOM     45  C   UNL A   1      39.236  29.650  28.347  1.00  0.00     0.029 A 
ATOM     46  C   UNL A   1      39.248  30.030  29.760  1.00  0.00     0.049 A 
ATOM     47  H   UNL A   1      40.666  29.516  31.194  1.00  0.00     0.167 HD
ATOM     48  C   UNL A   1      43.697  28.354  34.117  1.00  0.00     0.037 A 
ATOM     49  C   UNL A   1      38.329  30.798  30.380  1.00  0.00     0.037 A 
ATOM     50  C   UNL A   1      42.811  29.228  34.839  1.00  0.00     0.049 A 
ATOM     51  C   UNL A   1      38.477  31.098  31.849  1.00  0.00     0.074 A 
ATOM     52  C   UNL A   1      42.905  29.662  36.149  1.00  0.00     0.029 A 
ATOM     53  N   UNL A   1      41.658  29.789  34.311  1.00  0.00    -0.354 N 
ATOM     54  N   UNL A   1      39.434  30.752  32.675  1.00  0.00    -0.248 NA
ATOM     55  C   UNL A   1      37.408  31.893  32.473  1.00  0.00     0.031 C 
ATOM     56  C   UNL A   1      41.782  30.450  36.428  1.00  0.00     0.029 A 
ATOM     57  C   UNL A   1      41.013  30.541  35.279  1.00  0.00     0.049 A 
ATOM     58  H   UNL A   1      41.344  29.670  33.385  1.00  0.00     0.167 HD
ATOM     59  C   UNL A   1      39.103  31.314  33.901  1.00  0.00     0.074 A 
ATOM     60  C   UNL A   1      37.856  32.024  33.715  1.00  0.00     0.031 C 
ATOM     61  C   UNL A   1      39.776  31.250  35.077  1.00  0.00     0.037 A 
BRANCH  48  62
ATOM     62  C   UNL A   1      44.863  27.762  34.848  1.00  0.00     0.064 A 
ATOM     63  C   UNL A   1      46.115  28.391  34.866  1.00  0.00     0.173 A 
ATOM     64  C   UNL A   1      44.722  26.553  35.546  1.00  0.00     0.173 A 
ATOM     65  F   UNL A   1      46.305  29.539  34.197  1.00  0.00    -0.203 F 
ATOM     66  C   UNL A   1      47.193  27.818  35.536  1.00  0.00     0.198 A 
ATOM     67  C   UNL A   1      45.795  25.996  36.234  1.00  0.00     0.198 A 
ATOM     68  F   UNL A   1      43.543  25.913  35.557  1.00  0.00    -0.203 F 
ATOM     69  F   UNL A   1      48.395  28.412  35.501  1.00  0.00    -0.200 F 
ATOM     70  C   UNL A   1      47.031  26.624  36.223  1.00  0.00     0.200 A 
ATOM     71  F   UNL A   1      45.637  24.845  36.901  1.00  0.00    -0.200 F 
ATOM     72  F   UNL A   1      48.070  26.073  36.865  1.00  0.00    -0.200 F 
ENDBRANCH  48  62
BRANCH  49  73
ATOM     73  C   UNL A   1      37.179  31.342  29.615  1.00  0.00     0.064 A 
ATOM     74  C   UNL A   1      36.140  30.504  29.185  1.00  0.00     0.173 A 
ATOM     75  C   UNL A   1      37.108  32.700  29.273  1.00  0.00     0.173 A 
ATOM     76  F   UNL A   1      36.184  29.191  29.458  1.00  0.00    -0.203 F 
ATOM     77  C   UNL A   1      35.080  31.002  28.432  1.00  0.00     0.198 A 
ATOM     78  C   UNL A   1      36.035  33.201  28.539  1.00  0.00     0.198 A 
ATOM     79  F   UNL A   1      38.084  33.540  29.649  1.00  0.00    -0.203 F 
ATOM     80  F   UNL A   1      34.123  30.172  27.996  1.00  0.00    -0.200 F 
ATOM     81  C   UNL A   1      35.025  32.351  28.115  1.00  0.00     0.200 A 
ATOM     82  F   UNL A   1      35.986  34.505  28.233  1.00  0.00    -0.200 F 
ATOM     83  F   UNL A   1      34.007  32.829  27.386  1.00  0.00    -0.200 F 
ENDBRANCH  49  73
BRANCH  61  84
ATOM     84  C   UNL A   1      39.201  31.997  36.244  1.00  0.00     0.064 A 
ATOM     85  C   UNL A   1      39.593  33.309  36.544  1.00  0.00     0.173 A 
ATOM     86  C   UNL A   1      38.210  31.407  37.045  1.00  0.00     0.173 A 
ATOM     87  F   UNL A   1      40.546  33.912  35.816  1.00  0.00    -0.203 F 
ATOM     88  C   UNL A   1      39.027  33.998  37.613  1.00  0.00     0.198 A 
ATOM     89  C   UNL A   1      37.630  32.107  38.098  1.00  0.00     0.198 A 
ATOM     90  F   UNL A   1      37.796  30.156  36.796  1.00  0.00    -0.203 F 
ATOM     91  F   UNL A   1      39.443  35.239  37.904  1.00  0.00    -0.200 F 
ATOM     92  C   UNL A   1      38.042  33.400  38.385  1.00  0.00     0.200 A 
ATOM     93  F   UNL A   1      36.669  31.532  38.835  1.00  0.00    -0.200 F 
ATOM     94  F   UNL A   1      37.493  34.068  39.409  1.00  0.00    -0.200 F 
ENDBRANCH  61  84
ENDBRANCH  35  36
ENDBRANCH  28  30
ENDBRANCH  27  28
ENDBRANCH  26  27
ENDBRANCH  25  26
ENDBRANCH  24  25
ENDBRANCH  23  24
ENDBRANCH   1  23
TORSDOF 20
ENDMDL
