MODEL 1
REMARK VINA RESULT:      -9.3      0.000      0.000
REMARK SMILES CCCCCO[C@H](C(=O)OCCOCCOCCOC(=O)c1ccc(-c2c3nc(c(-c4c(F)c(F)c(F)c(F)c4F)c4ccc([nH]4)c(-c4c(F)c(F)c(F)c(F)c4F)c4nc(c(-c5c(F)c(F)c(F)c(F)c5F)c5ccc2[nH]5)C=C4)C=C3)cc1)c1ccccc1
REMARK SMILES IDX 13 1 12 2 11 3 10 4 8 5 9 6 7 7 6 8 5 9 4 10 3 11 2 12 1 13
REMARK SMILES IDX 85 14 86 15 90 16 87 17 89 18 88 19 14 20 15 21 16 22 17 23
REMARK SMILES IDX 18 24 19 25 20 26 21 27 22 28 23 29 84 30 24 31 83 32 25 33
REMARK SMILES IDX 26 34 27 35 77 36 28 37 82 38 76 39 78 40 29 41 81 42 75 43
REMARK SMILES IDX 74 44 30 46 62 47 42 48 61 49 43 50 46 51 60 52 79 53 44 54
REMARK SMILES IDX 45 55 59 57 80 58 47 59 31 60 32 61 40 62 33 63 34 64 38 65
REMARK SMILES IDX 41 66 35 67 36 68 39 69 37 70 63 71 64 72 72 73 65 74 66 75
REMARK SMILES IDX 70 76 73 77 67 78 68 79 71 80 69 81 48 82 49 83 57 84 50 85
REMARK SMILES IDX 51 86 55 87 58 88 52 89 53 90 56 91 54 92
REMARK H PARENT 78 45 46 56
REMARK Flexibility Score: inf
ROOT
ATOM      1  O   UNL A   1      35.864  24.185  25.693  1.00  0.00    -0.376 OA
ENDROOT
BRANCH   1   2
ATOM      2  C   UNL A   1      36.481  23.060  25.073  1.00  0.00     0.202 C 
BRANCH   2   3
ATOM      3  C   UNL A   1      36.243  21.719  25.771  1.00  0.00     0.261 C 
BRANCH   3   4
ATOM      4  O   UNL A   1      35.369  20.857  25.002  1.00  0.00    -0.461 OA
BRANCH   4   5
ATOM      5  C   UNL A   1      34.033  20.993  25.196  1.00  0.00     0.340 C 
ATOM      6  O   UNL A   1      33.523  20.963  26.315  1.00  0.00    -0.249 OA
BRANCH   5   7
ATOM      7  C   UNL A   1      33.178  21.150  23.906  1.00  0.00     0.258 C 
BRANCH   7   8
ATOM      8  O   UNL A   1      32.151  20.125  23.817  1.00  0.00    -0.362 OA
BRANCH   8   9
ATOM      9  C   UNL A   1      32.545  18.785  24.127  1.00  0.00     0.162 C 
BRANCH   9  10
ATOM     10  C   UNL A   1      32.877  17.930  22.901  1.00  0.00     0.028 C 
BRANCH  10  11
ATOM     11  C   UNL A   1      34.009  16.922  23.123  1.00  0.00     0.002 C 
BRANCH  11  12
ATOM     12  C   UNL A   1      34.777  17.167  24.428  1.00  0.00    -0.003 C 
ATOM     13  C   UNL A   1      35.034  15.888  25.219  1.00  0.00     0.004 C 
ENDBRANCH  11  12
ENDBRANCH  10  11
ENDBRANCH   9  10
ENDBRANCH   8   9
ENDBRANCH   7   8
BRANCH   7  14
ATOM     14  C   UNL A   1      32.604  22.488  23.415  1.00  0.00    -0.008 A 
ATOM     15  C   UNL A   1      31.443  22.976  24.058  1.00  0.00     0.007 A 
ATOM     16  C   UNL A   1      33.084  23.251  22.343  1.00  0.00     0.007 A 
ATOM     17  C   UNL A   1      30.893  24.225  23.761  1.00  0.00     0.000 A 
ATOM     18  C   UNL A   1      32.535  24.506  22.038  1.00  0.00     0.000 A 
ATOM     19  C   UNL A   1      31.456  25.003  22.761  1.00  0.00     0.000 A 
ENDBRANCH   7  14
ENDBRANCH   5   7
ENDBRANCH   4   5
ENDBRANCH   3   4
ENDBRANCH   2   3
ENDBRANCH   1   2
BRANCH   1  20
ATOM     20  C   UNL A   1      34.801  24.837  25.008  1.00  0.00     0.188 C 
BRANCH  20  21
ATOM     21  C   UNL A   1      33.797  25.625  25.856  1.00  0.00     0.188 C 
BRANCH  21  22
ATOM     22  O   UNL A   1      33.757  27.009  25.531  1.00  0.00    -0.376 OA
BRANCH  22  23
ATOM     23  C   UNL A   1      33.156  27.829  26.528  1.00  0.00     0.202 C 
BRANCH  23  24
ATOM     24  C   UNL A   1      33.607  29.284  26.398  1.00  0.00     0.261 C 
BRANCH  24  25
ATOM     25  O   UNL A   1      33.507  29.991  27.649  1.00  0.00    -0.460 OA
BRANCH  25  26
ATOM     26  C   UNL A   1      34.469  30.901  27.906  1.00  0.00     0.338 C 
ATOM     27  O   UNL A   1      34.356  32.110  27.947  1.00  0.00    -0.246 OA
BRANCH  26  28
ATOM     28  C   UNL A   1      35.732  30.181  28.152  1.00  0.00     0.060 A 
ATOM     29  C   UNL A   1      35.941  29.545  29.376  1.00  0.00     0.016 A 
ATOM     30  C   UNL A   1      36.752  30.220  27.204  1.00  0.00     0.016 A 
ATOM     31  C   UNL A   1      37.188  28.998  29.687  1.00  0.00     0.010 A 
ATOM     32  C   UNL A   1      37.991  29.638  27.502  1.00  0.00     0.010 A 
ATOM     33  C   UNL A   1      38.237  29.062  28.764  1.00  0.00    -0.014 A 
BRANCH  33  34
ATOM     34  C   UNL A   1      39.624  28.677  29.153  1.00  0.00     0.031 A 
ATOM     35  C   UNL A   1      40.408  29.602  30.046  1.00  0.00     0.074 A 
ATOM     36  C   UNL A   1      40.185  27.516  28.764  1.00  0.00     0.049 A 
ATOM     37  N   UNL A   1      41.690  29.623  30.309  1.00  0.00    -0.248 NA
ATOM     38  C   UNL A   1      39.638  30.652  30.732  1.00  0.00     0.031 C 
ATOM     39  C   UNL A   1      39.521  26.462  28.001  1.00  0.00     0.029 A 
ATOM     40  N   UNL A   1      41.457  27.033  28.963  1.00  0.00    -0.354 N 
ATOM     41  C   UNL A   1      41.889  30.727  31.126  1.00  0.00     0.074 A 
ATOM     42  C   UNL A   1      40.596  31.341  31.333  1.00  0.00     0.031 C 
ATOM     43  C   UNL A   1      40.385  25.451  27.808  1.00  0.00     0.029 A 
ATOM     44  C   UNL A   1      41.687  25.822  28.355  1.00  0.00     0.049 A 
ATOM     45  H   UNL A   1      42.138  27.509  29.491  1.00  0.00     0.167 HD
ATOM     46  C   UNL A   1      43.050  31.193  31.646  1.00  0.00     0.037 A 
ATOM     47  C   UNL A   1      42.829  25.120  28.210  1.00  0.00     0.037 A 
ATOM     48  C   UNL A   1      44.325  30.543  31.496  1.00  0.00     0.049 A 
ATOM     49  C   UNL A   1      44.120  25.682  28.745  1.00  0.00     0.074 A 
ATOM     50  C   UNL A   1      45.560  30.940  31.978  1.00  0.00     0.029 A 
ATOM     51  N   UNL A   1      44.522  29.342  30.833  1.00  0.00    -0.354 N 
ATOM     52  N   UNL A   1      44.326  26.785  29.422  1.00  0.00    -0.248 NA
ATOM     53  C   UNL A   1      45.343  24.914  28.468  1.00  0.00     0.031 C 
ATOM     54  C   UNL A   1      46.510  29.992  31.580  1.00  0.00     0.029 A 
ATOM     55  C   UNL A   1      45.859  28.986  30.885  1.00  0.00     0.049 A 
ATOM     56  H   UNL A   1      43.814  28.819  30.390  1.00  0.00     0.167 HD
ATOM     57  C   UNL A   1      45.693  26.836  29.663  1.00  0.00     0.074 A 
ATOM     58  C   UNL A   1      46.268  25.645  29.076  1.00  0.00     0.031 C 
ATOM     59  C   UNL A   1      46.411  27.790  30.305  1.00  0.00     0.037 A 
BRANCH  46  60
ATOM     60  C   UNL A   1      43.005  32.499  32.382  1.00  0.00     0.064 A 
ATOM     61  C   UNL A   1      42.836  32.568  33.771  1.00  0.00     0.173 A 
ATOM     62  C   UNL A   1      43.162  33.703  31.677  1.00  0.00     0.173 A 
ATOM     63  F   UNL A   1      42.663  31.446  34.487  1.00  0.00    -0.203 F 
ATOM     64  C   UNL A   1      42.805  33.796  34.426  1.00  0.00     0.198 A 
ATOM     65  C   UNL A   1      43.157  34.927  32.338  1.00  0.00     0.198 A 
ATOM     66  F   UNL A   1      43.330  33.690  30.346  1.00  0.00    -0.203 F 
ATOM     67  F   UNL A   1      42.599  33.843  35.750  1.00  0.00    -0.200 F 
ATOM     68  C   UNL A   1      42.971  34.974  33.711  1.00  0.00     0.200 A 
ATOM     69  F   UNL A   1      43.327  36.062  31.646  1.00  0.00    -0.200 F 
ATOM     70  F   UNL A   1      42.947  36.154  34.344  1.00  0.00    -0.200 F 
ENDBRANCH  46  60
BRANCH  47  71
ATOM     71  C   UNL A   1      42.822  23.831  27.466  1.00  0.00     0.064 A 
ATOM     72  C   UNL A   1      43.191  23.774  26.116  1.00  0.00     0.173 A 
ATOM     73  C   UNL A   1      42.421  22.636  28.084  1.00  0.00     0.173 A 
ATOM     74  F   UNL A   1      43.546  24.895  25.471  1.00  0.00    -0.203 F 
ATOM     75  C   UNL A   1      43.150  22.574  25.408  1.00  0.00     0.198 A 
ATOM     76  C   UNL A   1      42.409  21.431  27.384  1.00  0.00     0.198 A 
ATOM     77  F   UNL A   1      42.044  22.638  29.370  1.00  0.00    -0.203 F 
ATOM     78  F   UNL A   1      43.463  22.556  24.105  1.00  0.00    -0.200 F 
ATOM     79  C   UNL A   1      42.768  21.403  26.045  1.00  0.00     0.200 A 
ATOM     80  F   UNL A   1      42.046  20.302  28.005  1.00  0.00    -0.200 F 
ATOM     81  F   UNL A   1      42.731  20.248  25.365  1.00  0.00    -0.200 F 
ENDBRANCH  47  71
BRANCH  59  82
ATOM     82  C   UNL A   1      47.889  27.570  30.436  1.00  0.00     0.064 A 
ATOM     83  C   UNL A   1      48.793  28.089  29.498  1.00  0.00     0.173 A 
ATOM     84  C   UNL A   1      48.408  26.870  31.535  1.00  0.00     0.173 A 
ATOM     85  F   UNL A   1      48.344  28.753  28.423  1.00  0.00    -0.203 F 
ATOM     86  C   UNL A   1      50.164  27.897  29.647  1.00  0.00     0.198 A 
ATOM     87  C   UNL A   1      49.780  26.700  31.692  1.00  0.00     0.198 A 
ATOM     88  F   UNL A   1      47.583  26.360  32.462  1.00  0.00    -0.203 F 
ATOM     89  F   UNL A   1      51.010  28.368  28.719  1.00  0.00    -0.200 F 
ATOM     90  C   UNL A   1      50.656  27.208  30.746  1.00  0.00     0.200 A 
ATOM     91  F   UNL A   1      50.255  26.044  32.760  1.00  0.00    -0.200 F 
ATOM     92  F   UNL A   1      51.977  27.029  30.889  1.00  0.00    -0.200 F 
ENDBRANCH  59  82
ENDBRANCH  33  34
ENDBRANCH  26  28
ENDBRANCH  25  26
ENDBRANCH  24  25
ENDBRANCH  23  24
ENDBRANCH  22  23
ENDBRANCH  21  22
ENDBRANCH  20  21
ENDBRANCH   1  20
TORSDOF 23
ENDMDL
MODEL 2
REMARK VINA RESULT:      -9.1      0.786      2.128
REMARK SMILES CCCCCO[C@H](C(=O)OCCOCCOCCOC(=O)c1ccc(-c2c3nc(c(-c4c(F)c(F)c(F)c(F)c4F)c4ccc([nH]4)c(-c4c(F)c(F)c(F)c(F)c4F)c4nc(c(-c5c(F)c(F)c(F)c(F)c5F)c5ccc2[nH]5)C=C4)C=C3)cc1)c1ccccc1
REMARK SMILES IDX 13 1 12 2 11 3 10 4 8 5 9 6 7 7 6 8 5 9 4 10 3 11 2 12 1 13
REMARK SMILES IDX 85 14 86 15 90 16 87 17 89 18 88 19 14 20 15 21 16 22 17 23
REMARK SMILES IDX 18 24 19 25 20 26 21 27 22 28 23 29 84 30 24 31 83 32 25 33
REMARK SMILES IDX 26 34 27 35 77 36 28 37 82 38 76 39 78 40 29 41 81 42 75 43
REMARK SMILES IDX 74 44 30 46 62 47 42 48 61 49 43 50 46 51 60 52 79 53 44 54
REMARK SMILES IDX 45 55 59 57 80 58 47 59 31 60 32 61 40 62 33 63 34 64 38 65
REMARK SMILES IDX 41 66 35 67 36 68 39 69 37 70 63 71 64 72 72 73 65 74 66 75
REMARK SMILES IDX 70 76 73 77 67 78 68 79 71 80 69 81 48 82 49 83 57 84 50 85
REMARK SMILES IDX 51 86 55 87 58 88 52 89 53 90 56 91 54 92
REMARK H PARENT 78 45 46 56
REMARK Flexibility Score: inf
ROOT
ATOM      1  O   UNL A   1      36.072  24.143  25.273  1.00  0.00    -0.376 OA
ENDROOT
BRANCH   1   2
ATOM      2  C   UNL A   1      36.525  23.005  24.544  1.00  0.00     0.202 C 
BRANCH   2   3
ATOM      3  C   UNL A   1      36.421  21.671  25.288  1.00  0.00     0.261 C 
BRANCH   3   4
ATOM      4  O   UNL A   1      35.204  20.960  24.954  1.00  0.00    -0.461 OA
BRANCH   4   5
ATOM      5  C   UNL A   1      34.091  21.256  25.672  1.00  0.00     0.340 C 
ATOM      6  O   UNL A   1      34.121  21.427  26.890  1.00  0.00    -0.249 OA
BRANCH   5   7
ATOM      7  C   UNL A   1      32.766  21.329  24.861  1.00  0.00     0.258 C 
BRANCH   7   8
ATOM      8  O   UNL A   1      31.905  20.192  25.143  1.00  0.00    -0.362 OA
BRANCH   8   9
ATOM      9  C   UNL A   1      32.541  18.924  25.319  1.00  0.00     0.162 C 
BRANCH   9  10
ATOM     10  C   UNL A   1      32.857  18.194  24.011  1.00  0.00     0.028 C 
BRANCH  10  11
ATOM     11  C   UNL A   1      34.270  17.609  23.939  1.00  0.00     0.002 C 
BRANCH  11  12
ATOM     12  C   UNL A   1      34.324  16.130  24.348  1.00  0.00    -0.003 C 
ATOM     13  C   UNL A   1      35.447  15.823  25.333  1.00  0.00     0.004 C 
ENDBRANCH  11  12
ENDBRANCH  10  11
ENDBRANCH   9  10
ENDBRANCH   8   9
ENDBRANCH   7   8
BRANCH   7  14
ATOM     14  C   UNL A   1      31.909  22.597  24.730  1.00  0.00    -0.008 A 
ATOM     15  C   UNL A   1      31.284  23.086  25.901  1.00  0.00     0.007 A 
ATOM     16  C   UNL A   1      31.630  23.289  23.545  1.00  0.00     0.007 A 
ATOM     17  C   UNL A   1      30.563  24.282  25.919  1.00  0.00     0.000 A 
ATOM     18  C   UNL A   1      30.905  24.490  23.556  1.00  0.00     0.000 A 
ATOM     19  C   UNL A   1      30.393  24.999  24.745  1.00  0.00     0.000 A 
ENDBRANCH   7  14
ENDBRANCH   5   7
ENDBRANCH   4   5
ENDBRANCH   3   4
ENDBRANCH   2   3
ENDBRANCH   1   2
BRANCH   1  20
ATOM     20  C   UNL A   1      34.909  24.821  24.812  1.00  0.00     0.188 C 
BRANCH  20  21
ATOM     21  C   UNL A   1      34.072  25.569  25.856  1.00  0.00     0.188 C 
BRANCH  21  22
ATOM     22  O   UNL A   1      33.711  26.882  25.445  1.00  0.00    -0.376 OA
BRANCH  22  23
ATOM     23  C   UNL A   1      33.344  27.751  26.513  1.00  0.00     0.202 C 
BRANCH  23  24
ATOM     24  C   UNL A   1      34.038  29.107  26.389  1.00  0.00     0.261 C 
BRANCH  24  25
ATOM     25  O   UNL A   1      34.051  29.820  27.641  1.00  0.00    -0.460 OA
BRANCH  25  26
ATOM     26  C   UNL A   1      35.052  30.706  27.820  1.00  0.00     0.338 C 
ATOM     27  O   UNL A   1      34.980  31.919  27.815  1.00  0.00    -0.246 OA
BRANCH  26  28
ATOM     28  C   UNL A   1      36.300  29.954  28.047  1.00  0.00     0.060 A 
ATOM     29  C   UNL A   1      36.485  29.263  29.244  1.00  0.00     0.016 A 
ATOM     30  C   UNL A   1      37.329  30.015  27.111  1.00  0.00     0.016 A 
ATOM     31  C   UNL A   1      37.719  28.682  29.544  1.00  0.00     0.010 A 
ATOM     32  C   UNL A   1      38.554  29.399  27.395  1.00  0.00     0.010 A 
ATOM     33  C   UNL A   1      38.778  28.765  28.633  1.00  0.00    -0.014 A 
BRANCH  33  34
ATOM     34  C   UNL A   1      40.154  28.340  29.018  1.00  0.00     0.031 A 
ATOM     35  C   UNL A   1      40.965  29.238  29.915  1.00  0.00     0.074 A 
ATOM     36  C   UNL A   1      40.682  27.166  28.622  1.00  0.00     0.049 A 
ATOM     37  N   UNL A   1      42.248  29.221  30.176  1.00  0.00    -0.248 NA
ATOM     38  C   UNL A   1      40.226  30.305  30.608  1.00  0.00     0.031 C 
ATOM     39  C   UNL A   1      39.988  26.135  27.854  1.00  0.00     0.029 A 
ATOM     40  N   UNL A   1      41.940  26.646  28.816  1.00  0.00    -0.354 N 
ATOM     41  C   UNL A   1      42.479  30.315  30.999  1.00  0.00     0.074 A 
ATOM     42  C   UNL A   1      41.203  30.964  31.212  1.00  0.00     0.031 C 
ATOM     43  C   UNL A   1      40.824  25.101  27.654  1.00  0.00     0.029 A 
ATOM     44  C   UNL A   1      42.136  25.433  28.201  1.00  0.00     0.049 A 
ATOM     45  H   UNL A   1      42.635  27.101  29.346  1.00  0.00     0.167 HD
ATOM     46  C   UNL A   1      43.653  30.746  31.520  1.00  0.00     0.037 A 
ATOM     47  C   UNL A   1      43.257  24.700  28.051  1.00  0.00     0.037 A 
ATOM     48  C   UNL A   1      44.909  30.061  31.365  1.00  0.00     0.049 A 
ATOM     49  C   UNL A   1      44.565  25.223  28.587  1.00  0.00     0.074 A 
ATOM     50  C   UNL A   1      46.156  30.421  31.847  1.00  0.00     0.029 A 
ATOM     51  N   UNL A   1      45.071  28.858  30.694  1.00  0.00    -0.354 N 
ATOM     52  N   UNL A   1      44.802  26.316  29.270  1.00  0.00    -0.248 NA
ATOM     53  C   UNL A   1      45.765  24.422  28.304  1.00  0.00     0.031 C 
ATOM     54  C   UNL A   1      47.078  29.449  31.443  1.00  0.00     0.029 A 
ATOM     55  C   UNL A   1      46.398  28.465  30.742  1.00  0.00     0.049 A 
ATOM     56  H   UNL A   1      44.349  28.358  30.250  1.00  0.00     0.167 HD
ATOM     57  C   UNL A   1      46.171  26.328  29.509  1.00  0.00     0.074 A 
ATOM     58  C   UNL A   1      46.711  25.124  28.914  1.00  0.00     0.031 C 
ATOM     59  C   UNL A   1      46.916  27.258  30.155  1.00  0.00     0.037 A 
BRANCH  46  60
ATOM     60  C   UNL A   1      43.645  32.048  32.263  1.00  0.00     0.064 A 
ATOM     61  C   UNL A   1      43.794  33.280  31.612  1.00  0.00     0.173 A 
ATOM     62  C   UNL A   1      43.457  32.057  33.654  1.00  0.00     0.173 A 
ATOM     63  F   UNL A   1      43.996  33.323  30.287  1.00  0.00    -0.203 F 
ATOM     64  C   UNL A   1      43.776  34.473  32.331  1.00  0.00     0.198 A 
ATOM     65  C   UNL A   1      43.413  33.252  34.365  1.00  0.00     0.198 A 
ATOM     66  F   UNL A   1      43.307  30.903  34.323  1.00  0.00    -0.203 F 
ATOM     67  F   UNL A   1      43.963  35.638  31.696  1.00  0.00    -0.200 F 
ATOM     68  C   UNL A   1      43.580  34.459  33.704  1.00  0.00     0.200 A 
ATOM     69  F   UNL A   1      43.214  33.235  35.691  1.00  0.00    -0.200 F 
ATOM     70  F   UNL A   1      43.557  35.609  34.392  1.00  0.00    -0.200 F 
ENDBRANCH  46  60
BRANCH  47  71
ATOM     71  C   UNL A   1      43.213  23.416  27.300  1.00  0.00     0.064 A 
ATOM     72  C   UNL A   1      42.682  22.257  27.884  1.00  0.00     0.173 A 
ATOM     73  C   UNL A   1      43.724  23.315  25.998  1.00  0.00     0.173 A 
ATOM     74  F   UNL A   1      42.216  22.294  29.140  1.00  0.00    -0.203 F 
ATOM     75  C   UNL A   1      42.673  21.045  27.196  1.00  0.00     0.198 A 
ATOM     76  C   UNL A   1      43.687  22.109  25.300  1.00  0.00     0.198 A 
ATOM     77  F   UNL A   1      44.256  24.390  25.399  1.00  0.00    -0.203 F 
ATOM     78  F   UNL A   1      42.204  19.941  27.794  1.00  0.00    -0.200 F 
ATOM     79  C   UNL A   1      43.168  20.974  25.902  1.00  0.00     0.200 A 
ATOM     80  F   UNL A   1      44.159  22.048  24.048  1.00  0.00    -0.200 F 
ATOM     81  F   UNL A   1      43.156  19.808  25.241  1.00  0.00    -0.200 F 
ENDBRANCH  47  71
BRANCH  59  82
ATOM     82  C   UNL A   1      48.387  26.995  30.283  1.00  0.00     0.064 A 
ATOM     83  C   UNL A   1      48.902  26.199  31.316  1.00  0.00     0.173 A 
ATOM     84  C   UNL A   1      49.285  27.511  29.337  1.00  0.00     0.173 A 
ATOM     85  F   UNL A   1      48.084  25.696  32.252  1.00  0.00    -0.203 F 
ATOM     86  C   UNL A   1      50.268  25.945  31.407  1.00  0.00     0.198 A 
ATOM     87  C   UNL A   1      50.647  27.235  29.419  1.00  0.00     0.198 A 
ATOM     88  F   UNL A   1      48.840  28.273  28.327  1.00  0.00    -0.203 F 
ATOM     89  F   UNL A   1      50.745  25.213  32.424  1.00  0.00    -0.200 F 
ATOM     90  C   UNL A   1      51.138  26.458  30.456  1.00  0.00     0.200 A 
ATOM     91  F   UNL A   1      51.485  27.722  28.493  1.00  0.00    -0.200 F 
ATOM     92  F   UNL A   1      52.452  26.207  30.544  1.00  0.00    -0.200 F 
ENDBRANCH  59  82
ENDBRANCH  33  34
ENDBRANCH  26  28
ENDBRANCH  25  26
ENDBRANCH  24  25
ENDBRANCH  23  24
ENDBRANCH  22  23
ENDBRANCH  21  22
ENDBRANCH  20  21
ENDBRANCH   1  20
TORSDOF 23
ENDMDL
MODEL 3
REMARK VINA RESULT:      -9.1      6.284     10.063
REMARK SMILES CCCCCO[C@H](C(=O)OCCOCCOCCOC(=O)c1ccc(-c2c3nc(c(-c4c(F)c(F)c(F)c(F)c4F)c4ccc([nH]4)c(-c4c(F)c(F)c(F)c(F)c4F)c4nc(c(-c5c(F)c(F)c(F)c(F)c5F)c5ccc2[nH]5)C=C4)C=C3)cc1)c1ccccc1
REMARK SMILES IDX 13 1 12 2 11 3 10 4 8 5 9 6 7 7 6 8 5 9 4 10 3 11 2 12 1 13
REMARK SMILES IDX 85 14 86 15 90 16 87 17 89 18 88 19 14 20 15 21 16 22 17 23
REMARK SMILES IDX 18 24 19 25 20 26 21 27 22 28 23 29 84 30 24 31 83 32 25 33
REMARK SMILES IDX 26 34 27 35 77 36 28 37 82 38 76 39 78 40 29 41 81 42 75 43
REMARK SMILES IDX 74 44 30 46 62 47 42 48 61 49 43 50 46 51 60 52 79 53 44 54
REMARK SMILES IDX 45 55 59 57 80 58 47 59 31 60 32 61 40 62 33 63 34 64 38 65
REMARK SMILES IDX 41 66 35 67 36 68 39 69 37 70 63 71 64 72 72 73 65 74 66 75
REMARK SMILES IDX 70 76 73 77 67 78 68 79 71 80 69 81 48 82 49 83 57 84 50 85
REMARK SMILES IDX 51 86 55 87 58 88 52 89 53 90 56 91 54 92
REMARK H PARENT 78 45 46 56
REMARK Flexibility Score: inf
ROOT
ATOM      1  O   UNL A   1      37.260  32.617  37.808  1.00  0.00    -0.376 OA
ENDROOT
BRANCH   1   2
ATOM      2  C   UNL A   1      38.322  32.065  37.034  1.00  0.00     0.202 C 
BRANCH   2   3
ATOM      3  C   UNL A   1      37.898  31.415  35.714  1.00  0.00     0.261 C 
BRANCH   3   4
ATOM      4  O   UNL A   1      39.039  31.024  34.913  1.00  0.00    -0.461 OA
BRANCH   4   5
ATOM      5  C   UNL A   1      38.789  30.456  33.706  1.00  0.00     0.340 C 
ATOM      6  O   UNL A   1      38.123  29.428  33.588  1.00  0.00    -0.249 OA
BRANCH   5   7
ATOM      7  C   UNL A   1      39.430  31.167  32.480  1.00  0.00     0.258 C 
BRANCH   7   8
ATOM      8  O   UNL A   1      40.365  30.297  31.787  1.00  0.00    -0.362 OA
BRANCH   8   9
ATOM      9  C   UNL A   1      39.880  29.013  31.384  1.00  0.00     0.162 C 
BRANCH   9  10
ATOM     10  C   UNL A   1      40.278  28.611  29.961  1.00  0.00     0.028 C 
BRANCH  10  11
ATOM     11  C   UNL A   1      39.654  29.477  28.863  1.00  0.00     0.002 C 
BRANCH  11  12
ATOM     12  C   UNL A   1      38.235  29.030  28.487  1.00  0.00    -0.003 C 
ATOM     13  C   UNL A   1      37.465  30.085  27.700  1.00  0.00     0.004 C 
ENDBRANCH  11  12
ENDBRANCH  10  11
ENDBRANCH   9  10
ENDBRANCH   8   9
ENDBRANCH   7   8
BRANCH   7  14
ATOM     14  C   UNL A   1      38.635  31.985  31.450  1.00  0.00    -0.008 A 
ATOM     15  C   UNL A   1      39.325  33.004  30.754  1.00  0.00     0.007 A 
ATOM     16  C   UNL A   1      37.268  31.862  31.173  1.00  0.00     0.007 A 
ATOM     17  C   UNL A   1      38.731  33.743  29.729  1.00  0.00     0.000 A 
ATOM     18  C   UNL A   1      36.664  32.603  30.146  1.00  0.00     0.000 A 
ATOM     19  C   UNL A   1      37.400  33.524  29.409  1.00  0.00     0.000 A 
ENDBRANCH   7  14
ENDBRANCH   5   7
ENDBRANCH   4   5
ENDBRANCH   3   4
ENDBRANCH   2   3
ENDBRANCH   1   2
BRANCH   1  20
ATOM     20  C   UNL A   1      36.957  32.020  39.063  1.00  0.00     0.188 C 
BRANCH  20  21
ATOM     21  C   UNL A   1      37.799  32.453  40.269  1.00  0.00     0.188 C 
BRANCH  21  22
ATOM     22  O   UNL A   1      37.404  33.712  40.801  1.00  0.00    -0.376 OA
BRANCH  22  23
ATOM     23  C   UNL A   1      38.486  34.594  41.086  1.00  0.00     0.202 C 
BRANCH  23  24
ATOM     24  C   UNL A   1      39.443  34.699  39.899  1.00  0.00     0.261 C 
BRANCH  24  25
ATOM     25  O   UNL A   1      38.891  35.495  38.833  1.00  0.00    -0.460 OA
BRANCH  25  26
ATOM     26  C   UNL A   1      39.708  36.417  38.283  1.00  0.00     0.338 C 
ATOM     27  O   UNL A   1      39.908  37.554  38.664  1.00  0.00    -0.246 OA
BRANCH  26  28
ATOM     28  C   UNL A   1      40.363  35.813  37.108  1.00  0.00     0.060 A 
ATOM     29  C   UNL A   1      39.587  35.328  36.055  1.00  0.00     0.016 A 
ATOM     30  C   UNL A   1      41.744  35.638  37.093  1.00  0.00     0.016 A 
ATOM     31  C   UNL A   1      40.177  34.610  35.012  1.00  0.00     0.010 A 
ATOM     32  C   UNL A   1      42.340  34.952  36.028  1.00  0.00     0.010 A 
ATOM     33  C   UNL A   1      41.558  34.391  34.999  1.00  0.00    -0.014 A 
BRANCH  33  34
ATOM     34  C   UNL A   1      42.176  33.456  34.016  1.00  0.00     0.031 A 
ATOM     35  C   UNL A   1      42.618  33.997  32.681  1.00  0.00     0.074 A 
ATOM     36  C   UNL A   1      42.386  32.155  34.293  1.00  0.00     0.049 A 
ATOM     37  N   UNL A   1      42.935  33.358  31.583  1.00  0.00    -0.248 NA
ATOM     38  C   UNL A   1      42.709  35.461  32.570  1.00  0.00     0.031 C 
ATOM     39  C   UNL A   1      42.125  31.503  35.575  1.00  0.00     0.029 A 
ATOM     40  N   UNL A   1      42.869  31.143  33.497  1.00  0.00    -0.354 N 
ATOM     41  C   UNL A   1      43.188  34.340  30.636  1.00  0.00     0.074 A 
ATOM     42  C   UNL A   1      43.008  35.618  31.290  1.00  0.00     0.031 C 
ATOM     43  C   UNL A   1      42.465  30.206  35.483  1.00  0.00     0.029 A 
ATOM     44  C   UNL A   1      42.881  29.915  34.114  1.00  0.00     0.049 A 
ATOM     45  H   UNL A   1      43.177  31.284  32.573  1.00  0.00     0.167 HD
ATOM     46  C   UNL A   1      43.528  34.188  29.333  1.00  0.00     0.037 A 
ATOM     47  C   UNL A   1      43.145  28.690  33.618  1.00  0.00     0.037 A 
ATOM     48  C   UNL A   1      43.775  32.919  28.703  1.00  0.00     0.049 A 
ATOM     49  C   UNL A   1      43.466  28.534  32.154  1.00  0.00     0.074 A 
ATOM     50  C   UNL A   1      44.117  32.659  27.386  1.00  0.00     0.029 A 
ATOM     51  N   UNL A   1      43.731  31.696  29.353  1.00  0.00    -0.354 N 
ATOM     52  N   UNL A   1      43.595  29.456  31.231  1.00  0.00    -0.248 NA
ATOM     53  C   UNL A   1      43.648  27.162  31.658  1.00  0.00     0.031 C 
ATOM     54  C   UNL A   1      44.251  31.274  27.235  1.00  0.00     0.029 A 
ATOM     55  C   UNL A   1      44.031  30.676  28.465  1.00  0.00     0.049 A 
ATOM     56  H   UNL A   1      43.518  31.571  30.307  1.00  0.00     0.167 HD
ATOM     57  C   UNL A   1      43.885  28.779  30.053  1.00  0.00     0.074 A 
ATOM     58  C   UNL A   1      43.932  27.370  30.379  1.00  0.00     0.031 C 
ATOM     59  C   UNL A   1      44.085  29.280  28.810  1.00  0.00     0.037 A 
BRANCH  46  60
ATOM     60  C   UNL A   1      43.601  35.424  28.487  1.00  0.00     0.064 A 
ATOM     61  C   UNL A   1      42.459  36.018  27.933  1.00  0.00     0.173 A 
ATOM     62  C   UNL A   1      44.842  36.037  28.253  1.00  0.00     0.173 A 
ATOM     63  F   UNL A   1      41.253  35.459  28.112  1.00  0.00    -0.203 F 
ATOM     64  C   UNL A   1      42.560  37.170  27.157  1.00  0.00     0.198 A 
ATOM     65  C   UNL A   1      44.936  37.203  27.499  1.00  0.00     0.198 A 
ATOM     66  F   UNL A   1      45.964  35.509  28.764  1.00  0.00    -0.203 F 
ATOM     67  F   UNL A   1      41.462  37.699  26.600  1.00  0.00    -0.200 F 
ATOM     68  C   UNL A   1      43.796  37.765  26.946  1.00  0.00     0.200 A 
ATOM     69  F   UNL A   1      46.130  37.780  27.304  1.00  0.00    -0.200 F 
ATOM     70  F   UNL A   1      43.889  38.876  26.203  1.00  0.00    -0.200 F 
ENDBRANCH  46  60
BRANCH  47  71
ATOM     71  C   UNL A   1      43.055  27.493  34.499  1.00  0.00     0.064 A 
ATOM     72  C   UNL A   1      41.841  26.813  34.670  1.00  0.00     0.173 A 
ATOM     73  C   UNL A   1      44.171  27.023  35.206  1.00  0.00     0.173 A 
ATOM     74  F   UNL A   1      40.738  27.246  34.044  1.00  0.00    -0.203 F 
ATOM     75  C   UNL A   1      41.746  25.714  35.522  1.00  0.00     0.198 A 
ATOM     76  C   UNL A   1      44.082  25.906  36.035  1.00  0.00     0.198 A 
ATOM     77  F   UNL A   1      45.353  27.647  35.089  1.00  0.00    -0.203 F 
ATOM     78  F   UNL A   1      40.564  25.111  35.705  1.00  0.00    -0.200 F 
ATOM     79  C   UNL A   1      42.868  25.257  36.197  1.00  0.00     0.200 A 
ATOM     80  F   UNL A   1      45.171  25.464  36.679  1.00  0.00    -0.200 F 
ATOM     81  F   UNL A   1      42.777  24.199  37.014  1.00  0.00    -0.200 F 
ENDBRANCH  47  71
BRANCH  59  82
ATOM     82  C   UNL A   1      44.406  28.304  27.717  1.00  0.00     0.064 A 
ATOM     83  C   UNL A   1      43.422  27.854  26.825  1.00  0.00     0.173 A 
ATOM     84  C   UNL A   1      45.720  27.850  27.534  1.00  0.00     0.173 A 
ATOM     85  F   UNL A   1      42.149  28.249  26.969  1.00  0.00    -0.203 F 
ATOM     86  C   UNL A   1      43.741  26.966  25.800  1.00  0.00     0.198 A 
ATOM     87  C   UNL A   1      46.039  26.981  26.494  1.00  0.00     0.198 A 
ATOM     88  F   UNL A   1      46.697  28.257  28.358  1.00  0.00    -0.203 F 
ATOM     89  F   UNL A   1      42.778  26.518  24.981  1.00  0.00    -0.200 F 
ATOM     90  C   UNL A   1      45.049  26.536  25.632  1.00  0.00     0.200 A 
ATOM     91  F   UNL A   1      47.305  26.574  26.326  1.00  0.00    -0.200 F 
ATOM     92  F   UNL A   1      45.353  25.686  24.642  1.00  0.00    -0.200 F 
ENDBRANCH  59  82
ENDBRANCH  33  34
ENDBRANCH  26  28
ENDBRANCH  25  26
ENDBRANCH  24  25
ENDBRANCH  23  24
ENDBRANCH  22  23
ENDBRANCH  21  22
ENDBRANCH  20  21
ENDBRANCH   1  20
TORSDOF 23
ENDMDL
