MODEL 1
REMARK VINA RESULT:     -11.0      0.000      0.000
REMARK SMILES CC(=O)N1CC[NH2+]C[C@@H]1c1ccc(C(=O)OCCOCCOCCOC(=O)c2ccc(-c3c4nc(c(-c5c(F)c(F)c(F)c(F)c5F)c5ccc([nH]5)c(-c5c(F)c(F)c(F)c(F)c5F)c5nc(c(-c6c(F)c(F)c(F)c(F)c6F)c6ccc3[nH]6)C=C5)C=C4)cc2)cc1
REMARK SMILES IDX 20 1 19 2 18 3 17 4 16 5 14 6 15 7 13 8 10 9 11 10 92 11
REMARK SMILES IDX 12 12 91 13 9 14 4 15 5 16 6 17 8 18 7 19 2 22 1 23 3 24
REMARK SMILES IDX 21 25 22 26 23 27 24 28 25 29 26 30 27 31 28 32 29 33 90 34
REMARK SMILES IDX 30 35 89 36 31 37 32 38 33 39 83 40 34 41 88 42 82 43 84 44
REMARK SMILES IDX 35 45 87 46 81 47 80 48 36 50 68 51 48 52 67 53 49 54 52 55
REMARK SMILES IDX 66 56 85 57 50 58 51 59 65 61 86 62 53 63 37 64 38 65 46 66
REMARK SMILES IDX 39 67 40 68 44 69 47 70 41 71 42 72 45 73 43 74 69 75 70 76
REMARK SMILES IDX 78 77 71 78 72 79 76 80 79 81 73 82 74 83 77 84 75 85 54 86
REMARK SMILES IDX 55 87 63 88 56 89 57 90 61 91 64 92 58 93 59 94 62 95 60 96
REMARK H PARENT 7 20 7 21 84 49 52 60
REMARK Flexibility Score: inf
ROOT
ATOM      1  C   UNL A   1      32.661  29.288  25.055  1.00  0.00     0.188 C 
ENDROOT
BRANCH   1   2
ATOM      2  O   UNL A   1      31.492  29.345  24.252  1.00  0.00    -0.376 OA
BRANCH   2   3
ATOM      3  C   UNL A   1      31.191  28.293  23.347  1.00  0.00     0.202 C 
BRANCH   3   4
ATOM      4  C   UNL A   1      32.248  27.251  22.948  1.00  0.00     0.261 C 
BRANCH   4   5
ATOM      5  O   UNL A   1      31.781  26.155  22.152  1.00  0.00    -0.460 OA
BRANCH   5   6
ATOM      6  C   UNL A   1      32.739  25.481  21.460  1.00  0.00     0.338 C 
ATOM      7  O   UNL A   1      33.196  25.762  20.373  1.00  0.00    -0.246 OA
BRANCH   6   8
ATOM      8  C   UNL A   1      33.293  24.408  22.321  1.00  0.00     0.060 A 
ATOM      9  C   UNL A   1      34.316  22.304  23.918  1.00  0.00    -0.020 A 
ATOM     10  C   UNL A   1      33.192  22.109  23.095  1.00  0.00     0.007 A 
ATOM     11  C   UNL A   1      34.887  23.595  23.938  1.00  0.00     0.007 A 
ATOM     12  C   UNL A   1      32.682  23.151  22.308  1.00  0.00     0.016 A 
ATOM     13  C   UNL A   1      34.403  24.630  23.132  1.00  0.00     0.016 A 
BRANCH   9  14
ATOM     14  C   UNL A   1      34.839  21.172  24.827  1.00  0.00     0.170 C 
ATOM     15  N   UNL A   1      33.741  20.391  25.441  1.00  0.00    -0.325 N 
ATOM     16  C   UNL A   1      33.050  21.042  26.562  1.00  0.00     0.181 C 
ATOM     17  C   UNL A   1      34.056  21.524  27.623  1.00  0.00     0.282 C 
ATOM     18  C   UNL A   1      35.801  21.638  25.967  1.00  0.00     0.290 C 
ATOM     19  N   UNL A   1      35.133  22.369  27.066  1.00  0.00    -0.343 N 
ATOM     20  H   UNL A   1      35.812  22.584  27.796  1.00  0.00     0.346 HD
ATOM     21  H   UNL A   1      34.738  23.240  26.709  1.00  0.00     0.346 HD
BRANCH  15  22
ATOM     22  C   UNL A   1      33.283  19.163  25.000  1.00  0.00     0.220 C 
ATOM     23  C   UNL A   1      34.256  18.279  24.263  1.00  0.00     0.114 C 
ATOM     24  O   UNL A   1      32.157  18.745  25.276  1.00  0.00    -0.275 OA
ENDBRANCH  15  22
ENDBRANCH   9  14
ENDBRANCH   6   8
ENDBRANCH   5   6
ENDBRANCH   4   5
ENDBRANCH   3   4
ENDBRANCH   2   3
ENDBRANCH   1   2
BRANCH   1  25
ATOM     25  C   UNL A   1      32.651  29.825  26.502  1.00  0.00     0.188 C 
BRANCH  25  26
ATOM     26  O   UNL A   1      33.898  30.229  27.011  1.00  0.00    -0.376 OA
BRANCH  26  27
ATOM     27  C   UNL A   1      34.060  31.506  27.603  1.00  0.00     0.202 C 
BRANCH  27  28
ATOM     28  C   UNL A   1      32.987  32.611  27.698  1.00  0.00     0.261 C 
BRANCH  28  29
ATOM     29  O   UNL A   1      33.395  33.976  27.592  1.00  0.00    -0.460 OA
BRANCH  29  30
ATOM     30  C   UNL A   1      33.382  34.692  28.740  1.00  0.00     0.338 C 
ATOM     31  O   UNL A   1      32.530  35.476  29.118  1.00  0.00    -0.246 OA
BRANCH  30  32
ATOM     32  C   UNL A   1      34.510  34.246  29.579  1.00  0.00     0.060 A 
ATOM     33  C   UNL A   1      35.815  34.454  29.114  1.00  0.00     0.016 A 
ATOM     34  C   UNL A   1      34.283  33.610  30.801  1.00  0.00     0.016 A 
ATOM     35  C   UNL A   1      36.901  34.002  29.863  1.00  0.00     0.010 A 
ATOM     36  C   UNL A   1      35.372  33.140  31.540  1.00  0.00     0.010 A 
ATOM     37  C   UNL A   1      36.684  33.310  31.061  1.00  0.00    -0.014 A 
BRANCH  37  38
ATOM     38  C   UNL A   1      37.815  32.618  31.728  1.00  0.00     0.031 A 
ATOM     39  C   UNL A   1      38.452  31.446  31.035  1.00  0.00     0.074 A 
ATOM     40  C   UNL A   1      38.274  33.025  32.924  1.00  0.00     0.049 A 
ATOM     41  N   UNL A   1      39.416  30.661  31.442  1.00  0.00    -0.248 NA
ATOM     42  C   UNL A   1      37.923  31.113  29.704  1.00  0.00     0.031 C 
ATOM     43  C   UNL A   1      37.759  34.161  33.684  1.00  0.00     0.029 A 
ATOM     44  N   UNL A   1      39.272  32.512  33.715  1.00  0.00    -0.354 N 
ATOM     45  C   UNL A   1      39.601  29.734  30.424  1.00  0.00     0.074 A 
ATOM     46  C   UNL A   1      38.630  30.037  29.395  1.00  0.00     0.031 C 
ATOM     47  C   UNL A   1      38.432  34.248  34.845  1.00  0.00     0.029 A 
ATOM     48  C   UNL A   1      39.402  33.155  34.921  1.00  0.00     0.049 A 
ATOM     49  H   UNL A   1      39.841  31.755  33.444  1.00  0.00     0.167 HD
ATOM     50  C   UNL A   1      40.500  28.724  30.354  1.00  0.00     0.037 A 
ATOM     51  C   UNL A   1      40.193  32.875  35.975  1.00  0.00     0.037 A 
ATOM     52  C   UNL A   1      41.464  28.426  31.381  1.00  0.00     0.049 A 
ATOM     53  C   UNL A   1      41.150  31.711  35.898  1.00  0.00     0.074 A 
ATOM     54  C   UNL A   1      42.446  27.451  31.384  1.00  0.00     0.029 A 
ATOM     55  N   UNL A   1      41.555  29.089  32.596  1.00  0.00    -0.354 N 
ATOM     56  N   UNL A   1      41.353  30.868  34.914  1.00  0.00    -0.248 NA
ATOM     57  C   UNL A   1      41.991  31.464  37.078  1.00  0.00     0.031 C 
ATOM     58  C   UNL A   1      43.088  27.481  32.626  1.00  0.00     0.029 A 
ATOM     59  C   UNL A   1      42.553  28.520  33.372  1.00  0.00     0.049 A 
ATOM     60  H   UNL A   1      40.994  29.850  32.867  1.00  0.00     0.167 HD
ATOM     61  C   UNL A   1      42.359  30.010  35.343  1.00  0.00     0.074 A 
ATOM     62  C   UNL A   1      42.736  30.444  36.672  1.00  0.00     0.031 C 
ATOM     63  C   UNL A   1      42.922  28.961  34.695  1.00  0.00     0.037 A 
BRANCH  50  64
ATOM     64  C   UNL A   1      40.456  27.842  29.139  1.00  0.00     0.064 A 
ATOM     65  C   UNL A   1      39.657  26.690  29.085  1.00  0.00     0.173 A 
ATOM     66  C   UNL A   1      41.212  28.169  28.004  1.00  0.00     0.173 A 
ATOM     67  F   UNL A   1      38.926  26.325  30.149  1.00  0.00    -0.203 F 
ATOM     68  C   UNL A   1      39.645  25.880  27.953  1.00  0.00     0.198 A 
ATOM     69  C   UNL A   1      41.171  27.375  26.860  1.00  0.00     0.198 A 
ATOM     70  F   UNL A   1      41.990  29.263  27.999  1.00  0.00    -0.203 F 
ATOM     71  F   UNL A   1      38.918  24.753  27.945  1.00  0.00    -0.200 F 
ATOM     72  C   UNL A   1      40.396  26.226  26.840  1.00  0.00     0.200 A 
ATOM     73  F   UNL A   1      41.887  27.719  25.781  1.00  0.00    -0.200 F 
ATOM     74  F   UNL A   1      40.380  25.448  25.749  1.00  0.00    -0.200 F 
ENDBRANCH  50  64
BRANCH  51  75
ATOM     75  C   UNL A   1      40.103  33.704  37.206  1.00  0.00     0.064 A 
ATOM     76  C   UNL A   1      40.945  34.808  37.402  1.00  0.00     0.173 A 
ATOM     77  C   UNL A   1      39.178  33.402  38.216  1.00  0.00     0.173 A 
ATOM     78  F   UNL A   1      41.866  35.120  36.478  1.00  0.00    -0.203 F 
ATOM     79  C   UNL A   1      40.873  35.569  38.568  1.00  0.00     0.198 A 
ATOM     80  C   UNL A   1      39.087  34.182  39.368  1.00  0.00     0.198 A 
ATOM     81  F   UNL A   1      38.354  32.353  38.080  1.00  0.00    -0.203 F 
ATOM     82  F   UNL A   1      41.720  36.591  38.750  1.00  0.00    -0.200 F 
ATOM     83  C   UNL A   1      39.940  35.260  39.546  1.00  0.00     0.200 A 
ATOM     84  F   UNL A   1      38.176  33.886  40.305  1.00  0.00    -0.200 F 
ATOM     85  F   UNL A   1      39.868  35.996  40.663  1.00  0.00    -0.200 F 
ENDBRANCH  51  75
BRANCH  63  86
ATOM     86  C   UNL A   1      44.032  28.224  35.392  1.00  0.00     0.064 A 
ATOM     87  C   UNL A   1      45.372  28.622  35.277  1.00  0.00     0.173 A 
ATOM     88  C   UNL A   1      43.743  27.133  36.226  1.00  0.00     0.173 A 
ATOM     89  F   UNL A   1      45.705  29.651  34.482  1.00  0.00    -0.203 F 
ATOM     90  C   UNL A   1      46.383  27.939  35.948  1.00  0.00     0.198 A 
ATOM     91  C   UNL A   1      44.752  26.473  36.923  1.00  0.00     0.198 A 
ATOM     92  F   UNL A   1      42.478  26.714  36.380  1.00  0.00    -0.203 F 
ATOM     93  F   UNL A   1      47.661  28.307  35.784  1.00  0.00    -0.200 F 
ATOM     94  C   UNL A   1      46.072  26.872  36.777  1.00  0.00     0.200 A 
ATOM     95  F   UNL A   1      44.446  25.454  37.736  1.00  0.00    -0.200 F 
ATOM     96  F   UNL A   1      47.045  26.222  37.431  1.00  0.00    -0.200 F 
ENDBRANCH  63  86
ENDBRANCH  37  38
ENDBRANCH  30  32
ENDBRANCH  29  30
ENDBRANCH  28  29
ENDBRANCH  27  28
ENDBRANCH  26  27
ENDBRANCH  25  26
ENDBRANCH   1  25
TORSDOF 19
ENDMDL
MODEL 2
REMARK VINA RESULT:     -11.0      1.572      7.581
REMARK SMILES CC(=O)N1CC[NH2+]C[C@@H]1c1ccc(C(=O)OCCOCCOCCOC(=O)c2ccc(-c3c4nc(c(-c5c(F)c(F)c(F)c(F)c5F)c5ccc([nH]5)c(-c5c(F)c(F)c(F)c(F)c5F)c5nc(c(-c6c(F)c(F)c(F)c(F)c6F)c6ccc3[nH]6)C=C5)C=C4)cc2)cc1
REMARK SMILES IDX 20 1 19 2 18 3 17 4 16 5 14 6 15 7 13 8 10 9 11 10 92 11
REMARK SMILES IDX 12 12 91 13 9 14 4 15 5 16 6 17 8 18 7 19 2 22 1 23 3 24
REMARK SMILES IDX 21 25 22 26 23 27 24 28 25 29 26 30 27 31 28 32 29 33 90 34
REMARK SMILES IDX 30 35 89 36 31 37 32 38 33 39 83 40 34 41 88 42 82 43 84 44
REMARK SMILES IDX 35 45 87 46 81 47 80 48 36 50 68 51 48 52 67 53 49 54 52 55
REMARK SMILES IDX 66 56 85 57 50 58 51 59 65 61 86 62 53 63 37 64 38 65 46 66
REMARK SMILES IDX 39 67 40 68 44 69 47 70 41 71 42 72 45 73 43 74 69 75 70 76
REMARK SMILES IDX 78 77 71 78 72 79 76 80 79 81 73 82 74 83 77 84 75 85 54 86
REMARK SMILES IDX 55 87 63 88 56 89 57 90 61 91 64 92 58 93 59 94 62 95 60 96
REMARK H PARENT 7 20 7 21 84 49 52 60
REMARK Flexibility Score: inf
ROOT
ATOM      1  C   UNL A   1      35.474  32.115  28.131  1.00  0.00     0.188 C 
ENDROOT
BRANCH   1   2
ATOM      2  O   UNL A   1      34.269  31.377  28.261  1.00  0.00    -0.376 OA
BRANCH   2   3
ATOM      3  C   UNL A   1      33.634  30.830  27.115  1.00  0.00     0.202 C 
BRANCH   3   4
ATOM      4  C   UNL A   1      33.319  29.330  27.011  1.00  0.00     0.261 C 
BRANCH   4   5
ATOM      5  O   UNL A   1      33.588  28.717  25.745  1.00  0.00    -0.460 OA
BRANCH   5   6
ATOM      6  C   UNL A   1      32.614  27.893  25.271  1.00  0.00     0.338 C 
ATOM      7  O   UNL A   1      31.456  28.174  25.054  1.00  0.00    -0.246 OA
BRANCH   6   8
ATOM      8  C   UNL A   1      33.224  26.599  24.881  1.00  0.00     0.060 A 
ATOM      9  C   UNL A   1      34.409  24.159  24.064  1.00  0.00    -0.020 A 
ATOM     10  C   UNL A   1      34.000  25.119  23.119  1.00  0.00     0.007 A 
ATOM     11  C   UNL A   1      34.173  24.450  25.425  1.00  0.00     0.007 A 
ATOM     12  C   UNL A   1      33.409  26.325  23.522  1.00  0.00     0.016 A 
ATOM     13  C   UNL A   1      33.613  25.663  25.835  1.00  0.00     0.016 A 
BRANCH   9  14
ATOM     14  C   UNL A   1      35.006  22.809  23.615  1.00  0.00     0.170 C 
ATOM     15  N   UNL A   1      34.824  21.748  24.632  1.00  0.00    -0.325 N 
ATOM     16  C   UNL A   1      35.724  21.821  25.791  1.00  0.00     0.181 C 
ATOM     17  C   UNL A   1      37.194  21.920  25.340  1.00  0.00     0.282 C 
ATOM     18  C   UNL A   1      36.518  22.857  23.227  1.00  0.00     0.290 C 
ATOM     19  N   UNL A   1      37.437  23.013  24.377  1.00  0.00    -0.343 N 
ATOM     20  H   UNL A   1      38.402  22.974  24.051  1.00  0.00     0.346 HD
ATOM     21  H   UNL A   1      37.272  23.913  24.828  1.00  0.00     0.346 HD
BRANCH  15  22
ATOM     22  C   UNL A   1      33.848  20.769  24.608  1.00  0.00     0.220 C 
ATOM     23  C   UNL A   1      32.524  21.119  23.977  1.00  0.00     0.114 C 
ATOM     24  O   UNL A   1      34.063  19.619  24.992  1.00  0.00    -0.275 OA
ENDBRANCH  15  22
ENDBRANCH   9  14
ENDBRANCH   6   8
ENDBRANCH   5   6
ENDBRANCH   4   5
ENDBRANCH   3   4
ENDBRANCH   2   3
ENDBRANCH   1   2
BRANCH   1  25
ATOM     25  C   UNL A   1      35.638  33.487  28.817  1.00  0.00     0.188 C 
BRANCH  25  26
ATOM     26  O   UNL A   1      34.952  34.556  28.217  1.00  0.00    -0.376 OA
BRANCH  26  27
ATOM     27  C   UNL A   1      33.562  34.735  28.425  1.00  0.00     0.202 C 
BRANCH  27  28
ATOM     28  C   UNL A   1      32.908  35.648  29.483  1.00  0.00     0.261 C 
BRANCH  28  29
ATOM     29  O   UNL A   1      32.419  35.062  30.690  1.00  0.00    -0.460 OA
BRANCH  29  30
ATOM     30  C   UNL A   1      32.766  35.688  31.839  1.00  0.00     0.338 C 
ATOM     31  O   UNL A   1      32.167  36.581  32.410  1.00  0.00    -0.246 OA
BRANCH  30  32
ATOM     32  C   UNL A   1      33.934  34.993  32.413  1.00  0.00     0.060 A 
ATOM     33  C   UNL A   1      35.197  35.584  32.281  1.00  0.00     0.016 A 
ATOM     34  C   UNL A   1      33.788  33.761  33.052  1.00  0.00     0.016 A 
ATOM     35  C   UNL A   1      36.327  34.929  32.772  1.00  0.00     0.010 A 
ATOM     36  C   UNL A   1      34.924  33.097  33.526  1.00  0.00     0.010 A 
ATOM     37  C   UNL A   1      36.200  33.666  33.364  1.00  0.00    -0.014 A 
BRANCH  37  38
ATOM     38  C   UNL A   1      37.414  32.866  33.660  1.00  0.00     0.031 A 
ATOM     39  C   UNL A   1      38.156  33.130  34.940  1.00  0.00     0.074 A 
ATOM     40  C   UNL A   1      37.849  31.918  32.813  1.00  0.00     0.049 A 
ATOM     41  N   UNL A   1      39.262  32.593  35.389  1.00  0.00    -0.248 NA
ATOM     42  C   UNL A   1      37.572  34.142  35.833  1.00  0.00     0.031 C 
ATOM     43  C   UNL A   1      37.205  31.551  31.554  1.00  0.00     0.029 A 
ATOM     44  N   UNL A   1      38.951  31.101  32.880  1.00  0.00    -0.354 N 
ATOM     45  C   UNL A   1      39.512  33.210  36.607  1.00  0.00     0.074 A 
ATOM     46  C   UNL A   1      38.460  34.181  36.814  1.00  0.00     0.031 C 
ATOM     47  C   UNL A   1      37.935  30.593  30.956  1.00  0.00     0.029 A 
ATOM     48  C   UNL A   1      39.112  30.304  31.774  1.00  0.00     0.049 A 
ATOM     49  H   UNL A   1      39.565  31.087  33.650  1.00  0.00     0.167 HD
ATOM     50  C   UNL A   1      40.527  32.985  37.476  1.00  0.00     0.037 A 
ATOM     51  C   UNL A   1      40.111  29.461  31.449  1.00  0.00     0.037 A 
ATOM     52  C   UNL A   1      41.572  32.018  37.266  1.00  0.00     0.049 A 
ATOM     53  C   UNL A   1      41.261  29.265  32.406  1.00  0.00     0.074 A 
ATOM     54  C   UNL A   1      42.619  31.685  38.108  1.00  0.00     0.029 A 
ATOM     55  N   UNL A   1      41.712  31.241  36.126  1.00  0.00    -0.354 N 
ATOM     56  N   UNL A   1      41.467  29.817  33.578  1.00  0.00    -0.248 NA
ATOM     57  C   UNL A   1      42.315  28.326  31.996  1.00  0.00     0.031 C 
ATOM     58  C   UNL A   1      43.430  30.755  37.449  1.00  0.00     0.029 A 
ATOM     59  C   UNL A   1      42.851  30.456  36.226  1.00  0.00     0.049 A 
ATOM     60  H   UNL A   1      41.096  31.246  35.359  1.00  0.00     0.167 HD
ATOM     61  C   UNL A   1      42.654  29.274  34.055  1.00  0.00     0.074 A 
ATOM     62  C   UNL A   1      43.116  28.338  33.052  1.00  0.00     0.031 C 
ATOM     63  C   UNL A   1      43.301  29.525  35.220  1.00  0.00     0.037 A 
BRANCH  50  64
ATOM     64  C   UNL A   1      40.574  33.830  38.717  1.00  0.00     0.064 A 
ATOM     65  C   UNL A   1      39.878  33.478  39.883  1.00  0.00     0.173 A 
ATOM     66  C   UNL A   1      41.347  35.001  38.742  1.00  0.00     0.173 A 
ATOM     67  F   UNL A   1      39.115  32.375  39.907  1.00  0.00    -0.203 F 
ATOM     68  C   UNL A   1      39.926  34.285  41.017  1.00  0.00     0.198 A 
ATOM     69  C   UNL A   1      41.419  35.788  39.889  1.00  0.00     0.198 A 
ATOM     70  F   UNL A   1      42.036  35.382  37.656  1.00  0.00    -0.203 F 
ATOM     71  F   UNL A   1      39.207  33.960  42.100  1.00  0.00    -0.200 F 
ATOM     72  C   UNL A   1      40.701  35.436  41.021  1.00  0.00     0.200 A 
ATOM     73  F   UNL A   1      42.179  36.891  39.895  1.00  0.00    -0.200 F 
ATOM     74  F   UNL A   1      40.749  36.210  42.114  1.00  0.00    -0.200 F 
ENDBRANCH  50  64
BRANCH  51  75
ATOM     75  C   UNL A   1      40.079  28.746  30.145  1.00  0.00     0.064 A 
ATOM     76  C   UNL A   1      39.456  27.497  30.017  1.00  0.00     0.173 A 
ATOM     77  C   UNL A   1      40.679  29.296  29.003  1.00  0.00     0.173 A 
ATOM     78  F   UNL A   1      38.893  26.917  31.086  1.00  0.00    -0.203 F 
ATOM     79  C   UNL A   1      39.447  26.820  28.798  1.00  0.00     0.198 A 
ATOM     80  C   UNL A   1      40.644  28.632  27.779  1.00  0.00     0.198 A 
ATOM     81  F   UNL A   1      41.294  30.487  29.074  1.00  0.00    -0.203 F 
ATOM     82  F   UNL A   1      38.884  25.607  28.714  1.00  0.00    -0.200 F 
ATOM     83  C   UNL A   1      40.035  27.391  27.679  1.00  0.00     0.200 A 
ATOM     84  F   UNL A   1      41.203  29.192  26.698  1.00  0.00    -0.200 F 
ATOM     85  F   UNL A   1      40.020  26.741  26.507  1.00  0.00    -0.200 F 
ENDBRANCH  51  75
BRANCH  63  86
ATOM     86  C   UNL A   1      44.562  28.754  35.498  1.00  0.00     0.064 A 
ATOM     87  C   UNL A   1      45.826  29.250  35.147  1.00  0.00     0.173 A 
ATOM     88  C   UNL A   1      44.506  27.522  36.169  1.00  0.00     0.173 A 
ATOM     89  F   UNL A   1      45.936  30.416  34.492  1.00  0.00    -0.203 F 
ATOM     90  C   UNL A   1      46.983  28.530  35.432  1.00  0.00     0.198 A 
ATOM     91  C   UNL A   1      45.667  26.821  36.484  1.00  0.00     0.198 A 
ATOM     92  F   UNL A   1      43.324  27.004  36.536  1.00  0.00    -0.203 F 
ATOM     93  F   UNL A   1      48.177  29.000  35.044  1.00  0.00    -0.200 F 
ATOM     94  C   UNL A   1      46.904  27.322  36.109  1.00  0.00     0.200 A 
ATOM     95  F   UNL A   1      45.588  25.662  37.152  1.00  0.00    -0.200 F 
ATOM     96  F   UNL A   1      48.020  26.635  36.392  1.00  0.00    -0.200 F 
ENDBRANCH  63  86
ENDBRANCH  37  38
ENDBRANCH  30  32
ENDBRANCH  29  30
ENDBRANCH  28  29
ENDBRANCH  27  28
ENDBRANCH  26  27
ENDBRANCH  25  26
ENDBRANCH   1  25
TORSDOF 19
ENDMDL
MODEL 3
REMARK VINA RESULT:     -11.0      0.638      7.309
REMARK SMILES CC(=O)N1CC[NH2+]C[C@@H]1c1ccc(C(=O)OCCOCCOCCOC(=O)c2ccc(-c3c4nc(c(-c5c(F)c(F)c(F)c(F)c5F)c5ccc([nH]5)c(-c5c(F)c(F)c(F)c(F)c5F)c5nc(c(-c6c(F)c(F)c(F)c(F)c6F)c6ccc3[nH]6)C=C5)C=C4)cc2)cc1
REMARK SMILES IDX 20 1 19 2 18 3 17 4 16 5 14 6 15 7 13 8 10 9 11 10 92 11
REMARK SMILES IDX 12 12 91 13 9 14 4 15 5 16 6 17 8 18 7 19 2 22 1 23 3 24
REMARK SMILES IDX 21 25 22 26 23 27 24 28 25 29 26 30 27 31 28 32 29 33 90 34
REMARK SMILES IDX 30 35 89 36 31 37 32 38 33 39 83 40 34 41 88 42 82 43 84 44
REMARK SMILES IDX 35 45 87 46 81 47 80 48 36 50 68 51 48 52 67 53 49 54 52 55
REMARK SMILES IDX 66 56 85 57 50 58 51 59 65 61 86 62 53 63 37 64 38 65 46 66
REMARK SMILES IDX 39 67 40 68 44 69 47 70 41 71 42 72 45 73 43 74 69 75 70 76
REMARK SMILES IDX 78 77 71 78 72 79 76 80 79 81 73 82 74 83 77 84 75 85 54 86
REMARK SMILES IDX 55 87 63 88 56 89 57 90 61 91 64 92 58 93 59 94 62 95 60 96
REMARK H PARENT 7 20 7 21 84 49 52 60
REMARK Flexibility Score: inf
ROOT
ATOM      1  C   UNL A   1      32.002  29.181  24.994  1.00  0.00     0.188 C 
ENDROOT
BRANCH   1   2
ATOM      2  O   UNL A   1      30.907  28.527  24.373  1.00  0.00    -0.376 OA
BRANCH   2   3
ATOM      3  C   UNL A   1      31.084  27.840  23.143  1.00  0.00     0.202 C 
BRANCH   3   4
ATOM      4  C   UNL A   1      31.111  26.305  23.079  1.00  0.00     0.261 C 
BRANCH   4   5
ATOM      5  O   UNL A   1      31.328  25.734  21.783  1.00  0.00    -0.460 OA
BRANCH   5   6
ATOM      6  C   UNL A   1      32.627  25.507  21.450  1.00  0.00     0.338 C 
ATOM      7  O   UNL A   1      33.318  26.162  20.701  1.00  0.00    -0.246 OA
BRANCH   6   8
ATOM      8  C   UNL A   1      33.156  24.404  22.288  1.00  0.00     0.060 A 
ATOM      9  C   UNL A   1      34.201  22.353  23.938  1.00  0.00    -0.020 A 
ATOM     10  C   UNL A   1      34.772  23.639  23.931  1.00  0.00     0.007 A 
ATOM     11  C   UNL A   1      33.113  22.123  23.069  1.00  0.00     0.007 A 
ATOM     12  C   UNL A   1      34.259  24.654  23.110  1.00  0.00     0.016 A 
ATOM     13  C   UNL A   1      32.577  23.139  22.271  1.00  0.00     0.016 A 
BRANCH   9  14
ATOM     14  C   UNL A   1      34.804  21.223  24.798  1.00  0.00     0.170 C 
ATOM     15  N   UNL A   1      33.763  20.383  25.433  1.00  0.00    -0.325 N 
ATOM     16  C   UNL A   1      33.090  20.979  26.595  1.00  0.00     0.181 C 
ATOM     17  C   UNL A   1      34.117  21.477  27.630  1.00  0.00     0.282 C 
ATOM     18  C   UNL A   1      35.790  21.701  25.912  1.00  0.00     0.290 C 
ATOM     19  N   UNL A   1      35.136  22.378  27.053  1.00  0.00    -0.343 N 
ATOM     20  H   UNL A   1      35.834  22.603  27.762  1.00  0.00     0.346 HD
ATOM     21  H   UNL A   1      34.694  23.240  26.734  1.00  0.00     0.346 HD
BRANCH  15  22
ATOM     22  C   UNL A   1      33.337  19.148  24.980  1.00  0.00     0.220 C 
ATOM     23  C   UNL A   1      34.380  18.213  24.421  1.00  0.00     0.114 C 
ATOM     24  O   UNL A   1      32.174  18.766  25.110  1.00  0.00    -0.275 OA
ENDBRANCH  15  22
ENDBRANCH   9  14
ENDBRANCH   6   8
ENDBRANCH   5   6
ENDBRANCH   4   5
ENDBRANCH   3   4
ENDBRANCH   2   3
ENDBRANCH   1   2
BRANCH   1  25
ATOM     25  C   UNL A   1      31.789  30.466  25.821  1.00  0.00     0.188 C 
BRANCH  25  26
ATOM     26  O   UNL A   1      32.609  30.606  26.954  1.00  0.00    -0.376 OA
BRANCH  26  27
ATOM     27  C   UNL A   1      33.166  31.863  27.296  1.00  0.00     0.202 C 
BRANCH  27  28
ATOM     28  C   UNL A   1      32.381  33.150  27.627  1.00  0.00     0.261 C 
BRANCH  28  29
ATOM     29  O   UNL A   1      33.060  34.405  27.566  1.00  0.00    -0.460 OA
BRANCH  29  30
ATOM     30  C   UNL A   1      33.198  35.065  28.740  1.00  0.00     0.338 C 
ATOM     31  O   UNL A   1      32.451  35.901  29.215  1.00  0.00    -0.246 OA
BRANCH  30  32
ATOM     32  C   UNL A   1      34.340  34.482  29.470  1.00  0.00     0.060 A 
ATOM     33  C   UNL A   1      35.610  34.537  28.881  1.00  0.00     0.016 A 
ATOM     34  C   UNL A   1      34.156  33.868  30.710  1.00  0.00     0.016 A 
ATOM     35  C   UNL A   1      36.701  33.954  29.525  1.00  0.00     0.010 A 
ATOM     36  C   UNL A   1      35.248  33.268  31.344  1.00  0.00     0.010 A 
ATOM     37  C   UNL A   1      36.519  33.284  30.742  1.00  0.00    -0.014 A 
BRANCH  37  38
ATOM     38  C   UNL A   1      37.618  32.459  31.300  1.00  0.00     0.031 A 
ATOM     39  C   UNL A   1      38.135  32.782  32.674  1.00  0.00     0.074 A 
ATOM     40  C   UNL A   1      38.144  31.436  30.606  1.00  0.00     0.049 A 
ATOM     41  N   UNL A   1      39.114  32.234  33.346  1.00  0.00    -0.248 NA
ATOM     42  C   UNL A   1      37.457  33.879  33.382  1.00  0.00     0.031 C 
ATOM     43  C   UNL A   1      37.714  31.006  29.278  1.00  0.00     0.029 A 
ATOM     44  N   UNL A   1      39.172  30.581  30.922  1.00  0.00    -0.354 N 
ATOM     45  C   UNL A   1      39.178  32.926  34.549  1.00  0.00     0.074 A 
ATOM     46  C   UNL A   1      38.159  33.951  34.502  1.00  0.00     0.031 C 
ATOM     47  C   UNL A   1      38.486  29.980  28.882  1.00  0.00     0.029 A 
ATOM     48  C   UNL A   1      39.484  29.702  29.915  1.00  0.00     0.049 A 
ATOM     49  H   UNL A   1      39.641  30.598  31.788  1.00  0.00     0.167 HD
ATOM     50  C   UNL A   1      40.011  32.722  35.598  1.00  0.00     0.037 A 
ATOM     51  C   UNL A   1      40.480  28.798  29.827  1.00  0.00     0.037 A 
ATOM     52  C   UNL A   1      41.025  31.701  35.640  1.00  0.00     0.049 A 
ATOM     53  C   UNL A   1      41.431  28.624  30.985  1.00  0.00     0.074 A 
ATOM     54  C   UNL A   1      41.888  31.387  36.675  1.00  0.00     0.029 A 
ATOM     55  N   UNL A   1      41.322  30.840  34.595  1.00  0.00    -0.354 N 
ATOM     56  N   UNL A   1      41.456  29.249  32.139  1.00  0.00    -0.248 NA
ATOM     57  C   UNL A   1      42.489  27.616  30.831  1.00  0.00     0.031 C 
ATOM     58  C   UNL A   1      42.752  30.380  36.232  1.00  0.00     0.029 A 
ATOM     59  C   UNL A   1      42.383  30.018  34.946  1.00  0.00     0.049 A 
ATOM     60  H   UNL A   1      40.852  30.816  33.731  1.00  0.00     0.167 HD
ATOM     61  C   UNL A   1      42.510  28.694  32.854  1.00  0.00     0.074 A 
ATOM     62  C   UNL A   1      43.091  27.671  32.011  1.00  0.00     0.031 C 
ATOM     63  C   UNL A   1      42.953  29.001  34.098  1.00  0.00     0.037 A 
BRANCH  50  64
ATOM     64  C   UNL A   1      39.883  33.650  36.772  1.00  0.00     0.064 A 
ATOM     65  C   UNL A   1      40.652  34.819  36.883  1.00  0.00     0.173 A 
ATOM     66  C   UNL A   1      38.961  33.373  37.792  1.00  0.00     0.173 A 
ATOM     67  F   UNL A   1      41.558  35.123  35.942  1.00  0.00    -0.203 F 
ATOM     68  C   UNL A   1      40.527  35.656  37.988  1.00  0.00     0.198 A 
ATOM     69  C   UNL A   1      38.814  34.230  38.880  1.00  0.00     0.198 A 
ATOM     70  F   UNL A   1      38.197  32.272  37.734  1.00  0.00    -0.203 F 
ATOM     71  F   UNL A   1      41.312  36.736  38.101  1.00  0.00    -0.200 F 
ATOM     72  C   UNL A   1      39.604  35.365  38.982  1.00  0.00     0.200 A 
ATOM     73  F   UNL A   1      37.912  33.954  39.831  1.00  0.00    -0.200 F 
ATOM     74  F   UNL A   1      39.481  36.174  40.044  1.00  0.00    -0.200 F 
ENDBRANCH  50  64
BRANCH  51  75
ATOM     75  C   UNL A   1      40.639  27.994  28.587  1.00  0.00     0.064 A 
ATOM     76  C   UNL A   1      40.028  26.741  28.448  1.00  0.00     0.173 A 
ATOM     77  C   UNL A   1      41.417  28.462  27.516  1.00  0.00     0.173 A 
ATOM     78  F   UNL A   1      39.298  26.238  29.455  1.00  0.00    -0.203 F 
ATOM     79  C   UNL A   1      40.199  25.980  27.293  1.00  0.00     0.198 A 
ATOM     80  C   UNL A   1      41.563  27.714  26.350  1.00  0.00     0.198 A 
ATOM     81  F   UNL A   1      42.029  29.653  27.600  1.00  0.00    -0.203 F 
ATOM     82  F   UNL A   1      39.639  24.766  27.205  1.00  0.00    -0.200 F 
ATOM     83  C   UNL A   1      40.960  26.471  26.242  1.00  0.00     0.200 A 
ATOM     84  F   UNL A   1      42.290  28.196  25.333  1.00  0.00    -0.200 F 
ATOM     85  F   UNL A   1      41.118  25.741  25.129  1.00  0.00    -0.200 F 
ENDBRANCH  51  75
BRANCH  63  86
ATOM     86  C   UNL A   1      44.103  28.201  34.646  1.00  0.00     0.064 A 
ATOM     87  C   UNL A   1      45.430  28.646  34.545  1.00  0.00     0.173 A 
ATOM     88  C   UNL A   1      43.868  26.994  35.322  1.00  0.00     0.173 A 
ATOM     89  F   UNL A   1      45.712  29.786  33.897  1.00  0.00    -0.203 F 
ATOM     90  C   UNL A   1      46.478  27.901  35.078  1.00  0.00     0.198 A 
ATOM     91  C   UNL A   1      44.915  26.268  35.884  1.00  0.00     0.198 A 
ATOM     92  F   UNL A   1      42.618  26.525  35.456  1.00  0.00    -0.203 F 
ATOM     93  F   UNL A   1      47.742  28.321  34.927  1.00  0.00    -0.200 F 
ATOM     94  C   UNL A   1      46.220  26.718  35.755  1.00  0.00     0.200 A 
ATOM     95  F   UNL A   1      44.660  25.135  36.552  1.00  0.00    -0.200 F 
ATOM     96  F   UNL A   1      47.230  26.007  36.276  1.00  0.00    -0.200 F 
ENDBRANCH  63  86
ENDBRANCH  37  38
ENDBRANCH  30  32
ENDBRANCH  29  30
ENDBRANCH  28  29
ENDBRANCH  27  28
ENDBRANCH  26  27
ENDBRANCH  25  26
ENDBRANCH   1  25
TORSDOF 19
ENDMDL
