MODEL 1
REMARK VINA RESULT:     -12.0      0.000      0.000
REMARK SMILES NS(=O)(=O)c1ccc(/N=C/c2ccc(O)c(C(=O)OCCOCCOCCOC(=O)c3ccc(-c4c5nc(c(-c6c(F)c(F)c(F)c(F)c6F)c6ccc([nH]6)c(-c6c(F)c(F)c(F)c(F)c6F)c6nc(c(-c7c(F)c(F)c(F)c(F)c7F)c7ccc4[nH]7)C=C6)C=C5)cc3)c2)cc1
REMARK SMILES IDX 23 1 22 2 21 3 20 4 19 5 17 6 18 7 16 8 11 9 12 10 94 11
REMARK SMILES IDX 13 12 14 13 10 14 9 15 8 16 5 17 6 18 96 19 7 20 95 21 2 22
REMARK SMILES IDX 3 23 4 24 1 25 15 28 24 30 25 31 26 32 27 33 28 34 29 35
REMARK SMILES IDX 30 36 31 37 32 38 93 39 33 40 92 41 34 42 35 43 36 44 86 45
REMARK SMILES IDX 37 46 91 47 85 48 87 49 38 50 90 51 84 52 83 53 39 55 71 56
REMARK SMILES IDX 51 57 70 58 52 59 55 60 69 61 88 62 53 63 54 64 68 66 89 67
REMARK SMILES IDX 56 68 40 69 41 70 49 71 42 72 43 73 47 74 50 75 44 76 45 77
REMARK SMILES IDX 48 78 46 79 72 80 73 81 81 82 74 83 75 84 79 85 82 86 76 87
REMARK SMILES IDX 77 88 80 89 78 90 57 91 58 92 66 93 59 94 60 95 64 96 67 97
REMARK SMILES IDX 61 98 62 99 65 100 63 101
REMARK H PARENT 1 26 1 27 15 29 87 54 55 65
REMARK Flexibility Score: inf
ROOT
ATOM      1  C   UNL A   1      40.120  20.661  26.199  1.00  0.00     0.188 C 
ENDROOT
BRANCH   1   2
ATOM      2  O   UNL A   1      39.278  19.669  25.646  1.00  0.00    -0.376 OA
BRANCH   2   3
ATOM      3  C   UNL A   1      38.060  20.024  25.011  1.00  0.00     0.202 C 
BRANCH   3   4
ATOM      4  C   UNL A   1      37.570  21.479  24.886  1.00  0.00     0.261 C 
BRANCH   4   5
ATOM      5  O   UNL A   1      36.239  21.754  25.342  1.00  0.00    -0.460 OA
BRANCH   5   6
ATOM      6  C   UNL A   1      36.005  23.032  25.727  1.00  0.00     0.342 C 
ATOM      7  O   UNL A   1      36.733  23.998  25.552  1.00  0.00    -0.246 OA
BRANCH   6   8
ATOM      8  C   UNL A   1      34.596  23.200  26.138  1.00  0.00     0.102 A 
ATOM      9  C   UNL A   1      32.499  24.399  26.125  1.00  0.00    -0.006 A 
ATOM     10  C   UNL A   1      31.996  23.545  27.115  1.00  0.00     0.013 A 
ATOM     11  C   UNL A   1      33.803  24.240  25.640  1.00  0.00     0.029 A 
ATOM     12  C   UNL A   1      32.792  22.517  27.617  1.00  0.00     0.048 A 
ATOM     13  C   UNL A   1      34.080  22.338  27.122  1.00  0.00     0.130 A 
BRANCH   9  14
ATOM     14  C   UNL A   1      31.618  25.470  25.615  1.00  0.00     0.119 C 
ATOM     15  N   UNL A   1      32.055  26.373  24.800  1.00  0.00    -0.256 NA
BRANCH  15  16
ATOM     16  C   UNL A   1      31.206  27.387  24.321  1.00  0.00     0.063 A 
ATOM     17  C   UNL A   1      29.453  29.262  23.176  1.00  0.00     0.082 A 
ATOM     18  C   UNL A   1      29.144  27.903  23.120  1.00  0.00     0.024 A 
ATOM     19  C   UNL A   1      30.616  29.698  23.812  1.00  0.00     0.024 A 
ATOM     20  C   UNL A   1      30.023  26.977  23.691  1.00  0.00     0.030 A 
ATOM     21  C   UNL A   1      31.492  28.759  24.370  1.00  0.00     0.030 A 
BRANCH  17  22
ATOM     22  S   UNL A   1      28.372  30.438  22.420  1.00  0.00     0.238 S 
ATOM     23  O   UNL A   1      27.305  30.766  23.332  1.00  0.00    -0.207 OA
ATOM     24  O   UNL A   1      28.134  30.038  21.051  1.00  0.00    -0.207 OA
BRANCH  22  25
ATOM     25  N   UNL A   1      29.336  31.812  22.350  1.00  0.00    -0.225 NA
ATOM     26  H   UNL A   1      29.109  32.344  21.510  1.00  0.00     0.137 HD
ATOM     27  H   UNL A   1      30.319  31.537  22.322  1.00  0.00     0.137 HD
ENDBRANCH  22  25
ENDBRANCH  17  22
ENDBRANCH  15  16
ENDBRANCH   9  14
BRANCH  13  28
ATOM     28  O   UNL A   1      34.807  21.322  27.684  1.00  0.00    -0.507 OA
ATOM     29  H   UNL A   1      35.686  21.478  27.971  1.00  0.00     0.293 HD
ENDBRANCH  13  28
ENDBRANCH   6   8
ENDBRANCH   5   6
ENDBRANCH   4   5
ENDBRANCH   3   4
ENDBRANCH   2   3
ENDBRANCH   1   2
BRANCH   1  30
ATOM     30  C   UNL A   1      41.055  20.325  27.379  1.00  0.00     0.188 C 
BRANCH  30  31
ATOM     31  O   UNL A   1      42.408  20.666  27.216  1.00  0.00    -0.376 OA
BRANCH  31  32
ATOM     32  C   UNL A   1      43.035  20.514  25.955  1.00  0.00     0.202 C 
BRANCH  32  33
ATOM     33  C   UNL A   1      43.624  21.645  25.083  1.00  0.00     0.261 C 
BRANCH  33  34
ATOM     34  O   UNL A   1      42.908  22.879  24.971  1.00  0.00    -0.460 OA
BRANCH  34  35
ATOM     35  C   UNL A   1      43.657  24.007  25.033  1.00  0.00     0.338 C 
ATOM     36  O   UNL A   1      44.632  24.290  24.358  1.00  0.00    -0.246 OA
BRANCH  35  37
ATOM     37  C   UNL A   1      43.003  24.959  25.951  1.00  0.00     0.060 A 
ATOM     38  C   UNL A   1      43.476  26.278  26.007  1.00  0.00     0.016 A 
ATOM     39  C   UNL A   1      41.961  24.543  26.778  1.00  0.00     0.016 A 
ATOM     40  C   UNL A   1      42.919  27.181  26.911  1.00  0.00     0.010 A 
ATOM     41  C   UNL A   1      41.417  25.445  27.698  1.00  0.00     0.010 A 
ATOM     42  C   UNL A   1      41.915  26.759  27.791  1.00  0.00    -0.014 A 
BRANCH  42  43
ATOM     43  C   UNL A   1      41.505  27.630  28.919  1.00  0.00     0.031 A 
ATOM     44  C   UNL A   1      42.262  27.541  30.214  1.00  0.00     0.074 A 
ATOM     45  C   UNL A   1      40.481  28.492  28.799  1.00  0.00     0.049 A 
ATOM     46  N   UNL A   1      42.046  28.151  31.352  1.00  0.00    -0.248 NA
ATOM     47  C   UNL A   1      43.415  26.630  30.226  1.00  0.00     0.031 C 
ATOM     48  C   UNL A   1      39.689  28.697  27.589  1.00  0.00     0.029 A 
ATOM     49  N   UNL A   1      39.921  29.341  29.722  1.00  0.00    -0.354 N 
ATOM     50  C   UNL A   1      43.030  27.689  32.218  1.00  0.00     0.074 A 
ATOM     51  C   UNL A   1      43.815  26.718  31.484  1.00  0.00     0.031 C 
ATOM     52  C   UNL A   1      38.725  29.596  27.851  1.00  0.00     0.029 A 
ATOM     53  C   UNL A   1      38.812  30.001  29.255  1.00  0.00     0.049 A 
ATOM     54  H   UNL A   1      40.280  29.465  30.630  1.00  0.00     0.167 HD
ATOM     55  C   UNL A   1      43.263  28.047  33.503  1.00  0.00     0.037 A 
ATOM     56  C   UNL A   1      37.948  30.813  29.895  1.00  0.00     0.037 A 
ATOM     57  C   UNL A   1      42.467  29.002  34.233  1.00  0.00     0.049 A 
ATOM     58  C   UNL A   1      38.178  31.148  31.346  1.00  0.00     0.074 A 
ATOM     59  C   UNL A   1      42.634  29.453  35.531  1.00  0.00     0.029 A 
ATOM     60  N   UNL A   1      41.340  29.638  33.732  1.00  0.00    -0.354 N 
ATOM     61  N   UNL A   1      39.130  30.738  32.150  1.00  0.00    -0.248 NA
ATOM     62  C   UNL A   1      37.218  32.065  31.975  1.00  0.00     0.031 C 
ATOM     63  C   UNL A   1      41.567  30.305  35.838  1.00  0.00     0.029 A 
ATOM     64  C   UNL A   1      40.779  30.450  34.707  1.00  0.00     0.049 A 
ATOM     65  H   UNL A   1      40.990  29.530  32.818  1.00  0.00     0.167 HD
ATOM     66  C   UNL A   1      38.900  31.365  33.370  1.00  0.00     0.074 A 
ATOM     67  C   UNL A   1      37.725  32.194  33.194  1.00  0.00     0.031 C 
ATOM     68  C   UNL A   1      39.603  31.266  34.527  1.00  0.00     0.037 A 
BRANCH  55  69
ATOM     69  C   UNL A   1      44.398  27.360  34.211  1.00  0.00     0.064 A 
ATOM     70  C   UNL A   1      45.698  27.892  34.224  1.00  0.00     0.173 A 
ATOM     71  C   UNL A   1      44.186  26.142  34.875  1.00  0.00     0.173 A 
ATOM     72  F   UNL A   1      45.962  29.048  33.596  1.00  0.00    -0.203 F 
ATOM     73  C   UNL A   1      46.751  27.203  34.823  1.00  0.00     0.198 A 
ATOM     74  C   UNL A   1      45.231  25.478  35.510  1.00  0.00     0.198 A 
ATOM     75  F   UNL A   1      42.964  25.591  34.905  1.00  0.00    -0.203 F 
ATOM     76  F   UNL A   1      47.996  27.692  34.751  1.00  0.00    -0.200 F 
ATOM     77  C   UNL A   1      46.516  25.999  35.469  1.00  0.00     0.200 A 
ATOM     78  F   UNL A   1      45.000  24.322  36.148  1.00  0.00    -0.200 F 
ATOM     79  F   UNL A   1      47.530  25.335  36.041  1.00  0.00    -0.200 F 
ENDBRANCH  55  69
BRANCH  56  80
ATOM     80  C   UNL A   1      36.773  31.348  29.160  1.00  0.00     0.064 A 
ATOM     81  C   UNL A   1      35.681  30.533  28.837  1.00  0.00     0.173 A 
ATOM     82  C   UNL A   1      36.711  32.700  28.785  1.00  0.00     0.173 A 
ATOM     83  F   UNL A   1      35.705  29.228  29.147  1.00  0.00    -0.203 F 
ATOM     84  C   UNL A   1      34.574  31.046  28.163  1.00  0.00     0.198 A 
ATOM     85  C   UNL A   1      35.592  33.219  28.139  1.00  0.00     0.198 A 
ATOM     86  F   UNL A   1      37.733  33.522  29.068  1.00  0.00    -0.203 F 
ATOM     87  F   UNL A   1      33.559  30.236  27.834  1.00  0.00    -0.200 F 
ATOM     88  C   UNL A   1      34.525  32.390  27.825  1.00  0.00     0.200 A 
ATOM     89  F   UNL A   1      35.544  34.521  27.827  1.00  0.00    -0.200 F 
ATOM     90  F   UNL A   1      33.454  32.886  27.192  1.00  0.00    -0.200 F 
ENDBRANCH  56  80
BRANCH  68  91
ATOM     91  C   UNL A   1      39.144  32.101  35.693  1.00  0.00     0.064 A 
ATOM     92  C   UNL A   1      38.281  31.595  36.675  1.00  0.00     0.173 A 
ATOM     93  C   UNL A   1      39.612  33.416  35.849  1.00  0.00     0.173 A 
ATOM     94  F   UNL A   1      37.794  30.349  36.570  1.00  0.00    -0.203 F 
ATOM     95  C   UNL A   1      37.879  32.382  37.753  1.00  0.00     0.198 A 
ATOM     96  C   UNL A   1      39.238  34.187  36.947  1.00  0.00     0.198 A 
ATOM     97  F   UNL A   1      40.447  33.950  34.945  1.00  0.00    -0.203 F 
ATOM     98  F   UNL A   1      37.011  31.895  38.650  1.00  0.00    -0.200 F 
ATOM     99  C   UNL A   1      38.365  33.674  37.892  1.00  0.00     0.200 A 
ATOM    100  F   UNL A   1      39.724  35.428  37.088  1.00  0.00    -0.200 F 
ATOM    101  F   UNL A   1      37.985  34.426  38.934  1.00  0.00    -0.200 F 
ENDBRANCH  68  91
ENDBRANCH  42  43
ENDBRANCH  35  37
ENDBRANCH  34  35
ENDBRANCH  33  34
ENDBRANCH  32  33
ENDBRANCH  31  32
ENDBRANCH  30  31
ENDBRANCH   1  30
TORSDOF 22
ENDMDL
MODEL 2
REMARK VINA RESULT:     -11.4      1.199      2.319
REMARK SMILES NS(=O)(=O)c1ccc(/N=C/c2ccc(O)c(C(=O)OCCOCCOCCOC(=O)c3ccc(-c4c5nc(c(-c6c(F)c(F)c(F)c(F)c6F)c6ccc([nH]6)c(-c6c(F)c(F)c(F)c(F)c6F)c6nc(c(-c7c(F)c(F)c(F)c(F)c7F)c7ccc4[nH]7)C=C6)C=C5)cc3)c2)cc1
REMARK SMILES IDX 23 1 22 2 21 3 20 4 19 5 17 6 18 7 16 8 11 9 12 10 94 11
REMARK SMILES IDX 13 12 14 13 10 14 9 15 8 16 5 17 6 18 96 19 7 20 95 21 2 22
REMARK SMILES IDX 3 23 4 24 1 25 15 28 24 30 25 31 26 32 27 33 28 34 29 35
REMARK SMILES IDX 30 36 31 37 32 38 93 39 33 40 92 41 34 42 35 43 36 44 86 45
REMARK SMILES IDX 37 46 91 47 85 48 87 49 38 50 90 51 84 52 83 53 39 55 71 56
REMARK SMILES IDX 51 57 70 58 52 59 55 60 69 61 88 62 53 63 54 64 68 66 89 67
REMARK SMILES IDX 56 68 40 69 41 70 49 71 42 72 43 73 47 74 50 75 44 76 45 77
REMARK SMILES IDX 48 78 46 79 72 80 73 81 81 82 74 83 75 84 79 85 82 86 76 87
REMARK SMILES IDX 77 88 80 89 78 90 57 91 58 92 66 93 59 94 60 95 64 96 67 97
REMARK SMILES IDX 61 98 62 99 65 100 63 101
REMARK H PARENT 1 26 1 27 15 29 87 54 55 65
REMARK Flexibility Score: inf
ROOT
ATOM      1  C   UNL A   1      40.093  22.021  26.535  1.00  0.00     0.188 C 
ENDROOT
BRANCH   1   2
ATOM      2  O   UNL A   1      39.044  22.948  26.734  1.00  0.00    -0.376 OA
BRANCH   2   3
ATOM      3  C   UNL A   1      38.153  23.273  25.678  1.00  0.00     0.202 C 
BRANCH   3   4
ATOM      4  C   UNL A   1      36.624  23.134  25.795  1.00  0.00     0.261 C 
BRANCH   4   5
ATOM      5  O   UNL A   1      35.978  22.278  24.843  1.00  0.00    -0.460 OA
BRANCH   5   6
ATOM      6  C   UNL A   1      35.640  22.861  23.668  1.00  0.00     0.342 C 
ATOM      7  O   UNL A   1      36.353  23.002  22.684  1.00  0.00    -0.246 OA
BRANCH   6   8
ATOM      8  C   UNL A   1      34.177  23.056  23.587  1.00  0.00     0.102 A 
ATOM      9  C   UNL A   1      32.223  24.454  23.346  1.00  0.00    -0.006 A 
ATOM     10  C   UNL A   1      31.396  23.361  23.635  1.00  0.00     0.013 A 
ATOM     11  C   UNL A   1      33.616  24.312  23.332  1.00  0.00     0.029 A 
ATOM     12  C   UNL A   1      31.959  22.113  23.900  1.00  0.00     0.048 A 
ATOM     13  C   UNL A   1      33.342  21.960  23.863  1.00  0.00     0.130 A 
BRANCH   9  14
ATOM     14  C   UNL A   1      31.583  25.756  23.064  1.00  0.00     0.119 C 
ATOM     15  N   UNL A   1      30.407  26.043  23.517  1.00  0.00    -0.256 NA
BRANCH  15  16
ATOM     16  C   UNL A   1      29.810  27.286  23.242  1.00  0.00     0.063 A 
ATOM     17  C   UNL A   1      28.814  29.876  22.797  1.00  0.00     0.082 A 
ATOM     18  C   UNL A   1      30.183  29.634  22.687  1.00  0.00     0.024 A 
ATOM     19  C   UNL A   1      27.935  28.839  23.108  1.00  0.00     0.024 A 
ATOM     20  C   UNL A   1      30.670  28.343  22.912  1.00  0.00     0.030 A 
ATOM     21  C   UNL A   1      28.437  27.553  23.341  1.00  0.00     0.030 A 
BRANCH  17  22
ATOM     22  S   UNL A   1      28.192  31.513  22.559  1.00  0.00     0.238 S 
ATOM     23  O   UNL A   1      27.055  31.725  23.421  1.00  0.00    -0.207 OA
ATOM     24  O   UNL A   1      28.160  31.798  21.141  1.00  0.00    -0.207 OA
BRANCH  22  25
ATOM     25  N   UNL A   1      29.422  32.458  23.203  1.00  0.00    -0.225 NA
ATOM     26  H   UNL A   1      30.027  32.787  22.450  1.00  0.00     0.137 HD
ATOM     27  H   UNL A   1      29.969  31.902  23.860  1.00  0.00     0.137 HD
ENDBRANCH  22  25
ENDBRANCH  17  22
ENDBRANCH  15  16
ENDBRANCH   9  14
BRANCH  13  28
ATOM     28  O   UNL A   1      33.819  20.709  24.158  1.00  0.00    -0.507 OA
ATOM     29  H   UNL A   1      34.055  20.495  25.040  1.00  0.00     0.293 HD
ENDBRANCH  13  28
ENDBRANCH   6   8
ENDBRANCH   5   6
ENDBRANCH   4   5
ENDBRANCH   3   4
ENDBRANCH   2   3
ENDBRANCH   1   2
BRANCH   1  30
ATOM     30  C   UNL A   1      41.099  21.722  27.665  1.00  0.00     0.188 C 
BRANCH  30  31
ATOM     31  O   UNL A   1      42.400  21.379  27.264  1.00  0.00    -0.376 OA
BRANCH  31  32
ATOM     32  C   UNL A   1      42.702  21.206  25.891  1.00  0.00     0.202 C 
BRANCH  32  33
ATOM     33  C   UNL A   1      43.528  22.166  25.007  1.00  0.00     0.261 C 
BRANCH  33  34
ATOM     34  O   UNL A   1      43.048  23.496  24.789  1.00  0.00    -0.460 OA
BRANCH  34  35
ATOM     35  C   UNL A   1      43.892  24.497  25.140  1.00  0.00     0.338 C 
ATOM     36  O   UNL A   1      44.990  24.741  24.671  1.00  0.00    -0.246 OA
BRANCH  35  37
ATOM     37  C   UNL A   1      43.200  25.388  26.090  1.00  0.00     0.060 A 
ATOM     38  C   UNL A   1      43.587  26.733  26.162  1.00  0.00     0.016 A 
ATOM     39  C   UNL A   1      42.206  24.890  26.933  1.00  0.00     0.016 A 
ATOM     40  C   UNL A   1      42.995  27.582  27.095  1.00  0.00     0.010 A 
ATOM     41  C   UNL A   1      41.627  25.738  27.881  1.00  0.00     0.010 A 
ATOM     42  C   UNL A   1      42.041  27.079  27.989  1.00  0.00    -0.014 A 
BRANCH  42  43
ATOM     43  C   UNL A   1      41.602  27.903  29.142  1.00  0.00     0.031 A 
ATOM     44  C   UNL A   1      42.335  27.768  30.447  1.00  0.00     0.074 A 
ATOM     45  C   UNL A   1      40.572  28.760  29.037  1.00  0.00     0.049 A 
ATOM     46  N   UNL A   1      42.094  28.331  31.604  1.00  0.00    -0.248 NA
ATOM     47  C   UNL A   1      43.497  26.868  30.445  1.00  0.00     0.031 C 
ATOM     48  C   UNL A   1      39.802  29.005  27.822  1.00  0.00     0.029 A 
ATOM     49  N   UNL A   1      39.988  29.567  29.982  1.00  0.00    -0.354 N 
ATOM     50  C   UNL A   1      43.066  27.844  32.469  1.00  0.00     0.074 A 
ATOM     51  C   UNL A   1      43.872  26.910  31.713  1.00  0.00     0.031 C 
ATOM     52  C   UNL A   1      38.824  29.885  28.100  1.00  0.00     0.029 A 
ATOM     53  C   UNL A   1      38.882  30.235  29.520  1.00  0.00     0.049 A 
ATOM     54  H   UNL A   1      40.329  29.658  30.901  1.00  0.00     0.167 HD
ATOM     55  C   UNL A   1      43.271  28.154  33.772  1.00  0.00     0.037 A 
ATOM     56  C   UNL A   1      37.999  31.014  30.176  1.00  0.00     0.037 A 
ATOM     57  C   UNL A   1      42.453  29.072  34.524  1.00  0.00     0.049 A 
ATOM     58  C   UNL A   1      38.199  31.293  31.643  1.00  0.00     0.074 A 
ATOM     59  C   UNL A   1      42.592  29.473  35.841  1.00  0.00     0.029 A 
ATOM     60  N   UNL A   1      41.329  29.718  34.026  1.00  0.00    -0.354 N 
ATOM     61  N   UNL A   1      39.139  30.860  32.448  1.00  0.00    -0.248 NA
ATOM     62  C   UNL A   1      37.219  32.177  32.289  1.00  0.00     0.031 C 
ATOM     63  C   UNL A   1      41.512  30.303  36.161  1.00  0.00     0.029 A 
ATOM     64  C   UNL A   1      40.743  30.485  35.022  1.00  0.00     0.049 A 
ATOM     65  H   UNL A   1      40.997  29.643  33.103  1.00  0.00     0.167 HD
ATOM     66  C   UNL A   1      38.880  31.437  33.686  1.00  0.00     0.074 A 
ATOM     67  C   UNL A   1      37.702  32.262  33.522  1.00  0.00     0.031 C 
ATOM     68  C   UNL A   1      39.563  31.298  34.852  1.00  0.00     0.037 A 
BRANCH  55  69
ATOM     69  C   UNL A   1      44.399  27.449  34.474  1.00  0.00     0.064 A 
ATOM     70  C   UNL A   1      44.230  26.195  35.083  1.00  0.00     0.173 A 
ATOM     71  C   UNL A   1      45.667  28.045  34.553  1.00  0.00     0.173 A 
ATOM     72  F   UNL A   1      43.036  25.582  35.048  1.00  0.00    -0.203 F 
ATOM     73  C   UNL A   1      45.268  25.593  35.790  1.00  0.00     0.198 A 
ATOM     74  C   UNL A   1      46.715  27.422  35.224  1.00  0.00     0.198 A 
ATOM     75  F   UNL A   1      45.891  29.239  33.983  1.00  0.00    -0.203 F 
ATOM     76  F   UNL A   1      45.058  24.435  36.430  1.00  0.00    -0.200 F 
ATOM     77  C   UNL A   1      46.511  26.204  35.857  1.00  0.00     0.200 A 
ATOM     78  F   UNL A   1      47.920  28.007  35.274  1.00  0.00    -0.200 F 
ATOM     79  F   UNL A   1      47.507  25.628  36.542  1.00  0.00    -0.200 F 
ENDBRANCH  55  69
BRANCH  56  80
ATOM     80  C   UNL A   1      36.832  31.567  29.440  1.00  0.00     0.064 A 
ATOM     81  C   UNL A   1      36.752  32.928  29.116  1.00  0.00     0.173 A 
ATOM     82  C   UNL A   1      35.781  30.734  29.023  1.00  0.00     0.173 A 
ATOM     83  F   UNL A   1      37.717  33.769  29.517  1.00  0.00    -0.203 F 
ATOM     84  C   UNL A   1      35.664  33.436  28.409  1.00  0.00     0.198 A 
ATOM     85  C   UNL A   1      34.709  31.238  28.291  1.00  0.00     0.198 A 
ATOM     86  F   UNL A   1      35.808  29.424  29.311  1.00  0.00    -0.203 F 
ATOM     87  F   UNL A   1      35.594  34.748  28.145  1.00  0.00    -0.200 F 
ATOM     88  C   UNL A   1      34.649  32.590  27.988  1.00  0.00     0.200 A 
ATOM     89  F   UNL A   1      33.738  30.414  27.874  1.00  0.00    -0.200 F 
ATOM     90  F   UNL A   1      33.611  33.077  27.294  1.00  0.00    -0.200 F 
ENDBRANCH  56  80
BRANCH  68  91
ATOM     91  C   UNL A   1      39.075  32.082  36.041  1.00  0.00     0.064 A 
ATOM     92  C   UNL A   1      39.431  33.423  36.244  1.00  0.00     0.173 A 
ATOM     93  C   UNL A   1      38.200  31.491  36.967  1.00  0.00     0.173 A 
ATOM     94  F   UNL A   1      40.272  34.035  35.397  1.00  0.00    -0.203 F 
ATOM     95  C   UNL A   1      38.956  34.134  37.345  1.00  0.00     0.198 A 
ATOM     96  C   UNL A   1      37.698  32.215  38.046  1.00  0.00     0.198 A 
ATOM     97  F   UNL A   1      37.818  30.214  36.818  1.00  0.00    -0.203 F 
ATOM     98  F   UNL A   1      39.354  35.397  37.548  1.00  0.00    -0.200 F 
ATOM     99  C   UNL A   1      38.084  33.532  38.240  1.00  0.00     0.200 A 
ATOM    100  F   UNL A   1      36.840  31.636  38.898  1.00  0.00    -0.200 F 
ATOM    101  F   UNL A   1      37.620  34.219  39.293  1.00  0.00    -0.200 F 
ENDBRANCH  68  91
ENDBRANCH  42  43
ENDBRANCH  35  37
ENDBRANCH  34  35
ENDBRANCH  33  34
ENDBRANCH  32  33
ENDBRANCH  31  32
ENDBRANCH  30  31
ENDBRANCH   1  30
TORSDOF 22
ENDMDL
MODEL 3
REMARK VINA RESULT:     -11.2      3.529      9.823
REMARK SMILES NS(=O)(=O)c1ccc(/N=C/c2ccc(O)c(C(=O)OCCOCCOCCOC(=O)c3ccc(-c4c5nc(c(-c6c(F)c(F)c(F)c(F)c6F)c6ccc([nH]6)c(-c6c(F)c(F)c(F)c(F)c6F)c6nc(c(-c7c(F)c(F)c(F)c(F)c7F)c7ccc4[nH]7)C=C6)C=C5)cc3)c2)cc1
REMARK SMILES IDX 23 1 22 2 21 3 20 4 19 5 17 6 18 7 16 8 11 9 12 10 94 11
REMARK SMILES IDX 13 12 14 13 10 14 9 15 8 16 5 17 6 18 96 19 7 20 95 21 2 22
REMARK SMILES IDX 3 23 4 24 1 25 15 28 24 30 25 31 26 32 27 33 28 34 29 35
REMARK SMILES IDX 30 36 31 37 32 38 93 39 33 40 92 41 34 42 35 43 36 44 86 45
REMARK SMILES IDX 37 46 91 47 85 48 87 49 38 50 90 51 84 52 83 53 39 55 71 56
REMARK SMILES IDX 51 57 70 58 52 59 55 60 69 61 88 62 53 63 54 64 68 66 89 67
REMARK SMILES IDX 56 68 40 69 41 70 49 71 42 72 43 73 47 74 50 75 44 76 45 77
REMARK SMILES IDX 48 78 46 79 72 80 73 81 81 82 74 83 75 84 79 85 82 86 76 87
REMARK SMILES IDX 77 88 80 89 78 90 57 91 58 92 66 93 59 94 60 95 64 96 67 97
REMARK SMILES IDX 61 98 62 99 65 100 63 101
REMARK H PARENT 1 26 1 27 15 29 87 54 55 65
REMARK Flexibility Score: inf
ROOT
ATOM      1  C   UNL A   1      32.742  29.703  25.505  1.00  0.00     0.188 C 
ENDROOT
BRANCH   1   2
ATOM      2  O   UNL A   1      31.481  29.126  25.227  1.00  0.00    -0.376 OA
BRANCH   2   3
ATOM      3  C   UNL A   1      31.369  27.748  24.905  1.00  0.00     0.202 C 
BRANCH   3   4
ATOM      4  C   UNL A   1      31.416  26.631  25.963  1.00  0.00     0.261 C 
BRANCH   4   5
ATOM      5  O   UNL A   1      30.571  25.494  25.742  1.00  0.00    -0.460 OA
BRANCH   5   6
ATOM      6  C   UNL A   1      30.998  24.332  26.292  1.00  0.00     0.342 C 
ATOM      7  O   UNL A   1      30.515  23.752  27.254  1.00  0.00    -0.246 OA
BRANCH   6   8
ATOM      8  C   UNL A   1      31.965  23.660  25.399  1.00  0.00     0.102 A 
ATOM      9  C   UNL A   1      34.131  22.695  24.943  1.00  0.00    -0.006 A 
ATOM     10  C   UNL A   1      33.795  22.562  23.589  1.00  0.00     0.013 A 
ATOM     11  C   UNL A   1      33.225  23.254  25.852  1.00  0.00     0.029 A 
ATOM     12  C   UNL A   1      32.543  22.978  23.139  1.00  0.00     0.048 A 
ATOM     13  C   UNL A   1      31.629  23.512  24.042  1.00  0.00     0.130 A 
BRANCH   9  14
ATOM     14  C   UNL A   1      35.466  22.234  25.378  1.00  0.00     0.119 C 
ATOM     15  N   UNL A   1      36.106  21.314  24.733  1.00  0.00    -0.256 NA
BRANCH  15  16
ATOM     16  C   UNL A   1      37.377  20.885  25.157  1.00  0.00     0.063 A 
ATOM     17  C   UNL A   1      40.001  20.248  25.934  1.00  0.00     0.082 A 
ATOM     18  C   UNL A   1      39.525  21.547  26.108  1.00  0.00     0.024 A 
ATOM     19  C   UNL A   1      39.178  19.259  25.394  1.00  0.00     0.024 A 
ATOM     20  C   UNL A   1      38.218  21.855  25.717  1.00  0.00     0.030 A 
ATOM     21  C   UNL A   1      37.876  19.585  24.997  1.00  0.00     0.030 A 
BRANCH  17  22
ATOM     22  S   UNL A   1      41.666  19.857  26.382  1.00  0.00     0.238 S 
ATOM     23  O   UNL A   1      42.464  21.058  26.361  1.00  0.00    -0.207 OA
ATOM     24  O   UNL A   1      42.059  18.646  25.697  1.00  0.00    -0.207 OA
BRANCH  22  25
ATOM     25  N   UNL A   1      41.510  19.452  28.005  1.00  0.00    -0.225 NA
ATOM     26  H   UNL A   1      42.090  18.638  28.209  1.00  0.00     0.137 HD
ATOM     27  H   UNL A   1      40.534  19.234  28.209  1.00  0.00     0.137 HD
ENDBRANCH  22  25
ENDBRANCH  17  22
ENDBRANCH  15  16
ENDBRANCH   9  14
BRANCH  13  28
ATOM     28  O   UNL A   1      30.430  23.920  23.518  1.00  0.00    -0.507 OA
ATOM     29  H   UNL A   1      30.115  23.542  22.719  1.00  0.00     0.293 HD
ENDBRANCH  13  28
ENDBRANCH   6   8
ENDBRANCH   5   6
ENDBRANCH   4   5
ENDBRANCH   3   4
ENDBRANCH   2   3
ENDBRANCH   1   2
BRANCH   1  30
ATOM     30  C   UNL A   1      33.226  29.861  26.961  1.00  0.00     0.188 C 
BRANCH  30  31
ATOM     31  O   UNL A   1      33.427  31.177  27.408  1.00  0.00    -0.376 OA
BRANCH  31  32
ATOM     32  C   UNL A   1      32.397  32.140  27.280  1.00  0.00     0.202 C 
BRANCH  32  33
ATOM     33  C   UNL A   1      32.579  33.672  27.210  1.00  0.00     0.261 C 
BRANCH  33  34
ATOM     34  O   UNL A   1      32.161  34.473  28.319  1.00  0.00    -0.460 OA
BRANCH  34  35
ATOM     35  C   UNL A   1      33.104  35.287  28.852  1.00  0.00     0.338 C 
ATOM     36  O   UNL A   1      33.024  36.487  29.051  1.00  0.00    -0.246 OA
BRANCH  35  37
ATOM     37  C   UNL A   1      34.227  34.460  29.333  1.00  0.00     0.060 A 
ATOM     38  C   UNL A   1      34.002  33.560  30.384  1.00  0.00     0.016 A 
ATOM     39  C   UNL A   1      35.500  34.601  28.780  1.00  0.00     0.016 A 
ATOM     40  C   UNL A   1      35.058  32.812  30.902  1.00  0.00     0.010 A 
ATOM     41  C   UNL A   1      36.561  33.865  29.313  1.00  0.00     0.010 A 
ATOM     42  C   UNL A   1      36.353  32.991  30.398  1.00  0.00    -0.014 A 
BRANCH  42  43
ATOM     43  C   UNL A   1      37.512  32.399  31.109  1.00  0.00     0.031 A 
ATOM     44  C   UNL A   1      38.229  31.238  30.482  1.00  0.00     0.074 A 
ATOM     45  C   UNL A   1      37.927  32.884  32.293  1.00  0.00     0.049 A 
ATOM     46  N   UNL A   1      39.221  30.518  30.945  1.00  0.00    -0.248 NA
ATOM     47  C   UNL A   1      37.756  30.828  29.152  1.00  0.00     0.031 C 
ATOM     48  C   UNL A   1      37.337  34.023  32.989  1.00  0.00     0.029 A 
ATOM     49  N   UNL A   1      38.932  32.457  33.124  1.00  0.00    -0.354 N 
ATOM     50  C   UNL A   1      39.481  29.566  29.968  1.00  0.00     0.074 A 
ATOM     51  C   UNL A   1      38.517  29.774  28.908  1.00  0.00     0.031 C 
ATOM     52  C   UNL A   1      37.976  34.191  34.160  1.00  0.00     0.029 A 
ATOM     53  C   UNL A   1      38.993  33.149  34.307  1.00  0.00     0.049 A 
ATOM     54  H   UNL A   1      39.550  31.726  32.894  1.00  0.00     0.167 HD
ATOM     55  C   UNL A   1      40.441  28.610  29.952  1.00  0.00     0.037 A 
ATOM     56  C   UNL A   1      39.759  32.946  35.397  1.00  0.00     0.037 A 
ATOM     57  C   UNL A   1      41.387  28.396  31.018  1.00  0.00     0.049 A 
ATOM     58  C   UNL A   1      40.776  31.833  35.394  1.00  0.00     0.074 A 
ATOM     59  C   UNL A   1      42.415  27.472  31.089  1.00  0.00     0.029 A 
ATOM     60  N   UNL A   1      41.407  29.108  32.211  1.00  0.00    -0.354 N 
ATOM     61  N   UNL A   1      41.044  30.958  34.455  1.00  0.00    -0.248 NA
ATOM     62  C   UNL A   1      41.602  31.687  36.600  1.00  0.00     0.031 C 
ATOM     63  C   UNL A   1      43.009  27.575  32.352  1.00  0.00     0.029 A 
ATOM     64  C   UNL A   1      42.406  28.617  33.039  1.00  0.00     0.049 A 
ATOM     65  H   UNL A   1      40.803  29.851  32.435  1.00  0.00     0.167 HD
ATOM     66  C   UNL A   1      42.083  30.175  34.944  1.00  0.00     0.074 A 
ATOM     67  C   UNL A   1      42.406  30.688  36.259  1.00  0.00     0.031 C 
ATOM     68  C   UNL A   1      42.716  29.129  34.352  1.00  0.00     0.037 A 
BRANCH  55  69
ATOM     69  C   UNL A   1      40.476  27.693  28.760  1.00  0.00     0.064 A 
ATOM     70  C   UNL A   1      41.250  27.979  27.623  1.00  0.00     0.173 A 
ATOM     71  C   UNL A   1      39.709  26.518  28.747  1.00  0.00     0.173 A 
ATOM     72  F   UNL A   1      41.994  29.095  27.575  1.00  0.00    -0.203 F 
ATOM     73  C   UNL A   1      41.212  27.154  26.502  1.00  0.00     0.198 A 
ATOM     74  C   UNL A   1      39.706  25.673  27.641  1.00  0.00     0.198 A 
ATOM     75  F   UNL A   1      38.957  26.188  29.808  1.00  0.00    -0.203 F 
ATOM     76  F   UNL A   1      41.897  27.491  25.400  1.00  0.00    -0.200 F 
ATOM     77  C   UNL A   1      40.444  26.000  26.512  1.00  0.00     0.200 A 
ATOM     78  F   UNL A   1      38.976  24.549  27.659  1.00  0.00    -0.200 F 
ATOM     79  F   UNL A   1      40.403  25.210  25.431  1.00  0.00    -0.200 F 
ENDBRANCH  55  69
BRANCH  56  80
ATOM     80  C   UNL A   1      39.573  33.813  36.589  1.00  0.00     0.064 A 
ATOM     81  C   UNL A   1      38.761  33.418  37.659  1.00  0.00     0.173 A 
ATOM     82  C   UNL A   1      40.227  35.053  36.688  1.00  0.00     0.173 A 
ATOM     83  F   UNL A   1      38.092  32.256  37.600  1.00  0.00    -0.203 F 
ATOM     84  C   UNL A   1      38.606  34.229  38.783  1.00  0.00     0.198 A 
ATOM     85  C   UNL A   1      40.095  35.848  37.824  1.00  0.00     0.198 A 
ATOM     86  F   UNL A   1      41.013  35.479  35.688  1.00  0.00    -0.203 F 
ATOM     87  F   UNL A   1      37.795  33.844  39.777  1.00  0.00    -0.200 F 
ATOM     88  C   UNL A   1      39.281  35.438  38.869  1.00  0.00     0.200 A 
ATOM     89  F   UNL A   1      40.760  37.008  37.908  1.00  0.00    -0.200 F 
ATOM     90  F   UNL A   1      39.144  36.209  39.955  1.00  0.00    -0.200 F 
ENDBRANCH  56  80
BRANCH  68  91
ATOM     91  C   UNL A   1      43.848  28.485  35.107  1.00  0.00     0.064 A 
ATOM     92  C   UNL A   1      45.135  29.042  35.134  1.00  0.00     0.173 A 
ATOM     93  C   UNL A   1      43.627  27.313  35.849  1.00  0.00     0.173 A 
ATOM     94  F   UNL A   1      45.405  30.153  34.433  1.00  0.00    -0.203 F 
ATOM     95  C   UNL A   1      46.165  28.435  35.850  1.00  0.00     0.198 A 
ATOM     96  C   UNL A   1      44.649  26.730  36.594  1.00  0.00     0.198 A 
ATOM     97  F   UNL A   1      42.414  26.742  35.868  1.00  0.00    -0.203 F 
ATOM     98  F   UNL A   1      47.399  28.955  35.817  1.00  0.00    -0.200 F 
ATOM     99  C   UNL A   1      45.919  27.285  36.586  1.00  0.00     0.200 A 
ATOM    100  F   UNL A   1      44.404  25.630  37.319  1.00  0.00    -0.200 F 
ATOM    101  F   UNL A   1      46.908  26.708  37.282  1.00  0.00    -0.200 F 
ENDBRANCH  68  91
ENDBRANCH  42  43
ENDBRANCH  35  37
ENDBRANCH  34  35
ENDBRANCH  33  34
ENDBRANCH  32  33
ENDBRANCH  31  32
ENDBRANCH  30  31
ENDBRANCH   1  30
TORSDOF 22
ENDMDL
