MODEL 1
REMARK VINA RESULT:     -11.2      0.000      0.000
REMARK SMILES C[C@@H](Nc1cccc(Cl)c1)[C@@H](C)C(=O)OCCOCCOCCOC(=O)c1ccc(-c2c3nc(c(-c4c(F)c(F)c(F)c(F)c4F)c4ccc([nH]4)c(-c4c(F)c(F)c(F)c(F)c4F)c4nc(c(-c5c(F)c(F)c(F)c(F)c5F)c5ccc2[nH]5)C=C4)C=C3)cc1
REMARK SMILES IDX 19 1 18 2 17 3 16 4 15 5 13 6 14 7 11 8 12 9 2 10 1 11 3 12
REMARK SMILES IDX 4 14 5 15 10 16 6 17 8 18 7 19 9 20 20 21 21 22 22 23 23 24
REMARK SMILES IDX 24 25 25 26 26 27 27 28 28 29 89 30 29 31 88 32 30 33 31 34
REMARK SMILES IDX 32 35 82 36 33 37 87 38 81 39 83 40 34 41 86 42 80 43 79 44
REMARK SMILES IDX 35 46 67 47 47 48 66 49 48 50 51 51 65 52 84 53 49 54 50 55
REMARK SMILES IDX 64 57 85 58 52 59 36 60 37 61 45 62 38 63 39 64 43 65 46 66
REMARK SMILES IDX 40 67 41 68 44 69 42 70 68 71 69 72 77 73 70 74 71 75 75 76
REMARK SMILES IDX 78 77 72 78 73 79 76 80 74 81 53 82 54 83 62 84 55 85 56 86
REMARK SMILES IDX 60 87 63 88 57 89 58 90 61 91 59 92
REMARK H PARENT 3 13 83 45 51 56
REMARK Flexibility Score: inf
ROOT
ATOM      1  C   UNL A   1      40.016  19.302  26.020  1.00  0.00     0.188 C 
ENDROOT
BRANCH   1   2
ATOM      2  O   UNL A   1      39.220  19.492  24.869  1.00  0.00    -0.376 OA
BRANCH   2   3
ATOM      3  C   UNL A   1      37.843  19.771  25.078  1.00  0.00     0.202 C 
BRANCH   3   4
ATOM      4  C   UNL A   1      37.311  21.219  24.944  1.00  0.00     0.261 C 
BRANCH   4   5
ATOM      5  O   UNL A   1      35.870  21.424  24.869  1.00  0.00    -0.463 OA
BRANCH   5   6
ATOM      6  C   UNL A   1      35.441  22.713  24.741  1.00  0.00     0.310 C 
ATOM      7  O   UNL A   1      36.175  23.628  24.369  1.00  0.00    -0.252 OA
BRANCH   6   8
ATOM      8  C   UNL A   1      34.002  23.017  25.197  1.00  0.00     0.118 C 
ATOM      9  C   UNL A   1      33.986  22.911  26.724  1.00  0.00     0.022 C 
BRANCH   8  10
ATOM     10  C   UNL A   1      32.854  22.258  24.513  1.00  0.00     0.090 C 
ATOM     11  C   UNL A   1      32.957  22.214  22.966  1.00  0.00     0.031 C 
BRANCH  10  12
ATOM     12  N   UNL A   1      32.717  20.833  24.859  1.00  0.00    -0.382 N 
ATOM     13  H   UNL A   1      32.478  20.719  25.808  1.00  0.00     0.160 HD
BRANCH  12  14
ATOM     14  C   UNL A   1      32.829  19.622  24.226  1.00  0.00     0.036 A 
ATOM     15  C   UNL A   1      32.163  19.193  23.113  1.00  0.00     0.026 A 
ATOM     16  C   UNL A   1      33.824  18.742  24.755  1.00  0.00     0.046 A 
ATOM     17  C   UNL A   1      32.564  18.015  22.499  1.00  0.00     0.004 A 
ATOM     18  C   UNL A   1      34.278  17.350  24.334  1.00  0.00     0.043 A 
ATOM     19  C   UNL A   1      33.573  17.169  23.040  1.00  0.00     0.020 A 
ATOM     20  Cl  UNL A   1      35.839  15.845  25.519  1.00  0.00    -0.084 Cl
ENDBRANCH  12  14
ENDBRANCH  10  12
ENDBRANCH   8  10
ENDBRANCH   6   8
ENDBRANCH   5   6
ENDBRANCH   4   5
ENDBRANCH   3   4
ENDBRANCH   2   3
ENDBRANCH   1   2
BRANCH   1  21
ATOM     21  C   UNL A   1      41.392  19.968  26.082  1.00  0.00     0.188 C 
BRANCH  21  22
ATOM     22  O   UNL A   1      42.402  19.522  25.223  1.00  0.00    -0.376 OA
BRANCH  22  23
ATOM     23  C   UNL A   1      43.759  19.548  25.600  1.00  0.00     0.202 C 
BRANCH  23  24
ATOM     24  C   UNL A   1      44.765  20.654  25.257  1.00  0.00     0.261 C 
BRANCH  24  25
ATOM     25  O   UNL A   1      44.493  22.009  25.599  1.00  0.00    -0.460 OA
BRANCH  25  26
ATOM     26  C   UNL A   1      43.809  22.860  24.809  1.00  0.00     0.338 C 
ATOM     27  O   UNL A   1      43.486  22.735  23.648  1.00  0.00    -0.246 OA
BRANCH  26  28
ATOM     28  C   UNL A   1      43.373  23.907  25.762  1.00  0.00     0.060 A 
ATOM     29  C   UNL A   1      44.174  25.564  25.846  1.00  0.00     0.016 A 
ATOM     30  C   UNL A   1      41.873  23.573  26.757  1.00  0.00     0.016 A 
ATOM     31  C   UNL A   1      43.358  26.894  26.797  1.00  0.00     0.010 A 
ATOM     32  C   UNL A   1      41.193  24.861  27.858  1.00  0.00     0.010 A 
ATOM     33  C   UNL A   1      41.898  26.550  27.827  1.00  0.00    -0.014 A 
BRANCH  33  34
ATOM     34  C   UNL A   1      41.512  27.524  28.902  1.00  0.00     0.031 A 
ATOM     35  C   UNL A   1      42.289  27.497  30.198  1.00  0.00     0.074 A 
ATOM     36  C   UNL A   1      40.470  28.372  28.776  1.00  0.00     0.049 A 
ATOM     37  N   UNL A   1      42.046  28.097  31.339  1.00  0.00    -0.248 NA
ATOM     38  C   UNL A   1      43.498  26.670  30.235  1.00  0.00     0.031 C 
ATOM     39  C   UNL A   1      39.691  28.598  27.567  1.00  0.00     0.029 A 
ATOM     40  N   UNL A   1      39.882  29.225  29.686  1.00  0.00    -0.354 N 
ATOM     41  C   UNL A   1      43.061  27.688  32.201  1.00  0.00     0.074 A 
ATOM     42  C   UNL A   1      43.869  26.735  31.496  1.00  0.00     0.031 C 
ATOM     43  C   UNL A   1      38.702  29.474  27.808  1.00  0.00     0.029 A 
ATOM     44  C   UNL A   1      38.771  29.883  29.202  1.00  0.00     0.049 A 
ATOM     45  H   UNL A   1      40.224  29.352  30.601  1.00  0.00     0.167 HD
ATOM     46  C   UNL A   1      43.343  28.099  33.457  1.00  0.00     0.037 A 
ATOM     47  C   UNL A   1      37.905  30.721  29.808  1.00  0.00     0.037 A 
ATOM     48  C   UNL A   1      42.547  29.055  34.162  1.00  0.00     0.049 A 
ATOM     49  C   UNL A   1      38.158  31.083  31.248  1.00  0.00     0.074 A 
ATOM     50  C   UNL A   1      42.710  29.535  35.445  1.00  0.00     0.029 A 
ATOM     51  N   UNL A   1      41.421  29.665  33.630  1.00  0.00    -0.354 N 
ATOM     52  N   UNL A   1      39.135  30.697  32.034  1.00  0.00    -0.248 NA
ATOM     53  C   UNL A   1      37.204  32.001  31.886  1.00  0.00     0.031 C 
ATOM     54  C   UNL A   1      41.630  30.376  35.722  1.00  0.00     0.029 A 
ATOM     55  C   UNL A   1      40.852  30.492  34.577  1.00  0.00     0.049 A 
ATOM     56  H   UNL A   1      41.080  29.530  32.718  1.00  0.00     0.167 HD
ATOM     57  C   UNL A   1      38.941  31.356  33.240  1.00  0.00     0.074 A 
ATOM     58  C   UNL A   1      37.751  32.167  33.082  1.00  0.00     0.031 C 
ATOM     59  C   UNL A   1      39.681  31.303  34.373  1.00  0.00     0.037 A 
BRANCH  46  60
ATOM     60  C   UNL A   1      44.530  27.475  34.137  1.00  0.00     0.064 A 
ATOM     61  C   UNL A   1      45.815  28.041  34.066  1.00  0.00     0.173 A 
ATOM     62  C   UNL A   1      44.389  26.261  34.826  1.00  0.00     0.173 A 
ATOM     63  F   UNL A   1      46.014  29.185  33.395  1.00  0.00    -0.203 F 
ATOM     64  C   UNL A   1      46.917  27.390  34.614  1.00  0.00     0.198 A 
ATOM     65  C   UNL A   1      45.487  25.634  35.409  1.00  0.00     0.198 A 
ATOM     66  F   UNL A   1      43.187  25.672  34.922  1.00  0.00    -0.203 F 
ATOM     67  F   UNL A   1      48.144  27.906  34.458  1.00  0.00    -0.200 F 
ATOM     68  C   UNL A   1      46.751  26.191  35.290  1.00  0.00     0.200 A 
ATOM     69  F   UNL A   1      45.324  24.481  36.071  1.00  0.00    -0.200 F 
ATOM     70  F   UNL A   1      47.813  25.563  35.813  1.00  0.00    -0.200 F 
ENDBRANCH  46  60
BRANCH  47  71
ATOM     71  C   UNL A   1      36.729  31.273  29.068  1.00  0.00     0.064 A 
ATOM     72  C   UNL A   1      36.666  32.622  28.686  1.00  0.00     0.173 A 
ATOM     73  C   UNL A   1      35.628  30.463  28.743  1.00  0.00     0.173 A 
ATOM     74  F   UNL A   1      37.678  33.450  28.984  1.00  0.00    -0.203 F 
ATOM     75  C   UNL A   1      35.545  33.142  28.037  1.00  0.00     0.198 A 
ATOM     76  C   UNL A   1      34.522  30.977  28.065  1.00  0.00     0.198 A 
ATOM     77  F   UNL A   1      35.626  29.165  29.080  1.00  0.00    -0.203 F 
ATOM     78  F   UNL A   1      35.494  34.447  27.733  1.00  0.00    -0.200 F 
ATOM     79  C   UNL A   1      34.476  32.318  27.722  1.00  0.00     0.200 A 
ATOM     80  F   UNL A   1      33.498  30.172  27.751  1.00  0.00    -0.200 F 
ATOM     81  F   UNL A   1      33.401  32.818  27.096  1.00  0.00    -0.200 F 
ENDBRANCH  47  71
BRANCH  59  82
ATOM     82  C   UNL A   1      39.276  32.183  35.514  1.00  0.00     0.064 A 
ATOM     83  C   UNL A   1      38.483  31.709  36.565  1.00  0.00     0.173 A 
ATOM     84  C   UNL A   1      39.799  33.483  35.608  1.00  0.00     0.173 A 
ATOM     85  F   UNL A   1      37.957  30.476  36.514  1.00  0.00    -0.203 F 
ATOM     86  C   UNL A   1      38.218  32.510  37.671  1.00  0.00     0.198 A 
ATOM     87  C   UNL A   1      39.566  34.265  36.732  1.00  0.00     0.198 A 
ATOM     88  F   UNL A   1      40.577  33.972  34.630  1.00  0.00    -0.203 F 
ATOM     89  F   UNL A   1      37.431  32.052  38.654  1.00  0.00    -0.200 F 
ATOM     90  C   UNL A   1      38.772  33.781  37.759  1.00  0.00     0.200 A 
ATOM     91  F   UNL A   1      40.126  35.478  36.829  1.00  0.00    -0.200 F 
ATOM     92  F   UNL A   1      38.542  34.537  38.841  1.00  0.00    -0.200 F 
ENDBRANCH  59  82
ENDBRANCH  33  34
ENDBRANCH  26  28
ENDBRANCH  25  26
ENDBRANCH  24  25
ENDBRANCH  23  24
ENDBRANCH  22  23
ENDBRANCH  21  22
ENDBRANCH   1  21
TORSDOF 20
ENDMDL
MODEL 2
REMARK VINA RESULT:     -10.7      1.812      2.896
REMARK SMILES C[C@@H](Nc1cccc(Cl)c1)[C@@H](C)C(=O)OCCOCCOCCOC(=O)c1ccc(-c2c3nc(c(-c4c(F)c(F)c(F)c(F)c4F)c4ccc([nH]4)c(-c4c(F)c(F)c(F)c(F)c4F)c4nc(c(-c5c(F)c(F)c(F)c(F)c5F)c5ccc2[nH]5)C=C4)C=C3)cc1
REMARK SMILES IDX 19 1 18 2 17 3 16 4 15 5 13 6 14 7 11 8 12 9 2 10 1 11 3 12
REMARK SMILES IDX 4 14 5 15 10 16 6 17 8 18 7 19 9 20 20 21 21 22 22 23 23 24
REMARK SMILES IDX 24 25 25 26 26 27 27 28 28 29 89 30 29 31 88 32 30 33 31 34
REMARK SMILES IDX 32 35 82 36 33 37 87 38 81 39 83 40 34 41 86 42 80 43 79 44
REMARK SMILES IDX 35 46 67 47 47 48 66 49 48 50 51 51 65 52 84 53 49 54 50 55
REMARK SMILES IDX 64 57 85 58 52 59 36 60 37 61 45 62 38 63 39 64 43 65 46 66
REMARK SMILES IDX 40 67 41 68 44 69 42 70 68 71 69 72 77 73 70 74 71 75 75 76
REMARK SMILES IDX 78 77 72 78 73 79 76 80 74 81 53 82 54 83 62 84 55 85 56 86
REMARK SMILES IDX 60 87 63 88 57 89 58 90 61 91 59 92
REMARK H PARENT 3 13 83 45 51 56
REMARK Flexibility Score: inf
ROOT
ATOM      1  C   UNL A   1      39.823  21.133  26.119  1.00  0.00     0.188 C 
ENDROOT
BRANCH   1   2
ATOM      2  O   UNL A   1      38.487  20.898  25.726  1.00  0.00    -0.376 OA
BRANCH   2   3
ATOM      3  C   UNL A   1      37.679  22.040  25.482  1.00  0.00     0.202 C 
BRANCH   3   4
ATOM      4  C   UNL A   1      37.016  22.246  24.098  1.00  0.00     0.261 C 
BRANCH   4   5
ATOM      5  O   UNL A   1      35.580  22.498  24.048  1.00  0.00    -0.463 OA
BRANCH   5   6
ATOM      6  C   UNL A   1      34.767  21.492  24.483  1.00  0.00     0.310 C 
ATOM      7  O   UNL A   1      35.189  20.384  24.810  1.00  0.00    -0.252 OA
BRANCH   6   8
ATOM      8  C   UNL A   1      33.250  21.757  24.441  1.00  0.00     0.118 C 
ATOM      9  C   UNL A   1      32.557  20.444  24.817  1.00  0.00     0.022 C 
BRANCH   8  10
ATOM     10  C   UNL A   1      32.670  22.424  23.185  1.00  0.00     0.090 C 
ATOM     11  C   UNL A   1      31.265  23.050  23.392  1.00  0.00     0.031 C 
BRANCH  10  12
ATOM     12  N   UNL A   1      33.436  23.553  22.631  1.00  0.00    -0.382 N 
ATOM     13  H   UNL A   1      34.208  23.235  22.107  1.00  0.00     0.160 HD
BRANCH  12  14
ATOM     14  C   UNL A   1      33.375  24.923  22.644  1.00  0.00     0.036 A 
ATOM     15  C   UNL A   1      33.033  25.755  21.616  1.00  0.00     0.026 A 
ATOM     16  C   UNL A   1      33.619  25.537  23.910  1.00  0.00     0.046 A 
ATOM     17  C   UNL A   1      32.825  27.101  21.879  1.00  0.00     0.004 A 
ATOM     18  C   UNL A   1      33.617  26.996  24.351  1.00  0.00     0.043 A 
ATOM     19  C   UNL A   1      33.059  27.681  23.158  1.00  0.00     0.020 A 
ATOM     20  Cl  UNL A   1      34.322  27.919  26.532  1.00  0.00    -0.084 Cl
ENDBRANCH  12  14
ENDBRANCH  10  12
ENDBRANCH   8  10
ENDBRANCH   6   8
ENDBRANCH   5   6
ENDBRANCH   4   5
ENDBRANCH   3   4
ENDBRANCH   2   3
ENDBRANCH   1   2
BRANCH   1  21
ATOM     21  C   UNL A   1      40.705  19.937  26.484  1.00  0.00     0.188 C 
BRANCH  21  22
ATOM     22  O   UNL A   1      41.581  19.421  25.524  1.00  0.00    -0.376 OA
BRANCH  22  23
ATOM     23  C   UNL A   1      42.979  19.524  25.665  1.00  0.00     0.202 C 
BRANCH  23  24
ATOM     24  C   UNL A   1      43.809  20.799  25.471  1.00  0.00     0.261 C 
BRANCH  24  25
ATOM     25  O   UNL A   1      43.189  22.005  25.038  1.00  0.00    -0.460 OA
BRANCH  25  26
ATOM     26  C   UNL A   1      43.869  23.102  24.653  1.00  0.00     0.338 C 
ATOM     27  O   UNL A   1      44.539  23.278  23.658  1.00  0.00    -0.246 OA
BRANCH  26  28
ATOM     28  C   UNL A   1      43.440  24.115  25.645  1.00  0.00     0.060 A 
ATOM     29  C   UNL A   1      44.135  25.820  25.683  1.00  0.00     0.016 A 
ATOM     30  C   UNL A   1      42.044  23.679  26.747  1.00  0.00     0.016 A 
ATOM     31  C   UNL A   1      43.308  27.090  26.705  1.00  0.00     0.010 A 
ATOM     32  C   UNL A   1      41.367  24.915  27.908  1.00  0.00     0.010 A 
ATOM     33  C   UNL A   1      41.956  26.647  27.839  1.00  0.00    -0.014 A 
BRANCH  33  34
ATOM     34  C   UNL A   1      41.590  27.589  28.949  1.00  0.00     0.031 A 
ATOM     35  C   UNL A   1      42.365  27.500  30.243  1.00  0.00     0.074 A 
ATOM     36  C   UNL A   1      40.565  28.463  28.854  1.00  0.00     0.049 A 
ATOM     37  N   UNL A   1      42.135  28.063  31.405  1.00  0.00    -0.248 NA
ATOM     38  C   UNL A   1      43.557  26.647  30.249  1.00  0.00     0.031 C 
ATOM     39  C   UNL A   1      39.791  28.748  27.654  1.00  0.00     0.029 A 
ATOM     40  N   UNL A   1      39.994  29.294  29.795  1.00  0.00    -0.354 N 
ATOM     41  C   UNL A   1      43.141  27.602  32.251  1.00  0.00     0.074 A 
ATOM     42  C   UNL A   1      43.929  26.658  31.512  1.00  0.00     0.031 C 
ATOM     43  C   UNL A   1      38.821  29.635  27.927  1.00  0.00     0.029 A 
ATOM     44  C   UNL A   1      38.898  29.992  29.335  1.00  0.00     0.049 A 
ATOM     45  H   UNL A   1      40.339  29.381  30.713  1.00  0.00     0.167 HD
ATOM     46  C   UNL A   1      43.431  27.961  33.521  1.00  0.00     0.037 A 
ATOM     47  C   UNL A   1      38.049  30.825  29.972  1.00  0.00     0.037 A 
ATOM     48  C   UNL A   1      42.655  28.907  34.260  1.00  0.00     0.049 A 
ATOM     49  C   UNL A   1      38.309  31.129  31.424  1.00  0.00     0.074 A 
ATOM     50  C   UNL A   1      42.827  29.337  35.560  1.00  0.00     0.029 A 
ATOM     51  N   UNL A   1      41.542  29.559  33.751  1.00  0.00    -0.354 N 
ATOM     52  N   UNL A   1      39.278  30.696  32.195  1.00  0.00    -0.248 NA
ATOM     53  C   UNL A   1      37.375  32.044  32.094  1.00  0.00     0.031 C 
ATOM     54  C   UNL A   1      41.765  30.190  35.867  1.00  0.00     0.029 A 
ATOM     55  C   UNL A   1      40.990  30.363  34.728  1.00  0.00     0.049 A 
ATOM     56  H   UNL A   1      41.199  29.465  32.835  1.00  0.00     0.167 HD
ATOM     57  C   UNL A   1      39.097  31.314  33.423  1.00  0.00     0.074 A 
ATOM     58  C   UNL A   1      37.925  32.155  33.296  1.00  0.00     0.031 C 
ATOM     59  C   UNL A   1      39.836  31.205  34.554  1.00  0.00     0.037 A 
BRANCH  46  60
ATOM     60  C   UNL A   1      44.604  27.288  34.177  1.00  0.00     0.064 A 
ATOM     61  C   UNL A   1      45.894  27.848  34.157  1.00  0.00     0.173 A 
ATOM     62  C   UNL A   1      44.447  26.036  34.790  1.00  0.00     0.173 A 
ATOM     63  F   UNL A   1      46.109  29.029  33.559  1.00  0.00    -0.203 F 
ATOM     64  C   UNL A   1      46.985  27.157  34.679  1.00  0.00     0.198 A 
ATOM     65  C   UNL A   1      45.532  25.368  35.348  1.00  0.00     0.198 A 
ATOM     66  F   UNL A   1      43.239  25.452  34.835  1.00  0.00    -0.203 F 
ATOM     67  F   UNL A   1      48.217  27.672  34.570  1.00  0.00    -0.200 F 
ATOM     68  C   UNL A   1      46.802  25.921  35.280  1.00  0.00     0.200 A 
ATOM     69  F   UNL A   1      45.353  24.178  35.938  1.00  0.00    -0.200 F 
ATOM     70  F   UNL A   1      47.852  25.254  35.778  1.00  0.00    -0.200 F 
ENDBRANCH  46  60
BRANCH  47  71
ATOM     71  C   UNL A   1      36.885  31.428  29.253  1.00  0.00     0.064 A 
ATOM     72  C   UNL A   1      36.859  32.786  28.902  1.00  0.00     0.173 A 
ATOM     73  C   UNL A   1      35.759  30.658  28.917  1.00  0.00     0.173 A 
ATOM     74  F   UNL A   1      37.896  33.578  29.212  1.00  0.00    -0.203 F 
ATOM     75  C   UNL A   1      35.749  33.353  28.272  1.00  0.00     0.198 A 
ATOM     76  C   UNL A   1      34.664  31.218  28.259  1.00  0.00     0.198 A 
ATOM     77  F   UNL A   1      35.722  29.353  29.224  1.00  0.00    -0.203 F 
ATOM     78  F   UNL A   1      35.734  34.666  28.000  1.00  0.00    -0.200 F 
ATOM     79  C   UNL A   1      34.655  32.568  27.946  1.00  0.00     0.200 A 
ATOM     80  F   UNL A   1      33.615  30.451  27.933  1.00  0.00    -0.200 F 
ATOM     81  F   UNL A   1      33.591  33.113  27.339  1.00  0.00    -0.200 F 
ENDBRANCH  47  71
BRANCH  59  82
ATOM     82  C   UNL A   1      39.449  32.051  35.726  1.00  0.00     0.064 A 
ATOM     83  C   UNL A   1      39.897  33.370  35.863  1.00  0.00     0.173 A 
ATOM     84  C   UNL A   1      38.514  31.566  36.654  1.00  0.00     0.173 A 
ATOM     85  F   UNL A   1      40.794  33.873  35.002  1.00  0.00    -0.203 F 
ATOM     86  C   UNL A   1      39.429  34.174  36.897  1.00  0.00     0.198 A 
ATOM     87  C   UNL A   1      38.019  32.384  37.662  1.00  0.00     0.198 A 
ATOM     88  F   UNL A   1      38.046  30.313  36.552  1.00  0.00    -0.203 F 
ATOM     89  F   UNL A   1      39.893  35.424  37.032  1.00  0.00    -0.200 F 
ATOM     90  C   UNL A   1      38.481  33.685  37.786  1.00  0.00     0.200 A 
ATOM     91  F   UNL A   1      37.082  31.921  38.499  1.00  0.00    -0.200 F 
ATOM     92  F   UNL A   1      38.008  34.474  38.760  1.00  0.00    -0.200 F 
ENDBRANCH  59  82
ENDBRANCH  33  34
ENDBRANCH  26  28
ENDBRANCH  25  26
ENDBRANCH  24  25
ENDBRANCH  23  24
ENDBRANCH  22  23
ENDBRANCH  21  22
ENDBRANCH   1  21
TORSDOF 20
ENDMDL
MODEL 3
REMARK VINA RESULT:     -10.6      2.379      3.238
REMARK SMILES C[C@@H](Nc1cccc(Cl)c1)[C@@H](C)C(=O)OCCOCCOCCOC(=O)c1ccc(-c2c3nc(c(-c4c(F)c(F)c(F)c(F)c4F)c4ccc([nH]4)c(-c4c(F)c(F)c(F)c(F)c4F)c4nc(c(-c5c(F)c(F)c(F)c(F)c5F)c5ccc2[nH]5)C=C4)C=C3)cc1
REMARK SMILES IDX 19 1 18 2 17 3 16 4 15 5 13 6 14 7 11 8 12 9 2 10 1 11 3 12
REMARK SMILES IDX 4 14 5 15 10 16 6 17 8 18 7 19 9 20 20 21 21 22 22 23 23 24
REMARK SMILES IDX 24 25 25 26 26 27 27 28 28 29 89 30 29 31 88 32 30 33 31 34
REMARK SMILES IDX 32 35 82 36 33 37 87 38 81 39 83 40 34 41 86 42 80 43 79 44
REMARK SMILES IDX 35 46 67 47 47 48 66 49 48 50 51 51 65 52 84 53 49 54 50 55
REMARK SMILES IDX 64 57 85 58 52 59 36 60 37 61 45 62 38 63 39 64 43 65 46 66
REMARK SMILES IDX 40 67 41 68 44 69 42 70 68 71 69 72 77 73 70 74 71 75 75 76
REMARK SMILES IDX 78 77 72 78 73 79 76 80 74 81 53 82 54 83 62 84 55 85 56 86
REMARK SMILES IDX 60 87 63 88 57 89 58 90 61 91 59 92
REMARK H PARENT 3 13 83 45 51 56
REMARK Flexibility Score: inf
ROOT
ATOM      1  C   UNL A   1      42.784  19.335  26.192  1.00  0.00     0.188 C 
ENDROOT
BRANCH   1   2
ATOM      2  O   UNL A   1      41.775  20.232  25.775  1.00  0.00    -0.376 OA
BRANCH   2   3
ATOM      3  C   UNL A   1      40.542  20.185  26.478  1.00  0.00     0.202 C 
BRANCH   3   4
ATOM      4  C   UNL A   1      39.581  21.398  26.449  1.00  0.00     0.261 C 
BRANCH   4   5
ATOM      5  O   UNL A   1      38.722  21.575  25.284  1.00  0.00    -0.463 OA
BRANCH   5   6
ATOM      6  C   UNL A   1      37.492  22.122  25.508  1.00  0.00     0.310 C 
ATOM      7  O   UNL A   1      36.521  21.459  25.873  1.00  0.00    -0.252 OA
BRANCH   6   8
ATOM      8  C   UNL A   1      37.323  23.615  25.173  1.00  0.00     0.118 C 
ATOM      9  C   UNL A   1      37.807  24.405  26.392  1.00  0.00     0.022 C 
BRANCH   8  10
ATOM     10  C   UNL A   1      35.962  24.082  24.635  1.00  0.00     0.090 C 
ATOM     11  C   UNL A   1      35.461  23.287  23.400  1.00  0.00     0.031 C 
BRANCH  10  12
ATOM     12  N   UNL A   1      34.821  23.974  25.560  1.00  0.00    -0.382 N 
ATOM     13  H   UNL A   1      34.947  23.229  26.192  1.00  0.00     0.160 HD
BRANCH  12  14
ATOM     14  C   UNL A   1      33.634  24.622  25.785  1.00  0.00     0.036 A 
ATOM     15  C   UNL A   1      32.461  24.088  26.238  1.00  0.00     0.026 A 
ATOM     16  C   UNL A   1      33.662  26.038  25.598  1.00  0.00     0.046 A 
ATOM     17  C   UNL A   1      31.428  24.940  26.602  1.00  0.00     0.004 A 
ATOM     18  C   UNL A   1      32.591  27.109  25.769  1.00  0.00     0.043 A 
ATOM     19  C   UNL A   1      31.494  26.351  26.421  1.00  0.00     0.020 A 
ATOM     20  Cl  UNL A   1      32.726  29.497  25.149  1.00  0.00    -0.084 Cl
ENDBRANCH  12  14
ENDBRANCH  10  12
ENDBRANCH   8  10
ENDBRANCH   6   8
ENDBRANCH   5   6
ENDBRANCH   4   5
ENDBRANCH   3   4
ENDBRANCH   2   3
ENDBRANCH   1   2
BRANCH   1  21
ATOM     21  C   UNL A   1      43.753  18.779  25.148  1.00  0.00     0.188 C 
BRANCH  21  22
ATOM     22  O   UNL A   1      44.255  19.634  24.161  1.00  0.00    -0.376 OA
BRANCH  22  23
ATOM     23  C   UNL A   1      45.529  20.224  24.271  1.00  0.00     0.202 C 
BRANCH  23  24
ATOM     24  C   UNL A   1      45.837  21.583  24.913  1.00  0.00     0.261 C 
BRANCH  24  25
ATOM     25  O   UNL A   1      44.815  22.315  25.580  1.00  0.00    -0.460 OA
BRANCH  25  26
ATOM     26  C   UNL A   1      43.896  23.069  24.946  1.00  0.00     0.338 C 
ATOM     27  O   UNL A   1      43.408  22.919  23.847  1.00  0.00    -0.246 OA
BRANCH  26  28
ATOM     28  C   UNL A   1      43.478  24.023  25.999  1.00  0.00     0.060 A 
ATOM     29  C   UNL A   1      42.305  23.563  27.342  1.00  0.00     0.016 A 
ATOM     30  C   UNL A   1      44.307  25.655  26.038  1.00  0.00     0.016 A 
ATOM     31  C   UNL A   1      42.117  24.681  28.775  1.00  0.00     0.010 A 
ATOM     32  C   UNL A   1      43.946  26.840  27.381  1.00  0.00     0.010 A 
ATOM     33  C   UNL A   1      42.899  26.324  28.791  1.00  0.00    -0.014 A 
BRANCH  33  34
ATOM     34  C   UNL A   1      42.400  27.366  29.750  1.00  0.00     0.031 A 
ATOM     35  C   UNL A   1      43.124  27.526  31.067  1.00  0.00     0.074 A 
ATOM     36  C   UNL A   1      41.304  28.116  29.506  1.00  0.00     0.049 A 
ATOM     37  N   UNL A   1      42.793  28.214  32.134  1.00  0.00    -0.248 NA
ATOM     38  C   UNL A   1      44.389  26.802  31.225  1.00  0.00     0.031 C 
ATOM     39  C   UNL A   1      40.560  28.162  28.255  1.00  0.00     0.029 A 
ATOM     40  N   UNL A   1      40.619  29.005  30.306  1.00  0.00    -0.354 N 
ATOM     41  C   UNL A   1      43.801  27.971  33.064  1.00  0.00     0.074 A 
ATOM     42  C   UNL A   1      44.704  27.018  32.485  1.00  0.00     0.031 C 
ATOM     43  C   UNL A   1      39.501  28.978  28.376  1.00  0.00     0.029 A 
ATOM     44  C   UNL A   1      39.484  29.526  29.723  1.00  0.00     0.049 A 
ATOM     45  H   UNL A   1      40.914  29.247  31.214  1.00  0.00     0.167 HD
ATOM     46  C   UNL A   1      44.001  28.523  34.281  1.00  0.00     0.037 A 
ATOM     47  C   UNL A   1      38.535  30.350  30.213  1.00  0.00     0.037 A 
ATOM     48  C   UNL A   1      43.110  29.479  34.860  1.00  0.00     0.049 A 
ATOM     49  C   UNL A   1      38.703  30.869  31.617  1.00  0.00     0.074 A 
ATOM     50  C   UNL A   1      43.186  30.094  36.093  1.00  0.00     0.029 A 
ATOM     51  N   UNL A   1      41.964  29.946  34.234  1.00  0.00    -0.354 N 
ATOM     52  N   UNL A   1      39.674  30.638  32.469  1.00  0.00    -0.248 NA
ATOM     53  C   UNL A   1      37.660  31.769  32.128  1.00  0.00     0.031 C 
ATOM     54  C   UNL A   1      42.037  30.872  36.249  1.00  0.00     0.029 A 
ATOM     55  C   UNL A   1      41.299  30.815  35.074  1.00  0.00     0.049 A 
ATOM     56  H   UNL A   1      41.671  29.696  33.329  1.00  0.00     0.167 HD
ATOM     57  C   UNL A   1      39.384  31.394  33.595  1.00  0.00     0.074 A 
ATOM     58  C   UNL A   1      38.146  32.092  33.319  1.00  0.00     0.031 C 
ATOM     59  C   UNL A   1      40.081  31.509  34.752  1.00  0.00     0.037 A 
BRANCH  46  60
ATOM     60  C   UNL A   1      45.203  28.061  35.058  1.00  0.00     0.064 A 
ATOM     61  C   UNL A   1      46.430  28.746  35.015  1.00  0.00     0.173 A 
ATOM     62  C   UNL A   1      45.141  26.883  35.817  1.00  0.00     0.173 A 
ATOM     63  F   UNL A   1      46.555  29.862  34.280  1.00  0.00    -0.203 F 
ATOM     64  C   UNL A   1      47.557  28.242  35.658  1.00  0.00     0.198 A 
ATOM     65  C   UNL A   1      46.259  26.405  36.494  1.00  0.00     0.198 A 
ATOM     66  F   UNL A   1      43.997  26.185  35.892  1.00  0.00    -0.203 F 
ATOM     67  F   UNL A   1      48.736  28.866  35.529  1.00  0.00    -0.200 F 
ATOM     68  C   UNL A   1      47.469  27.076  36.402  1.00  0.00     0.200 A 
ATOM     69  F   UNL A   1      46.171  25.283  37.221  1.00  0.00    -0.200 F 
ATOM     70  F   UNL A   1      48.555  26.588  37.017  1.00  0.00    -0.200 F 
ENDBRANCH  46  60
BRANCH  47  71
ATOM     71  C   UNL A   1      37.352  30.734  29.384  1.00  0.00     0.064 A 
ATOM     72  C   UNL A   1      36.313  29.829  29.119  1.00  0.00     0.173 A 
ATOM     73  C   UNL A   1      37.246  32.016  28.818  1.00  0.00     0.173 A 
ATOM     74  F   UNL A   1      36.366  28.584  29.616  1.00  0.00    -0.203 F 
ATOM     75  C   UNL A   1      35.234  30.179  28.305  1.00  0.00     0.198 A 
ATOM     76  C   UNL A   1      36.151  32.375  28.031  1.00  0.00     0.198 A 
ATOM     77  F   UNL A   1      38.206  32.927  29.034  1.00  0.00    -0.203 F 
ATOM     78  F   UNL A   1      34.285  29.274  28.028  1.00  0.00    -0.200 F 
ATOM     79  C   UNL A   1      35.151  31.453  27.766  1.00  0.00     0.200 A 
ATOM     80  F   UNL A   1      36.069  33.613  27.526  1.00  0.00    -0.200 F 
ATOM     81  F   UNL A   1      34.113  31.790  26.987  1.00  0.00    -0.200 F 
ENDBRANCH  47  71
BRANCH  59  82
ATOM     82  C   UNL A   1      39.567  32.463  35.785  1.00  0.00     0.064 A 
ATOM     83  C   UNL A   1      38.662  32.061  36.774  1.00  0.00     0.173 A 
ATOM     84  C   UNL A   1      40.091  33.764  35.851  1.00  0.00     0.173 A 
ATOM     85  F   UNL A   1      38.131  30.829  36.745  1.00  0.00    -0.203 F 
ATOM     86  C   UNL A   1      38.291  32.933  37.792  1.00  0.00     0.198 A 
ATOM     87  C   UNL A   1      39.749  34.618  36.892  1.00  0.00     0.198 A 
ATOM     88  F   UNL A   1      40.973  34.186  34.933  1.00  0.00    -0.203 F 
ATOM     89  F   UNL A   1      37.398  32.542  38.713  1.00  0.00    -0.200 F 
ATOM     90  C   UNL A   1      38.845  34.204  37.858  1.00  0.00     0.200 A 
ATOM     91  F   UNL A   1      40.309  35.832  36.970  1.00  0.00    -0.200 F 
ATOM     92  F   UNL A   1      38.511  35.029  38.859  1.00  0.00    -0.200 F 
ENDBRANCH  59  82
ENDBRANCH  33  34
ENDBRANCH  26  28
ENDBRANCH  25  26
ENDBRANCH  24  25
ENDBRANCH  23  24
ENDBRANCH  22  23
ENDBRANCH  21  22
ENDBRANCH   1  21
TORSDOF 20
ENDMDL
