MODEL 1
REMARK VINA RESULT:     -12.8      0.000      0.000
REMARK SMILES Cc1ccc(-c2nc(C)cc(N3CCCC[C@H]3C(=O)OCCOCCOCCOC(=O)c3ccc(-c4c5nc(c(-c6c(F)c(F)c(F)c(F)c6F)c6ccc([nH]6)c(-c6c(F)c(F)c(F)c(F)c6F)c6nc(c(-c7c(F)c(F)c(F)c(F)c7F)c7ccc4[nH]7)C=C6)C=C5)cc3)n2)cc1
REMARK SMILES IDX 24 1 23 2 22 3 21 4 20 5 18 6 19 7 17 8 12 9 13 10 14 11
REMARK SMILES IDX 16 12 15 13 11 14 6 15 7 16 95 17 8 18 9 19 10 20 5 21 1 22
REMARK SMILES IDX 2 23 3 24 97 25 4 26 96 27 25 28 26 29 27 30 28 31 29 32
REMARK SMILES IDX 30 33 31 34 32 35 33 36 94 37 34 38 93 39 35 40 36 41 37 42
REMARK SMILES IDX 87 43 38 44 92 45 86 46 88 47 39 48 91 49 85 50 84 51 40 53
REMARK SMILES IDX 72 54 52 55 71 56 53 57 56 58 70 59 89 60 54 61 55 62 69 64
REMARK SMILES IDX 90 65 57 66 41 67 42 68 50 69 43 70 44 71 48 72 51 73 45 74
REMARK SMILES IDX 46 75 49 76 47 77 73 78 74 79 82 80 75 81 76 82 80 83 83 84
REMARK SMILES IDX 77 85 78 86 81 87 79 88 58 89 59 90 67 91 60 92 61 93 65 94
REMARK SMILES IDX 68 95 62 96 63 97 66 98 64 99
REMARK H PARENT 88 52 56 63
REMARK Flexibility Score: inf
ROOT
ATOM      1  C   UNL A   1      40.554  20.158  26.239  1.00  0.00     0.188 C 
ENDROOT
BRANCH   1   2
ATOM      2  O   UNL A   1      39.950  21.430  26.517  1.00  0.00    -0.376 OA
BRANCH   2   3
ATOM      3  C   UNL A   1      38.709  21.612  25.786  1.00  0.00     0.202 C 
BRANCH   3   4
ATOM      4  C   UNL A   1      38.181  23.106  25.888  1.00  0.00     0.261 C 
BRANCH   4   5
ATOM      5  O   UNL A   1      36.623  23.725  25.868  1.00  0.00    -0.462 OA
BRANCH   5   6
ATOM      6  C   UNL A   1      35.393  23.981  25.249  1.00  0.00     0.328 C 
ATOM      7  O   UNL A   1      35.128  24.194  24.068  1.00  0.00    -0.250 OA
BRANCH   6   8
ATOM      8  C   UNL A   1      34.180  24.001  26.127  1.00  0.00     0.193 C 
ATOM      9  N   UNL A   1      32.982  23.922  25.305  1.00  0.00    -0.343 N 
ATOM     10  C   UNL A   1      32.469  22.637  24.863  1.00  0.00     0.119 C 
ATOM     11  C   UNL A   1      32.826  21.454  25.762  1.00  0.00     0.022 C 
ATOM     12  C   UNL A   1      34.259  22.943  27.202  1.00  0.00     0.037 C 
ATOM     13  C   UNL A   1      34.067  21.550  26.633  1.00  0.00     0.005 C 
BRANCH   9  14
ATOM     14  C   UNL A   1      32.176  25.007  25.043  1.00  0.00     0.133 A 
ATOM     15  C   UNL A   1      31.851  27.212  25.604  1.00  0.00     0.161 A 
ATOM     16  N   UNL A   1      30.629  27.298  25.083  1.00  0.00    -0.233 NA
ATOM     17  N   UNL A   1      32.632  26.129  25.583  1.00  0.00    -0.211 NA
ATOM     18  C   UNL A   1      30.193  26.190  24.452  1.00  0.00     0.043 A 
ATOM     19  C   UNL A   1      28.827  26.337  23.848  1.00  0.00     0.067 C 
ATOM     20  C   UNL A   1      30.939  25.003  24.408  1.00  0.00     0.070 A 
BRANCH  15  21
ATOM     21  C   UNL A   1      32.429  28.311  26.358  1.00  0.00     0.019 A 
ATOM     22  C   UNL A   1      34.276  31.904  27.836  1.00  0.00     0.044 C 
ATOM     23  C   UNL A   1      33.618  30.643  27.370  1.00  0.00    -0.051 A 
ATOM     24  C   UNL A   1      34.336  29.439  27.332  1.00  0.00     0.004 A 
ATOM     25  C   UNL A   1      32.293  30.670  26.935  1.00  0.00     0.004 A 
ATOM     26  C   UNL A   1      33.743  28.275  26.836  1.00  0.00     0.012 A 
ATOM     27  C   UNL A   1      31.708  29.514  26.438  1.00  0.00     0.012 A 
ENDBRANCH  15  21
ENDBRANCH   9  14
ENDBRANCH   6   8
ENDBRANCH   5   6
ENDBRANCH   4   5
ENDBRANCH   3   4
ENDBRANCH   2   3
ENDBRANCH   1   2
BRANCH   1  28
ATOM     28  C   UNL A   1      42.064  20.169  26.478  1.00  0.00     0.188 C 
BRANCH  28  29
ATOM     29  O   UNL A   1      42.930  20.335  25.358  1.00  0.00    -0.376 OA
BRANCH  29  30
ATOM     30  C   UNL A   1      43.940  21.339  25.415  1.00  0.00     0.202 C 
BRANCH  30  31
ATOM     31  C   UNL A   1      43.658  22.697  24.743  1.00  0.00     0.261 C 
BRANCH  31  32
ATOM     32  O   UNL A   1      42.563  23.369  25.371  1.00  0.00    -0.460 OA
BRANCH  32  33
ATOM     33  C   UNL A   1      42.858  24.251  26.366  1.00  0.00     0.338 C 
ATOM     34  O   UNL A   1      43.826  24.246  27.105  1.00  0.00    -0.246 OA
BRANCH  33  35
ATOM     35  C   UNL A   1      41.588  24.976  26.574  1.00  0.00     0.060 A 
ATOM     36  C   UNL A   1      41.439  26.261  26.096  1.00  0.00     0.016 A 
ATOM     37  C   UNL A   1      40.764  24.601  27.589  1.00  0.00     0.016 A 
ATOM     38  C   UNL A   1      40.716  27.225  26.850  1.00  0.00     0.010 A 
ATOM     39  C   UNL A   1      40.153  25.623  28.348  1.00  0.00     0.010 A 
ATOM     40  C   UNL A   1      40.261  27.019  28.160  1.00  0.00    -0.014 A 
BRANCH  40  41
ATOM     41  C   UNL A   1      40.118  28.328  29.202  1.00  0.00     0.031 A 
ATOM     42  C   UNL A   1      39.080  29.686  29.372  1.00  0.00     0.074 A 
ATOM     43  C   UNL A   1      41.085  28.336  30.162  1.00  0.00     0.049 A 
ATOM     44  N   UNL A   1      39.493  30.865  29.815  1.00  0.00    -0.248 NA
ATOM     45  C   UNL A   1      37.640  29.923  28.992  1.00  0.00     0.031 C 
ATOM     46  C   UNL A   1      41.223  29.223  31.310  1.00  0.00     0.029 A 
ATOM     47  N   UNL A   1      42.301  27.625  30.166  1.00  0.00    -0.354 N 
ATOM     48  C   UNL A   1      38.388  31.728  29.864  1.00  0.00     0.074 A 
ATOM     49  C   UNL A   1      37.452  31.229  28.968  1.00  0.00     0.031 C 
ATOM     50  C   UNL A   1      42.522  29.274  31.649  1.00  0.00     0.029 A 
ATOM     51  C   UNL A   1      43.262  28.515  30.659  1.00  0.00     0.049 A 
ATOM     52  H   UNL A   1      42.445  26.694  29.882  1.00  0.00     0.167 HD
ATOM     53  C   UNL A   1      38.164  32.675  30.811  1.00  0.00     0.037 A 
ATOM     54  C   UNL A   1      44.268  28.985  29.864  1.00  0.00     0.037 A 
ATOM     55  C   UNL A   1      39.432  33.029  31.374  1.00  0.00     0.049 A 
ATOM     56  C   UNL A   1      44.301  30.498  29.768  1.00  0.00     0.074 A 
ATOM     57  C   UNL A   1      40.080  32.724  32.548  1.00  0.00     0.029 A 
ATOM     58  N   UNL A   1      40.384  33.482  30.477  1.00  0.00    -0.354 N 
ATOM     59  N   UNL A   1      43.344  31.286  30.179  1.00  0.00    -0.248 NA
ATOM     60  C   UNL A   1      45.415  31.245  29.190  1.00  0.00     0.031 C 
ATOM     61  C   UNL A   1      41.476  32.837  32.280  1.00  0.00     0.029 A 
ATOM     62  C   UNL A   1      41.649  33.293  30.982  1.00  0.00     0.049 A 
ATOM     63  H   UNL A   1      40.185  33.884  29.601  1.00  0.00     0.167 HD
ATOM     64  C   UNL A   1      43.656  32.591  29.894  1.00  0.00     0.074 A 
ATOM     65  C   UNL A   1      44.981  32.511  29.311  1.00  0.00     0.031 C 
ATOM     66  C   UNL A   1      42.788  33.620  30.135  1.00  0.00     0.037 A 
BRANCH  53  67
ATOM     67  C   UNL A   1      36.779  33.162  31.278  1.00  0.00     0.064 A 
ATOM     68  C   UNL A   1      35.989  33.954  30.420  1.00  0.00     0.173 A 
ATOM     69  C   UNL A   1      36.223  33.016  32.583  1.00  0.00     0.173 A 
ATOM     70  F   UNL A   1      36.386  34.203  29.165  1.00  0.00    -0.203 F 
ATOM     71  C   UNL A   1      34.776  34.545  30.829  1.00  0.00     0.198 A 
ATOM     72  C   UNL A   1      34.982  33.547  32.965  1.00  0.00     0.198 A 
ATOM     73  F   UNL A   1      36.870  32.419  33.590  1.00  0.00    -0.203 F 
ATOM     74  F   UNL A   1      34.111  35.347  29.986  1.00  0.00    -0.200 F 
ATOM     75  C   UNL A   1      34.268  34.331  32.094  1.00  0.00     0.200 A 
ATOM     76  F   UNL A   1      34.517  33.322  34.205  1.00  0.00    -0.200 F 
ATOM     77  F   UNL A   1      33.119  34.900  32.485  1.00  0.00    -0.200 F 
ENDBRANCH  53  67
BRANCH  54  78
ATOM     78  C   UNL A   1      44.803  28.016  28.847  1.00  0.00     0.064 A 
ATOM     79  C   UNL A   1      44.351  28.124  27.510  1.00  0.00     0.173 A 
ATOM     80  C   UNL A   1      45.910  27.184  29.062  1.00  0.00     0.173 A 
ATOM     81  F   UNL A   1      43.301  28.909  27.221  1.00  0.00    -0.203 F 
ATOM     82  C   UNL A   1      45.021  27.519  26.444  1.00  0.00     0.198 A 
ATOM     83  C   UNL A   1      46.579  26.574  27.986  1.00  0.00     0.198 A 
ATOM     84  F   UNL A   1      46.438  27.065  30.288  1.00  0.00    -0.203 F 
ATOM     85  F   UNL A   1      44.638  27.767  25.184  1.00  0.00    -0.200 F 
ATOM     86  C   UNL A   1      46.146  26.755  26.682  1.00  0.00     0.200 A 
ATOM     87  F   UNL A   1      47.716  25.901  28.191  1.00  0.00    -0.200 F 
ATOM     88  F   UNL A   1      46.871  26.283  25.658  1.00  0.00    -0.200 F 
ENDBRANCH  54  78
BRANCH  66  89
ATOM     89  C   UNL A   1      42.888  35.042  29.598  1.00  0.00     0.064 A 
ATOM     90  C   UNL A   1      42.210  35.516  28.463  1.00  0.00     0.173 A 
ATOM     91  C   UNL A   1      43.566  36.042  30.348  1.00  0.00     0.173 A 
ATOM     92  F   UNL A   1      41.421  34.721  27.732  1.00  0.00    -0.203 F 
ATOM     93  C   UNL A   1      42.262  36.860  28.073  1.00  0.00     0.198 A 
ATOM     94  C   UNL A   1      43.537  37.393  30.007  1.00  0.00     0.198 A 
ATOM     95  F   UNL A   1      44.250  35.746  31.463  1.00  0.00    -0.203 F 
ATOM     96  F   UNL A   1      41.647  37.244  26.946  1.00  0.00    -0.200 F 
ATOM     97  C   UNL A   1      42.906  37.800  28.854  1.00  0.00     0.200 A 
ATOM     98  F   UNL A   1      44.106  38.298  30.818  1.00  0.00    -0.200 F 
ATOM     99  F   UNL A   1      42.897  39.094  28.508  1.00  0.00    -0.200 F 
ENDBRANCH  66  89
ENDBRANCH  40  41
ENDBRANCH  33  35
ENDBRANCH  32  33
ENDBRANCH  31  32
ENDBRANCH  30  31
ENDBRANCH  29  30
ENDBRANCH  28  29
ENDBRANCH   1  28
TORSDOF 19
ENDMDL
MODEL 2
REMARK VINA RESULT:     -12.2      3.575     10.200
REMARK SMILES Cc1ccc(-c2nc(C)cc(N3CCCC[C@H]3C(=O)OCCOCCOCCOC(=O)c3ccc(-c4c5nc(c(-c6c(F)c(F)c(F)c(F)c6F)c6ccc([nH]6)c(-c6c(F)c(F)c(F)c(F)c6F)c6nc(c(-c7c(F)c(F)c(F)c(F)c7F)c7ccc4[nH]7)C=C6)C=C5)cc3)n2)cc1
REMARK SMILES IDX 24 1 23 2 22 3 21 4 20 5 18 6 19 7 17 8 12 9 13 10 14 11
REMARK SMILES IDX 16 12 15 13 11 14 6 15 7 16 95 17 8 18 9 19 10 20 5 21 1 22
REMARK SMILES IDX 2 23 3 24 97 25 4 26 96 27 25 28 26 29 27 30 28 31 29 32
REMARK SMILES IDX 30 33 31 34 32 35 33 36 94 37 34 38 93 39 35 40 36 41 37 42
REMARK SMILES IDX 87 43 38 44 92 45 86 46 88 47 39 48 91 49 85 50 84 51 40 53
REMARK SMILES IDX 72 54 52 55 71 56 53 57 56 58 70 59 89 60 54 61 55 62 69 64
REMARK SMILES IDX 90 65 57 66 41 67 42 68 50 69 43 70 44 71 48 72 51 73 45 74
REMARK SMILES IDX 46 75 49 76 47 77 73 78 74 79 82 80 75 81 76 82 80 83 83 84
REMARK SMILES IDX 77 85 78 86 81 87 79 88 58 89 59 90 67 91 60 92 61 93 65 94
REMARK SMILES IDX 68 95 62 96 63 97 66 98 64 99
REMARK H PARENT 88 52 56 63
REMARK Flexibility Score: inf
ROOT
ATOM      1  C   UNL A   1      33.745  33.160  27.709  1.00  0.00     0.188 C 
ENDROOT
BRANCH   1   2
ATOM      2  O   UNL A   1      33.474  31.827  28.164  1.00  0.00    -0.376 OA
BRANCH   2   3
ATOM      3  C   UNL A   1      33.354  30.893  27.059  1.00  0.00     0.202 C 
BRANCH   3   4
ATOM      4  C   UNL A   1      33.602  29.395  27.527  1.00  0.00     0.261 C 
BRANCH   4   5
ATOM      5  O   UNL A   1      33.674  27.968  26.650  1.00  0.00    -0.462 OA
BRANCH   5   6
ATOM      6  C   UNL A   1      33.093  26.834  26.067  1.00  0.00     0.328 C 
ATOM      7  O   UNL A   1      32.238  26.067  26.503  1.00  0.00    -0.250 OA
BRANCH   6   8
ATOM      8  C   UNL A   1      33.553  26.467  24.690  1.00  0.00     0.193 C 
ATOM      9  N   UNL A   1      32.584  25.573  24.075  1.00  0.00    -0.343 N 
ATOM     10  C   UNL A   1      31.416  26.103  23.391  1.00  0.00     0.119 C 
ATOM     11  C   UNL A   1      31.580  27.513  22.827  1.00  0.00     0.022 C 
ATOM     12  C   UNL A   1      33.868  27.692  23.867  1.00  0.00     0.037 C 
ATOM     13  C   UNL A   1      32.609  28.434  23.461  1.00  0.00     0.005 C 
BRANCH   9  14
ATOM     14  C   UNL A   1      32.784  24.217  23.945  1.00  0.00     0.133 A 
ATOM     15  C   UNL A   1      34.327  22.560  24.342  1.00  0.00     0.161 A 
ATOM     16  N   UNL A   1      33.738  21.649  23.569  1.00  0.00    -0.233 NA
ATOM     17  N   UNL A   1      33.882  23.799  24.562  1.00  0.00    -0.211 NA
ATOM     18  C   UNL A   1      32.573  22.034  23.011  1.00  0.00     0.043 A 
ATOM     19  C   UNL A   1      31.922  20.970  22.176  1.00  0.00     0.067 C 
ATOM     20  C   UNL A   1      32.051  23.327  23.170  1.00  0.00     0.070 A 
BRANCH  15  21
ATOM     21  C   UNL A   1      35.613  22.302  24.965  1.00  0.00     0.019 A 
ATOM     22  C   UNL A   1      39.738  21.890  26.118  1.00  0.00     0.044 C 
ATOM     23  C   UNL A   1      38.289  22.021  25.765  1.00  0.00    -0.051 A 
ATOM     24  C   UNL A   1      37.571  20.915  25.288  1.00  0.00     0.004 A 
ATOM     25  C   UNL A   1      37.655  23.259  25.877  1.00  0.00     0.004 A 
ATOM     26  C   UNL A   1      36.236  21.052  24.897  1.00  0.00     0.012 A 
ATOM     27  C   UNL A   1      36.332  23.393  25.483  1.00  0.00     0.012 A 
ENDBRANCH  15  21
ENDBRANCH   9  14
ENDBRANCH   6   8
ENDBRANCH   5   6
ENDBRANCH   4   5
ENDBRANCH   3   4
ENDBRANCH   2   3
ENDBRANCH   1   2
BRANCH   1  28
ATOM     28  C   UNL A   1      32.987  34.214  28.519  1.00  0.00     0.188 C 
BRANCH  28  29
ATOM     29  O   UNL A   1      33.368  34.434  29.874  1.00  0.00    -0.376 OA
BRANCH  29  30
ATOM     30  C   UNL A   1      34.693  34.879  30.151  1.00  0.00     0.202 C 
BRANCH  30  31
ATOM     31  C   UNL A   1      35.511  34.119  31.215  1.00  0.00     0.261 C 
BRANCH  31  32
ATOM     32  O   UNL A   1      36.147  32.967  30.655  1.00  0.00    -0.460 OA
BRANCH  32  33
ATOM     33  C   UNL A   1      35.796  31.752  31.158  1.00  0.00     0.338 C 
ATOM     34  O   UNL A   1      35.504  31.476  32.308  1.00  0.00    -0.246 OA
BRANCH  33  35
ATOM     35  C   UNL A   1      36.195  30.808  30.095  1.00  0.00     0.060 A 
ATOM     36  C   UNL A   1      36.425  29.482  30.398  1.00  0.00     0.016 A 
ATOM     37  C   UNL A   1      36.774  31.286  28.961  1.00  0.00     0.016 A 
ATOM     38  C   UNL A   1      37.475  28.773  29.754  1.00  0.00     0.010 A 
ATOM     39  C   UNL A   1      37.871  30.569  28.434  1.00  0.00     0.010 A 
ATOM     40  C   UNL A   1      38.434  29.370  28.925  1.00  0.00    -0.014 A 
BRANCH  40  41
ATOM     41  C   UNL A   1      39.973  28.705  28.826  1.00  0.00     0.031 A 
ATOM     42  C   UNL A   1      40.650  27.151  28.549  1.00  0.00     0.074 A 
ATOM     43  C   UNL A   1      40.952  29.629  29.035  1.00  0.00     0.049 A 
ATOM     44  N   UNL A   1      41.772  26.735  29.121  1.00  0.00    -0.248 NA
ATOM     45  C   UNL A   1      40.158  25.945  27.790  1.00  0.00     0.031 C 
ATOM     46  C   UNL A   1      42.396  29.472  28.910  1.00  0.00     0.029 A 
ATOM     47  N   UNL A   1      40.825  30.900  29.627  1.00  0.00    -0.354 N 
ATOM     48  C   UNL A   1      42.054  25.445  28.648  1.00  0.00     0.074 A 
ATOM     49  C   UNL A   1      40.849  24.905  28.219  1.00  0.00     0.031 C 
ATOM     50  C   UNL A   1      42.989  30.374  29.709  1.00  0.00     0.029 A 
ATOM     51  C   UNL A   1      41.944  31.052  30.453  1.00  0.00     0.049 A 
ATOM     52  H   UNL A   1      40.098  31.550  29.487  1.00  0.00     0.167 HD
ATOM     53  C   UNL A   1      43.291  24.950  28.386  1.00  0.00     0.037 A 
ATOM     54  C   UNL A   1      41.822  31.105  31.812  1.00  0.00     0.037 A 
ATOM     55  C   UNL A   1      44.227  25.693  29.173  1.00  0.00     0.049 A 
ATOM     56  C   UNL A   1      42.626  30.037  32.530  1.00  0.00     0.074 A 
ATOM     57  C   UNL A   1      45.121  26.702  28.903  1.00  0.00     0.029 A 
ATOM     58  N   UNL A   1      44.002  25.690  30.540  1.00  0.00    -0.354 N 
ATOM     59  N   UNL A   1      43.183  29.011  31.943  1.00  0.00    -0.248 NA
ATOM     60  C   UNL A   1      42.857  30.035  33.971  1.00  0.00     0.031 C 
ATOM     61  C   UNL A   1      45.296  27.426  30.120  1.00  0.00     0.029 A 
ATOM     62  C   UNL A   1      44.579  26.793  31.125  1.00  0.00     0.049 A 
ATOM     63  H   UNL A   1      43.500  24.996  31.025  1.00  0.00     0.167 HD
ATOM     64  C   UNL A   1      43.782  28.205  32.878  1.00  0.00     0.074 A 
ATOM     65  C   UNL A   1      43.582  28.914  34.126  1.00  0.00     0.031 C 
ATOM     66  C   UNL A   1      44.364  27.012  32.549  1.00  0.00     0.037 A 
BRANCH  53  67
ATOM     67  C   UNL A   1      43.620  23.880  27.328  1.00  0.00     0.064 A 
ATOM     68  C   UNL A   1      44.265  24.254  26.131  1.00  0.00     0.173 A 
ATOM     69  C   UNL A   1      43.219  22.512  27.349  1.00  0.00     0.173 A 
ATOM     70  F   UNL A   1      44.684  25.512  25.948  1.00  0.00    -0.203 F 
ATOM     71  C   UNL A   1      44.474  23.356  25.065  1.00  0.00     0.198 A 
ATOM     72  C   UNL A   1      43.492  21.604  26.316  1.00  0.00     0.198 A 
ATOM     73  F   UNL A   1      42.477  21.984  28.329  1.00  0.00    -0.203 F 
ATOM     74  F   UNL A   1      45.027  23.794  23.926  1.00  0.00    -0.200 F 
ATOM     75  C   UNL A   1      44.100  22.031  25.162  1.00  0.00     0.200 A 
ATOM     76  F   UNL A   1      43.112  20.322  26.442  1.00  0.00    -0.200 F 
ATOM     77  F   UNL A   1      44.292  21.179  24.145  1.00  0.00    -0.200 F 
ENDBRANCH  53  67
BRANCH  54  78
ATOM     78  C   UNL A   1      40.589  31.789  32.330  1.00  0.00     0.064 A 
ATOM     79  C   UNL A   1      39.529  30.990  32.821  1.00  0.00     0.173 A 
ATOM     80  C   UNL A   1      40.511  33.161  32.609  1.00  0.00     0.173 A 
ATOM     81  F   UNL A   1      39.535  29.665  32.603  1.00  0.00    -0.203 F 
ATOM     82  C   UNL A   1      38.510  31.510  33.622  1.00  0.00     0.198 A 
ATOM     83  C   UNL A   1      39.481  33.681  33.412  1.00  0.00     0.198 A 
ATOM     84  F   UNL A   1      41.497  33.984  32.229  1.00  0.00    -0.203 F 
ATOM     85  F   UNL A   1      37.609  30.688  34.179  1.00  0.00    -0.200 F 
ATOM     86  C   UNL A   1      38.495  32.856  33.930  1.00  0.00     0.200 A 
ATOM     87  F   UNL A   1      39.499  34.964  33.788  1.00  0.00    -0.200 F 
ATOM     88  F   UNL A   1      37.601  33.339  34.805  1.00  0.00    -0.200 F 
ENDBRANCH  54  78
BRANCH  66  89
ATOM     89  C   UNL A   1      44.785  25.908  33.509  1.00  0.00     0.064 A 
ATOM     90  C   UNL A   1      43.912  25.224  34.371  1.00  0.00     0.173 A 
ATOM     91  C   UNL A   1      46.103  25.377  33.453  1.00  0.00     0.173 A 
ATOM     92  F   UNL A   1      42.609  25.522  34.432  1.00  0.00    -0.203 F 
ATOM     93  C   UNL A   1      44.336  24.149  35.160  1.00  0.00     0.198 A 
ATOM     94  C   UNL A   1      46.496  24.249  34.172  1.00  0.00     0.198 A 
ATOM     95  F   UNL A   1      47.048  25.915  32.668  1.00  0.00    -0.203 F 
ATOM     96  F   UNL A   1      43.475  23.575  36.012  1.00  0.00    -0.200 F 
ATOM     97  C   UNL A   1      45.619  23.649  35.046  1.00  0.00     0.200 A 
ATOM     98  F   UNL A   1      47.721  23.736  33.989  1.00  0.00    -0.200 F 
ATOM     99  F   UNL A   1      45.999  22.580  35.758  1.00  0.00    -0.200 F 
ENDBRANCH  66  89
ENDBRANCH  40  41
ENDBRANCH  33  35
ENDBRANCH  32  33
ENDBRANCH  31  32
ENDBRANCH  30  31
ENDBRANCH  29  30
ENDBRANCH  28  29
ENDBRANCH   1  28
TORSDOF 19
ENDMDL
MODEL 3
REMARK VINA RESULT:     -12.0      4.135     10.398
REMARK SMILES Cc1ccc(-c2nc(C)cc(N3CCCC[C@H]3C(=O)OCCOCCOCCOC(=O)c3ccc(-c4c5nc(c(-c6c(F)c(F)c(F)c(F)c6F)c6ccc([nH]6)c(-c6c(F)c(F)c(F)c(F)c6F)c6nc(c(-c7c(F)c(F)c(F)c(F)c7F)c7ccc4[nH]7)C=C6)C=C5)cc3)n2)cc1
REMARK SMILES IDX 24 1 23 2 22 3 21 4 20 5 18 6 19 7 17 8 12 9 13 10 14 11
REMARK SMILES IDX 16 12 15 13 11 14 6 15 7 16 95 17 8 18 9 19 10 20 5 21 1 22
REMARK SMILES IDX 2 23 3 24 97 25 4 26 96 27 25 28 26 29 27 30 28 31 29 32
REMARK SMILES IDX 30 33 31 34 32 35 33 36 94 37 34 38 93 39 35 40 36 41 37 42
REMARK SMILES IDX 87 43 38 44 92 45 86 46 88 47 39 48 91 49 85 50 84 51 40 53
REMARK SMILES IDX 72 54 52 55 71 56 53 57 56 58 70 59 89 60 54 61 55 62 69 64
REMARK SMILES IDX 90 65 57 66 41 67 42 68 50 69 43 70 44 71 48 72 51 73 45 74
REMARK SMILES IDX 46 75 49 76 47 77 73 78 74 79 82 80 75 81 76 82 80 83 83 84
REMARK SMILES IDX 77 85 78 86 81 87 79 88 58 89 59 90 67 91 60 92 61 93 65 94
REMARK SMILES IDX 68 95 62 96 63 97 66 98 64 99
REMARK H PARENT 88 52 56 63
REMARK Flexibility Score: inf
ROOT
ATOM      1  C   UNL A   1      32.842  31.148  26.850  1.00  0.00     0.188 C 
ENDROOT
BRANCH   1   2
ATOM      2  O   UNL A   1      32.877  29.796  27.330  1.00  0.00    -0.376 OA
BRANCH   2   3
ATOM      3  C   UNL A   1      31.997  28.929  26.568  1.00  0.00     0.202 C 
BRANCH   3   4
ATOM      4  C   UNL A   1      31.551  27.658  27.410  1.00  0.00     0.261 C 
BRANCH   4   5
ATOM      5  O   UNL A   1      31.440  26.041  26.982  1.00  0.00    -0.462 OA
BRANCH   5   6
ATOM      6  C   UNL A   1      31.993  24.820  26.575  1.00  0.00     0.328 C 
ATOM      7  O   UNL A   1      32.041  23.737  27.155  1.00  0.00    -0.250 OA
BRANCH   6   8
ATOM      8  C   UNL A   1      32.631  24.780  25.221  1.00  0.00     0.193 C 
ATOM      9  N   UNL A   1      32.667  23.409  24.739  1.00  0.00    -0.343 N 
ATOM     10  C   UNL A   1      31.519  22.830  24.060  1.00  0.00     0.119 C 
ATOM     11  C   UNL A   1      30.610  23.836  23.356  1.00  0.00     0.022 C 
ATOM     12  C   UNL A   1      31.971  25.749  24.270  1.00  0.00     0.037 C 
ATOM     13  C   UNL A   1      30.593  25.272  23.851  1.00  0.00     0.005 C 
BRANCH   9  14
ATOM     14  C   UNL A   1      33.810  22.641  24.732  1.00  0.00     0.133 A 
ATOM     15  C   UNL A   1      34.539  20.461  24.765  1.00  0.00     0.161 A 
ATOM     16  N   UNL A   1      35.800  20.752  25.076  1.00  0.00    -0.233 NA
ATOM     17  N   UNL A   1      33.560  21.348  24.571  1.00  0.00    -0.211 NA
ATOM     18  C   UNL A   1      36.086  22.068  25.152  1.00  0.00     0.043 A 
ATOM     19  C   UNL A   1      37.524  22.357  25.469  1.00  0.00     0.067 C 
ATOM     20  C   UNL A   1      35.110  23.062  24.989  1.00  0.00     0.070 A 
BRANCH  15  21
ATOM     21  C   UNL A   1      34.076  19.086  24.700  1.00  0.00     0.019 A 
ATOM     22  C   UNL A   1      32.751  15.044  25.346  1.00  0.00     0.044 C 
ATOM     23  C   UNL A   1      33.197  16.446  25.072  1.00  0.00    -0.051 A 
ATOM     24  C   UNL A   1      34.510  16.705  24.652  1.00  0.00     0.004 A 
ATOM     25  C   UNL A   1      32.314  17.508  25.269  1.00  0.00     0.004 A 
ATOM     26  C   UNL A   1      34.947  18.018  24.459  1.00  0.00     0.012 A 
ATOM     27  C   UNL A   1      32.752  18.811  25.083  1.00  0.00     0.012 A 
ENDBRANCH  15  21
ENDBRANCH   9  14
ENDBRANCH   6   8
ENDBRANCH   5   6
ENDBRANCH   4   5
ENDBRANCH   3   4
ENDBRANCH   2   3
ENDBRANCH   1   2
BRANCH   1  28
ATOM     28  C   UNL A   1      33.380  32.142  27.881  1.00  0.00     0.188 C 
BRANCH  28  29
ATOM     29  O   UNL A   1      34.789  32.326  27.979  1.00  0.00    -0.376 OA
BRANCH  29  30
ATOM     30  C   UNL A   1      35.347  32.703  29.235  1.00  0.00     0.202 C 
BRANCH  30  31
ATOM     31  C   UNL A   1      34.408  32.779  30.457  1.00  0.00     0.261 C 
BRANCH  31  32
ATOM     32  O   UNL A   1      34.121  34.136  30.806  1.00  0.00    -0.460 OA
BRANCH  32  33
ATOM     33  C   UNL A   1      33.784  34.391  32.101  1.00  0.00     0.338 C 
ATOM     34  O   UNL A   1      32.756  34.894  32.520  1.00  0.00    -0.246 OA
BRANCH  33  35
ATOM     35  C   UNL A   1      35.064  34.257  32.825  1.00  0.00     0.060 A 
ATOM     36  C   UNL A   1      36.191  34.902  32.361  1.00  0.00     0.016 A 
ATOM     37  C   UNL A   1      35.263  33.184  33.637  1.00  0.00     0.016 A 
ATOM     38  C   UNL A   1      37.462  34.271  32.448  1.00  0.00     0.010 A 
ATOM     39  C   UNL A   1      36.528  32.559  33.598  1.00  0.00     0.010 A 
ATOM     40  C   UNL A   1      37.653  32.937  32.832  1.00  0.00    -0.014 A 
BRANCH  40  41
ATOM     41  C   UNL A   1      38.961  32.078  32.222  1.00  0.00     0.031 A 
ATOM     42  C   UNL A   1      39.200  30.669  31.269  1.00  0.00     0.074 A 
ATOM     43  C   UNL A   1      40.156  32.623  32.586  1.00  0.00     0.049 A 
ATOM     44  N   UNL A   1      40.224  29.843  31.436  1.00  0.00    -0.248 NA
ATOM     45  C   UNL A   1      38.359  29.998  30.212  1.00  0.00     0.031 C 
ATOM     46  C   UNL A   1      41.498  32.247  32.158  1.00  0.00     0.029 A 
ATOM     47  N   UNL A   1      40.403  33.543  33.623  1.00  0.00    -0.354 N 
ATOM     48  C   UNL A   1      40.131  28.828  30.472  1.00  0.00     0.074 A 
ATOM     49  C   UNL A   1      38.798  28.759  30.092  1.00  0.00     0.031 C 
ATOM     50  C   UNL A   1      42.364  32.610  33.120  1.00  0.00     0.029 A 
ATOM     51  C   UNL A   1      41.588  33.121  34.235  1.00  0.00     0.049 A 
ATOM     52  H   UNL A   1      39.854  34.324  33.867  1.00  0.00     0.167 HD
ATOM     53  C   UNL A   1      41.178  28.247  29.831  1.00  0.00     0.037 A 
ATOM     54  C   UNL A   1      41.596  32.642  35.514  1.00  0.00     0.037 A 
ATOM     55  C   UNL A   1      42.333  28.405  30.661  1.00  0.00     0.049 A 
ATOM     56  C   UNL A   1      42.162  31.239  35.625  1.00  0.00     0.074 A 
ATOM     57  C   UNL A   1      43.427  29.238  30.636  1.00  0.00     0.029 A 
ATOM     58  N   UNL A   1      42.229  27.894  31.944  1.00  0.00    -0.354 N 
ATOM     59  N   UNL A   1      42.391  30.451  34.609  1.00  0.00    -0.248 NA
ATOM     60  C   UNL A   1      42.503  30.607  36.896  1.00  0.00     0.031 C 
ATOM     61  C   UNL A   1      43.878  29.355  31.984  1.00  0.00     0.029 A 
ATOM     62  C   UNL A   1      43.111  28.526  32.787  1.00  0.00     0.049 A 
ATOM     63  H   UNL A   1      41.610  27.177  32.214  1.00  0.00     0.167 HD
ATOM     64  C   UNL A   1      42.843  29.233  35.053  1.00  0.00     0.074 A 
ATOM     65  C   UNL A   1      42.933  29.399  36.490  1.00  0.00     0.031 C 
ATOM     66  C   UNL A   1      43.077  28.187  34.204  1.00  0.00     0.037 A 
BRANCH  53  67
ATOM     67  C   UNL A   1      41.138  27.656  28.409  1.00  0.00     0.064 A 
ATOM     68  C   UNL A   1      40.651  26.349  28.206  1.00  0.00     0.173 A 
ATOM     69  C   UNL A   1      41.681  28.246  27.229  1.00  0.00     0.173 A 
ATOM     70  F   UNL A   1      40.129  25.652  29.223  1.00  0.00    -0.203 F 
ATOM     71  C   UNL A   1      40.711  25.698  26.958  1.00  0.00     0.198 A 
ATOM     72  C   UNL A   1      41.675  27.622  25.973  1.00  0.00     0.198 A 
ATOM     73  F   UNL A   1      42.315  29.424  27.226  1.00  0.00    -0.203 F 
ATOM     74  F   UNL A   1      40.298  24.428  26.850  1.00  0.00    -0.200 F 
ATOM     75  C   UNL A   1      41.210  26.337  25.841  1.00  0.00     0.200 A 
ATOM     76  F   UNL A   1      42.170  28.272  24.907  1.00  0.00    -0.200 F 
ATOM     77  F   UNL A   1      41.275  25.714  24.656  1.00  0.00    -0.200 F 
ENDBRANCH  53  67
BRANCH  54  78
ATOM     78  C   UNL A   1      40.623  33.287  36.458  1.00  0.00     0.064 A 
ATOM     79  C   UNL A   1      39.359  32.678  36.645  1.00  0.00     0.173 A 
ATOM     80  C   UNL A   1      40.965  34.298  37.368  1.00  0.00     0.173 A 
ATOM     81  F   UNL A   1      38.963  31.695  35.821  1.00  0.00    -0.203 F 
ATOM     82  C   UNL A   1      38.533  32.988  37.728  1.00  0.00     0.198 A 
ATOM     83  C   UNL A   1      40.127  34.610  38.454  1.00  0.00     0.198 A 
ATOM     84  F   UNL A   1      42.163  34.892  37.298  1.00  0.00    -0.203 F 
ATOM     85  F   UNL A   1      37.412  32.284  37.940  1.00  0.00    -0.200 F 
ATOM     86  C   UNL A   1      38.925  33.946  38.642  1.00  0.00     0.200 A 
ATOM     87  F   UNL A   1      40.531  35.473  39.392  1.00  0.00    -0.200 F 
ATOM     88  F   UNL A   1      38.205  34.155  39.754  1.00  0.00    -0.200 F 
ENDBRANCH  54  78
BRANCH  66  89
ATOM     89  C   UNL A   1      43.283  26.729  34.590  1.00  0.00     0.064 A 
ATOM     90  C   UNL A   1      42.262  25.863  35.016  1.00  0.00     0.173 A 
ATOM     91  C   UNL A   1      44.541  26.102  34.367  1.00  0.00     0.173 A 
ATOM     92  F   UNL A   1      40.997  26.278  35.141  1.00  0.00    -0.203 F 
ATOM     93  C   UNL A   1      42.493  24.505  35.263  1.00  0.00     0.198 A 
ATOM     94  C   UNL A   1      44.742  24.732  34.525  1.00  0.00     0.198 A 
ATOM     95  F   UNL A   1      45.610  26.794  33.949  1.00  0.00    -0.203 F 
ATOM     96  F   UNL A   1      41.496  23.740  35.728  1.00  0.00    -0.200 F 
ATOM     97  C   UNL A   1      43.724  23.935  34.998  1.00  0.00     0.200 A 
ATOM     98  F   UNL A   1      45.922  24.188  34.192  1.00  0.00    -0.200 F 
ATOM     99  F   UNL A   1      43.920  22.622  35.177  1.00  0.00    -0.200 F 
ENDBRANCH  66  89
ENDBRANCH  40  41
ENDBRANCH  33  35
ENDBRANCH  32  33
ENDBRANCH  31  32
ENDBRANCH  30  31
ENDBRANCH  29  30
ENDBRANCH  28  29
ENDBRANCH   1  28
TORSDOF 19
ENDMDL
