MODEL 1
REMARK VINA RESULT:     -10.8      0.000      0.000
REMARK SMILES CC(C)[C@H](NC(=O)Cn1ccc2c(Br)cccc21)C(=O)OCCOCCOCCOC(=O)c1ccc(-c2c3nc(c(-c4c(F)c(F)c(F)c(F)c4F)c4ccc([nH]4)c(-c4c(F)c(F)c(F)c(F)c4F)c4nc(c(-c5c(F)c(F)c(F)c(F)c5F)c5ccc2[nH]5)C=C4)C=C3)cc1
REMARK SMILES IDX 25 1 24 2 23 3 22 4 21 5 19 6 20 7 4 8 2 9 1 10 3 11 5 12
REMARK SMILES IDX 6 13 7 15 8 16 9 17 10 18 18 19 11 20 12 21 17 22 13 23
REMARK SMILES IDX 16 24 14 25 15 26 26 27 27 28 28 29 29 30 30 31 31 32 32 33
REMARK SMILES IDX 33 34 34 35 95 36 35 37 94 38 36 39 37 40 38 41 88 42 39 43
REMARK SMILES IDX 93 44 87 45 89 46 40 47 92 48 86 49 85 50 41 52 73 53 53 54
REMARK SMILES IDX 72 55 54 56 57 57 71 58 90 59 55 60 56 61 70 63 91 64 58 65
REMARK SMILES IDX 42 66 43 67 51 68 44 69 45 70 49 71 52 72 46 73 47 74 50 75
REMARK SMILES IDX 48 76 74 77 75 78 83 79 76 80 77 81 81 82 84 83 78 84 79 85
REMARK SMILES IDX 82 86 80 87 59 88 60 89 68 90 61 91 62 92 66 93 69 94 63 95
REMARK SMILES IDX 64 96 67 97 65 98
REMARK H PARENT 5 14 89 51 57 62
REMARK Flexibility Score: inf
ROOT
ATOM      1  C   UNL A   1      37.877  21.905  25.255  1.00  0.00     0.188 C 
ENDROOT
BRANCH   1   2
ATOM      2  O   UNL A   1      36.594  21.611  25.749  1.00  0.00    -0.376 OA
BRANCH   2   3
ATOM      3  C   UNL A   1      35.634  22.634  25.942  1.00  0.00     0.202 C 
BRANCH   3   4
ATOM      4  C   UNL A   1      35.316  23.772  24.949  1.00  0.00     0.261 C 
BRANCH   4   5
ATOM      5  O   UNL A   1      34.942  25.049  25.479  1.00  0.00    -0.462 OA
BRANCH   5   6
ATOM      6  C   UNL A   1      33.609  25.310  25.529  1.00  0.00     0.328 C 
ATOM      7  O   UNL A   1      32.890  25.028  26.481  1.00  0.00    -0.250 OA
BRANCH   6   8
ATOM      8  C   UNL A   1      33.060  25.895  24.205  1.00  0.00     0.194 C 
BRANCH   8   9
ATOM      9  C   UNL A   1      33.001  27.423  24.371  1.00  0.00     0.017 C 
ATOM     10  C   UNL A   1      33.899  28.185  23.394  1.00  0.00     0.010 C 
ATOM     11  C   UNL A   1      31.561  27.926  24.345  1.00  0.00     0.010 C 
ENDBRANCH   8   9
BRANCH   8  12
ATOM     12  N   UNL A   1      31.768  25.361  23.735  1.00  0.00    -0.341 N 
ATOM     13  C   UNL A   1      31.470  24.127  23.205  1.00  0.00     0.240 C 
ATOM     14  H   UNL A   1      31.005  25.979  23.811  1.00  0.00     0.164 HD
ATOM     15  O   UNL A   1      30.284  23.803  23.112  1.00  0.00    -0.273 OA
BRANCH  13  16
ATOM     16  C   UNL A   1      32.561  23.171  22.728  1.00  0.00     0.222 C 
BRANCH  16  17
ATOM     17  N   UNL A   1      32.180  21.760  22.783  1.00  0.00    -0.338 N 
ATOM     18  C   UNL A   1      31.789  20.995  21.712  1.00  0.00     0.087 A 
ATOM     19  C   UNL A   1      32.376  20.933  23.878  1.00  0.00     0.050 A 
ATOM     20  C   UNL A   1      32.146  19.696  21.994  1.00  0.00     0.029 A 
ATOM     21  C   UNL A   1      32.528  19.638  23.363  1.00  0.00     0.014 A 
ATOM     22  C   UNL A   1      32.484  21.201  25.252  1.00  0.00     0.027 A 
ATOM     23  C   UNL A   1      32.966  18.616  24.227  1.00  0.00     0.027 A 
ATOM     24  C   UNL A   1      32.793  20.133  26.105  1.00  0.00     0.003 A 
ATOM     25  Br  UNL A   1      33.417  16.905  23.554  1.00  0.00    -0.050 Br
ATOM     26  C   UNL A   1      33.076  18.866  25.598  1.00  0.00     0.016 A 
ENDBRANCH  16  17
ENDBRANCH  13  16
ENDBRANCH   8  12
ENDBRANCH   6   8
ENDBRANCH   5   6
ENDBRANCH   4   5
ENDBRANCH   3   4
ENDBRANCH   2   3
ENDBRANCH   1   2
BRANCH   1  27
ATOM     27  C   UNL A   1      38.903  22.559  26.192  1.00  0.00     0.188 C 
BRANCH  27  28
ATOM     28  O   UNL A   1      40.052  21.856  26.616  1.00  0.00    -0.376 OA
BRANCH  28  29
ATOM     29  C   UNL A   1      40.432  20.562  26.161  1.00  0.00     0.202 C 
BRANCH  29  30
ATOM     30  C   UNL A   1      41.742  19.832  26.475  1.00  0.00     0.261 C 
BRANCH  30  31
ATOM     31  O   UNL A   1      42.867  20.663  26.606  1.00  0.00    -0.460 OA
BRANCH  31  32
ATOM     32  C   UNL A   1      43.603  20.712  25.489  1.00  0.00     0.338 C 
ATOM     33  O   UNL A   1      43.800  19.817  24.669  1.00  0.00    -0.246 OA
BRANCH  32  34
ATOM     34  C   UNL A   1      44.117  22.066  25.355  1.00  0.00     0.060 A 
ATOM     35  C   UNL A   1      45.145  22.433  26.227  1.00  0.00     0.016 A 
ATOM     36  C   UNL A   1      43.298  22.981  24.693  1.00  0.00     0.016 A 
ATOM     37  C   UNL A   1      45.115  23.706  26.720  1.00  0.00     0.010 A 
ATOM     38  C   UNL A   1      43.225  24.227  25.234  1.00  0.00     0.010 A 
ATOM     39  C   UNL A   1      44.056  24.519  26.315  1.00  0.00    -0.014 A 
BRANCH  39  40
ATOM     40  C   UNL A   1      43.784  25.701  27.085  1.00  0.00     0.031 A 
ATOM     41  C   UNL A   1      44.761  26.762  26.822  1.00  0.00     0.074 A 
ATOM     42  C   UNL A   1      42.679  25.792  27.847  1.00  0.00     0.049 A 
ATOM     43  N   UNL A   1      45.747  27.115  27.575  1.00  0.00    -0.248 NA
ATOM     44  C   UNL A   1      44.793  27.342  25.469  1.00  0.00     0.031 C 
ATOM     45  C   UNL A   1      41.531  24.879  27.879  1.00  0.00     0.029 A 
ATOM     46  N   UNL A   1      42.306  26.792  28.689  1.00  0.00    -0.354 N 
ATOM     47  C   UNL A   1      46.364  28.141  26.874  1.00  0.00     0.074 A 
ATOM     48  C   UNL A   1      45.931  28.033  25.510  1.00  0.00     0.031 C 
ATOM     49  C   UNL A   1      40.502  25.482  28.521  1.00  0.00     0.029 A 
ATOM     50  C   UNL A   1      40.966  26.749  29.057  1.00  0.00     0.049 A 
ATOM     51  H   UNL A   1      42.928  27.483  29.010  1.00  0.00     0.167 HD
ATOM     52  C   UNL A   1      46.848  29.223  27.536  1.00  0.00     0.037 A 
ATOM     53  C   UNL A   1      40.305  27.755  29.679  1.00  0.00     0.037 A 
ATOM     54  C   UNL A   1      46.924  28.981  28.950  1.00  0.00     0.049 A 
ATOM     55  C   UNL A   1      41.329  28.609  30.335  1.00  0.00     0.074 A 
ATOM     56  C   UNL A   1      47.763  28.298  29.802  1.00  0.00     0.029 A 
ATOM     57  N   UNL A   1      45.736  29.170  29.607  1.00  0.00    -0.354 N 
ATOM     58  N   UNL A   1      42.073  28.209  31.331  1.00  0.00    -0.248 NA
ATOM     59  C   UNL A   1      41.791  29.819  29.660  1.00  0.00     0.031 C 
ATOM     60  C   UNL A   1      46.989  27.981  30.959  1.00  0.00     0.029 A 
ATOM     61  C   UNL A   1      45.706  28.498  30.800  1.00  0.00     0.049 A 
ATOM     62  H   UNL A   1      44.996  29.721  29.265  1.00  0.00     0.167 HD
ATOM     63  C   UNL A   1      43.277  28.858  31.143  1.00  0.00     0.074 A 
ATOM     64  C   UNL A   1      42.994  29.953  30.226  1.00  0.00     0.031 C 
ATOM     65  C   UNL A   1      44.452  28.252  31.475  1.00  0.00     0.037 A 
BRANCH  52  66
ATOM     66  C   UNL A   1      46.779  30.624  26.983  1.00  0.00     0.064 A 
ATOM     67  C   UNL A   1      47.938  31.416  26.977  1.00  0.00     0.173 A 
ATOM     68  C   UNL A   1      45.571  31.302  26.706  1.00  0.00     0.173 A 
ATOM     69  F   UNL A   1      49.127  30.884  27.294  1.00  0.00    -0.203 F 
ATOM     70  C   UNL A   1      47.886  32.788  26.714  1.00  0.00     0.198 A 
ATOM     71  C   UNL A   1      45.530  32.653  26.375  1.00  0.00     0.198 A 
ATOM     72  F   UNL A   1      44.374  30.722  26.858  1.00  0.00    -0.203 F 
ATOM     73  F   UNL A   1      48.998  33.527  26.814  1.00  0.00    -0.200 F 
ATOM     74  C   UNL A   1      46.685  33.402  26.399  1.00  0.00     0.200 A 
ATOM     75  F   UNL A   1      44.351  33.231  26.107  1.00  0.00    -0.200 F 
ATOM     76  F   UNL A   1      46.630  34.721  26.172  1.00  0.00    -0.200 F 
ENDBRANCH  52  66
BRANCH  53  77
ATOM     77  C   UNL A   1      38.920  28.235  29.456  1.00  0.00     0.064 A 
ATOM     78  C   UNL A   1      38.073  28.474  30.553  1.00  0.00     0.173 A 
ATOM     79  C   UNL A   1      38.511  28.773  28.221  1.00  0.00     0.173 A 
ATOM     80  F   UNL A   1      38.401  28.014  31.770  1.00  0.00    -0.203 F 
ATOM     81  C   UNL A   1      36.930  29.270  30.438  1.00  0.00     0.198 A 
ATOM     82  C   UNL A   1      37.365  29.560  28.107  1.00  0.00     0.198 A 
ATOM     83  F   UNL A   1      39.271  28.641  27.125  1.00  0.00    -0.203 F 
ATOM     84  F   UNL A   1      36.203  29.555  31.527  1.00  0.00    -0.200 F 
ATOM     85  C   UNL A   1      36.588  29.830  29.219  1.00  0.00     0.200 A 
ATOM     86  F   UNL A   1      37.059  30.122  26.927  1.00  0.00    -0.200 F 
ATOM     87  F   UNL A   1      35.543  30.662  29.125  1.00  0.00    -0.200 F 
ENDBRANCH  53  77
BRANCH  65  88
ATOM     88  C   UNL A   1      44.395  27.151  32.487  1.00  0.00     0.064 A 
ATOM     89  C   UNL A   1      44.289  25.787  32.171  1.00  0.00     0.173 A 
ATOM     90  C   UNL A   1      44.532  27.497  33.838  1.00  0.00     0.173 A 
ATOM     91  F   UNL A   1      44.228  25.379  30.896  1.00  0.00    -0.203 F 
ATOM     92  C   UNL A   1      44.288  24.817  33.173  1.00  0.00     0.198 A 
ATOM     93  C   UNL A   1      44.568  26.525  34.831  1.00  0.00     0.198 A 
ATOM     94  F   UNL A   1      44.673  28.785  34.189  1.00  0.00    -0.203 F 
ATOM     95  F   UNL A   1      44.169  23.520  32.852  1.00  0.00    -0.200 F 
ATOM     96  C   UNL A   1      44.437  25.187  34.500  1.00  0.00     0.200 A 
ATOM     97  F   UNL A   1      44.755  26.888  36.108  1.00  0.00    -0.200 F 
ATOM     98  F   UNL A   1      44.475  24.252  35.460  1.00  0.00    -0.200 F 
ENDBRANCH  65  88
ENDBRANCH  39  40
ENDBRANCH  32  34
ENDBRANCH  31  32
ENDBRANCH  30  31
ENDBRANCH  29  30
ENDBRANCH  28  29
ENDBRANCH  27  28
ENDBRANCH   1  27
TORSDOF 21
ENDMDL
MODEL 2
REMARK VINA RESULT:     -10.7      1.683      3.302
REMARK SMILES CC(C)[C@H](NC(=O)Cn1ccc2c(Br)cccc21)C(=O)OCCOCCOCCOC(=O)c1ccc(-c2c3nc(c(-c4c(F)c(F)c(F)c(F)c4F)c4ccc([nH]4)c(-c4c(F)c(F)c(F)c(F)c4F)c4nc(c(-c5c(F)c(F)c(F)c(F)c5F)c5ccc2[nH]5)C=C4)C=C3)cc1
REMARK SMILES IDX 25 1 24 2 23 3 22 4 21 5 19 6 20 7 4 8 2 9 1 10 3 11 5 12
REMARK SMILES IDX 6 13 7 15 8 16 9 17 10 18 18 19 11 20 12 21 17 22 13 23
REMARK SMILES IDX 16 24 14 25 15 26 26 27 27 28 28 29 29 30 30 31 31 32 32 33
REMARK SMILES IDX 33 34 34 35 95 36 35 37 94 38 36 39 37 40 38 41 88 42 39 43
REMARK SMILES IDX 93 44 87 45 89 46 40 47 92 48 86 49 85 50 41 52 73 53 53 54
REMARK SMILES IDX 72 55 54 56 57 57 71 58 90 59 55 60 56 61 70 63 91 64 58 65
REMARK SMILES IDX 42 66 43 67 51 68 44 69 45 70 49 71 52 72 46 73 47 74 50 75
REMARK SMILES IDX 48 76 74 77 75 78 83 79 76 80 77 81 81 82 84 83 78 84 79 85
REMARK SMILES IDX 82 86 80 87 59 88 60 89 68 90 61 91 62 92 66 93 69 94 63 95
REMARK SMILES IDX 64 96 67 97 65 98
REMARK H PARENT 5 14 89 51 57 62
REMARK Flexibility Score: inf
ROOT
ATOM      1  C   UNL A   1      38.296  23.344  25.499  1.00  0.00     0.188 C 
ENDROOT
BRANCH   1   2
ATOM      2  O   UNL A   1      36.923  23.613  25.355  1.00  0.00    -0.376 OA
BRANCH   2   3
ATOM      3  C   UNL A   1      36.256  23.366  24.131  1.00  0.00     0.202 C 
BRANCH   3   4
ATOM      4  C   UNL A   1      34.752  23.587  23.863  1.00  0.00     0.261 C 
BRANCH   4   5
ATOM      5  O   UNL A   1      34.007  22.523  23.260  1.00  0.00    -0.462 OA
BRANCH   5   6
ATOM      6  C   UNL A   1      32.876  22.140  23.911  1.00  0.00     0.328 C 
ATOM      7  O   UNL A   1      31.754  22.186  23.420  1.00  0.00    -0.250 OA
BRANCH   6   8
ATOM      8  C   UNL A   1      33.134  21.750  25.386  1.00  0.00     0.194 C 
BRANCH   8   9
ATOM      9  C   UNL A   1      33.526  20.263  25.403  1.00  0.00     0.017 C 
ATOM     10  C   UNL A   1      32.543  19.356  24.660  1.00  0.00     0.010 C 
ATOM     11  C   UNL A   1      34.964  20.065  24.933  1.00  0.00     0.010 C 
ENDBRANCH   8   9
BRANCH   8  12
ATOM     12  N   UNL A   1      32.041  22.022  26.339  1.00  0.00    -0.341 N 
ATOM     13  C   UNL A   1      31.524  23.226  26.759  1.00  0.00     0.240 C 
ATOM     14  H   UNL A   1      31.619  21.224  26.734  1.00  0.00     0.164 HD
ATOM     15  O   UNL A   1      30.451  23.219  27.367  1.00  0.00    -0.273 OA
BRANCH  13  16
ATOM     16  C   UNL A   1      32.246  24.546  26.502  1.00  0.00     0.222 C 
BRANCH  16  17
ATOM     17  N   UNL A   1      31.702  25.312  25.380  1.00  0.00    -0.338 N 
ATOM     18  C   UNL A   1      30.459  25.139  24.824  1.00  0.00     0.087 A 
ATOM     19  C   UNL A   1      32.268  26.468  24.867  1.00  0.00     0.050 A 
ATOM     20  C   UNL A   1      30.073  26.359  24.316  1.00  0.00     0.029 A 
ATOM     21  C   UNL A   1      31.207  27.218  24.342  1.00  0.00     0.014 A 
ATOM     22  C   UNL A   1      33.588  26.945  24.859  1.00  0.00     0.027 A 
ATOM     23  C   UNL A   1      31.450  28.550  23.953  1.00  0.00     0.027 A 
ATOM     24  C   UNL A   1      33.817  28.227  24.342  1.00  0.00     0.003 A 
ATOM     25  Br  UNL A   1      30.023  29.691  23.458  1.00  0.00    -0.050 Br
ATOM     26  C   UNL A   1      32.760  29.039  23.936  1.00  0.00     0.016 A 
ENDBRANCH  16  17
ENDBRANCH  13  16
ENDBRANCH   8  12
ENDBRANCH   6   8
ENDBRANCH   5   6
ENDBRANCH   4   5
ENDBRANCH   3   4
ENDBRANCH   2   3
ENDBRANCH   1   2
BRANCH   1  27
ATOM     27  C   UNL A   1      38.855  23.053  26.900  1.00  0.00     0.188 C 
BRANCH  27  28
ATOM     28  O   UNL A   1      39.889  22.111  27.089  1.00  0.00    -0.376 OA
BRANCH  28  29
ATOM     29  C   UNL A   1      40.330  21.174  26.112  1.00  0.00     0.202 C 
BRANCH  29  30
ATOM     30  C   UNL A   1      41.553  20.257  26.213  1.00  0.00     0.261 C 
BRANCH  30  31
ATOM     31  O   UNL A   1      42.755  20.907  26.539  1.00  0.00    -0.460 OA
BRANCH  31  32
ATOM     32  C   UNL A   1      43.625  20.919  25.523  1.00  0.00     0.338 C 
ATOM     33  O   UNL A   1      43.895  20.007  24.742  1.00  0.00    -0.246 OA
BRANCH  32  34
ATOM     34  C   UNL A   1      44.194  22.255  25.441  1.00  0.00     0.060 A 
ATOM     35  C   UNL A   1      45.154  22.585  26.401  1.00  0.00     0.016 A 
ATOM     36  C   UNL A   1      43.467  23.199  24.716  1.00  0.00     0.016 A 
ATOM     37  C   UNL A   1      45.123  23.857  26.897  1.00  0.00     0.010 A 
ATOM     38  C   UNL A   1      43.389  24.445  25.255  1.00  0.00     0.010 A 
ATOM     39  C   UNL A   1      44.131  24.706  26.406  1.00  0.00    -0.014 A 
BRANCH  39  40
ATOM     40  C   UNL A   1      43.833  25.895  27.156  1.00  0.00     0.031 A 
ATOM     41  C   UNL A   1      44.781  26.975  26.869  1.00  0.00     0.074 A 
ATOM     42  C   UNL A   1      42.730  25.972  27.922  1.00  0.00     0.049 A 
ATOM     43  N   UNL A   1      45.761  27.368  27.610  1.00  0.00    -0.248 NA
ATOM     44  C   UNL A   1      44.792  27.531  25.505  1.00  0.00     0.031 C 
ATOM     45  C   UNL A   1      41.605  25.030  27.976  1.00  0.00     0.029 A 
ATOM     46  N   UNL A   1      42.335  26.977  28.747  1.00  0.00    -0.354 N 
ATOM     47  C   UNL A   1      46.349  28.396  26.887  1.00  0.00     0.074 A 
ATOM     48  C   UNL A   1      45.912  28.252  25.527  1.00  0.00     0.031 C 
ATOM     49  C   UNL A   1      40.564  25.618  28.612  1.00  0.00     0.029 A 
ATOM     50  C   UNL A   1      40.999  26.907  29.123  1.00  0.00     0.049 A 
ATOM     51  H   UNL A   1      42.941  27.690  29.052  1.00  0.00     0.167 HD
ATOM     52  C   UNL A   1      46.808  29.502  27.527  1.00  0.00     0.037 A 
ATOM     53  C   UNL A   1      40.315  27.907  29.729  1.00  0.00     0.037 A 
ATOM     54  C   UNL A   1      46.896  29.288  28.945  1.00  0.00     0.049 A 
ATOM     55  C   UNL A   1      41.319  28.798  30.365  1.00  0.00     0.074 A 
ATOM     56  C   UNL A   1      47.756  28.642  29.805  1.00  0.00     0.029 A 
ATOM     57  N   UNL A   1      45.707  29.458  29.605  1.00  0.00    -0.354 N 
ATOM     58  N   UNL A   1      42.078  28.436  31.364  1.00  0.00    -0.248 NA
ATOM     59  C   UNL A   1      41.747  30.007  29.666  1.00  0.00     0.031 C 
ATOM     60  C   UNL A   1      46.997  28.326  30.972  1.00  0.00     0.029 A 
ATOM     61  C   UNL A   1      45.700  28.807  30.809  1.00  0.00     0.049 A 
ATOM     62  H   UNL A   1      44.952  29.983  29.256  1.00  0.00     0.167 HD
ATOM     63  C   UNL A   1      43.264  29.111  31.159  1.00  0.00     0.074 A 
ATOM     64  C   UNL A   1      42.949  30.182  30.223  1.00  0.00     0.031 C 
ATOM     65  C   UNL A   1      44.455  28.541  31.495  1.00  0.00     0.037 A 
BRANCH  52  66
ATOM     66  C   UNL A   1      46.700  30.890  26.949  1.00  0.00     0.064 A 
ATOM     67  C   UNL A   1      47.842  31.705  26.907  1.00  0.00     0.173 A 
ATOM     68  C   UNL A   1      45.474  31.539  26.681  1.00  0.00     0.173 A 
ATOM     69  F   UNL A   1      49.048  31.203  27.213  1.00  0.00    -0.203 F 
ATOM     70  C   UNL A   1      47.758  33.070  26.619  1.00  0.00     0.198 A 
ATOM     71  C   UNL A   1      45.400  32.881  26.325  1.00  0.00     0.198 A 
ATOM     72  F   UNL A   1      44.292  30.937  26.865  1.00  0.00    -0.203 F 
ATOM     73  F   UNL A   1      48.856  33.833  26.686  1.00  0.00    -0.200 F 
ATOM     74  C   UNL A   1      46.540  33.654  26.315  1.00  0.00     0.200 A 
ATOM     75  F   UNL A   1      44.204  33.430  26.068  1.00  0.00    -0.200 F 
ATOM     76  F   UNL A   1      46.453  34.967  26.064  1.00  0.00    -0.200 F 
ENDBRANCH  52  66
BRANCH  53  77
ATOM     77  C   UNL A   1      38.916  28.347  29.505  1.00  0.00     0.064 A 
ATOM     78  C   UNL A   1      38.072  28.593  30.602  1.00  0.00     0.173 A 
ATOM     79  C   UNL A   1      38.487  28.844  28.260  1.00  0.00     0.173 A 
ATOM     80  F   UNL A   1      38.419  28.171  31.828  1.00  0.00    -0.203 F 
ATOM     81  C   UNL A   1      36.909  29.357  30.476  1.00  0.00     0.198 A 
ATOM     82  C   UNL A   1      37.320  29.600  28.135  1.00  0.00     0.198 A 
ATOM     83  F   UNL A   1      39.242  28.703  27.162  1.00  0.00    -0.203 F 
ATOM     84  F   UNL A   1      36.183  29.651  31.563  1.00  0.00    -0.200 F 
ATOM     85  C   UNL A   1      36.545  29.878  29.246  1.00  0.00     0.200 A 
ATOM     86  F   UNL A   1      36.992  30.124  26.945  1.00  0.00    -0.200 F 
ATOM     87  F   UNL A   1      35.479  30.682  29.140  1.00  0.00    -0.200 F 
ENDBRANCH  53  77
BRANCH  65  88
ATOM     88  C   UNL A   1      44.432  27.458  32.527  1.00  0.00     0.064 A 
ATOM     89  C   UNL A   1      44.355  26.086  32.237  1.00  0.00     0.173 A 
ATOM     90  C   UNL A   1      44.571  27.832  33.870  1.00  0.00     0.173 A 
ATOM     91  F   UNL A   1      44.293  25.654  30.970  1.00  0.00    -0.203 F 
ATOM     92  C   UNL A   1      44.383  25.135  33.256  1.00  0.00     0.198 A 
ATOM     93  C   UNL A   1      44.637  26.879  34.881  1.00  0.00     0.198 A 
ATOM     94  F   UNL A   1      44.685  29.128  34.197  1.00  0.00    -0.203 F 
ATOM     95  F   UNL A   1      44.291  23.830  32.960  1.00  0.00    -0.200 F 
ATOM     96  C   UNL A   1      44.534  25.533  34.575  1.00  0.00     0.200 A 
ATOM     97  F   UNL A   1      44.824  27.269  36.149  1.00  0.00    -0.200 F 
ATOM     98  F   UNL A   1      44.601  24.617  35.551  1.00  0.00    -0.200 F 
ENDBRANCH  65  88
ENDBRANCH  39  40
ENDBRANCH  32  34
ENDBRANCH  31  32
ENDBRANCH  30  31
ENDBRANCH  29  30
ENDBRANCH  28  29
ENDBRANCH  27  28
ENDBRANCH   1  27
TORSDOF 21
ENDMDL
MODEL 3
REMARK VINA RESULT:     -10.6      3.516      8.417
REMARK SMILES CC(C)[C@H](NC(=O)Cn1ccc2c(Br)cccc21)C(=O)OCCOCCOCCOC(=O)c1ccc(-c2c3nc(c(-c4c(F)c(F)c(F)c(F)c4F)c4ccc([nH]4)c(-c4c(F)c(F)c(F)c(F)c4F)c4nc(c(-c5c(F)c(F)c(F)c(F)c5F)c5ccc2[nH]5)C=C4)C=C3)cc1
REMARK SMILES IDX 25 1 24 2 23 3 22 4 21 5 19 6 20 7 4 8 2 9 1 10 3 11 5 12
REMARK SMILES IDX 6 13 7 15 8 16 9 17 10 18 18 19 11 20 12 21 17 22 13 23
REMARK SMILES IDX 16 24 14 25 15 26 26 27 27 28 28 29 29 30 30 31 31 32 32 33
REMARK SMILES IDX 33 34 34 35 95 36 35 37 94 38 36 39 37 40 38 41 88 42 39 43
REMARK SMILES IDX 93 44 87 45 89 46 40 47 92 48 86 49 85 50 41 52 73 53 53 54
REMARK SMILES IDX 72 55 54 56 57 57 71 58 90 59 55 60 56 61 70 63 91 64 58 65
REMARK SMILES IDX 42 66 43 67 51 68 44 69 45 70 49 71 52 72 46 73 47 74 50 75
REMARK SMILES IDX 48 76 74 77 75 78 83 79 76 80 77 81 81 82 84 83 78 84 79 85
REMARK SMILES IDX 82 86 80 87 59 88 60 89 68 90 61 91 62 92 66 93 69 94 63 95
REMARK SMILES IDX 64 96 67 97 65 98
REMARK H PARENT 5 14 89 51 57 62
REMARK Flexibility Score: inf
ROOT
ATOM      1  C   UNL A   1      33.143  30.409  27.132  1.00  0.00     0.188 C 
ENDROOT
BRANCH   1   2
ATOM      2  O   UNL A   1      33.100  30.126  25.756  1.00  0.00    -0.376 OA
BRANCH   2   3
ATOM      3  C   UNL A   1      33.394  28.829  25.269  1.00  0.00     0.202 C 
BRANCH   3   4
ATOM      4  C   UNL A   1      33.296  28.374  23.797  1.00  0.00     0.261 C 
BRANCH   4   5
ATOM      5  O   UNL A   1      32.155  28.787  23.035  1.00  0.00    -0.462 OA
BRANCH   5   6
ATOM      6  C   UNL A   1      31.279  27.806  22.689  1.00  0.00     0.328 C 
ATOM      7  O   UNL A   1      30.280  27.989  22.003  1.00  0.00    -0.250 OA
BRANCH   6   8
ATOM      8  C   UNL A   1      31.606  26.447  23.352  1.00  0.00     0.194 C 
BRANCH   8   9
ATOM      9  C   UNL A   1      31.771  25.415  22.222  1.00  0.00     0.017 C 
ATOM     10  C   UNL A   1      32.529  25.950  21.004  1.00  0.00     0.010 C 
ATOM     11  C   UNL A   1      32.365  24.111  22.746  1.00  0.00     0.010 C 
ENDBRANCH   8   9
BRANCH   8  12
ATOM     12  N   UNL A   1      30.657  25.967  24.374  1.00  0.00    -0.341 N 
ATOM     13  C   UNL A   1      30.852  25.754  25.719  1.00  0.00     0.240 C 
ATOM     14  H   UNL A   1      29.750  25.769  24.047  1.00  0.00     0.164 HD
ATOM     15  O   UNL A   1      29.860  25.591  26.434  1.00  0.00    -0.273 OA
BRANCH  13  16
ATOM     16  C   UNL A   1      32.250  25.704  26.333  1.00  0.00     0.222 C 
BRANCH  16  17
ATOM     17  N   UNL A   1      32.764  24.349  26.530  1.00  0.00    -0.338 N 
ATOM     18  C   UNL A   1      32.103  23.329  27.168  1.00  0.00     0.087 A 
ATOM     19  C   UNL A   1      33.889  23.835  25.907  1.00  0.00     0.050 A 
ATOM     20  C   UNL A   1      32.546  22.152  26.609  1.00  0.00     0.029 A 
ATOM     21  C   UNL A   1      33.676  22.454  25.800  1.00  0.00     0.014 A 
ATOM     22  C   UNL A   1      35.040  24.449  25.386  1.00  0.00     0.027 A 
ATOM     23  C   UNL A   1      34.555  21.695  25.004  1.00  0.00     0.027 A 
ATOM     24  C   UNL A   1      35.964  23.640  24.711  1.00  0.00     0.003 A 
ATOM     25  Br  UNL A   1      34.194  19.875  24.625  1.00  0.00    -0.050 Br
ATOM     26  C   UNL A   1      35.706  22.291  24.481  1.00  0.00     0.016 A 
ENDBRANCH  16  17
ENDBRANCH  13  16
ENDBRANCH   8  12
ENDBRANCH   6   8
ENDBRANCH   5   6
ENDBRANCH   4   5
ENDBRANCH   3   4
ENDBRANCH   2   3
ENDBRANCH   1   2
BRANCH   1  27
ATOM     27  C   UNL A   1      34.121  31.479  27.642  1.00  0.00     0.188 C 
BRANCH  27  28
ATOM     28  O   UNL A   1      33.651  32.699  28.176  1.00  0.00    -0.376 OA
BRANCH  28  29
ATOM     29  C   UNL A   1      34.413  33.581  28.992  1.00  0.00     0.202 C 
BRANCH  29  30
ATOM     30  C   UNL A   1      34.632  33.466  30.504  1.00  0.00     0.261 C 
BRANCH  30  31
ATOM     31  O   UNL A   1      35.949  33.168  30.890  1.00  0.00    -0.460 OA
BRANCH  31  32
ATOM     32  C   UNL A   1      36.085  31.910  31.326  1.00  0.00     0.338 C 
ATOM     33  O   UNL A   1      35.671  31.419  32.375  1.00  0.00    -0.246 OA
BRANCH  32  34
ATOM     34  C   UNL A   1      36.783  31.156  30.296  1.00  0.00     0.060 A 
ATOM     35  C   UNL A   1      36.581  29.774  30.287  1.00  0.00     0.016 A 
ATOM     36  C   UNL A   1      37.878  31.784  29.700  1.00  0.00     0.016 A 
ATOM     37  C   UNL A   1      37.663  28.991  30.000  1.00  0.00     0.010 A 
ATOM     38  C   UNL A   1      38.973  31.007  29.479  1.00  0.00     0.010 A 
ATOM     39  C   UNL A   1      38.870  29.644  29.750  1.00  0.00    -0.014 A 
BRANCH  39  40
ATOM     40  C   UNL A   1      40.079  28.869  29.818  1.00  0.00     0.031 A 
ATOM     41  C   UNL A   1      40.560  28.726  31.196  1.00  0.00     0.074 A 
ATOM     42  C   UNL A   1      40.587  28.279  28.721  1.00  0.00     0.049 A 
ATOM     43  N   UNL A   1      41.538  29.360  31.749  1.00  0.00    -0.248 NA
ATOM     44  C   UNL A   1      39.718  27.968  32.139  1.00  0.00     0.031 C 
ATOM     45  C   UNL A   1      39.959  28.141  27.402  1.00  0.00     0.029 A 
ATOM     46  N   UNL A   1      41.746  27.583  28.589  1.00  0.00    -0.354 N 
ATOM     47  C   UNL A   1      41.571  28.875  33.048  1.00  0.00     0.074 A 
ATOM     48  C   UNL A   1      40.293  28.272  33.301  1.00  0.00     0.031 C 
ATOM     49  C   UNL A   1      40.639  27.219  26.681  1.00  0.00     0.029 A 
ATOM     50  C   UNL A   1      41.815  26.815  27.432  1.00  0.00     0.049 A 
ATOM     51  H   UNL A   1      42.472  27.618  29.252  1.00  0.00     0.167 HD
ATOM     52  C   UNL A   1      42.761  28.647  33.660  1.00  0.00     0.037 A 
ATOM     53  C   UNL A   1      42.744  25.858  27.196  1.00  0.00     0.037 A 
ATOM     54  C   UNL A   1      43.844  29.263  32.943  1.00  0.00     0.049 A 
ATOM     55  C   UNL A   1      43.903  26.148  28.080  1.00  0.00     0.074 A 
ATOM     56  C   UNL A   1      44.353  30.535  32.805  1.00  0.00     0.029 A 
ATOM     57  N   UNL A   1      44.300  28.521  31.885  1.00  0.00    -0.354 N 
ATOM     58  N   UNL A   1      44.661  27.203  27.955  1.00  0.00    -0.248 NA
ATOM     59  C   UNL A   1      44.026  25.440  29.352  1.00  0.00     0.031 C 
ATOM     60  C   UNL A   1      45.041  30.559  31.554  1.00  0.00     0.029 A 
ATOM     61  C   UNL A   1      44.958  29.298  30.969  1.00  0.00     0.049 A 
ATOM     62  H   UNL A   1      44.170  27.550  31.794  1.00  0.00     0.167 HD
ATOM     63  C   UNL A   1      45.032  27.516  29.247  1.00  0.00     0.074 A 
ATOM     64  C   UNL A   1      44.770  26.317  30.032  1.00  0.00     0.031 C 
ATOM     65  C   UNL A   1      45.196  28.814  29.628  1.00  0.00     0.037 A 
BRANCH  52  66
ATOM     66  C   UNL A   1      42.999  27.486  34.591  1.00  0.00     0.064 A 
ATOM     67  C   UNL A   1      43.175  27.732  35.962  1.00  0.00     0.173 A 
ATOM     68  C   UNL A   1      43.318  26.180  34.157  1.00  0.00     0.173 A 
ATOM     69  F   UNL A   1      42.966  28.957  36.465  1.00  0.00    -0.203 F 
ATOM     70  C   UNL A   1      43.641  26.740  36.830  1.00  0.00     0.198 A 
ATOM     71  C   UNL A   1      43.713  25.175  35.033  1.00  0.00     0.198 A 
ATOM     72  F   UNL A   1      43.377  25.852  32.859  1.00  0.00    -0.203 F 
ATOM     73  F   UNL A   1      43.891  27.042  38.110  1.00  0.00    -0.200 F 
ATOM     74  C   UNL A   1      43.896  25.460  36.368  1.00  0.00     0.200 A 
ATOM     75  F   UNL A   1      43.986  23.952  34.556  1.00  0.00    -0.200 F 
ATOM     76  F   UNL A   1      44.366  24.516  37.194  1.00  0.00    -0.200 F 
ENDBRANCH  52  66
BRANCH  53  77
ATOM     77  C   UNL A   1      42.573  24.535  26.547  1.00  0.00     0.064 A 
ATOM     78  C   UNL A   1      43.351  24.196  25.427  1.00  0.00     0.173 A 
ATOM     79  C   UNL A   1      41.904  23.476  27.189  1.00  0.00     0.173 A 
ATOM     80  F   UNL A   1      44.038  25.143  24.771  1.00  0.00    -0.203 F 
ATOM     81  C   UNL A   1      43.513  22.869  25.021  1.00  0.00     0.198 A 
ATOM     82  C   UNL A   1      42.061  22.152  26.777  1.00  0.00     0.198 A 
ATOM     83  F   UNL A   1      41.175  23.688  28.293  1.00  0.00    -0.203 F 
ATOM     84  F   UNL A   1      44.341  22.577  24.008  1.00  0.00    -0.200 F 
ATOM     85  C   UNL A   1      42.884  21.845  25.710  1.00  0.00     0.200 A 
ATOM     86  F   UNL A   1      41.470  21.166  27.469  1.00  0.00    -0.200 F 
ATOM     87  F   UNL A   1      43.107  20.567  25.376  1.00  0.00    -0.200 F 
ENDBRANCH  53  77
BRANCH  65  88
ATOM     88  C   UNL A   1      45.479  29.815  28.553  1.00  0.00     0.064 A 
ATOM     89  C   UNL A   1      44.493  30.538  27.862  1.00  0.00     0.173 A 
ATOM     90  C   UNL A   1      46.819  30.107  28.267  1.00  0.00     0.173 A 
ATOM     91  F   UNL A   1      43.193  30.363  28.136  1.00  0.00    -0.203 F 
ATOM     92  C   UNL A   1      44.841  31.488  26.902  1.00  0.00     0.198 A 
ATOM     93  C   UNL A   1      47.163  31.081  27.337  1.00  0.00     0.198 A 
ATOM     94  F   UNL A   1      47.799  29.469  28.927  1.00  0.00    -0.203 F 
ATOM     95  F   UNL A   1      43.885  32.156  26.241  1.00  0.00    -0.200 F 
ATOM     96  C   UNL A   1      46.175  31.765  26.649  1.00  0.00     0.200 A 
ATOM     97  F   UNL A   1      48.454  31.372  27.128  1.00  0.00    -0.200 F 
ATOM     98  F   UNL A   1      46.511  32.705  25.754  1.00  0.00    -0.200 F 
ENDBRANCH  65  88
ENDBRANCH  39  40
ENDBRANCH  32  34
ENDBRANCH  31  32
ENDBRANCH  30  31
ENDBRANCH  29  30
ENDBRANCH  28  29
ENDBRANCH  27  28
ENDBRANCH   1  27
TORSDOF 21
ENDMDL
