MODEL 1
REMARK VINA RESULT:     -10.8      0.000      0.000
REMARK SMILES CC(C)[C@H](NC(=O)CCNC(=O)c1ccoc1)C(=O)OCCOCCOCCOC(=O)c1ccc(-c2c3nc(c(-c4c(F)c(F)c(F)c(F)c4F)c4ccc([nH]4)c(-c4c(F)c(F)c(F)c(F)c4F)c4nc(c(-c5c(F)c(F)c(F)c(F)c5F)c5ccc2[nH]5)C=C4)C=C3)cc1
REMARK SMILES IDX 23 1 22 2 21 3 20 4 18 5 19 6 4 7 2 8 1 9 3 10 5 11 6 12
REMARK SMILES IDX 7 14 8 15 9 16 10 17 11 18 12 20 13 21 14 22 17 23 15 24
REMARK SMILES IDX 16 25 24 26 25 27 26 28 27 29 28 30 29 31 30 32 31 33 32 34
REMARK SMILES IDX 33 35 94 36 34 37 93 38 35 39 36 40 37 41 87 42 38 43 92 44
REMARK SMILES IDX 86 45 88 46 39 47 91 48 85 49 84 50 40 52 72 53 52 54 71 55
REMARK SMILES IDX 53 56 56 57 70 58 89 59 54 60 55 61 69 63 90 64 57 65 41 66
REMARK SMILES IDX 42 67 50 68 43 69 44 70 48 71 51 72 45 73 46 74 49 75 47 76
REMARK SMILES IDX 73 77 74 78 82 79 75 80 76 81 80 82 83 83 77 84 78 85 81 86
REMARK SMILES IDX 79 87 58 88 59 89 67 90 60 91 61 92 65 93 68 94 62 95 63 96
REMARK SMILES IDX 66 97 64 98
REMARK H PARENT 5 13 10 19 88 51 56 62
REMARK Flexibility Score: inf
ROOT
ATOM      1  O   UNL A   1      33.997  27.552  21.700  1.00  0.00    -0.376 OA
ENDROOT
BRANCH   1   2
ATOM      2  C   UNL A   1      32.740  26.905  21.826  1.00  0.00     0.202 C 
BRANCH   2   3
ATOM      3  C   UNL A   1      32.775  25.381  21.660  1.00  0.00     0.261 C 
BRANCH   3   4
ATOM      4  O   UNL A   1      33.562  24.656  22.623  1.00  0.00    -0.462 OA
BRANCH   4   5
ATOM      5  C   UNL A   1      32.873  24.069  23.632  1.00  0.00     0.328 C 
ATOM      6  O   UNL A   1      32.230  23.033  23.505  1.00  0.00    -0.250 OA
BRANCH   5   7
ATOM      7  C   UNL A   1      32.822  24.950  24.899  1.00  0.00     0.194 C 
BRANCH   7   8
ATOM      8  C   UNL A   1      33.932  24.458  25.871  1.00  0.00     0.017 C 
ATOM      9  C   UNL A   1      33.600  23.141  26.582  1.00  0.00     0.010 C 
ATOM     10  C   UNL A   1      35.281  24.347  25.157  1.00  0.00     0.010 C 
ENDBRANCH   7   8
BRANCH   7  11
ATOM     11  N   UNL A   1      31.557  25.028  25.649  1.00  0.00    -0.342 N 
ATOM     12  C   UNL A   1      30.364  25.605  25.311  1.00  0.00     0.222 C 
ATOM     13  H   UNL A   1      31.572  24.596  26.533  1.00  0.00     0.164 HD
ATOM     14  O   UNL A   1      29.529  25.783  26.200  1.00  0.00    -0.275 OA
BRANCH  12  15
ATOM     15  C   UNL A   1      30.026  25.969  23.868  1.00  0.00     0.121 C 
BRANCH  15  16
ATOM     16  C   UNL A   1      29.577  27.418  23.639  1.00  0.00     0.126 C 
BRANCH  16  17
ATOM     17  N   UNL A   1      28.151  27.485  23.364  1.00  0.00    -0.351 N 
ATOM     18  C   UNL A   1      27.275  28.525  23.271  1.00  0.00     0.254 C 
ATOM     19  H   UNL A   1      27.736  26.606  23.217  1.00  0.00     0.163 HD
ATOM     20  O   UNL A   1      26.098  28.303  23.545  1.00  0.00    -0.269 OA
BRANCH  18  21
ATOM     21  C   UNL A   1      27.704  29.813  22.796  1.00  0.00     0.077 A 
ATOM     22  C   UNL A   1      28.143  30.228  21.509  1.00  0.00     0.056 A 
ATOM     23  C   UNL A   1      27.570  30.973  23.532  1.00  0.00     0.208 A 
ATOM     24  C   UNL A   1      28.219  31.601  21.552  1.00  0.00     0.195 A 
ATOM     25  O   UNL A   1      27.894  32.059  22.788  1.00  0.00    -0.472 OA
ENDBRANCH  18  21
ENDBRANCH  16  17
ENDBRANCH  15  16
ENDBRANCH  12  15
ENDBRANCH   7  11
ENDBRANCH   5   7
ENDBRANCH   4   5
ENDBRANCH   3   4
ENDBRANCH   2   3
ENDBRANCH   1   2
BRANCH   1  26
ATOM     26  C   UNL A   1      34.288  28.491  22.724  1.00  0.00     0.188 C 
BRANCH  26  27
ATOM     27  C   UNL A   1      33.292  28.491  23.898  1.00  0.00     0.188 C 
BRANCH  27  28
ATOM     28  O   UNL A   1      32.428  29.593  24.123  1.00  0.00    -0.376 OA
BRANCH  28  29
ATOM     29  C   UNL A   1      31.651  29.624  25.314  1.00  0.00     0.202 C 
BRANCH  29  30
ATOM     30  C   UNL A   1      31.796  30.814  26.278  1.00  0.00     0.261 C 
BRANCH  30  31
ATOM     31  O   UNL A   1      32.839  30.673  27.256  1.00  0.00    -0.460 OA
BRANCH  31  32
ATOM     32  C   UNL A   1      33.518  31.815  27.548  1.00  0.00     0.338 C 
ATOM     33  O   UNL A   1      33.083  32.941  27.619  1.00  0.00    -0.246 OA
BRANCH  32  34
ATOM     34  C   UNL A   1      34.885  31.455  27.991  1.00  0.00     0.060 A 
ATOM     35  C   UNL A   1      35.133  30.120  28.350  1.00  0.00     0.016 A 
ATOM     36  C   UNL A   1      35.897  32.409  28.071  1.00  0.00     0.016 A 
ATOM     37  C   UNL A   1      36.393  29.735  28.805  1.00  0.00     0.010 A 
ATOM     38  C   UNL A   1      37.146  32.034  28.573  1.00  0.00     0.010 A 
ATOM     39  C   UNL A   1      37.387  30.705  28.970  1.00  0.00    -0.014 A 
BRANCH  39  40
ATOM     40  C   UNL A   1      38.582  30.409  29.793  1.00  0.00     0.031 A 
ATOM     41  C   UNL A   1      39.581  29.434  29.237  1.00  0.00     0.074 A 
ATOM     42  C   UNL A   1      38.759  30.949  31.010  1.00  0.00     0.049 A 
ATOM     43  N   UNL A   1      40.597  28.857  29.823  1.00  0.00    -0.248 NA
ATOM     44  C   UNL A   1      39.402  29.053  27.826  1.00  0.00     0.031 C 
ATOM     45  C   UNL A   1      37.902  31.959  31.623  1.00  0.00     0.029 A 
ATOM     46  N   UNL A   1      39.717  30.692  31.960  1.00  0.00    -0.354 N 
ATOM     47  C   UNL A   1      41.161  28.030  28.861  1.00  0.00     0.074 A 
ATOM     48  C   UNL A   1      40.378  28.177  27.655  1.00  0.00     0.031 C 
ATOM     49  C   UNL A   1      38.352  32.214  32.865  1.00  0.00     0.029 A 
ATOM     50  C   UNL A   1      39.498  31.349  33.147  1.00  0.00     0.049 A 
ATOM     51  H   UNL A   1      40.485  30.098  31.805  1.00  0.00     0.167 HD
ATOM     52  C   UNL A   1      42.231  27.213  28.978  1.00  0.00     0.037 A 
ATOM     53  C   UNL A   1      40.126  31.221  34.332  1.00  0.00     0.037 A 
ATOM     54  C   UNL A   1      42.999  27.061  30.182  1.00  0.00     0.049 A 
ATOM     55  C   UNL A   1      41.259  30.235  34.468  1.00  0.00     0.074 A 
ATOM     56  C   UNL A   1      44.099  26.254  30.410  1.00  0.00     0.029 A 
ATOM     57  N   UNL A   1      42.736  27.730  31.368  1.00  0.00    -0.354 N 
ATOM     58  N   UNL A   1      41.786  29.447  33.561  1.00  0.00    -0.248 NA
ATOM     59  C   UNL A   1      41.878  30.108  35.797  1.00  0.00     0.031 C 
ATOM     60  C   UNL A   1      44.476  26.403  31.748  1.00  0.00     0.029 A 
ATOM     61  C   UNL A   1      43.642  27.339  32.338  1.00  0.00     0.049 A 
ATOM     62  H   UNL A   1      42.014  28.386  31.499  1.00  0.00     0.167 HD
ATOM     63  C   UNL A   1      42.814  28.761  34.197  1.00  0.00     0.074 A 
ATOM     64  C   UNL A   1      42.838  29.223  35.569  1.00  0.00     0.031 C 
ATOM     65  C   UNL A   1      43.664  27.835  33.690  1.00  0.00     0.037 A 
BRANCH  52  66
ATOM     66  C   UNL A   1      42.601  26.389  27.783  1.00  0.00     0.064 A 
ATOM     67  C   UNL A   1      42.002  25.147  27.530  1.00  0.00     0.173 A 
ATOM     68  C   UNL A   1      43.560  26.855  26.872  1.00  0.00     0.173 A 
ATOM     69  F   UNL A   1      41.096  24.647  28.385  1.00  0.00    -0.203 F 
ATOM     70  C   UNL A   1      42.366  24.391  26.420  1.00  0.00     0.198 A 
ATOM     71  C   UNL A   1      43.902  26.109  25.749  1.00  0.00     0.198 A 
ATOM     72  F   UNL A   1      44.164  28.036  27.072  1.00  0.00    -0.203 F 
ATOM     73  F   UNL A   1      41.814  23.185  26.221  1.00  0.00    -0.200 F 
ATOM     74  C   UNL A   1      43.311  24.876  25.526  1.00  0.00     0.200 A 
ATOM     75  F   UNL A   1      44.809  26.583  24.883  1.00  0.00    -0.200 F 
ATOM     76  F   UNL A   1      43.657  24.148  24.456  1.00  0.00    -0.200 F 
ENDBRANCH  52  66
BRANCH  53  77
ATOM     77  C   UNL A   1      39.674  32.016  35.506  1.00  0.00     0.064 A 
ATOM     78  C   UNL A   1      38.686  31.528  36.371  1.00  0.00     0.173 A 
ATOM     79  C   UNL A   1      40.199  33.290  35.767  1.00  0.00     0.173 A 
ATOM     80  F   UNL A   1      38.132  30.329  36.143  1.00  0.00    -0.203 F 
ATOM     81  C   UNL A   1      38.227  32.291  37.443  1.00  0.00     0.198 A 
ATOM     82  C   UNL A   1      39.759  34.042  36.855  1.00  0.00     0.198 A 
ATOM     83  F   UNL A   1      41.141  33.808  34.964  1.00  0.00    -0.203 F 
ATOM     84  F   UNL A   1      37.247  31.821  38.226  1.00  0.00    -0.200 F 
ATOM     85  C   UNL A   1      38.768  33.545  37.689  1.00  0.00     0.200 A 
ATOM     86  F   UNL A   1      40.289  35.250  37.091  1.00  0.00    -0.200 F 
ATOM     87  F   UNL A   1      38.326  34.278  38.718  1.00  0.00    -0.200 F 
ENDBRANCH  53  77
BRANCH  65  88
ATOM     88  C   UNL A   1      44.731  27.296  34.595  1.00  0.00     0.064 A 
ATOM     89  C   UNL A   1      45.943  27.973  34.790  1.00  0.00     0.173 A 
ATOM     90  C   UNL A   1      44.496  26.133  35.345  1.00  0.00     0.173 A 
ATOM     91  F   UNL A   1      46.218  29.081  34.087  1.00  0.00    -0.203 F 
ATOM     92  C   UNL A   1      46.886  27.499  35.699  1.00  0.00     0.198 A 
ATOM     93  C   UNL A   1      45.429  25.678  36.271  1.00  0.00     0.198 A 
ATOM     94  F   UNL A   1      43.347  25.457  35.200  1.00  0.00    -0.203 F 
ATOM     95  F   UNL A   1      48.049  28.147  35.852  1.00  0.00    -0.200 F 
ATOM     96  C   UNL A   1      46.624  26.359  36.446  1.00  0.00     0.200 A 
ATOM     97  F   UNL A   1      45.168  24.585  37.002  1.00  0.00    -0.200 F 
ATOM     98  F   UNL A   1      47.524  25.917  37.334  1.00  0.00    -0.200 F 
ENDBRANCH  65  88
ENDBRANCH  39  40
ENDBRANCH  32  34
ENDBRANCH  31  32
ENDBRANCH  30  31
ENDBRANCH  29  30
ENDBRANCH  28  29
ENDBRANCH  27  28
ENDBRANCH  26  27
ENDBRANCH   1  26
TORSDOF 23
ENDMDL
MODEL 2
REMARK VINA RESULT:     -10.6      2.047      4.819
REMARK SMILES CC(C)[C@H](NC(=O)CCNC(=O)c1ccoc1)C(=O)OCCOCCOCCOC(=O)c1ccc(-c2c3nc(c(-c4c(F)c(F)c(F)c(F)c4F)c4ccc([nH]4)c(-c4c(F)c(F)c(F)c(F)c4F)c4nc(c(-c5c(F)c(F)c(F)c(F)c5F)c5ccc2[nH]5)C=C4)C=C3)cc1
REMARK SMILES IDX 23 1 22 2 21 3 20 4 18 5 19 6 4 7 2 8 1 9 3 10 5 11 6 12
REMARK SMILES IDX 7 14 8 15 9 16 10 17 11 18 12 20 13 21 14 22 17 23 15 24
REMARK SMILES IDX 16 25 24 26 25 27 26 28 27 29 28 30 29 31 30 32 31 33 32 34
REMARK SMILES IDX 33 35 94 36 34 37 93 38 35 39 36 40 37 41 87 42 38 43 92 44
REMARK SMILES IDX 86 45 88 46 39 47 91 48 85 49 84 50 40 52 72 53 52 54 71 55
REMARK SMILES IDX 53 56 56 57 70 58 89 59 54 60 55 61 69 63 90 64 57 65 41 66
REMARK SMILES IDX 42 67 50 68 43 69 44 70 48 71 51 72 45 73 46 74 49 75 47 76
REMARK SMILES IDX 73 77 74 78 82 79 75 80 76 81 80 82 83 83 77 84 78 85 81 86
REMARK SMILES IDX 79 87 58 88 59 89 67 90 60 91 61 92 65 93 68 94 62 95 63 96
REMARK SMILES IDX 66 97 64 98
REMARK H PARENT 5 13 10 19 88 51 56 62
REMARK Flexibility Score: inf
ROOT
ATOM      1  O   UNL A   1      33.777  27.078  21.634  1.00  0.00    -0.376 OA
ENDROOT
BRANCH   1   2
ATOM      2  C   UNL A   1      32.601  26.319  21.877  1.00  0.00     0.202 C 
BRANCH   2   3
ATOM      3  C   UNL A   1      32.839  24.841  22.208  1.00  0.00     0.261 C 
BRANCH   3   4
ATOM      4  O   UNL A   1      33.861  24.568  23.186  1.00  0.00    -0.462 OA
BRANCH   4   5
ATOM      5  C   UNL A   1      33.548  24.865  24.471  1.00  0.00     0.328 C 
ATOM      6  O   UNL A   1      33.964  25.855  25.062  1.00  0.00    -0.250 OA
BRANCH   5   7
ATOM      7  C   UNL A   1      32.778  23.721  25.167  1.00  0.00     0.194 C 
BRANCH   7   8
ATOM      8  C   UNL A   1      31.345  24.234  25.488  1.00  0.00     0.017 C 
ATOM      9  C   UNL A   1      30.450  24.399  24.254  1.00  0.00     0.010 C 
ATOM     10  C   UNL A   1      30.658  23.340  26.524  1.00  0.00     0.010 C 
ENDBRANCH   7   8
BRANCH   7  11
ATOM     11  N   UNL A   1      33.345  23.141  26.396  1.00  0.00    -0.342 N 
ATOM     12  C   UNL A   1      34.255  22.134  26.559  1.00  0.00     0.222 C 
ATOM     13  H   UNL A   1      33.016  23.541  27.233  1.00  0.00     0.164 HD
ATOM     14  O   UNL A   1      34.379  21.634  27.679  1.00  0.00    -0.275 OA
BRANCH  12  15
ATOM     15  C   UNL A   1      35.152  21.667  25.416  1.00  0.00     0.121 C 
BRANCH  15  16
ATOM     16  C   UNL A   1      34.931  20.223  24.949  1.00  0.00     0.126 C 
BRANCH  16  17
ATOM     17  N   UNL A   1      33.626  20.069  24.329  1.00  0.00    -0.351 N 
ATOM     18  C   UNL A   1      32.957  18.989  23.835  1.00  0.00     0.254 C 
ATOM     19  H   UNL A   1      33.126  20.912  24.248  1.00  0.00     0.163 HD
ATOM     20  O   UNL A   1      32.147  19.185  22.933  1.00  0.00    -0.269 OA
BRANCH  18  21
ATOM     21  C   UNL A   1      33.143  17.681  24.406  1.00  0.00     0.077 A 
ATOM     22  C   UNL A   1      32.742  17.153  25.663  1.00  0.00     0.056 A 
ATOM     23  C   UNL A   1      33.615  16.602  23.686  1.00  0.00     0.208 A 
ATOM     24  C   UNL A   1      32.978  15.798  25.605  1.00  0.00     0.195 A 
ATOM     25  O   UNL A   1      33.531  15.461  24.413  1.00  0.00    -0.472 OA
ENDBRANCH  18  21
ENDBRANCH  16  17
ENDBRANCH  15  16
ENDBRANCH  12  15
ENDBRANCH   7  11
ENDBRANCH   5   7
ENDBRANCH   4   5
ENDBRANCH   3   4
ENDBRANCH   2   3
ENDBRANCH   1   2
BRANCH   1  26
ATOM     26  C   UNL A   1      33.775  28.377  22.205  1.00  0.00     0.188 C 
BRANCH  26  27
ATOM     27  C   UNL A   1      33.098  28.472  23.585  1.00  0.00     0.188 C 
BRANCH  27  28
ATOM     28  O   UNL A   1      31.873  29.168  23.751  1.00  0.00    -0.376 OA
BRANCH  28  29
ATOM     29  C   UNL A   1      31.317  29.276  25.056  1.00  0.00     0.202 C 
BRANCH  29  30
ATOM     30  C   UNL A   1      31.739  30.445  25.961  1.00  0.00     0.261 C 
BRANCH  30  31
ATOM     31  O   UNL A   1      32.998  30.266  26.630  1.00  0.00    -0.460 OA
BRANCH  31  32
ATOM     32  C   UNL A   1      33.527  31.391  27.182  1.00  0.00     0.338 C 
ATOM     33  O   UNL A   1      32.968  32.437  27.417  1.00  0.00    -0.246 OA
BRANCH  32  34
ATOM     34  C   UNL A   1      34.891  31.083  27.672  1.00  0.00     0.060 A 
ATOM     35  C   UNL A   1      35.197  29.747  27.978  1.00  0.00     0.016 A 
ATOM     36  C   UNL A   1      35.843  32.086  27.845  1.00  0.00     0.016 A 
ATOM     37  C   UNL A   1      36.456  29.409  28.473  1.00  0.00     0.010 A 
ATOM     38  C   UNL A   1      37.087  31.754  28.387  1.00  0.00     0.010 A 
ATOM     39  C   UNL A   1      37.385  30.422  28.731  1.00  0.00    -0.014 A 
BRANCH  39  40
ATOM     40  C   UNL A   1      38.557  30.150  29.594  1.00  0.00     0.031 A 
ATOM     41  C   UNL A   1      39.590  29.189  29.077  1.00  0.00     0.074 A 
ATOM     42  C   UNL A   1      38.684  30.698  30.814  1.00  0.00     0.049 A 
ATOM     43  N   UNL A   1      40.595  28.631  29.699  1.00  0.00    -0.248 NA
ATOM     44  C   UNL A   1      39.463  28.798  27.663  1.00  0.00     0.031 C 
ATOM     45  C   UNL A   1      37.792  31.697  31.392  1.00  0.00     0.029 A 
ATOM     46  N   UNL A   1      39.615  30.462  31.795  1.00  0.00    -0.354 N 
ATOM     47  C   UNL A   1      41.204  27.810  28.761  1.00  0.00     0.074 A 
ATOM     48  C   UNL A   1      40.459  27.937  27.529  1.00  0.00     0.031 C 
ATOM     49  C   UNL A   1      38.196  31.965  32.647  1.00  0.00     0.029 A 
ATOM     50  C   UNL A   1      39.346  31.121  32.971  1.00  0.00     0.049 A 
ATOM     51  H   UNL A   1      40.398  29.880  31.670  1.00  0.00     0.167 HD
ATOM     52  C   UNL A   1      42.284  27.011  28.917  1.00  0.00     0.037 A 
ATOM     53  C   UNL A   1      39.936  31.009  34.177  1.00  0.00     0.037 A 
ATOM     54  C   UNL A   1      43.014  26.878  30.147  1.00  0.00     0.049 A 
ATOM     55  C   UNL A   1      41.081  30.043  34.356  1.00  0.00     0.074 A 
ATOM     56  C   UNL A   1      44.119  26.091  30.414  1.00  0.00     0.029 A 
ATOM     57  N   UNL A   1      42.701  27.549  31.320  1.00  0.00    -0.354 N 
ATOM     58  N   UNL A   1      41.651  29.259  33.471  1.00  0.00    -0.248 NA
ATOM     59  C   UNL A   1      41.657  29.933  35.705  1.00  0.00     0.031 C 
ATOM     60  C   UNL A   1      44.449  26.253  31.763  1.00  0.00     0.029 A 
ATOM     61  C   UNL A   1      43.580  27.177  32.321  1.00  0.00     0.049 A 
ATOM     62  H   UNL A   1      41.964  28.193  31.423  1.00  0.00     0.167 HD
ATOM     63  C   UNL A   1      42.668  28.594  34.144  1.00  0.00     0.074 A 
ATOM     64  C   UNL A   1      42.640  29.063  35.513  1.00  0.00     0.031 C 
ATOM     65  C   UNL A   1      43.549  27.680  33.670  1.00  0.00     0.037 A 
BRANCH  52  66
ATOM     66  C   UNL A   1      42.706  26.187  27.739  1.00  0.00     0.064 A 
ATOM     67  C   UNL A   1      43.701  26.622  26.853  1.00  0.00     0.173 A 
ATOM     68  C   UNL A   1      42.112  24.939  27.502  1.00  0.00     0.173 A 
ATOM     69  F   UNL A   1      44.281  27.821  27.025  1.00  0.00    -0.203 F 
ATOM     70  C   UNL A   1      44.072  25.846  25.759  1.00  0.00     0.198 A 
ATOM     71  C   UNL A   1      42.505  24.154  26.422  1.00  0.00     0.198 A 
ATOM     72  F   UNL A   1      41.153  24.480  28.320  1.00  0.00    -0.203 F 
ATOM     73  F   UNL A   1      44.993  26.302  24.898  1.00  0.00    -0.200 F 
ATOM     74  C   UNL A   1      43.479  24.610  25.548  1.00  0.00     0.200 A 
ATOM     75  F   UNL A   1      41.936  22.956  26.226  1.00  0.00    -0.200 F 
ATOM     76  F   UNL A   1      43.840  23.863  24.496  1.00  0.00    -0.200 F 
ENDBRANCH  52  66
BRANCH  53  77
ATOM     77  C   UNL A   1      39.433  31.802  35.331  1.00  0.00     0.064 A 
ATOM     78  C   UNL A   1      39.885  33.109  35.560  1.00  0.00     0.173 A 
ATOM     79  C   UNL A   1      38.516  31.260  36.243  1.00  0.00     0.173 A 
ATOM     80  F   UNL A   1      40.785  33.659  34.732  1.00  0.00    -0.203 F 
ATOM     81  C   UNL A   1      39.452  33.837  36.666  1.00  0.00     0.198 A 
ATOM     82  C   UNL A   1      38.064  31.998  37.335  1.00  0.00     0.198 A 
ATOM     83  F   UNL A   1      38.060  30.009  36.075  1.00  0.00    -0.203 F 
ATOM     84  F   UNL A   1      39.936  35.067  36.887  1.00  0.00    -0.200 F 
ATOM     85  C   UNL A   1      38.536  33.284  37.550  1.00  0.00     0.200 A 
ATOM     86  F   UNL A   1      37.175  31.461  38.182  1.00  0.00    -0.200 F 
ATOM     87  F   UNL A   1      38.121  33.984  38.614  1.00  0.00    -0.200 F 
ENDBRANCH  53  77
BRANCH  65  88
ATOM     88  C   UNL A   1      44.595  27.163  34.613  1.00  0.00     0.064 A 
ATOM     89  C   UNL A   1      44.411  25.979  35.340  1.00  0.00     0.173 A 
ATOM     90  C   UNL A   1      45.833  27.816  34.716  1.00  0.00     0.173 A 
ATOM     91  F   UNL A   1      43.241  25.326  35.283  1.00  0.00    -0.203 F 
ATOM     92  C   UNL A   1      45.428  25.471  36.145  1.00  0.00     0.198 A 
ATOM     93  C   UNL A   1      46.855  27.292  35.501  1.00  0.00     0.198 A 
ATOM     94  F   UNL A   1      46.059  28.947  34.031  1.00  0.00    -0.203 F 
ATOM     95  F   UNL A   1      45.223  24.351  36.852  1.00  0.00    -0.200 F 
ATOM     96  C   UNL A   1      46.652  26.121  36.216  1.00  0.00     0.200 A 
ATOM     97  F   UNL A   1      48.042  27.913  35.556  1.00  0.00    -0.200 F 
ATOM     98  F   UNL A   1      47.635  25.620  36.975  1.00  0.00    -0.200 F 
ENDBRANCH  65  88
ENDBRANCH  39  40
ENDBRANCH  32  34
ENDBRANCH  31  32
ENDBRANCH  30  31
ENDBRANCH  29  30
ENDBRANCH  28  29
ENDBRANCH  27  28
ENDBRANCH  26  27
ENDBRANCH   1  26
TORSDOF 23
ENDMDL
MODEL 3
REMARK VINA RESULT:     -10.5      2.340      4.695
REMARK SMILES CC(C)[C@H](NC(=O)CCNC(=O)c1ccoc1)C(=O)OCCOCCOCCOC(=O)c1ccc(-c2c3nc(c(-c4c(F)c(F)c(F)c(F)c4F)c4ccc([nH]4)c(-c4c(F)c(F)c(F)c(F)c4F)c4nc(c(-c5c(F)c(F)c(F)c(F)c5F)c5ccc2[nH]5)C=C4)C=C3)cc1
REMARK SMILES IDX 23 1 22 2 21 3 20 4 18 5 19 6 4 7 2 8 1 9 3 10 5 11 6 12
REMARK SMILES IDX 7 14 8 15 9 16 10 17 11 18 12 20 13 21 14 22 17 23 15 24
REMARK SMILES IDX 16 25 24 26 25 27 26 28 27 29 28 30 29 31 30 32 31 33 32 34
REMARK SMILES IDX 33 35 94 36 34 37 93 38 35 39 36 40 37 41 87 42 38 43 92 44
REMARK SMILES IDX 86 45 88 46 39 47 91 48 85 49 84 50 40 52 72 53 52 54 71 55
REMARK SMILES IDX 53 56 56 57 70 58 89 59 54 60 55 61 69 63 90 64 57 65 41 66
REMARK SMILES IDX 42 67 50 68 43 69 44 70 48 71 51 72 45 73 46 74 49 75 47 76
REMARK SMILES IDX 73 77 74 78 82 79 75 80 76 81 80 82 83 83 77 84 78 85 81 86
REMARK SMILES IDX 79 87 58 88 59 89 67 90 60 91 61 92 65 93 68 94 62 95 63 96
REMARK SMILES IDX 66 97 64 98
REMARK H PARENT 5 13 10 19 88 51 56 62
REMARK Flexibility Score: inf
ROOT
ATOM      1  O   UNL A   1      33.713  27.351  21.679  1.00  0.00    -0.376 OA
ENDROOT
BRANCH   1   2
ATOM      2  C   UNL A   1      32.705  26.436  22.081  1.00  0.00     0.202 C 
BRANCH   2   3
ATOM      3  C   UNL A   1      33.120  24.960  22.050  1.00  0.00     0.261 C 
BRANCH   3   4
ATOM      4  O   UNL A   1      34.200  24.586  22.926  1.00  0.00    -0.462 OA
BRANCH   4   5
ATOM      5  C   UNL A   1      34.013  24.844  24.243  1.00  0.00     0.328 C 
ATOM      6  O   UNL A   1      34.591  25.739  24.850  1.00  0.00    -0.250 OA
BRANCH   5   7
ATOM      7  C   UNL A   1      33.150  23.767  24.936  1.00  0.00     0.194 C 
BRANCH   7   8
ATOM      8  C   UNL A   1      31.807  24.428  25.361  1.00  0.00     0.017 C 
ATOM      9  C   UNL A   1      30.779  23.443  25.929  1.00  0.00     0.010 C 
ATOM     10  C   UNL A   1      32.043  25.574  26.348  1.00  0.00     0.010 C 
ENDBRANCH   7   8
BRANCH   7  11
ATOM     11  N   UNL A   1      33.708  23.068  26.106  1.00  0.00    -0.342 N 
ATOM     12  C   UNL A   1      33.885  21.731  26.334  1.00  0.00     0.222 C 
ATOM     13  H   UNL A   1      33.999  23.655  26.840  1.00  0.00     0.164 HD
ATOM     14  O   UNL A   1      34.118  21.362  27.486  1.00  0.00    -0.275 OA
BRANCH  12  15
ATOM     15  C   UNL A   1      33.864  20.711  25.199  1.00  0.00     0.121 C 
BRANCH  15  16
ATOM     16  C   UNL A   1      32.942  19.504  25.412  1.00  0.00     0.126 C 
BRANCH  16  17
ATOM     17  N   UNL A   1      32.649  18.843  24.151  1.00  0.00    -0.351 N 
ATOM     18  C   UNL A   1      32.985  17.623  23.646  1.00  0.00     0.254 C 
ATOM     19  H   UNL A   1      32.099  19.384  23.541  1.00  0.00     0.163 HD
ATOM     20  O   UNL A   1      33.065  17.515  22.424  1.00  0.00    -0.269 OA
BRANCH  18  21
ATOM     21  C   UNL A   1      33.165  16.488  24.512  1.00  0.00     0.077 A 
ATOM     22  C   UNL A   1      32.220  15.736  25.262  1.00  0.00     0.056 A 
ATOM     23  C   UNL A   1      34.352  15.791  24.608  1.00  0.00     0.208 A 
ATOM     24  C   UNL A   1      32.894  14.633  25.735  1.00  0.00     0.195 A 
ATOM     25  O   UNL A   1      34.197  14.674  25.360  1.00  0.00    -0.472 OA
ENDBRANCH  18  21
ENDBRANCH  16  17
ENDBRANCH  15  16
ENDBRANCH  12  15
ENDBRANCH   7  11
ENDBRANCH   5   7
ENDBRANCH   4   5
ENDBRANCH   3   4
ENDBRANCH   2   3
ENDBRANCH   1   2
BRANCH   1  26
ATOM     26  C   UNL A   1      33.759  28.554  22.431  1.00  0.00     0.188 C 
BRANCH  26  27
ATOM     27  C   UNL A   1      33.022  28.496  23.782  1.00  0.00     0.188 C 
BRANCH  27  28
ATOM     28  O   UNL A   1      31.966  29.395  24.077  1.00  0.00    -0.376 OA
BRANCH  28  29
ATOM     29  C   UNL A   1      31.469  29.456  25.408  1.00  0.00     0.202 C 
BRANCH  29  30
ATOM     30  C   UNL A   1      31.938  30.589  26.337  1.00  0.00     0.261 C 
BRANCH  30  31
ATOM     31  O   UNL A   1      33.361  30.666  26.523  1.00  0.00    -0.460 OA
BRANCH  31  32
ATOM     32  C   UNL A   1      33.784  31.645  27.367  1.00  0.00     0.338 C 
ATOM     33  O   UNL A   1      33.139  32.559  27.827  1.00  0.00    -0.246 OA
BRANCH  32  34
ATOM     34  C   UNL A   1      35.148  31.311  27.837  1.00  0.00     0.060 A 
ATOM     35  C   UNL A   1      35.450  29.962  28.085  1.00  0.00     0.016 A 
ATOM     36  C   UNL A   1      36.106  32.301  28.047  1.00  0.00     0.016 A 
ATOM     37  C   UNL A   1      36.709  29.598  28.559  1.00  0.00     0.010 A 
ATOM     38  C   UNL A   1      37.351  31.941  28.568  1.00  0.00     0.010 A 
ATOM     39  C   UNL A   1      37.645  30.595  28.854  1.00  0.00    -0.014 A 
BRANCH  39  40
ATOM     40  C   UNL A   1      38.820  30.281  29.699  1.00  0.00     0.031 A 
ATOM     41  C   UNL A   1      39.821  29.302  29.157  1.00  0.00     0.074 A 
ATOM     42  C   UNL A   1      38.976  30.810  30.924  1.00  0.00     0.049 A 
ATOM     43  N   UNL A   1      40.819  28.710  29.759  1.00  0.00    -0.248 NA
ATOM     44  C   UNL A   1      39.668  28.933  27.739  1.00  0.00     0.031 C 
ATOM     45  C   UNL A   1      38.116  31.824  31.527  1.00  0.00     0.029 A 
ATOM     46  N   UNL A   1      39.912  30.538  31.891  1.00  0.00    -0.354 N 
ATOM     47  C   UNL A   1      41.396  27.886  28.803  1.00  0.00     0.074 A 
ATOM     48  C   UNL A   1      40.639  28.049  27.582  1.00  0.00     0.031 C 
ATOM     49  C   UNL A   1      38.542  32.065  32.780  1.00  0.00     0.029 A 
ATOM     50  C   UNL A   1      39.675  31.187  33.078  1.00  0.00     0.049 A 
ATOM     51  H   UNL A   1      40.678  29.937  31.748  1.00  0.00     0.167 HD
ATOM     52  C   UNL A   1      42.456  27.058  28.935  1.00  0.00     0.037 A 
ATOM     53  C   UNL A   1      40.276  31.045  34.276  1.00  0.00     0.037 A 
ATOM     54  C   UNL A   1      43.197  26.890  30.154  1.00  0.00     0.049 A 
ATOM     55  C   UNL A   1      41.398  30.047  34.427  1.00  0.00     0.074 A 
ATOM     56  C   UNL A   1      44.285  26.071  30.398  1.00  0.00     0.029 A 
ATOM     57  N   UNL A   1      42.916  27.553  31.340  1.00  0.00    -0.354 N 
ATOM     58  N   UNL A   1      41.936  29.261  33.525  1.00  0.00    -0.248 NA
ATOM     59  C   UNL A   1      41.987  29.905  35.768  1.00  0.00     0.031 C 
ATOM     60  C   UNL A   1      44.635  26.207  31.745  1.00  0.00     0.029 A 
ATOM     61  C   UNL A   1      43.798  27.146  32.325  1.00  0.00     0.049 A 
ATOM     62  H   UNL A   1      42.197  28.214  31.460  1.00  0.00     0.167 HD
ATOM     63  C   UNL A   1      42.944  28.562  34.177  1.00  0.00     0.074 A 
ATOM     64  C   UNL A   1      42.945  29.013  35.553  1.00  0.00     0.031 C 
ATOM     65  C   UNL A   1      43.796  27.632  33.681  1.00  0.00     0.037 A 
BRANCH  52  66
ATOM     66  C   UNL A   1      42.843  26.239  27.742  1.00  0.00     0.064 A 
ATOM     67  C   UNL A   1      42.240  25.004  27.469  1.00  0.00     0.173 A 
ATOM     68  C   UNL A   1      43.823  26.705  26.853  1.00  0.00     0.173 A 
ATOM     69  F   UNL A   1      41.313  24.505  28.302  1.00  0.00    -0.203 F 
ATOM     70  C   UNL A   1      42.620  24.253  26.360  1.00  0.00     0.198 A 
ATOM     71  C   UNL A   1      44.182  25.964  25.731  1.00  0.00     0.198 A 
ATOM     72  F   UNL A   1      44.431  27.880  27.073  1.00  0.00    -0.203 F 
ATOM     73  F   UNL A   1      42.063  23.053  26.143  1.00  0.00    -0.200 F 
ATOM     74  C   UNL A   1      43.585  24.737  25.489  1.00  0.00     0.200 A 
ATOM     75  F   UNL A   1      45.109  26.437  24.887  1.00  0.00    -0.200 F 
ATOM     76  F   UNL A   1      43.947  24.014  24.420  1.00  0.00    -0.200 F 
ENDBRANCH  52  66
BRANCH  53  77
ATOM     77  C   UNL A   1      39.808  31.836  35.445  1.00  0.00     0.064 A 
ATOM     78  C   UNL A   1      38.740  31.391  36.236  1.00  0.00     0.173 A 
ATOM     79  C   UNL A   1      40.397  33.064  35.777  1.00  0.00     0.173 A 
ATOM     80  F   UNL A   1      38.124  30.237  35.939  1.00  0.00    -0.203 F 
ATOM     81  C   UNL A   1      38.268  32.152  37.303  1.00  0.00     0.198 A 
ATOM     82  C   UNL A   1      39.942  33.813  36.861  1.00  0.00     0.198 A 
ATOM     83  F   UNL A   1      41.417  33.540  35.047  1.00  0.00    -0.203 F 
ATOM     84  F   UNL A   1      37.214  31.726  38.013  1.00  0.00    -0.200 F 
ATOM     85  C   UNL A   1      38.873  33.360  37.620  1.00  0.00     0.200 A 
ATOM     86  F   UNL A   1      40.534  34.976  37.165  1.00  0.00    -0.200 F 
ATOM     87  F   UNL A   1      38.419  34.092  38.645  1.00  0.00    -0.200 F 
ENDBRANCH  53  77
BRANCH  65  88
ATOM     88  C   UNL A   1      44.840  27.076  34.603  1.00  0.00     0.064 A 
ATOM     89  C   UNL A   1      46.086  27.696  34.764  1.00  0.00     0.173 A 
ATOM     90  C   UNL A   1      44.549  25.960  35.403  1.00  0.00     0.173 A 
ATOM     91  F   UNL A   1      46.414  28.759  34.014  1.00  0.00    -0.203 F 
ATOM     92  C   UNL A   1      47.009  27.212  35.689  1.00  0.00     0.198 A 
ATOM     93  C   UNL A   1      45.463  25.495  36.343  1.00  0.00     0.198 A 
ATOM     94  F   UNL A   1      43.365  25.338  35.291  1.00  0.00    -0.203 F 
ATOM     95  F   UNL A   1      48.205  27.805  35.810  1.00  0.00    -0.200 F 
ATOM     96  C   UNL A   1      46.693  26.120  36.485  1.00  0.00     0.200 A 
ATOM     97  F   UNL A   1      45.150  24.450  37.121  1.00  0.00    -0.200 F 
ATOM     98  F   UNL A   1      47.574  25.670  37.387  1.00  0.00    -0.200 F 
ENDBRANCH  65  88
ENDBRANCH  39  40
ENDBRANCH  32  34
ENDBRANCH  31  32
ENDBRANCH  30  31
ENDBRANCH  29  30
ENDBRANCH  28  29
ENDBRANCH  27  28
ENDBRANCH  26  27
ENDBRANCH   1  26
TORSDOF 23
ENDMDL
