MODEL 1
REMARK VINA RESULT:     -10.2      0.000      0.000
REMARK SMILES COc1cccc([C@H]2Oc3ccccc3[C@@H]3CC(c4cccs4)=NN23)c1OCC(=O)OCCOCCOCCOC(=O)c1ccc(-c2c3nc(c(-c4c(F)c(F)c(F)c(F)c4F)c4ccc([nH]4)c(-c4c(F)c(F)c(F)c(F)c4F)c4nc(c(-c5c(F)c(F)c(F)c(F)c5F)c5ccc2[nH]5)C=C4)C=C3)cc1
REMARK SMILES IDX 35 1 34 2 33 3 32 4 31 5 29 6 30 7 28 8 27 9 26 10 3 11 4 12
REMARK SMILES IDX 5 13 7 14 6 15 2 16 1 17 8 18 9 19 25 20 10 21 16 22 24 23
REMARK SMILES IDX 11 24 15 25 17 26 18 27 12 28 14 29 13 30 19 31 20 32 23 33
REMARK SMILES IDX 21 34 22 35 36 36 37 37 38 38 39 39 40 40 41 41 42 42 43 43
REMARK SMILES IDX 44 44 105 45 45 46 104 47 46 48 47 49 48 50 98 51 49 52
REMARK SMILES IDX 103 53 97 54 99 55 50 56 102 57 96 58 95 59 51 61 83 62
REMARK SMILES IDX 63 63 82 64 64 65 67 66 81 67 100 68 65 69 66 70 80 72
REMARK SMILES IDX 101 73 68 74 52 75 53 76 61 77 54 78 55 79 59 80 62 81 56 82
REMARK SMILES IDX 57 83 60 84 58 85 84 86 85 87 93 88 86 89 87 90 91 91 94 92
REMARK SMILES IDX 88 93 89 94 92 95 90 96 69 97 70 98 78 99 71 100 72 101
REMARK SMILES IDX 76 102 79 103 73 104 74 105 77 106 75 107
REMARK H PARENT 99 60 67 71
REMARK Flexibility Score: inf
ROOT
ATOM      1  C   UNL A   1      38.235  30.853  36.423  1.00  0.00     0.188 C 
ENDROOT
BRANCH   1   2
ATOM      2  O   UNL A   1      38.763  31.051  35.113  1.00  0.00    -0.376 OA
BRANCH   2   3
ATOM      3  C   UNL A   1      37.835  31.454  34.106  1.00  0.00     0.202 C 
BRANCH   3   4
ATOM      4  C   UNL A   1      37.972  32.919  33.698  1.00  0.00     0.261 C 
BRANCH   4   5
ATOM      5  O   UNL A   1      37.091  33.746  34.485  1.00  0.00    -0.461 OA
BRANCH   5   6
ATOM      6  C   UNL A   1      35.803  33.846  34.054  1.00  0.00     0.344 C 
ATOM      7  O   UNL A   1      34.829  33.460  34.690  1.00  0.00    -0.248 OA
BRANCH   6   8
ATOM      8  C   UNL A   1      35.725  34.386  32.625  1.00  0.00     0.352 C 
BRANCH   8   9
ATOM      9  O   UNL A   1      34.933  33.684  31.691  1.00  0.00    -0.477 OA
BRANCH   9  10
ATOM     10  C   UNL A   1      34.567  34.220  30.492  1.00  0.00     0.170 A 
ATOM     11  C   UNL A   1      33.679  35.292  30.271  1.00  0.00     0.161 A 
ATOM     12  C   UNL A   1      33.523  35.825  28.981  1.00  0.00     0.050 A 
ATOM     13  C   UNL A   1      34.330  35.411  27.932  1.00  0.00     0.005 A 
ATOM     14  C   UNL A   1      35.215  33.659  29.380  1.00  0.00     0.061 A 
ATOM     15  C   UNL A   1      35.176  34.339  28.135  1.00  0.00     0.014 A 
BRANCH  11  16
ATOM     16  O   UNL A   1      32.846  35.705  31.277  1.00  0.00    -0.493 OA
ATOM     17  C   UNL A   1      33.230  36.891  31.962  1.00  0.00     0.278 C 
ENDBRANCH  11  16
BRANCH  14  18
ATOM     18  C   UNL A   1      35.799  32.255  29.282  1.00  0.00     0.324 C 
ATOM     19  O   UNL A   1      36.599  31.977  30.460  1.00  0.00    -0.464 OA
ATOM     20  N   UNL A   1      35.032  31.064  28.890  1.00  0.00    -0.246 NA
ATOM     21  C   UNL A   1      37.639  31.170  30.049  1.00  0.00     0.128 A 
ATOM     22  C   UNL A   1      35.959  29.910  28.743  1.00  0.00     0.146 C 
ATOM     23  N   UNL A   1      34.036  31.056  27.956  1.00  0.00    -0.177 NA
ATOM     24  C   UNL A   1      38.905  31.441  30.543  1.00  0.00     0.047 A 
ATOM     25  C   UNL A   1      37.410  30.239  29.021  1.00  0.00     0.019 A 
ATOM     26  C   UNL A   1      35.589  29.376  27.370  1.00  0.00     0.091 C 
ATOM     27  C   UNL A   1      34.232  29.994  27.237  1.00  0.00     0.080 C 
ATOM     28  C   UNL A   1      40.000  30.891  29.887  1.00  0.00     0.004 A 
ATOM     29  C   UNL A   1      38.516  29.718  28.352  1.00  0.00     0.010 A 
ATOM     30  C   UNL A   1      39.807  30.075  28.768  1.00  0.00     0.001 A 
BRANCH  27  31
ATOM     31  C   UNL A   1      33.222  29.395  26.414  1.00  0.00     0.050 A 
ATOM     32  C   UNL A   1      32.245  30.067  25.707  1.00  0.00     0.022 A 
ATOM     33  S   UNL A   1      33.113  27.709  26.217  1.00  0.00    -0.142 S 
ATOM     34  C   UNL A   1      31.385  29.181  25.002  1.00  0.00     0.012 A 
ATOM     35  C   UNL A   1      31.740  27.863  25.197  1.00  0.00     0.065 A 
ENDBRANCH  27  31
ENDBRANCH  14  18
ENDBRANCH   9  10
ENDBRANCH   8   9
ENDBRANCH   6   8
ENDBRANCH   5   6
ENDBRANCH   4   5
ENDBRANCH   3   4
ENDBRANCH   2   3
ENDBRANCH   1   2
BRANCH   1  36
ATOM     36  C   UNL A   1      38.032  32.114  37.276  1.00  0.00     0.188 C 
BRANCH  36  37
ATOM     37  O   UNL A   1      38.146  31.948  38.687  1.00  0.00    -0.376 OA
BRANCH  37  38
ATOM     38  C   UNL A   1      38.386  33.122  39.457  1.00  0.00     0.202 C 
BRANCH  38  39
ATOM     39  C   UNL A   1      38.483  34.382  38.606  1.00  0.00     0.261 C 
BRANCH  39  40
ATOM     40  O   UNL A   1      39.523  35.230  39.124  1.00  0.00    -0.460 OA
BRANCH  40  41
ATOM     41  C   UNL A   1      39.776  36.310  38.356  1.00  0.00     0.338 C 
ATOM     42  O   UNL A   1      39.448  37.464  38.562  1.00  0.00    -0.246 OA
BRANCH  41  43
ATOM     43  C   UNL A   1      40.507  35.896  37.151  1.00  0.00     0.060 A 
ATOM     44  C   UNL A   1      39.826  35.669  35.952  1.00  0.00     0.016 A 
ATOM     45  C   UNL A   1      41.853  35.565  37.276  1.00  0.00     0.016 A 
ATOM     46  C   UNL A   1      40.469  35.000  34.906  1.00  0.00     0.010 A 
ATOM     47  C   UNL A   1      42.510  34.954  36.208  1.00  0.00     0.010 A 
ATOM     48  C   UNL A   1      41.808  34.610  35.038  1.00  0.00    -0.014 A 
BRANCH  48  49
ATOM     49  C   UNL A   1      42.470  33.715  34.053  1.00  0.00     0.031 A 
ATOM     50  C   UNL A   1      42.868  34.285  32.717  1.00  0.00     0.074 A 
ATOM     51  C   UNL A   1      42.695  32.413  34.306  1.00  0.00     0.049 A 
ATOM     52  N   UNL A   1      43.135  33.672  31.594  1.00  0.00    -0.248 NA
ATOM     53  C   UNL A   1      42.962  35.752  32.642  1.00  0.00     0.031 C 
ATOM     54  C   UNL A   1      42.464  31.740  35.581  1.00  0.00     0.029 A 
ATOM     55  N   UNL A   1      43.149  31.416  33.476  1.00  0.00    -0.354 N 
ATOM     56  C   UNL A   1      43.365  34.677  30.663  1.00  0.00     0.074 A 
ATOM     57  C   UNL A   1      43.222  35.940  31.357  1.00  0.00     0.031 C 
ATOM     58  C   UNL A   1      42.763  30.437  35.448  1.00  0.00     0.029 A 
ATOM     59  C   UNL A   1      43.125  30.172  34.057  1.00  0.00     0.049 A 
ATOM     60  H   UNL A   1      43.460  31.578  32.556  1.00  0.00     0.167 HD
ATOM     61  C   UNL A   1      43.650  34.554  29.345  1.00  0.00     0.037 A 
ATOM     62  C   UNL A   1      43.306  28.952  33.513  1.00  0.00     0.037 A 
ATOM     63  C   UNL A   1      43.832  33.294  28.673  1.00  0.00     0.049 A 
ATOM     64  C   UNL A   1      43.569  28.829  32.035  1.00  0.00     0.074 A 
ATOM     65  C   UNL A   1      44.091  33.057  27.335  1.00  0.00     0.029 A 
ATOM     66  N   UNL A   1      43.797  32.060  29.301  1.00  0.00    -0.354 N 
ATOM     67  N   UNL A   1      43.675  29.772  31.130  1.00  0.00    -0.248 NA
ATOM     68  C   UNL A   1      43.714  27.468  31.498  1.00  0.00     0.031 C 
ATOM     69  C   UNL A   1      44.191  31.673  27.148  1.00  0.00     0.029 A 
ATOM     70  C   UNL A   1      44.031  31.055  28.377  1.00  0.00     0.049 A 
ATOM     71  H   UNL A   1      43.631  31.917  30.261  1.00  0.00     0.167 HD
ATOM     72  C   UNL A   1      43.915  29.122  29.926  1.00  0.00     0.074 A 
ATOM     73  C   UNL A   1      43.951  27.704  30.216  1.00  0.00     0.031 C 
ATOM     74  C   UNL A   1      44.085  29.651  28.690  1.00  0.00     0.037 A 
BRANCH  61  75
ATOM     75  C   UNL A   1      43.736  35.810  28.533  1.00  0.00     0.064 A 
ATOM     76  C   UNL A   1      44.959  36.449  28.284  1.00  0.00     0.173 A 
ATOM     77  C   UNL A   1      42.576  36.365  27.973  1.00  0.00     0.173 A 
ATOM     78  F   UNL A   1      46.093  35.968  28.814  1.00  0.00    -0.203 F 
ATOM     79  C   UNL A   1      45.013  37.611  27.517  1.00  0.00     0.198 A 
ATOM     80  C   UNL A   1      42.638  37.511  27.186  1.00  0.00     0.198 A 
ATOM     81  F   UNL A   1      41.382  35.789  28.181  1.00  0.00    -0.203 F 
ATOM     82  F   UNL A   1      46.187  38.228  27.322  1.00  0.00    -0.200 F 
ATOM     83  C   UNL A   1      43.855  38.136  26.962  1.00  0.00     0.200 A 
ATOM     84  F   UNL A   1      41.518  38.013  26.645  1.00  0.00    -0.200 F 
ATOM     85  F   UNL A   1      43.911  39.250  26.220  1.00  0.00    -0.200 F 
ENDBRANCH  61  75
BRANCH  62  86
ATOM     86  C   UNL A   1      43.176  27.739  34.361  1.00  0.00     0.064 A 
ATOM     87  C   UNL A   1      44.292  27.187  35.004  1.00  0.00     0.173 A 
ATOM     88  C   UNL A   1      41.939  27.101  34.534  1.00  0.00     0.173 A 
ATOM     89  F   UNL A   1      45.500  27.743  34.843  1.00  0.00    -0.203 F 
ATOM     90  C   UNL A   1      44.175  26.036  35.782  1.00  0.00     0.198 A 
ATOM     91  C   UNL A   1      41.819  25.968  35.335  1.00  0.00     0.198 A 
ATOM     92  F   UNL A   1      40.843  27.587  33.934  1.00  0.00    -0.203 F 
ATOM     93  F   UNL A   1      45.264  25.503  36.352  1.00  0.00    -0.200 F 
ATOM     94  C   UNL A   1      42.938  25.432  35.952  1.00  0.00     0.200 A 
ATOM     95  F   UNL A   1      40.619  25.394  35.504  1.00  0.00    -0.200 F 
ATOM     96  F   UNL A   1      42.826  24.328  36.703  1.00  0.00    -0.200 F 
ENDBRANCH  62  86
BRANCH  74  97
ATOM     97  C   UNL A   1      44.374  28.703  27.566  1.00  0.00     0.064 A 
ATOM     98  C   UNL A   1      45.676  28.261  27.295  1.00  0.00     0.173 A 
ATOM     99  C   UNL A   1      43.326  28.187  26.789  1.00  0.00     0.173 A 
ATOM    100  F   UNL A   1      46.711  28.737  28.002  1.00  0.00    -0.203 F 
ATOM    101  C   UNL A   1      45.921  27.347  26.273  1.00  0.00     0.198 A 
ATOM    102  C   UNL A   1      43.571  27.258  25.783  1.00  0.00     0.198 A 
ATOM    103  F   UNL A   1      42.062  28.576  27.017  1.00  0.00    -0.203 F 
ATOM    104  F   UNL A   1      47.176  26.961  26.009  1.00  0.00    -0.200 F 
ATOM    105  C   UNL A   1      44.868  26.841  25.524  1.00  0.00     0.200 A 
ATOM    106  F   UNL A   1      42.553  26.762  25.066  1.00  0.00    -0.200 F 
ATOM    107  F   UNL A   1      45.105  25.954  24.547  1.00  0.00    -0.200 F 
ENDBRANCH  74  97
ENDBRANCH  48  49
ENDBRANCH  41  43
ENDBRANCH  40  41
ENDBRANCH  39  40
ENDBRANCH  38  39
ENDBRANCH  37  38
ENDBRANCH  36  37
ENDBRANCH   1  36
TORSDOF 22
ENDMDL
MODEL 2
REMARK VINA RESULT:      -9.7      5.253     10.348
REMARK SMILES COc1cccc([C@H]2Oc3ccccc3[C@@H]3CC(c4cccs4)=NN23)c1OCC(=O)OCCOCCOCCOC(=O)c1ccc(-c2c3nc(c(-c4c(F)c(F)c(F)c(F)c4F)c4ccc([nH]4)c(-c4c(F)c(F)c(F)c(F)c4F)c4nc(c(-c5c(F)c(F)c(F)c(F)c5F)c5ccc2[nH]5)C=C4)C=C3)cc1
REMARK SMILES IDX 35 1 34 2 33 3 32 4 31 5 29 6 30 7 28 8 27 9 26 10 3 11 4 12
REMARK SMILES IDX 5 13 7 14 6 15 2 16 1 17 8 18 9 19 25 20 10 21 16 22 24 23
REMARK SMILES IDX 11 24 15 25 17 26 18 27 12 28 14 29 13 30 19 31 20 32 23 33
REMARK SMILES IDX 21 34 22 35 36 36 37 37 38 38 39 39 40 40 41 41 42 42 43 43
REMARK SMILES IDX 44 44 105 45 45 46 104 47 46 48 47 49 48 50 98 51 49 52
REMARK SMILES IDX 103 53 97 54 99 55 50 56 102 57 96 58 95 59 51 61 83 62
REMARK SMILES IDX 63 63 82 64 64 65 67 66 81 67 100 68 65 69 66 70 80 72
REMARK SMILES IDX 101 73 68 74 52 75 53 76 61 77 54 78 55 79 59 80 62 81 56 82
REMARK SMILES IDX 57 83 60 84 58 85 84 86 85 87 93 88 86 89 87 90 91 91 94 92
REMARK SMILES IDX 88 93 89 94 92 95 90 96 69 97 70 98 78 99 71 100 72 101
REMARK SMILES IDX 76 102 79 103 73 104 74 105 77 106 75 107
REMARK H PARENT 99 60 67 71
REMARK Flexibility Score: inf
ROOT
ATOM      1  C   UNL A   1      35.949  20.883  25.178  1.00  0.00     0.188 C 
ENDROOT
BRANCH   1   2
ATOM      2  O   UNL A   1      35.490  21.821  24.208  1.00  0.00    -0.376 OA
BRANCH   2   3
ATOM      3  C   UNL A   1      34.878  23.009  24.710  1.00  0.00     0.202 C 
BRANCH   3   4
ATOM      4  C   UNL A   1      34.601  24.058  23.635  1.00  0.00     0.261 C 
BRANCH   4   5
ATOM      5  O   UNL A   1      34.280  25.327  24.241  1.00  0.00    -0.461 OA
BRANCH   5   6
ATOM      6  C   UNL A   1      33.865  26.316  23.400  1.00  0.00     0.344 C 
ATOM      7  O   UNL A   1      33.489  26.131  22.248  1.00  0.00    -0.248 OA
BRANCH   6   8
ATOM      8  C   UNL A   1      34.042  27.701  24.025  1.00  0.00     0.352 C 
BRANCH   8   9
ATOM      9  O   UNL A   1      34.278  27.778  25.414  1.00  0.00    -0.477 OA
BRANCH   9  10
ATOM     10  C   UNL A   1      33.848  28.827  26.172  1.00  0.00     0.170 A 
ATOM     11  C   UNL A   1      34.584  29.536  27.143  1.00  0.00     0.161 A 
ATOM     12  C   UNL A   1      34.045  30.692  27.731  1.00  0.00     0.050 A 
ATOM     13  C   UNL A   1      32.852  31.238  27.279  1.00  0.00     0.005 A 
ATOM     14  C   UNL A   1      32.545  29.262  25.882  1.00  0.00     0.061 A 
ATOM     15  C   UNL A   1      32.113  30.529  26.354  1.00  0.00     0.014 A 
BRANCH  11  16
ATOM     16  O   UNL A   1      35.749  29.010  27.634  1.00  0.00    -0.493 OA
ATOM     17  C   UNL A   1      36.927  29.777  27.412  1.00  0.00     0.278 C 
ENDBRANCH  11  16
BRANCH  14  18
ATOM     18  C   UNL A   1      31.422  28.426  25.282  1.00  0.00     0.324 C 
ATOM     19  O   UNL A   1      31.060  27.364  26.200  1.00  0.00    -0.464 OA
ATOM     20  N   UNL A   1      30.220  28.987  24.647  1.00  0.00    -0.246 NA
ATOM     21  C   UNL A   1      30.693  26.282  25.428  1.00  0.00     0.128 A 
ATOM     22  C   UNL A   1      29.431  27.887  24.032  1.00  0.00     0.146 C 
ATOM     23  N   UNL A   1      30.201  30.127  23.896  1.00  0.00    -0.177 NA
ATOM     24  C   UNL A   1      31.145  25.028  25.809  1.00  0.00     0.047 A 
ATOM     25  C   UNL A   1      30.042  26.512  24.203  1.00  0.00     0.019 A 
ATOM     26  C   UNL A   1      29.204  28.406  22.622  1.00  0.00     0.091 C 
ATOM     27  C   UNL A   1      29.458  29.861  22.866  1.00  0.00     0.080 C 
ATOM     28  C   UNL A   1      31.096  23.999  24.878  1.00  0.00     0.004 A 
ATOM     29  C   UNL A   1      30.027  25.480  23.267  1.00  0.00     0.010 A 
ATOM     30  C   UNL A   1      30.585  24.238  23.597  1.00  0.00     0.001 A 
BRANCH  27  31
ATOM     31  C   UNL A   1      28.857  30.867  22.040  1.00  0.00     0.050 A 
ATOM     32  C   UNL A   1      28.285  30.667  20.799  1.00  0.00     0.022 A 
ATOM     33  S   UNL A   1      28.788  32.497  22.523  1.00  0.00    -0.142 S 
ATOM     34  C   UNL A   1      27.794  31.874  20.231  1.00  0.00     0.012 A 
ATOM     35  C   UNL A   1      28.008  32.953  21.063  1.00  0.00     0.065 A 
ENDBRANCH  27  31
ENDBRANCH  14  18
ENDBRANCH   9  10
ENDBRANCH   8   9
ENDBRANCH   6   8
ENDBRANCH   5   6
ENDBRANCH   4   5
ENDBRANCH   3   4
ENDBRANCH   2   3
ENDBRANCH   1   2
BRANCH   1  36
ATOM     36  C   UNL A   1      37.336  20.270  24.932  1.00  0.00     0.188 C 
BRANCH  36  37
ATOM     37  O   UNL A   1      38.426  20.874  25.623  1.00  0.00    -0.376 OA
BRANCH  37  38
ATOM     38  C   UNL A   1      38.238  22.210  26.080  1.00  0.00     0.202 C 
BRANCH  38  39
ATOM     39  C   UNL A   1      39.530  22.866  26.551  1.00  0.00     0.261 C 
BRANCH  39  40
ATOM     40  O   UNL A   1      39.239  24.174  27.075  1.00  0.00    -0.460 OA
BRANCH  40  41
ATOM     41  C   UNL A   1      40.308  24.996  27.107  1.00  0.00     0.338 C 
ATOM     42  O   UNL A   1      41.357  24.880  26.501  1.00  0.00    -0.246 OA
BRANCH  41  43
ATOM     43  C   UNL A   1      40.052  26.098  28.046  1.00  0.00     0.060 A 
ATOM     44  C   UNL A   1      40.927  27.184  28.118  1.00  0.00     0.016 A 
ATOM     45  C   UNL A   1      39.027  25.948  28.976  1.00  0.00     0.016 A 
ATOM     46  C   UNL A   1      40.846  28.068  29.198  1.00  0.00     0.010 A 
ATOM     47  C   UNL A   1      38.910  26.867  30.019  1.00  0.00     0.010 A 
ATOM     48  C   UNL A   1      39.856  27.898  30.174  1.00  0.00    -0.014 A 
BRANCH  48  49
ATOM     49  C   UNL A   1      39.858  28.671  31.445  1.00  0.00     0.031 A 
ATOM     50  C   UNL A   1      38.845  29.771  31.618  1.00  0.00     0.074 A 
ATOM     51  C   UNL A   1      40.751  28.437  32.423  1.00  0.00     0.049 A 
ATOM     52  N   UNL A   1      38.847  30.784  32.445  1.00  0.00    -0.248 NA
ATOM     53  C   UNL A   1      37.678  29.725  30.722  1.00  0.00     0.031 C 
ATOM     54  C   UNL A   1      41.720  27.346  32.450  1.00  0.00     0.029 A 
ATOM     55  N   UNL A   1      40.997  29.136  33.581  1.00  0.00    -0.354 N 
ATOM     56  C   UNL A   1      37.719  31.530  32.125  1.00  0.00     0.074 A 
ATOM     57  C   UNL A   1      37.048  30.845  31.041  1.00  0.00     0.031 C 
ATOM     58  C   UNL A   1      42.468  27.454  33.560  1.00  0.00     0.029 A 
ATOM     59  C   UNL A   1      42.084  28.669  34.277  1.00  0.00     0.049 A 
ATOM     60  H   UNL A   1      40.448  29.896  33.881  1.00  0.00     0.167 HD
ATOM     61  C   UNL A   1      37.296  32.692  32.677  1.00  0.00     0.037 A 
ATOM     62  C   UNL A   1      42.739  29.198  35.329  1.00  0.00     0.037 A 
ATOM     63  C   UNL A   1      37.945  33.345  33.783  1.00  0.00     0.049 A 
ATOM     64  C   UNL A   1      42.288  30.519  35.897  1.00  0.00     0.074 A 
ATOM     65  C   UNL A   1      37.619  34.542  34.396  1.00  0.00     0.029 A 
ATOM     66  N   UNL A   1      39.046  32.837  34.455  1.00  0.00    -0.354 N 
ATOM     67  N   UNL A   1      41.290  31.284  35.526  1.00  0.00    -0.248 NA
ATOM     68  C   UNL A   1      43.072  31.062  37.017  1.00  0.00     0.031 C 
ATOM     69  C   UNL A   1      38.536  34.769  35.429  1.00  0.00     0.029 A 
ATOM     70  C   UNL A   1      39.410  33.695  35.479  1.00  0.00     0.049 A 
ATOM     71  H   UNL A   1      39.500  31.991  34.238  1.00  0.00     0.167 HD
ATOM     72  C   UNL A   1      41.315  32.384  36.373  1.00  0.00     0.074 A 
ATOM     73  C   UNL A   1      42.421  32.184  37.287  1.00  0.00     0.031 C 
ATOM     74  C   UNL A   1      40.499  33.466  36.391  1.00  0.00     0.037 A 
BRANCH  61  75
ATOM     75  C   UNL A   1      36.101  33.357  32.064  1.00  0.00     0.064 A 
ATOM     76  C   UNL A   1      34.907  33.538  32.776  1.00  0.00     0.173 A 
ATOM     77  C   UNL A   1      36.165  33.844  30.751  1.00  0.00     0.173 A 
ATOM     78  F   UNL A   1      34.790  33.072  34.029  1.00  0.00    -0.203 F 
ATOM     79  C   UNL A   1      33.814  34.169  32.187  1.00  0.00     0.198 A 
ATOM     80  C   UNL A   1      35.079  34.497  30.174  1.00  0.00     0.198 A 
ATOM     81  F   UNL A   1      37.287  33.697  30.029  1.00  0.00    -0.203 F 
ATOM     82  F   UNL A   1      32.669  34.298  32.872  1.00  0.00    -0.200 F 
ATOM     83  C   UNL A   1      33.903  34.654  30.890  1.00  0.00     0.200 A 
ATOM     84  F   UNL A   1      35.171  34.972  28.923  1.00  0.00    -0.200 F 
ATOM     85  F   UNL A   1      32.852  35.265  30.328  1.00  0.00    -0.200 F 
ENDBRANCH  61  75
BRANCH  62  86
ATOM     86  C   UNL A   1      43.938  28.512  35.874  1.00  0.00     0.064 A 
ATOM     87  C   UNL A   1      43.814  27.499  36.836  1.00  0.00     0.173 A 
ATOM     88  C   UNL A   1      45.230  28.861  35.457  1.00  0.00     0.173 A 
ATOM     89  F   UNL A   1      42.601  27.153  37.289  1.00  0.00    -0.203 F 
ATOM     90  C   UNL A   1      44.938  26.870  37.365  1.00  0.00     0.198 A 
ATOM     91  C   UNL A   1      46.352  28.211  35.964  1.00  0.00     0.198 A 
ATOM     92  F   UNL A   1      45.403  29.828  34.544  1.00  0.00    -0.203 F 
ATOM     93  F   UNL A   1      44.795  25.935  38.314  1.00  0.00    -0.200 F 
ATOM     94  C   UNL A   1      46.206  27.221  36.924  1.00  0.00     0.200 A 
ATOM     95  F   UNL A   1      47.574  28.547  35.527  1.00  0.00    -0.200 F 
ATOM     96  F   UNL A   1      47.287  26.611  37.429  1.00  0.00    -0.200 F 
ENDBRANCH  62  86
BRANCH  74  97
ATOM     97  C   UNL A   1      40.737  34.493  37.457  1.00  0.00     0.064 A 
ATOM     98  C   UNL A   1      40.118  34.404  38.712  1.00  0.00     0.173 A 
ATOM     99  C   UNL A   1      41.637  35.546  37.236  1.00  0.00     0.173 A 
ATOM    100  F   UNL A   1      39.239  33.423  38.963  1.00  0.00    -0.203 F 
ATOM    101  C   UNL A   1      40.383  35.344  39.705  1.00  0.00     0.198 A 
ATOM    102  C   UNL A   1      41.915  36.470  38.238  1.00  0.00     0.198 A 
ATOM    103  F   UNL A   1      42.258  35.667  36.053  1.00  0.00    -0.203 F 
ATOM    104  F   UNL A   1      39.759  35.260  40.887  1.00  0.00    -0.200 F 
ATOM    105  C   UNL A   1      41.286  36.371  39.469  1.00  0.00     0.200 A 
ATOM    106  F   UNL A   1      42.795  37.457  38.013  1.00  0.00    -0.200 F 
ATOM    107  F   UNL A   1      41.546  37.269  40.430  1.00  0.00    -0.200 F 
ENDBRANCH  74  97
ENDBRANCH  48  49
ENDBRANCH  41  43
ENDBRANCH  40  41
ENDBRANCH  39  40
ENDBRANCH  38  39
ENDBRANCH  37  38
ENDBRANCH  36  37
ENDBRANCH   1  36
TORSDOF 22
ENDMDL
MODEL 3
REMARK VINA RESULT:      -9.1      4.143     10.430
REMARK SMILES COc1cccc([C@H]2Oc3ccccc3[C@@H]3CC(c4cccs4)=NN23)c1OCC(=O)OCCOCCOCCOC(=O)c1ccc(-c2c3nc(c(-c4c(F)c(F)c(F)c(F)c4F)c4ccc([nH]4)c(-c4c(F)c(F)c(F)c(F)c4F)c4nc(c(-c5c(F)c(F)c(F)c(F)c5F)c5ccc2[nH]5)C=C4)C=C3)cc1
REMARK SMILES IDX 35 1 34 2 33 3 32 4 31 5 29 6 30 7 28 8 27 9 26 10 3 11 4 12
REMARK SMILES IDX 5 13 7 14 6 15 2 16 1 17 8 18 9 19 25 20 10 21 16 22 24 23
REMARK SMILES IDX 11 24 15 25 17 26 18 27 12 28 14 29 13 30 19 31 20 32 23 33
REMARK SMILES IDX 21 34 22 35 36 36 37 37 38 38 39 39 40 40 41 41 42 42 43 43
REMARK SMILES IDX 44 44 105 45 45 46 104 47 46 48 47 49 48 50 98 51 49 52
REMARK SMILES IDX 103 53 97 54 99 55 50 56 102 57 96 58 95 59 51 61 83 62
REMARK SMILES IDX 63 63 82 64 64 65 67 66 81 67 100 68 65 69 66 70 80 72
REMARK SMILES IDX 101 73 68 74 52 75 53 76 61 77 54 78 55 79 59 80 62 81 56 82
REMARK SMILES IDX 57 83 60 84 58 85 84 86 85 87 93 88 86 89 87 90 91 91 94 92
REMARK SMILES IDX 88 93 89 94 92 95 90 96 69 97 70 98 78 99 71 100 72 101
REMARK SMILES IDX 76 102 79 103 73 104 74 105 77 106 75 107
REMARK H PARENT 99 60 67 71
REMARK Flexibility Score: inf
ROOT
ATOM      1  C   UNL A   1      37.162  34.283  29.352  1.00  0.00     0.188 C 
ENDROOT
BRANCH   1   2
ATOM      2  O   UNL A   1      38.195  33.678  30.127  1.00  0.00    -0.376 OA
BRANCH   2   3
ATOM      3  C   UNL A   1      39.064  34.563  30.833  1.00  0.00     0.202 C 
BRANCH   3   4
ATOM      4  C   UNL A   1      40.127  33.846  31.662  1.00  0.00     0.261 C 
BRANCH   4   5
ATOM      5  O   UNL A   1      41.395  33.859  30.975  1.00  0.00    -0.461 OA
BRANCH   5   6
ATOM      6  C   UNL A   1      42.349  34.694  31.474  1.00  0.00     0.344 C 
ATOM      7  O   UNL A   1      42.532  34.900  32.669  1.00  0.00    -0.248 OA
BRANCH   6   8
ATOM      8  C   UNL A   1      43.086  35.441  30.361  1.00  0.00     0.352 C 
BRANCH   8   9
ATOM      9  O   UNL A   1      42.572  35.354  29.049  1.00  0.00    -0.477 OA
BRANCH   9  10
ATOM     10  C   UNL A   1      43.286  34.817  28.018  1.00  0.00     0.170 A 
ATOM     11  C   UNL A   1      43.610  33.460  27.820  1.00  0.00     0.161 A 
ATOM     12  C   UNL A   1      44.224  33.048  26.626  1.00  0.00     0.050 A 
ATOM     13  C   UNL A   1      44.398  33.929  25.568  1.00  0.00     0.005 A 
ATOM     14  C   UNL A   1      43.670  35.740  27.031  1.00  0.00     0.061 A 
ATOM     15  C   UNL A   1      44.114  35.264  25.770  1.00  0.00     0.014 A 
BRANCH  11  16
ATOM     16  O   UNL A   1      43.481  32.571  28.853  1.00  0.00    -0.493 OA
ATOM     17  C   UNL A   1      44.094  31.300  28.669  1.00  0.00     0.278 C 
ENDBRANCH  11  16
BRANCH  14  18
ATOM     18  C   UNL A   1      43.878  37.237  27.220  1.00  0.00     0.324 C 
ATOM     19  O   UNL A   1      42.633  37.853  27.636  1.00  0.00    -0.464 OA
ATOM     20  N   UNL A   1      45.011  37.831  27.943  1.00  0.00    -0.246 NA
ATOM     21  C   UNL A   1      42.612  39.115  27.081  1.00  0.00     0.128 A 
ATOM     22  C   UNL A   1      44.976  39.309  27.782  1.00  0.00     0.146 C 
ATOM     23  N   UNL A   1      46.284  37.335  27.931  1.00  0.00    -0.177 NA
ATOM     24  C   UNL A   1      41.425  39.559  26.521  1.00  0.00     0.047 A 
ATOM     25  C   UNL A   1      43.824  39.815  26.941  1.00  0.00     0.019 A 
ATOM     26  C   UNL A   1      46.392  39.615  27.326  1.00  0.00     0.091 C 
ATOM     27  C   UNL A   1      47.065  38.363  27.795  1.00  0.00     0.080 C 
ATOM     28  C   UNL A   1      41.469  40.647  25.657  1.00  0.00     0.004 A 
ATOM     29  C   UNL A   1      43.861  40.885  26.049  1.00  0.00     0.010 A 
ATOM     30  C   UNL A   1      42.689  41.274  25.385  1.00  0.00     0.001 A 
BRANCH  27  31
ATOM     31  C   UNL A   1      48.460  38.348  28.122  1.00  0.00     0.050 A 
ATOM     32  C   UNL A   1      49.003  38.501  29.383  1.00  0.00     0.022 A 
ATOM     33  S   UNL A   1      49.655  38.134  26.930  1.00  0.00    -0.142 S 
ATOM     34  C   UNL A   1      50.424  38.455  29.366  1.00  0.00     0.012 A 
ATOM     35  C   UNL A   1      50.913  38.266  28.091  1.00  0.00     0.065 A 
ENDBRANCH  27  31
ENDBRANCH  14  18
ENDBRANCH   9  10
ENDBRANCH   8   9
ENDBRANCH   6   8
ENDBRANCH   5   6
ENDBRANCH   4   5
ENDBRANCH   3   4
ENDBRANCH   2   3
ENDBRANCH   1   2
BRANCH   1  36
ATOM     36  C   UNL A   1      36.135  33.332  28.720  1.00  0.00     0.188 C 
BRANCH  36  37
ATOM     37  O   UNL A   1      35.124  33.937  27.918  1.00  0.00    -0.376 OA
BRANCH  37  38
ATOM     38  C   UNL A   1      33.799  33.934  28.441  1.00  0.00     0.202 C 
BRANCH  38  39
ATOM     39  C   UNL A   1      33.424  35.245  29.120  1.00  0.00     0.261 C 
BRANCH  39  40
ATOM     40  O   UNL A   1      32.524  34.980  30.211  1.00  0.00    -0.460 OA
BRANCH  40  41
ATOM     41  C   UNL A   1      32.737  35.757  31.292  1.00  0.00     0.338 C 
ATOM     42  O   UNL A   1      32.236  36.837  31.546  1.00  0.00    -0.246 OA
BRANCH  41  43
ATOM     43  C   UNL A   1      33.736  35.122  32.164  1.00  0.00     0.060 A 
ATOM     44  C   UNL A   1      34.989  35.711  32.351  1.00  0.00     0.016 A 
ATOM     45  C   UNL A   1      33.472  33.845  32.650  1.00  0.00     0.016 A 
ATOM     46  C   UNL A   1      36.023  34.969  32.930  1.00  0.00     0.010 A 
ATOM     47  C   UNL A   1      34.488  33.130  33.283  1.00  0.00     0.010 A 
ATOM     48  C   UNL A   1      35.789  33.661  33.373  1.00  0.00    -0.014 A 
BRANCH  48  49
ATOM     49  C   UNL A   1      36.894  32.760  33.795  1.00  0.00     0.031 A 
ATOM     50  C   UNL A   1      37.523  32.977  35.145  1.00  0.00     0.074 A 
ATOM     51  C   UNL A   1      37.364  31.782  32.999  1.00  0.00     0.049 A 
ATOM     52  N   UNL A   1      38.681  32.577  35.600  1.00  0.00    -0.248 NA
ATOM     53  C   UNL A   1      36.738  33.770  36.106  1.00  0.00     0.031 C 
ATOM     54  C   UNL A   1      36.796  31.381  31.716  1.00  0.00     0.029 A 
ATOM     55  N   UNL A   1      38.458  30.965  33.155  1.00  0.00    -0.354 N 
ATOM     56  C   UNL A   1      38.793  33.122  36.874  1.00  0.00     0.074 A 
ATOM     57  C   UNL A   1      37.578  33.868  37.125  1.00  0.00     0.031 C 
ATOM     58  C   UNL A   1      37.552  30.402  31.191  1.00  0.00     0.029 A 
ATOM     59  C   UNL A   1      38.702  30.170  32.063  1.00  0.00     0.049 A 
ATOM     60  H   UNL A   1      39.010  30.951  33.970  1.00  0.00     0.167 HD
ATOM     61  C   UNL A   1      39.826  33.023  37.744  1.00  0.00     0.037 A 
ATOM     62  C   UNL A   1      39.765  29.397  31.767  1.00  0.00     0.037 A 
ATOM     63  C   UNL A   1      41.012  32.244  37.503  1.00  0.00     0.049 A 
ATOM     64  C   UNL A   1      40.930  29.339  32.721  1.00  0.00     0.074 A 
ATOM     65  C   UNL A   1      42.132  32.103  38.303  1.00  0.00     0.029 A 
ATOM     66  N   UNL A   1      41.218  31.457  36.381  1.00  0.00    -0.354 N 
ATOM     67  N   UNL A   1      41.088  29.942  33.874  1.00  0.00    -0.248 NA
ATOM     68  C   UNL A   1      42.077  28.511  32.318  1.00  0.00     0.031 C 
ATOM     69  C   UNL A   1      43.027  31.244  37.654  1.00  0.00     0.029 A 
ATOM     70  C   UNL A   1      42.446  30.824  36.468  1.00  0.00     0.049 A 
ATOM     71  H   UNL A   1      40.584  31.361  35.634  1.00  0.00     0.167 HD
ATOM     72  C   UNL A   1      42.337  29.554  34.341  1.00  0.00     0.074 A 
ATOM     73  C   UNL A   1      42.893  28.655  33.352  1.00  0.00     0.031 C 
ATOM     74  C   UNL A   1      42.971  29.915  35.484  1.00  0.00     0.037 A 
BRANCH  61  75
ATOM     75  C   UNL A   1      39.740  33.810  39.015  1.00  0.00     0.064 A 
ATOM     76  C   UNL A   1      40.278  35.100  39.126  1.00  0.00     0.173 A 
ATOM     77  C   UNL A   1      39.084  33.272  40.132  1.00  0.00     0.173 A 
ATOM     78  F   UNL A   1      40.932  35.650  38.092  1.00  0.00    -0.203 F 
ATOM     79  C   UNL A   1      40.177  35.816  40.317  1.00  0.00     0.198 A 
ATOM     80  C   UNL A   1      38.962  34.000  41.312  1.00  0.00     0.198 A 
ATOM     81  F   UNL A   1      38.551  32.041  40.076  1.00  0.00    -0.203 F 
ATOM     82  F   UNL A   1      40.731  37.032  40.414  1.00  0.00    -0.200 F 
ATOM     83  C   UNL A   1      39.513  35.269  41.406  1.00  0.00     0.200 A 
ATOM     84  F   UNL A   1      38.314  33.472  42.360  1.00  0.00    -0.200 F 
ATOM     85  F   UNL A   1      39.412  35.962  42.548  1.00  0.00    -0.200 F 
ENDBRANCH  61  75
BRANCH  62  86
ATOM     86  C   UNL A   1      39.810  28.664  30.475  1.00  0.00     0.064 A 
ATOM     87  C   UNL A   1      39.260  27.381  30.355  1.00  0.00     0.173 A 
ATOM     88  C   UNL A   1      40.414  29.225  29.341  1.00  0.00     0.173 A 
ATOM     89  F   UNL A   1      38.700  26.791  31.420  1.00  0.00    -0.203 F 
ATOM     90  C   UNL A   1      39.320  26.684  29.151  1.00  0.00     0.198 A 
ATOM     91  C   UNL A   1      40.448  28.539  28.129  1.00  0.00     0.198 A 
ATOM     92  F   UNL A   1      40.961  30.448  29.406  1.00  0.00    -0.203 F 
ATOM     93  F   UNL A   1      38.825  25.441  29.073  1.00  0.00    -0.200 F 
ATOM     94  C   UNL A   1      39.908  27.266  28.037  1.00  0.00     0.200 A 
ATOM     95  F   UNL A   1      41.008  29.111  27.054  1.00  0.00    -0.200 F 
ATOM     96  F   UNL A   1      39.962  26.596  26.877  1.00  0.00    -0.200 F 
ENDBRANCH  62  86
BRANCH  74  97
ATOM     97  C   UNL A   1      44.312  29.302  35.754  1.00  0.00     0.064 A 
ATOM     98  C   UNL A   1      44.437  28.085  36.439  1.00  0.00     0.173 A 
ATOM     99  C   UNL A   1      45.479  29.912  35.271  1.00  0.00     0.173 A 
ATOM    100  F   UNL A   1      43.351  27.472  36.931  1.00  0.00    -0.203 F 
ATOM    101  C   UNL A   1      45.689  27.509  36.643  1.00  0.00     0.198 A 
ATOM    102  C   UNL A   1      46.724  29.323  35.459  1.00  0.00     0.198 A 
ATOM    103  F   UNL A   1      45.406  31.075  34.603  1.00  0.00    -0.203 F 
ATOM    104  F   UNL A   1      45.791  26.362  37.328  1.00  0.00    -0.200 F 
ATOM    105  C   UNL A   1      46.829  28.124  36.147  1.00  0.00     0.200 A 
ATOM    106  F   UNL A   1      47.825  29.913  34.971  1.00  0.00    -0.200 F 
ATOM    107  F   UNL A   1      48.031  27.563  36.338  1.00  0.00    -0.200 F 
ENDBRANCH  74  97
ENDBRANCH  48  49
ENDBRANCH  41  43
ENDBRANCH  40  41
ENDBRANCH  39  40
ENDBRANCH  38  39
ENDBRANCH  37  38
ENDBRANCH  36  37
ENDBRANCH   1  36
TORSDOF 22
ENDMDL
