MODEL 1
REMARK VINA RESULT:     -11.2      0.000      0.000
REMARK SMILES COc1cc(Cl)c2c(c1)C=C(C(=O)OCCOCCOCCOC(=O)c1ccc(-c3c4nc(c(-c5c(F)c(F)c(F)c(F)c5F)c5ccc([nH]5)c(-c5c(F)c(F)c(F)c(F)c5F)c5nc(c(-c6c(F)c(F)c(F)c(F)c6F)c6ccc3[nH]6)C=C5)C=C4)cc1)[C@@H](C(F)(F)F)O2
REMARK SMILES IDX 19 1 18 2 17 3 16 4 15 5 14 6 12 7 13 8 11 9 3 10 4 11 9 12
REMARK SMILES IDX 5 13 8 14 6 15 7 16 10 17 94 18 89 19 2 20 1 21 90 22 91 23
REMARK SMILES IDX 92 24 93 25 20 26 21 27 22 28 23 29 24 30 25 31 26 32 27 33
REMARK SMILES IDX 88 34 28 35 87 36 29 37 30 38 31 39 81 40 32 41 86 42 80 43
REMARK SMILES IDX 82 44 33 45 85 46 79 47 78 48 34 50 66 51 46 52 65 53 47 54
REMARK SMILES IDX 50 55 64 56 83 57 48 58 49 59 63 61 84 62 51 63 35 64 36 65
REMARK SMILES IDX 44 66 37 67 38 68 42 69 45 70 39 71 40 72 43 73 41 74 67 75
REMARK SMILES IDX 68 76 76 77 69 78 70 79 74 80 77 81 71 82 72 83 75 84 73 85
REMARK SMILES IDX 52 86 53 87 61 88 54 89 55 90 59 91 62 92 56 93 57 94 60 95
REMARK SMILES IDX 58 96
REMARK H PARENT 82 49 50 60
REMARK Flexibility Score: inf
ROOT
ATOM      1  C   UNL A   1      31.819  29.440  26.257  1.00  0.00     0.188 C 
ENDROOT
BRANCH   1   2
ATOM      2  C   UNL A   1      31.480  28.785  24.899  1.00  0.00     0.188 C 
BRANCH   2   3
ATOM      3  O   UNL A   1      32.281  29.085  23.782  1.00  0.00    -0.376 OA
BRANCH   3   4
ATOM      4  C   UNL A   1      32.390  28.190  22.690  1.00  0.00     0.202 C 
BRANCH   4   5
ATOM      5  C   UNL A   1      31.428  27.026  22.393  1.00  0.00     0.261 C 
BRANCH   5   6
ATOM      6  O   UNL A   1      31.950  25.700  22.512  1.00  0.00    -0.460 OA
BRANCH   6   7
ATOM      7  C   UNL A   1      31.515  25.001  23.590  1.00  0.00     0.338 C 
ATOM      8  O   UNL A   1      30.482  25.184  24.211  1.00  0.00    -0.246 OA
BRANCH   7   9
ATOM      9  C   UNL A   1      32.411  23.849  23.824  1.00  0.00     0.087 C 
ATOM     10  C   UNL A   1      32.883  19.170  24.819  1.00  0.00     0.121 A 
ATOM     11  C   UNL A   1      34.245  19.345  25.051  1.00  0.00     0.070 A 
ATOM     12  C   UNL A   1      32.106  20.235  24.362  1.00  0.00     0.058 A 
ATOM     13  C   UNL A   1      34.824  20.598  24.840  1.00  0.00     0.087 A 
ATOM     14  C   UNL A   1      32.677  21.502  24.197  1.00  0.00     0.022 A 
ATOM     15  Cl  UNL A   1      36.515  20.777  25.149  1.00  0.00    -0.080 Cl
ATOM     16  C   UNL A   1      34.046  21.684  24.413  1.00  0.00     0.146 A 
ATOM     17  C   UNL A   1      31.836  22.641  23.868  1.00  0.00     0.027 C 
ATOM     18  O   UNL A   1      34.673  22.883  24.215  1.00  0.00    -0.474 OA
ATOM     19  C   UNL A   1      33.886  24.083  23.998  1.00  0.00     0.316 C 
BRANCH  10  20
ATOM     20  O   UNL A   1      32.252  17.967  24.968  1.00  0.00    -0.497 OA
ATOM     21  C   UNL A   1      33.103  16.965  25.526  1.00  0.00     0.278 C 
ENDBRANCH  10  20
BRANCH  19  22
ATOM     22  C   UNL A   1      34.185  25.076  25.127  1.00  0.00     0.430 C 
ATOM     23  F   UNL A   1      34.121  26.357  24.692  1.00  0.00    -0.167 F 
ATOM     24  F   UNL A   1      33.293  24.964  26.140  1.00  0.00    -0.167 F 
ATOM     25  F   UNL A   1      35.417  24.883  25.651  1.00  0.00    -0.167 F 
ENDBRANCH  19  22
ENDBRANCH   7   9
ENDBRANCH   6   7
ENDBRANCH   5   6
ENDBRANCH   4   5
ENDBRANCH   3   4
ENDBRANCH   2   3
ENDBRANCH   1   2
BRANCH   1  26
ATOM     26  O   UNL A   1      32.395  30.727  26.301  1.00  0.00    -0.376 OA
BRANCH  26  27
ATOM     27  C   UNL A   1      31.603  31.818  26.748  1.00  0.00     0.202 C 
BRANCH  27  28
ATOM     28  C   UNL A   1      32.169  33.242  26.909  1.00  0.00     0.261 C 
BRANCH  28  29
ATOM     29  O   UNL A   1      32.439  33.671  28.252  1.00  0.00    -0.460 OA
BRANCH  29  30
ATOM     30  C   UNL A   1      33.534  34.462  28.412  1.00  0.00     0.338 C 
ATOM     31  O   UNL A   1      33.585  35.675  28.400  1.00  0.00    -0.246 OA
BRANCH  30  32
ATOM     32  C   UNL A   1      34.678  33.609  28.794  1.00  0.00     0.060 A 
ATOM     33  C   UNL A   1      34.435  32.380  29.426  1.00  0.00     0.016 A 
ATOM     34  C   UNL A   1      35.982  34.035  28.548  1.00  0.00     0.016 A 
ATOM     35  C   UNL A   1      35.499  31.556  29.786  1.00  0.00     0.010 A 
ATOM     36  C   UNL A   1      37.049  33.231  28.955  1.00  0.00     0.010 A 
ATOM     37  C   UNL A   1      36.813  31.997  29.588  1.00  0.00    -0.014 A 
BRANCH  37  38
ATOM     38  C   UNL A   1      37.924  31.273  30.246  1.00  0.00     0.031 A 
ATOM     39  C   UNL A   1      38.204  31.579  31.690  1.00  0.00     0.074 A 
ATOM     40  C   UNL A   1      38.651  30.350  29.593  1.00  0.00     0.049 A 
ATOM     41  N   UNL A   1      39.124  31.091  32.480  1.00  0.00    -0.248 NA
ATOM     42  C   UNL A   1      37.322  32.570  32.329  1.00  0.00     0.031 C 
ATOM     43  C   UNL A   1      38.443  29.933  28.209  1.00  0.00     0.029 A 
ATOM     44  N   UNL A   1      39.719  29.598  30.016  1.00  0.00    -0.354 N 
ATOM     45  C   UNL A   1      38.922  31.703  33.708  1.00  0.00     0.074 A 
ATOM     46  C   UNL A   1      37.823  32.630  33.552  1.00  0.00     0.031 C 
ATOM     47  C   UNL A   1      39.364  29.004  27.893  1.00  0.00     0.029 A 
ATOM     48  C   UNL A   1      40.241  28.782  29.044  1.00  0.00     0.049 A 
ATOM     49  H   UNL A   1      40.078  29.640  30.933  1.00  0.00     0.167 HD
ATOM     50  C   UNL A   1      39.585  31.499  34.868  1.00  0.00     0.037 A 
ATOM     51  C   UNL A   1      41.311  27.962  29.079  1.00  0.00     0.037 A 
ATOM     52  C   UNL A   1      40.690  30.593  35.017  1.00  0.00     0.049 A 
ATOM     53  C   UNL A   1      42.108  27.837  30.356  1.00  0.00     0.074 A 
ATOM     54  C   UNL A   1      41.424  30.314  36.156  1.00  0.00     0.029 A 
ATOM     55  N   UNL A   1      41.228  29.829  33.993  1.00  0.00    -0.354 N 
ATOM     56  N   UNL A   1      41.890  28.388  31.526  1.00  0.00    -0.248 NA
ATOM     57  C   UNL A   1      43.303  26.980  30.317  1.00  0.00     0.031 C 
ATOM     58  C   UNL A   1      42.446  29.427  35.806  1.00  0.00     0.029 A 
ATOM     59  C   UNL A   1      42.310  29.105  34.465  1.00  0.00     0.049 A 
ATOM     60  H   UNL A   1      40.891  29.805  33.069  1.00  0.00     0.167 HD
ATOM     61  C   UNL A   1      42.896  27.926  32.364  1.00  0.00     0.074 A 
ATOM     62  C   UNL A   1      43.722  27.038  31.574  1.00  0.00     0.031 C 
ATOM     63  C   UNL A   1      43.118  28.216  33.670  1.00  0.00     0.037 A 
BRANCH  50  64
ATOM     64  C   UNL A   1      39.143  32.279  36.070  1.00  0.00     0.064 A 
ATOM     65  C   UNL A   1      38.250  31.735  37.006  1.00  0.00     0.173 A 
ATOM     66  C   UNL A   1      39.660  33.557  36.321  1.00  0.00     0.173 A 
ATOM     67  F   UNL A   1      37.714  30.521  36.802  1.00  0.00    -0.203 F 
ATOM     68  C   UNL A   1      37.882  32.448  38.142  1.00  0.00     0.198 A 
ATOM     69  C   UNL A   1      39.314  34.256  37.474  1.00  0.00     0.198 A 
ATOM     70  F   UNL A   1      40.518  34.122  35.457  1.00  0.00    -0.203 F 
ATOM     71  F   UNL A   1      37.000  31.924  39.005  1.00  0.00    -0.200 F 
ATOM     72  C   UNL A   1      38.422  33.704  38.381  1.00  0.00     0.200 A 
ATOM     73  F   UNL A   1      39.848  35.462  37.711  1.00  0.00    -0.200 F 
ATOM     74  F   UNL A   1      38.083  34.382  39.486  1.00  0.00    -0.200 F 
ENDBRANCH  50  64
BRANCH  51  75
ATOM     75  C   UNL A   1      41.692  27.186  27.870  1.00  0.00     0.064 A 
ATOM     76  C   UNL A   1      41.144  25.919  27.624  1.00  0.00     0.173 A 
ATOM     77  C   UNL A   1      42.614  27.687  26.938  1.00  0.00     0.173 A 
ATOM     78  F   UNL A   1      40.282  25.381  28.499  1.00  0.00    -0.203 F 
ATOM     79  C   UNL A   1      41.508  25.181  26.498  1.00  0.00     0.198 A 
ATOM     80  C   UNL A   1      42.956  26.961  25.798  1.00  0.00     0.198 A 
ATOM     81  F   UNL A   1      43.176  28.890  27.128  1.00  0.00    -0.203 F 
ATOM     82  F   UNL A   1      40.999  23.956  26.310  1.00  0.00    -0.200 F 
ATOM     83  C   UNL A   1      42.406  25.706  25.582  1.00  0.00     0.200 A 
ATOM     84  F   UNL A   1      43.817  27.476  24.910  1.00  0.00    -0.200 F 
ATOM     85  F   UNL A   1      42.749  25.000  24.495  1.00  0.00    -0.200 F 
ENDBRANCH  51  75
BRANCH  63  86
ATOM     86  C   UNL A   1      44.289  27.567  34.354  1.00  0.00     0.064 A 
ATOM     87  C   UNL A   1      44.203  26.268  34.873  1.00  0.00     0.173 A 
ATOM     88  C   UNL A   1      45.541  28.204  34.378  1.00  0.00     0.173 A 
ATOM     89  F   UNL A   1      43.028  25.620  34.883  1.00  0.00    -0.203 F 
ATOM     90  C   UNL A   1      45.327  25.628  35.392  1.00  0.00     0.198 A 
ATOM     91  C   UNL A   1      46.668  27.549  34.868  1.00  0.00     0.198 A 
ATOM     92  F   UNL A   1      45.679  29.442  33.883  1.00  0.00    -0.203 F 
ATOM     93  F   UNL A   1      45.217  24.395  35.901  1.00  0.00    -0.200 F 
ATOM     94  C   UNL A   1      46.560  26.264  35.375  1.00  0.00     0.200 A 
ATOM     95  F   UNL A   1      47.863  28.156  34.830  1.00  0.00    -0.200 F 
ATOM     96  F   UNL A   1      47.646  25.634  35.844  1.00  0.00    -0.200 F 
ENDBRANCH  63  86
ENDBRANCH  37  38
ENDBRANCH  30  32
ENDBRANCH  29  30
ENDBRANCH  28  29
ENDBRANCH  27  28
ENDBRANCH  26  27
ENDBRANCH   1  26
TORSDOF 19
ENDMDL
MODEL 2
REMARK VINA RESULT:     -10.9      4.426      8.607
REMARK SMILES COc1cc(Cl)c2c(c1)C=C(C(=O)OCCOCCOCCOC(=O)c1ccc(-c3c4nc(c(-c5c(F)c(F)c(F)c(F)c5F)c5ccc([nH]5)c(-c5c(F)c(F)c(F)c(F)c5F)c5nc(c(-c6c(F)c(F)c(F)c(F)c6F)c6ccc3[nH]6)C=C5)C=C4)cc1)[C@@H](C(F)(F)F)O2
REMARK SMILES IDX 19 1 18 2 17 3 16 4 15 5 14 6 12 7 13 8 11 9 3 10 4 11 9 12
REMARK SMILES IDX 5 13 8 14 6 15 7 16 10 17 94 18 89 19 2 20 1 21 90 22 91 23
REMARK SMILES IDX 92 24 93 25 20 26 21 27 22 28 23 29 24 30 25 31 26 32 27 33
REMARK SMILES IDX 88 34 28 35 87 36 29 37 30 38 31 39 81 40 32 41 86 42 80 43
REMARK SMILES IDX 82 44 33 45 85 46 79 47 78 48 34 50 66 51 46 52 65 53 47 54
REMARK SMILES IDX 50 55 64 56 83 57 48 58 49 59 63 61 84 62 51 63 35 64 36 65
REMARK SMILES IDX 44 66 37 67 38 68 42 69 45 70 39 71 40 72 43 73 41 74 67 75
REMARK SMILES IDX 68 76 76 77 69 78 70 79 74 80 77 81 71 82 72 83 75 84 73 85
REMARK SMILES IDX 52 86 53 87 61 88 54 89 55 90 59 91 62 92 56 93 57 94 60 95
REMARK SMILES IDX 58 96
REMARK H PARENT 82 49 50 60
REMARK Flexibility Score: inf
ROOT
ATOM      1  C   UNL A   1      35.533  33.642  28.472  1.00  0.00     0.188 C 
ENDROOT
BRANCH   1   2
ATOM      2  C   UNL A   1      34.236  32.891  28.098  1.00  0.00     0.188 C 
BRANCH   2   3
ATOM      3  O   UNL A   1      34.059  31.574  28.559  1.00  0.00    -0.376 OA
BRANCH   3   4
ATOM      4  C   UNL A   1      34.757  30.487  27.976  1.00  0.00     0.202 C 
BRANCH   4   5
ATOM      5  C   UNL A   1      34.491  29.907  26.576  1.00  0.00     0.261 C 
BRANCH   5   6
ATOM      6  O   UNL A   1      34.222  28.506  26.489  1.00  0.00    -0.460 OA
BRANCH   6   7
ATOM      7  C   UNL A   1      33.006  28.179  25.985  1.00  0.00     0.338 C 
ATOM      8  O   UNL A   1      32.010  28.882  25.967  1.00  0.00    -0.246 OA
BRANCH   7   9
ATOM      9  C   UNL A   1      33.092  26.875  25.296  1.00  0.00     0.087 C 
ATOM     10  C   UNL A   1      34.779  22.373  25.256  1.00  0.00     0.121 A 
ATOM     11  C   UNL A   1      34.388  22.226  23.927  1.00  0.00     0.070 A 
ATOM     12  C   UNL A   1      34.465  23.539  25.955  1.00  0.00     0.058 A 
ATOM     13  C   UNL A   1      33.696  23.262  23.294  1.00  0.00     0.087 A 
ATOM     14  C   UNL A   1      33.814  24.595  25.307  1.00  0.00     0.022 A 
ATOM     15  Cl  UNL A   1      33.238  23.045  21.642  1.00  0.00    -0.080 Cl
ATOM     16  C   UNL A   1      33.406  24.451  23.978  1.00  0.00     0.146 A 
ATOM     17  C   UNL A   1      33.626  25.863  25.992  1.00  0.00     0.027 C 
ATOM     18  O   UNL A   1      32.717  25.424  23.307  1.00  0.00    -0.474 OA
ATOM     19  C   UNL A   1      32.591  26.749  23.884  1.00  0.00     0.316 C 
BRANCH  10  20
ATOM     20  O   UNL A   1      35.427  21.393  25.952  1.00  0.00    -0.497 OA
ATOM     21  C   UNL A   1      36.236  20.566  25.116  1.00  0.00     0.278 C 
ENDBRANCH  10  20
BRANCH  19  22
ATOM     22  C   UNL A   1      33.258  27.759  22.942  1.00  0.00     0.430 C 
ATOM     23  F   UNL A   1      34.469  28.147  23.406  1.00  0.00    -0.167 F 
ATOM     24  F   UNL A   1      33.464  27.234  21.710  1.00  0.00    -0.167 F 
ATOM     25  F   UNL A   1      32.504  28.871  22.785  1.00  0.00    -0.167 F 
ENDBRANCH  19  22
ENDBRANCH   7   9
ENDBRANCH   6   7
ENDBRANCH   5   6
ENDBRANCH   4   5
ENDBRANCH   3   4
ENDBRANCH   2   3
ENDBRANCH   1   2
BRANCH   1  26
ATOM     26  O   UNL A   1      35.631  34.321  29.705  1.00  0.00    -0.376 OA
BRANCH  26  27
ATOM     27  C   UNL A   1      34.531  34.276  30.602  1.00  0.00     0.202 C 
BRANCH  27  28
ATOM     28  C   UNL A   1      34.604  33.569  31.969  1.00  0.00     0.261 C 
BRANCH  28  29
ATOM     29  O   UNL A   1      35.159  32.244  31.971  1.00  0.00    -0.460 OA
BRANCH  29  30
ATOM     30  C   UNL A   1      36.221  32.049  32.797  1.00  0.00     0.338 C 
ATOM     31  O   UNL A   1      36.272  32.216  33.999  1.00  0.00    -0.246 OA
BRANCH  30  32
ATOM     32  C   UNL A   1      37.306  31.410  32.024  1.00  0.00     0.060 A 
ATOM     33  C   UNL A   1      38.451  30.958  32.697  1.00  0.00     0.016 A 
ATOM     34  C   UNL A   1      37.199  31.283  30.640  1.00  0.00     0.016 A 
ATOM     35  C   UNL A   1      39.482  30.344  31.989  1.00  0.00     0.010 A 
ATOM     36  C   UNL A   1      38.256  30.714  29.925  1.00  0.00     0.010 A 
ATOM     37  C   UNL A   1      39.406  30.256  30.593  1.00  0.00    -0.014 A 
BRANCH  37  38
ATOM     38  C   UNL A   1      40.619  29.896  29.826  1.00  0.00     0.031 A 
ATOM     39  C   UNL A   1      40.700  28.512  29.247  1.00  0.00     0.074 A 
ATOM     40  C   UNL A   1      41.614  30.777  29.624  1.00  0.00     0.049 A 
ATOM     41  N   UNL A   1      41.657  27.956  28.551  1.00  0.00    -0.248 NA
ATOM     42  C   UNL A   1      39.539  27.638  29.484  1.00  0.00     0.031 C 
ATOM     43  C   UNL A   1      41.629  32.159  30.093  1.00  0.00     0.029 A 
ATOM     44  N   UNL A   1      42.812  30.629  28.968  1.00  0.00    -0.354 N 
ATOM     45  C   UNL A   1      41.207  26.677  28.257  1.00  0.00     0.074 A 
ATOM     46  C   UNL A   1      39.914  26.520  28.883  1.00  0.00     0.031 C 
ATOM     47  C   UNL A   1      42.787  32.732  29.717  1.00  0.00     0.029 A 
ATOM     48  C   UNL A   1      43.604  31.749  29.005  1.00  0.00     0.049 A 
ATOM     49  H   UNL A   1      43.078  29.797  28.514  1.00  0.00     0.167 HD
ATOM     50  C   UNL A   1      41.815  25.723  27.517  1.00  0.00     0.037 A 
ATOM     51  C   UNL A   1      44.850  31.949  28.530  1.00  0.00     0.037 A 
ATOM     52  C   UNL A   1      43.110  25.872  26.912  1.00  0.00     0.049 A 
ATOM     53  C   UNL A   1      45.556  30.827  27.805  1.00  0.00     0.074 A 
ATOM     54  C   UNL A   1      43.806  24.962  26.138  1.00  0.00     0.029 A 
ATOM     55  N   UNL A   1      43.907  27.001  27.024  1.00  0.00    -0.354 N 
ATOM     56  N   UNL A   1      45.112  29.633  27.494  1.00  0.00    -0.248 NA
ATOM     57  C   UNL A   1      46.937  31.079  27.367  1.00  0.00     0.031 C 
ATOM     58  C   UNL A   1      45.052  25.516  25.833  1.00  0.00     0.029 A 
ATOM     59  C   UNL A   1      45.107  26.795  26.363  1.00  0.00     0.049 A 
ATOM     60  H   UNL A   1      43.658  27.825  27.501  1.00  0.00     0.167 HD
ATOM     61  C   UNL A   1      46.142  29.005  26.805  1.00  0.00     0.074 A 
ATOM     62  C   UNL A   1      47.232  29.954  26.730  1.00  0.00     0.031 C 
ATOM     63  C   UNL A   1      46.181  27.753  26.286  1.00  0.00     0.037 A 
BRANCH  50  64
ATOM     64  C   UNL A   1      41.091  24.423  27.327  1.00  0.00     0.064 A 
ATOM     65  C   UNL A   1      39.975  24.325  26.483  1.00  0.00     0.173 A 
ATOM     66  C   UNL A   1      41.552  23.253  27.948  1.00  0.00     0.173 A 
ATOM     67  F   UNL A   1      39.486  25.419  25.879  1.00  0.00    -0.203 F 
ATOM     68  C   UNL A   1      39.339  23.105  26.277  1.00  0.00     0.198 A 
ATOM     69  C   UNL A   1      40.933  22.029  27.715  1.00  0.00     0.198 A 
ATOM     70  F   UNL A   1      42.616  23.294  28.764  1.00  0.00    -0.203 F 
ATOM     71  F   UNL A   1      38.253  23.040  25.495  1.00  0.00    -0.200 F 
ATOM     72  C   UNL A   1      39.825  21.955  26.884  1.00  0.00     0.200 A 
ATOM     73  F   UNL A   1      41.412  20.917  28.291  1.00  0.00    -0.200 F 
ATOM     74  F   UNL A   1      39.224  20.777  26.670  1.00  0.00    -0.200 F 
ENDBRANCH  50  64
BRANCH  51  75
ATOM     75  C   UNL A   1      45.515  33.266  28.716  1.00  0.00     0.064 A 
ATOM     76  C   UNL A   1      45.377  34.284  27.762  1.00  0.00     0.173 A 
ATOM     77  C   UNL A   1      46.304  33.535  29.845  1.00  0.00     0.173 A 
ATOM     78  F   UNL A   1      44.658  34.067  26.651  1.00  0.00    -0.203 F 
ATOM     79  C   UNL A   1      46.007  35.516  27.925  1.00  0.00     0.198 A 
ATOM     80  C   UNL A   1      46.912  34.778  30.021  1.00  0.00     0.198 A 
ATOM     81  F   UNL A   1      46.478  32.594  30.784  1.00  0.00    -0.203 F 
ATOM     82  F   UNL A   1      45.891  36.456  26.978  1.00  0.00    -0.200 F 
ATOM     83  C   UNL A   1      46.767  35.765  29.058  1.00  0.00     0.200 A 
ATOM     84  F   UNL A   1      47.637  35.017  31.122  1.00  0.00    -0.200 F 
ATOM     85  F   UNL A   1      47.366  36.953  29.219  1.00  0.00    -0.200 F 
ENDBRANCH  51  75
BRANCH  63  86
ATOM     86  C   UNL A   1      47.430  27.318  25.573  1.00  0.00     0.064 A 
ATOM     87  C   UNL A   1      47.611  27.557  24.204  1.00  0.00     0.173 A 
ATOM     88  C   UNL A   1      48.505  26.768  26.292  1.00  0.00     0.173 A 
ATOM     89  F   UNL A   1      46.611  28.071  23.471  1.00  0.00    -0.203 F 
ATOM     90  C   UNL A   1      48.820  27.264  23.579  1.00  0.00     0.198 A 
ATOM     91  C   UNL A   1      49.723  26.506  25.670  1.00  0.00     0.198 A 
ATOM     92  F   UNL A   1      48.388  26.530  27.606  1.00  0.00    -0.203 F 
ATOM     93  F   UNL A   1      48.963  27.483  22.265  1.00  0.00    -0.200 F 
ATOM     94  C   UNL A   1      49.879  26.753  24.315  1.00  0.00     0.200 A 
ATOM     95  F   UNL A   1      50.752  26.034  26.388  1.00  0.00    -0.200 F 
ATOM     96  F   UNL A   1      51.052  26.502  23.719  1.00  0.00    -0.200 F 
ENDBRANCH  63  86
ENDBRANCH  37  38
ENDBRANCH  30  32
ENDBRANCH  29  30
ENDBRANCH  28  29
ENDBRANCH  27  28
ENDBRANCH  26  27
ENDBRANCH   1  26
TORSDOF 19
ENDMDL
MODEL 3
REMARK VINA RESULT:     -10.8      4.599     10.526
REMARK SMILES COc1cc(Cl)c2c(c1)C=C(C(=O)OCCOCCOCCOC(=O)c1ccc(-c3c4nc(c(-c5c(F)c(F)c(F)c(F)c5F)c5ccc([nH]5)c(-c5c(F)c(F)c(F)c(F)c5F)c5nc(c(-c6c(F)c(F)c(F)c(F)c6F)c6ccc3[nH]6)C=C5)C=C4)cc1)[C@@H](C(F)(F)F)O2
REMARK SMILES IDX 19 1 18 2 17 3 16 4 15 5 14 6 12 7 13 8 11 9 3 10 4 11 9 12
REMARK SMILES IDX 5 13 8 14 6 15 7 16 10 17 94 18 89 19 2 20 1 21 90 22 91 23
REMARK SMILES IDX 92 24 93 25 20 26 21 27 22 28 23 29 24 30 25 31 26 32 27 33
REMARK SMILES IDX 88 34 28 35 87 36 29 37 30 38 31 39 81 40 32 41 86 42 80 43
REMARK SMILES IDX 82 44 33 45 85 46 79 47 78 48 34 50 66 51 46 52 65 53 47 54
REMARK SMILES IDX 50 55 64 56 83 57 48 58 49 59 63 61 84 62 51 63 35 64 36 65
REMARK SMILES IDX 44 66 37 67 38 68 42 69 45 70 39 71 40 72 43 73 41 74 67 75
REMARK SMILES IDX 68 76 76 77 69 78 70 79 74 80 77 81 71 82 72 83 75 84 73 85
REMARK SMILES IDX 52 86 53 87 61 88 54 89 55 90 59 91 62 92 56 93 57 94 60 95
REMARK SMILES IDX 58 96
REMARK H PARENT 82 49 50 60
REMARK Flexibility Score: inf
ROOT
ATOM      1  C   UNL A   1      37.216  22.224  24.910  1.00  0.00     0.188 C 
ENDROOT
BRANCH   1   2
ATOM      2  C   UNL A   1      36.006  22.411  23.967  1.00  0.00     0.188 C 
BRANCH   2   3
ATOM      3  O   UNL A   1      34.774  21.835  24.323  1.00  0.00    -0.376 OA
BRANCH   3   4
ATOM      4  C   UNL A   1      33.613  22.029  23.534  1.00  0.00     0.202 C 
BRANCH   4   5
ATOM      5  C   UNL A   1      32.166  21.806  24.009  1.00  0.00     0.261 C 
BRANCH   5   6
ATOM      6  O   UNL A   1      31.306  22.947  24.046  1.00  0.00    -0.460 OA
BRANCH   6   7
ATOM      7  C   UNL A   1      31.083  23.465  25.279  1.00  0.00     0.338 C 
ATOM      8  O   UNL A   1      31.040  22.852  26.332  1.00  0.00    -0.246 OA
BRANCH   7   9
ATOM      9  C   UNL A   1      31.055  24.940  25.196  1.00  0.00     0.087 C 
ATOM     10  C   UNL A   1      29.290  28.885  23.092  1.00  0.00     0.121 A 
ATOM     11  C   UNL A   1      30.256  29.667  23.720  1.00  0.00     0.070 A 
ATOM     12  C   UNL A   1      29.191  27.524  23.380  1.00  0.00     0.058 A 
ATOM     13  C   UNL A   1      31.137  29.075  24.628  1.00  0.00     0.087 A 
ATOM     14  C   UNL A   1      30.105  26.922  24.253  1.00  0.00     0.022 A 
ATOM     15  Cl  UNL A   1      32.329  30.077  25.379  1.00  0.00    -0.080 Cl
ATOM     16  C   UNL A   1      31.069  27.701  24.899  1.00  0.00     0.146 A 
ATOM     17  C   UNL A   1      30.096  25.480  24.433  1.00  0.00     0.027 C 
ATOM     18  O   UNL A   1      31.953  27.182  25.805  1.00  0.00    -0.474 OA
ATOM     19  C   UNL A   1      32.077  25.744  25.951  1.00  0.00     0.316 C 
BRANCH  10  20
ATOM     20  O   UNL A   1      28.371  29.398  22.220  1.00  0.00    -0.497 OA
ATOM     21  C   UNL A   1      28.868  30.523  21.495  1.00  0.00     0.278 C 
ENDBRANCH  10  20
BRANCH  19  22
ATOM     22  C   UNL A   1      33.512  25.337  25.593  1.00  0.00     0.430 C 
ATOM     23  F   UNL A   1      34.401  26.300  25.930  1.00  0.00    -0.167 F 
ATOM     24  F   UNL A   1      33.890  24.212  26.246  1.00  0.00    -0.167 F 
ATOM     25  F   UNL A   1      33.649  25.099  24.268  1.00  0.00    -0.167 F 
ENDBRANCH  19  22
ENDBRANCH   7   9
ENDBRANCH   6   7
ENDBRANCH   5   6
ENDBRANCH   4   5
ENDBRANCH   3   4
ENDBRANCH   2   3
ENDBRANCH   1   2
BRANCH   1  26
ATOM     26  O   UNL A   1      37.765  20.941  25.115  1.00  0.00    -0.376 OA
BRANCH  26  27
ATOM     27  C   UNL A   1      39.036  20.831  25.739  1.00  0.00     0.202 C 
BRANCH  27  28
ATOM     28  C   UNL A   1      39.789  19.492  25.858  1.00  0.00     0.261 C 
BRANCH  28  29
ATOM     29  O   UNL A   1      41.142  19.478  25.377  1.00  0.00    -0.460 OA
BRANCH  29  30
ATOM     30  C   UNL A   1      42.105  19.685  26.314  1.00  0.00     0.338 C 
ATOM     31  O   UNL A   1      42.917  18.887  26.738  1.00  0.00    -0.246 OA
BRANCH  30  32
ATOM     32  C   UNL A   1      42.146  21.126  26.636  1.00  0.00     0.060 A 
ATOM     33  C   UNL A   1      42.211  22.059  25.590  1.00  0.00     0.016 A 
ATOM     34  C   UNL A   1      42.145  21.548  27.964  1.00  0.00     0.016 A 
ATOM     35  C   UNL A   1      42.241  23.423  25.870  1.00  0.00     0.010 A 
ATOM     36  C   UNL A   1      42.227  22.914  28.245  1.00  0.00     0.010 A 
ATOM     37  C   UNL A   1      42.289  23.855  27.201  1.00  0.00    -0.014 A 
BRANCH  37  38
ATOM     38  C   UNL A   1      42.634  25.265  27.490  1.00  0.00     0.031 A 
ATOM     39  C   UNL A   1      44.013  25.739  27.131  1.00  0.00     0.074 A 
ATOM     40  C   UNL A   1      41.744  26.114  28.033  1.00  0.00     0.049 A 
ATOM     41  N   UNL A   1      44.557  26.917  27.293  1.00  0.00    -0.248 NA
ATOM     42  C   UNL A   1      44.899  24.747  26.498  1.00  0.00     0.031 C 
ATOM     43  C   UNL A   1      40.364  25.785  28.379  1.00  0.00     0.029 A 
ATOM     44  N   UNL A   1      41.877  27.433  28.391  1.00  0.00    -0.354 N 
ATOM     45  C   UNL A   1      45.838  26.810  26.772  1.00  0.00     0.074 A 
ATOM     46  C   UNL A   1      46.010  25.446  26.326  1.00  0.00     0.031 C 
ATOM     47  C   UNL A   1      39.779  26.874  28.911  1.00  0.00     0.029 A 
ATOM     48  C   UNL A   1      40.751  27.966  28.965  1.00  0.00     0.049 A 
ATOM     49  H   UNL A   1      42.705  27.948  28.249  1.00  0.00     0.167 HD
ATOM     50  C   UNL A   1      46.783  27.771  26.661  1.00  0.00     0.037 A 
ATOM     51  C   UNL A   1      40.538  29.192  29.486  1.00  0.00     0.037 A 
ATOM     52  C   UNL A   1      46.619  29.122  27.122  1.00  0.00     0.049 A 
ATOM     53  C   UNL A   1      41.649  30.214  29.454  1.00  0.00     0.074 A 
ATOM     54  C   UNL A   1      47.518  30.169  27.049  1.00  0.00     0.029 A 
ATOM     55  N   UNL A   1      45.484  29.607  27.754  1.00  0.00    -0.354 N 
ATOM     56  N   UNL A   1      42.845  30.122  28.925  1.00  0.00    -0.248 NA
ATOM     57  C   UNL A   1      41.383  31.511  30.096  1.00  0.00     0.031 C 
ATOM     58  C   UNL A   1      46.952  31.273  27.691  1.00  0.00     0.029 A 
ATOM     59  C   UNL A   1      45.675  30.932  28.110  1.00  0.00     0.049 A 
ATOM     60  H   UNL A   1      44.665  29.088  27.924  1.00  0.00     0.167 HD
ATOM     61  C   UNL A   1      43.460  31.349  29.143  1.00  0.00     0.074 A 
ATOM     62  C   UNL A   1      42.502  32.177  29.843  1.00  0.00     0.031 C 
ATOM     63  C   UNL A   1      44.709  31.749  28.798  1.00  0.00     0.037 A 
BRANCH  50  64
ATOM     64  C   UNL A   1      48.088  27.394  26.024  1.00  0.00     0.064 A 
ATOM     65  C   UNL A   1      49.168  26.934  26.791  1.00  0.00     0.173 A 
ATOM     66  C   UNL A   1      48.240  27.438  24.631  1.00  0.00     0.173 A 
ATOM     67  F   UNL A   1      49.077  26.889  28.129  1.00  0.00    -0.203 F 
ATOM     68  C   UNL A   1      50.358  26.542  26.186  1.00  0.00     0.198 A 
ATOM     69  C   UNL A   1      49.420  27.016  24.027  1.00  0.00     0.198 A 
ATOM     70  F   UNL A   1      47.236  27.871  23.854  1.00  0.00    -0.203 F 
ATOM     71  F   UNL A   1      51.391  26.139  26.940  1.00  0.00    -0.200 F 
ATOM     72  C   UNL A   1      50.481  26.573  24.805  1.00  0.00     0.200 A 
ATOM     73  F   UNL A   1      49.532  27.033  22.692  1.00  0.00    -0.200 F 
ATOM     74  F   UNL A   1      51.620  26.176  24.222  1.00  0.00    -0.200 F 
ENDBRANCH  50  64
BRANCH  51  75
ATOM     75  C   UNL A   1      39.216  29.528  30.079  1.00  0.00     0.064 A 
ATOM     76  C   UNL A   1      38.930  29.225  31.418  1.00  0.00     0.173 A 
ATOM     77  C   UNL A   1      38.211  30.152  29.325  1.00  0.00     0.173 A 
ATOM     78  F   UNL A   1      39.846  28.601  32.174  1.00  0.00    -0.203 F 
ATOM     79  C   UNL A   1      37.689  29.526  31.977  1.00  0.00     0.198 A 
ATOM     80  C   UNL A   1      36.980  30.477  29.892  1.00  0.00     0.198 A 
ATOM     81  F   UNL A   1      38.428  30.455  28.036  1.00  0.00    -0.203 F 
ATOM     82  F   UNL A   1      37.429  29.188  33.247  1.00  0.00    -0.200 F 
ATOM     83  C   UNL A   1      36.718  30.159  31.216  1.00  0.00     0.200 A 
ATOM     84  F   UNL A   1      36.048  31.098  29.155  1.00  0.00    -0.200 F 
ATOM     85  F   UNL A   1      35.528  30.456  31.756  1.00  0.00    -0.200 F 
ENDBRANCH  51  75
BRANCH  63  86
ATOM     86  C   UNL A   1      45.129  33.148  29.150  1.00  0.00     0.064 A 
ATOM     87  C   UNL A   1      44.834  34.233  28.312  1.00  0.00     0.173 A 
ATOM     88  C   UNL A   1      45.721  33.421  30.394  1.00  0.00     0.173 A 
ATOM     89  F   UNL A   1      44.278  34.024  27.109  1.00  0.00    -0.203 F 
ATOM     90  C   UNL A   1      45.116  35.539  28.705  1.00  0.00     0.198 A 
ATOM     91  C   UNL A   1      45.972  34.730  30.797  1.00  0.00     0.198 A 
ATOM     92  F   UNL A   1      46.012  32.420  31.239  1.00  0.00    -0.203 F 
ATOM     93  F   UNL A   1      44.844  36.558  27.880  1.00  0.00    -0.200 F 
ATOM     94  C   UNL A   1      45.671  35.787  29.953  1.00  0.00     0.200 A 
ATOM     95  F   UNL A   1      46.486  34.969  32.012  1.00  0.00    -0.200 F 
ATOM     96  F   UNL A   1      45.910  37.047  30.342  1.00  0.00    -0.200 F 
ENDBRANCH  63  86
ENDBRANCH  37  38
ENDBRANCH  30  32
ENDBRANCH  29  30
ENDBRANCH  28  29
ENDBRANCH  27  28
ENDBRANCH  26  27
ENDBRANCH   1  26
TORSDOF 19
ENDMDL
