MODEL 1
REMARK VINA RESULT:      -9.6      0.000      0.000
REMARK SMILES C[C@H](NC(=O)OC(C)(C)C)C(=O)N[C@@H](C)C(=O)N1CCC[C@H]1C(=O)OCCOCCOCCOC(=O)c1ccc(-c2c3nc(c(-c4c(F)c(F)c(F)c(F)c4F)c4ccc([nH]4)c(-c4c(F)c(F)c(F)c(F)c4F)c4nc(c(-c5c(F)c(F)c(F)c(F)c5F)c5ccc2[nH]5)C=C4)C=C3)cc1
REMARK SMILES IDX 27 1 26 2 25 3 23 4 24 5 22 6 18 7 19 8 20 9 21 10 16 11
REMARK SMILES IDX 17 12 14 13 15 14 13 15 11 16 12 17 2 19 1 20 3 21 4 22 5 24
REMARK SMILES IDX 6 25 7 26 8 27 9 28 10 29 28 30 29 31 30 32 31 33 32 34
REMARK SMILES IDX 33 35 34 36 35 37 36 38 37 39 38 40 99 41 39 42 98 43 40 44
REMARK SMILES IDX 41 45 42 46 92 47 43 48 97 49 91 50 93 51 44 52 96 53 90 54
REMARK SMILES IDX 89 55 45 57 77 58 57 59 76 60 58 61 61 62 75 63 94 64 59 65
REMARK SMILES IDX 60 66 74 68 95 69 62 70 46 71 47 72 55 73 48 74 49 75 53 76
REMARK SMILES IDX 56 77 50 78 51 79 54 80 52 81 78 82 79 83 87 84 80 85 81 86
REMARK SMILES IDX 85 87 88 88 82 89 83 90 86 91 84 92 63 93 64 94 72 95 65 96
REMARK SMILES IDX 66 97 70 98 73 99 67 100 68 101 71 102 69 103
REMARK H PARENT 13 18 3 23 93 56 61 67
REMARK Flexibility Score: inf
ROOT
ATOM      1  C   UNL A   1      32.886  36.095  29.381  1.00  0.00     0.202 C 
ENDROOT
BRANCH   1   2
ATOM      2  C   UNL A   1      33.852  34.891  29.382  1.00  0.00     0.261 C 
BRANCH   2   3
ATOM      3  O   UNL A   1      33.656  33.874  28.375  1.00  0.00    -0.462 OA
BRANCH   3   4
ATOM      4  C   UNL A   1      34.785  33.254  27.952  1.00  0.00     0.328 C 
ATOM      5  O   UNL A   1      35.663  33.827  27.307  1.00  0.00    -0.250 OA
BRANCH   4   6
ATOM      6  C   UNL A   1      35.012  31.834  28.545  1.00  0.00     0.195 C 
ATOM      7  N   UNL A   1      35.119  30.590  27.760  1.00  0.00    -0.327 N 
ATOM      8  C   UNL A   1      36.506  30.210  27.631  1.00  0.00     0.120 C 
ATOM      9  C   UNL A   1      37.128  30.642  28.940  1.00  0.00     0.024 C 
ATOM     10  C   UNL A   1      36.322  31.861  29.367  1.00  0.00     0.039 C 
BRANCH   7  11
ATOM     11  C   UNL A   1      34.032  29.841  27.367  1.00  0.00     0.245 C 
ATOM     12  O   UNL A   1      33.731  28.794  27.939  1.00  0.00    -0.272 OA
BRANCH  11  13
ATOM     13  C   UNL A   1      33.160  30.282  26.163  1.00  0.00     0.168 C 
ATOM     14  C   UNL A   1      31.660  30.154  26.405  1.00  0.00     0.041 C 
BRANCH  13  15
ATOM     15  N   UNL A   1      33.577  29.708  24.897  1.00  0.00    -0.343 N 
ATOM     16  C   UNL A   1      33.221  28.537  24.303  1.00  0.00     0.243 C 
ATOM     17  O   UNL A   1      33.580  28.391  23.129  1.00  0.00    -0.273 OA
ATOM     18  H   UNL A   1      34.220  30.252  24.387  1.00  0.00     0.164 HD
BRANCH  16  19
ATOM     19  C   UNL A   1      32.371  27.445  24.995  1.00  0.00     0.171 C 
ATOM     20  C   UNL A   1      33.220  26.544  25.883  1.00  0.00     0.042 C 
BRANCH  19  21
ATOM     21  N   UNL A   1      31.404  26.815  24.088  1.00  0.00    -0.310 N 
ATOM     22  C   UNL A   1      30.182  27.217  23.651  1.00  0.00     0.408 C 
ATOM     23  H   UNL A   1      31.693  25.945  23.732  1.00  0.00     0.167 HD
ATOM     24  O   UNL A   1      29.487  26.483  22.956  1.00  0.00    -0.225 OA
BRANCH  22  25
ATOM     25  O   UNL A   1      29.840  28.440  24.081  1.00  0.00    -0.444 OA
BRANCH  25  26
ATOM     26  C   UNL A   1      29.507  29.519  23.178  1.00  0.00     0.106 C 
ATOM     27  C   UNL A   1      29.562  30.883  23.866  1.00  0.00     0.056 C 
ATOM     28  C   UNL A   1      30.359  29.479  21.906  1.00  0.00     0.056 C 
ATOM     29  C   UNL A   1      28.058  29.225  22.796  1.00  0.00     0.056 C 
ENDBRANCH  25  26
ENDBRANCH  22  25
ENDBRANCH  19  21
ENDBRANCH  16  19
ENDBRANCH  13  15
ENDBRANCH  11  13
ENDBRANCH   7  11
ENDBRANCH   4   6
ENDBRANCH   3   4
ENDBRANCH   2   3
ENDBRANCH   1   2
BRANCH   1  30
ATOM     30  O   UNL A   1      32.711  36.852  30.569  1.00  0.00    -0.376 OA
BRANCH  30  31
ATOM     31  C   UNL A   1      32.841  36.229  31.840  1.00  0.00     0.188 C 
BRANCH  31  32
ATOM     32  C   UNL A   1      34.049  36.515  32.745  1.00  0.00     0.188 C 
BRANCH  32  33
ATOM     33  O   UNL A   1      34.985  35.463  32.826  1.00  0.00    -0.376 OA
BRANCH  33  34
ATOM     34  C   UNL A   1      34.925  34.629  33.966  1.00  0.00     0.202 C 
BRANCH  34  35
ATOM     35  C   UNL A   1      35.570  33.241  33.828  1.00  0.00     0.261 C 
BRANCH  35  36
ATOM     36  O   UNL A   1      37.004  33.242  33.971  1.00  0.00    -0.460 OA
BRANCH  36  37
ATOM     37  C   UNL A   1      37.567  32.212  34.635  1.00  0.00     0.338 C 
ATOM     38  O   UNL A   1      37.394  31.893  35.796  1.00  0.00    -0.246 OA
BRANCH  37  39
ATOM     39  C   UNL A   1      38.429  31.448  33.712  1.00  0.00     0.060 A 
ATOM     40  C   UNL A   1      39.309  30.471  34.200  1.00  0.00     0.016 A 
ATOM     41  C   UNL A   1      38.454  31.810  32.366  1.00  0.00     0.016 A 
ATOM     42  C   UNL A   1      40.249  29.885  33.349  1.00  0.00     0.010 A 
ATOM     43  C   UNL A   1      39.401  31.232  31.518  1.00  0.00     0.010 A 
ATOM     44  C   UNL A   1      40.331  30.300  32.014  1.00  0.00    -0.014 A 
BRANCH  44  45
ATOM     45  C   UNL A   1      41.485  29.905  31.167  1.00  0.00     0.031 A 
ATOM     46  C   UNL A   1      41.366  28.673  30.311  1.00  0.00     0.074 A 
ATOM     47  C   UNL A   1      42.626  30.615  31.177  1.00  0.00     0.049 A 
ATOM     48  N   UNL A   1      42.273  28.067  29.588  1.00  0.00    -0.248 NA
ATOM     49  C   UNL A   1      40.042  28.031  30.274  1.00  0.00     0.031 C 
ATOM     50  C   UNL A   1      42.847  31.843  31.936  1.00  0.00     0.029 A 
ATOM     51  N   UNL A   1      43.821  30.387  30.543  1.00  0.00    -0.354 N 
ATOM     52  C   UNL A   1      41.636  26.966  29.027  1.00  0.00     0.074 A 
ATOM     53  C   UNL A   1      40.274  26.970  29.516  1.00  0.00     0.031 C 
ATOM     54  C   UNL A   1      44.112  32.253  31.737  1.00  0.00     0.029 A 
ATOM     55  C   UNL A   1      44.799  31.293  30.876  1.00  0.00     0.049 A 
ATOM     56  H   UNL A   1      43.965  29.647  29.910  1.00  0.00     0.167 HD
ATOM     57  C   UNL A   1      42.143  26.039  28.179  1.00  0.00     0.037 A 
ATOM     58  C   UNL A   1      46.106  31.320  30.549  1.00  0.00     0.037 A 
ATOM     59  C   UNL A   1      43.501  26.042  27.701  1.00  0.00     0.049 A 
ATOM     60  C   UNL A   1      46.664  30.235  29.662  1.00  0.00     0.074 A 
ATOM     61  C   UNL A   1      44.110  25.164  26.821  1.00  0.00     0.029 A 
ATOM     62  N   UNL A   1      44.467  26.967  28.074  1.00  0.00    -0.354 N 
ATOM     63  N   UNL A   1      46.053  29.213  29.114  1.00  0.00    -0.248 NA
ATOM     64  C   UNL A   1      48.097  30.313  29.348  1.00  0.00     0.031 C 
ATOM     65  C   UNL A   1      45.459  25.519  26.712  1.00  0.00     0.029 A 
ATOM     66  C   UNL A   1      45.675  26.661  27.466  1.00  0.00     0.049 A 
ATOM     67  H   UNL A   1      44.316  27.727  28.681  1.00  0.00     0.167 HD
ATOM     68  C   UNL A   1      47.015  28.545  28.366  1.00  0.00     0.074 A 
ATOM     69  C   UNL A   1      48.247  29.291  28.516  1.00  0.00     0.031 C 
ATOM     70  C   UNL A   1      46.893  27.418  27.622  1.00  0.00     0.037 A 
BRANCH  57  71
ATOM     71  C   UNL A   1      41.234  24.925  27.737  1.00  0.00     0.064 A 
ATOM     72  C   UNL A   1      40.217  25.129  26.792  1.00  0.00     0.173 A 
ATOM     73  C   UNL A   1      41.405  23.626  28.242  1.00  0.00     0.173 A 
ATOM     74  F   UNL A   1      40.000  26.351  26.284  1.00  0.00    -0.203 F 
ATOM     75  C   UNL A   1      39.387  24.082  26.393  1.00  0.00     0.198 A 
ATOM     76  C   UNL A   1      40.598  22.576  27.815  1.00  0.00     0.198 A 
ATOM     77  F   UNL A   1      42.365  23.372  29.143  1.00  0.00    -0.203 F 
ATOM     78  F   UNL A   1      38.389  24.313  25.528  1.00  0.00    -0.200 F 
ATOM     79  C   UNL A   1      39.584  22.806  26.898  1.00  0.00     0.200 A 
ATOM     80  F   UNL A   1      40.801  21.340  28.292  1.00  0.00    -0.200 F 
ATOM     81  F   UNL A   1      38.792  21.799  26.505  1.00  0.00    -0.200 F 
ENDBRANCH  57  71
BRANCH  58  82
ATOM     82  C   UNL A   1      46.982  32.403  31.070  1.00  0.00     0.064 A 
ATOM     83  C   UNL A   1      47.637  32.272  32.302  1.00  0.00     0.173 A 
ATOM     84  C   UNL A   1      47.167  33.599  30.360  1.00  0.00     0.173 A 
ATOM     85  F   UNL A   1      47.474  31.158  33.032  1.00  0.00    -0.203 F 
ATOM     86  C   UNL A   1      48.425  33.302  32.813  1.00  0.00     0.198 A 
ATOM     87  C   UNL A   1      47.983  34.614  30.855  1.00  0.00     0.198 A 
ATOM     88  F   UNL A   1      46.562  33.779  29.176  1.00  0.00    -0.203 F 
ATOM     89  F   UNL A   1      48.996  33.169  34.019  1.00  0.00    -0.200 F 
ATOM     90  C   UNL A   1      48.602  34.469  32.086  1.00  0.00     0.200 A 
ATOM     91  F   UNL A   1      48.162  35.735  30.143  1.00  0.00    -0.200 F 
ATOM     92  F   UNL A   1      49.363  35.457  32.577  1.00  0.00    -0.200 F 
ENDBRANCH  58  82
BRANCH  70  93
ATOM     93  C   UNL A   1      48.112  26.945  26.879  1.00  0.00     0.064 A 
ATOM     94  C   UNL A   1      48.394  27.366  25.571  1.00  0.00     0.173 A 
ATOM     95  C   UNL A   1      49.026  26.077  27.499  1.00  0.00     0.173 A 
ATOM     96  F   UNL A   1      47.547  28.185  24.928  1.00  0.00    -0.203 F 
ATOM     97  C   UNL A   1      49.524  26.908  24.899  1.00  0.00     0.198 A 
ATOM     98  C   UNL A   1      50.175  25.654  26.837  1.00  0.00     0.198 A 
ATOM     99  F   UNL A   1      48.812  25.650  28.752  1.00  0.00    -0.203 F 
ATOM    100  F   UNL A   1      49.740  27.276  23.628  1.00  0.00    -0.200 F 
ATOM    101  C   UNL A   1      50.418  26.060  25.535  1.00  0.00     0.200 A 
ATOM    102  F   UNL A   1      51.046  24.847  27.461  1.00  0.00    -0.200 F 
ATOM    103  F   UNL A   1      51.508  25.625  24.888  1.00  0.00    -0.200 F 
ENDBRANCH  70  93
ENDBRANCH  44  45
ENDBRANCH  37  39
ENDBRANCH  36  37
ENDBRANCH  35  36
ENDBRANCH  34  35
ENDBRANCH  33  34
ENDBRANCH  32  33
ENDBRANCH  31  32
ENDBRANCH  30  31
ENDBRANCH   1  30
TORSDOF 24
ENDMDL
MODEL 2
REMARK VINA RESULT:      -9.6      1.630      2.696
REMARK SMILES C[C@H](NC(=O)OC(C)(C)C)C(=O)N[C@@H](C)C(=O)N1CCC[C@H]1C(=O)OCCOCCOCCOC(=O)c1ccc(-c2c3nc(c(-c4c(F)c(F)c(F)c(F)c4F)c4ccc([nH]4)c(-c4c(F)c(F)c(F)c(F)c4F)c4nc(c(-c5c(F)c(F)c(F)c(F)c5F)c5ccc2[nH]5)C=C4)C=C3)cc1
REMARK SMILES IDX 27 1 26 2 25 3 23 4 24 5 22 6 18 7 19 8 20 9 21 10 16 11
REMARK SMILES IDX 17 12 14 13 15 14 13 15 11 16 12 17 2 19 1 20 3 21 4 22 5 24
REMARK SMILES IDX 6 25 7 26 8 27 9 28 10 29 28 30 29 31 30 32 31 33 32 34
REMARK SMILES IDX 33 35 34 36 35 37 36 38 37 39 38 40 99 41 39 42 98 43 40 44
REMARK SMILES IDX 41 45 42 46 92 47 43 48 97 49 91 50 93 51 44 52 96 53 90 54
REMARK SMILES IDX 89 55 45 57 77 58 57 59 76 60 58 61 61 62 75 63 94 64 59 65
REMARK SMILES IDX 60 66 74 68 95 69 62 70 46 71 47 72 55 73 48 74 49 75 53 76
REMARK SMILES IDX 56 77 50 78 51 79 54 80 52 81 78 82 79 83 87 84 80 85 81 86
REMARK SMILES IDX 85 87 88 88 82 89 83 90 86 91 84 92 63 93 64 94 72 95 65 96
REMARK SMILES IDX 66 97 70 98 73 99 67 100 68 101 71 102 69 103
REMARK H PARENT 13 18 3 23 93 56 61 67
REMARK Flexibility Score: inf
ROOT
ATOM      1  C   UNL A   1      32.865  35.992  29.385  1.00  0.00     0.202 C 
ENDROOT
BRANCH   1   2
ATOM      2  C   UNL A   1      33.669  34.676  29.431  1.00  0.00     0.261 C 
BRANCH   2   3
ATOM      3  O   UNL A   1      33.332  33.652  28.469  1.00  0.00    -0.462 OA
BRANCH   3   4
ATOM      4  C   UNL A   1      34.388  32.988  27.938  1.00  0.00     0.328 C 
ATOM      5  O   UNL A   1      35.260  33.540  27.269  1.00  0.00    -0.250 OA
BRANCH   4   6
ATOM      6  C   UNL A   1      34.555  31.524  28.437  1.00  0.00     0.195 C 
ATOM      7  N   UNL A   1      34.655  30.334  27.570  1.00  0.00    -0.327 N 
ATOM      8  C   UNL A   1      36.034  29.923  27.457  1.00  0.00     0.120 C 
ATOM      9  C   UNL A   1      36.623  30.244  28.812  1.00  0.00     0.024 C 
ATOM     10  C   UNL A   1      35.838  31.454  29.299  1.00  0.00     0.039 C 
BRANCH   7  11
ATOM     11  C   UNL A   1      33.560  29.647  27.091  1.00  0.00     0.245 C 
ATOM     12  O   UNL A   1      33.166  28.612  27.627  1.00  0.00    -0.272 OA
BRANCH  11  13
ATOM     13  C   UNL A   1      32.801  30.144  25.834  1.00  0.00     0.168 C 
ATOM     14  C   UNL A   1      31.286  30.005  25.930  1.00  0.00     0.041 C 
BRANCH  13  15
ATOM     15  N   UNL A   1      33.336  29.630  24.586  1.00  0.00    -0.343 N 
ATOM     16  C   UNL A   1      33.280  28.380  24.055  1.00  0.00     0.243 C 
ATOM     17  O   UNL A   1      33.652  28.269  22.881  1.00  0.00    -0.273 OA
ATOM     18  H   UNL A   1      33.815  30.293  24.036  1.00  0.00     0.164 HD
BRANCH  16  19
ATOM     19  C   UNL A   1      32.742  27.144  24.816  1.00  0.00     0.171 C 
ATOM     20  C   UNL A   1      33.870  26.312  25.414  1.00  0.00     0.042 C 
BRANCH  19  21
ATOM     21  N   UNL A   1      31.672  26.449  24.090  1.00  0.00    -0.310 N 
ATOM     22  C   UNL A   1      31.601  25.198  23.568  1.00  0.00     0.408 C 
ATOM     23  H   UNL A   1      30.860  26.988  23.959  1.00  0.00     0.167 HD
ATOM     24  O   UNL A   1      30.631  24.843  22.907  1.00  0.00    -0.225 OA
BRANCH  22  25
ATOM     25  O   UNL A   1      32.685  24.452  23.827  1.00  0.00    -0.444 OA
BRANCH  25  26
ATOM     26  C   UNL A   1      33.065  23.320  23.012  1.00  0.00     0.106 C 
ATOM     27  C   UNL A   1      32.080  22.158  23.145  1.00  0.00     0.056 C 
ATOM     28  C   UNL A   1      33.289  23.722  21.550  1.00  0.00     0.056 C 
ATOM     29  C   UNL A   1      34.406  22.892  23.604  1.00  0.00     0.056 C 
ENDBRANCH  25  26
ENDBRANCH  22  25
ENDBRANCH  19  21
ENDBRANCH  16  19
ENDBRANCH  13  15
ENDBRANCH  11  13
ENDBRANCH   7  11
ENDBRANCH   4   6
ENDBRANCH   3   4
ENDBRANCH   2   3
ENDBRANCH   1   2
BRANCH   1  30
ATOM     30  O   UNL A   1      32.737  36.775  30.563  1.00  0.00    -0.376 OA
BRANCH  30  31
ATOM     31  C   UNL A   1      32.825  36.162  31.842  1.00  0.00     0.188 C 
BRANCH  31  32
ATOM     32  C   UNL A   1      34.026  36.417  32.764  1.00  0.00     0.188 C 
BRANCH  32  33
ATOM     33  O   UNL A   1      34.984  35.383  32.783  1.00  0.00    -0.376 OA
BRANCH  33  34
ATOM     34  C   UNL A   1      34.947  34.486  33.876  1.00  0.00     0.202 C 
BRANCH  34  35
ATOM     35  C   UNL A   1      35.551  33.094  33.635  1.00  0.00     0.261 C 
BRANCH  35  36
ATOM     36  O   UNL A   1      36.992  33.074  33.615  1.00  0.00    -0.460 OA
BRANCH  36  37
ATOM     37  C   UNL A   1      37.610  32.013  34.174  1.00  0.00     0.338 C 
ATOM     38  O   UNL A   1      37.526  31.625  35.324  1.00  0.00    -0.246 OA
BRANCH  37  39
ATOM     39  C   UNL A   1      38.407  31.314  33.146  1.00  0.00     0.060 A 
ATOM     40  C   UNL A   1      39.423  30.421  33.517  1.00  0.00     0.016 A 
ATOM     41  C   UNL A   1      38.225  31.661  31.809  1.00  0.00     0.016 A 
ATOM     42  C   UNL A   1      40.290  29.906  32.550  1.00  0.00     0.010 A 
ATOM     43  C   UNL A   1      39.100  31.156  30.845  1.00  0.00     0.010 A 
ATOM     44  C   UNL A   1      40.163  30.311  31.215  1.00  0.00    -0.014 A 
BRANCH  44  45
ATOM     45  C   UNL A   1      41.226  30.005  30.226  1.00  0.00     0.031 A 
ATOM     46  C   UNL A   1      41.192  28.680  29.513  1.00  0.00     0.074 A 
ATOM     47  C   UNL A   1      42.217  30.879  29.982  1.00  0.00     0.049 A 
ATOM     48  N   UNL A   1      42.070  28.143  28.705  1.00  0.00    -0.248 NA
ATOM     49  C   UNL A   1      40.007  27.841  29.755  1.00  0.00     0.031 C 
ATOM     50  C   UNL A   1      42.337  32.206  30.581  1.00  0.00     0.029 A 
ATOM     51  N   UNL A   1      43.324  30.768  29.178  1.00  0.00    -0.354 N 
ATOM     52  C   UNL A   1      41.553  26.899  28.358  1.00  0.00     0.074 A 
ATOM     53  C   UNL A   1      40.300  26.749  29.066  1.00  0.00     0.031 C 
ATOM     54  C   UNL A   1      43.468  32.781  30.138  1.00  0.00     0.029 A 
ATOM     55  C   UNL A   1      44.171  31.847  29.262  1.00  0.00     0.049 A 
ATOM     56  H   UNL A   1      43.496  29.992  28.598  1.00  0.00     0.167 HD
ATOM     57  C   UNL A   1      42.077  25.971  27.521  1.00  0.00     0.037 A 
ATOM     58  C   UNL A   1      45.390  32.038  28.720  1.00  0.00     0.037 A 
ATOM     59  C   UNL A   1      43.327  26.129  26.824  1.00  0.00     0.049 A 
ATOM     60  C   UNL A   1      45.986  30.959  27.851  1.00  0.00     0.074 A 
ATOM     61  C   UNL A   1      43.938  25.261  25.936  1.00  0.00     0.029 A 
ATOM     62  N   UNL A   1      44.166  27.229  26.947  1.00  0.00    -0.354 N 
ATOM     63  N   UNL A   1      45.482  29.798  27.505  1.00  0.00    -0.248 NA
ATOM     64  C   UNL A   1      47.320  31.220  27.295  1.00  0.00     0.031 C 
ATOM     65  C   UNL A   1      45.174  25.806  25.572  1.00  0.00     0.029 A 
ATOM     66  C   UNL A   1      45.303  27.047  26.175  1.00  0.00     0.049 A 
ATOM     67  H   UNL A   1      43.981  28.022  27.501  1.00  0.00     0.167 HD
ATOM     68  C   UNL A   1      46.421  29.206  26.668  1.00  0.00     0.074 A 
ATOM     69  C   UNL A   1      47.515  30.145  26.543  1.00  0.00     0.031 C 
ATOM     70  C   UNL A   1      46.382  27.996  26.058  1.00  0.00     0.037 A 
BRANCH  57  71
ATOM     71  C   UNL A   1      41.316  24.687  27.337  1.00  0.00     0.064 A 
ATOM     72  C   UNL A   1      41.754  23.478  27.900  1.00  0.00     0.173 A 
ATOM     73  C   UNL A   1      40.113  24.672  26.614  1.00  0.00     0.173 A 
ATOM     74  F   UNL A   1      42.902  23.431  28.592  1.00  0.00    -0.203 F 
ATOM     75  C   UNL A   1      41.032  22.300  27.721  1.00  0.00     0.198 A 
ATOM     76  C   UNL A   1      39.376  23.500  26.467  1.00  0.00     0.198 A 
ATOM     77  F   UNL A   1      39.644  25.799  26.059  1.00  0.00    -0.203 F 
ATOM     78  F   UNL A   1      41.497  21.148  28.225  1.00  0.00    -0.200 F 
ATOM     79  C   UNL A   1      39.840  22.314  27.012  1.00  0.00     0.200 A 
ATOM     80  F   UNL A   1      38.216  23.520  25.795  1.00  0.00    -0.200 F 
ATOM     81  F   UNL A   1      39.142  21.181  26.849  1.00  0.00    -0.200 F 
ENDBRANCH  57  71
BRANCH  58  82
ATOM     82  C   UNL A   1      46.136  33.296  28.989  1.00  0.00     0.064 A 
ATOM     83  C   UNL A   1      46.724  33.533  30.238  1.00  0.00     0.173 A 
ATOM     84  C   UNL A   1      46.260  34.296  28.012  1.00  0.00     0.173 A 
ATOM     85  F   UNL A   1      46.613  32.620  31.215  1.00  0.00    -0.203 F 
ATOM     86  C   UNL A   1      47.388  34.729  30.509  1.00  0.00     0.198 A 
ATOM     87  C   UNL A   1      46.954  35.476  28.271  1.00  0.00     0.198 A 
ATOM     88  F   UNL A   1      45.715  34.122  26.799  1.00  0.00    -0.203 F 
ATOM     89  F   UNL A   1      47.893  34.950  31.731  1.00  0.00    -0.200 F 
ATOM     90  C   UNL A   1      47.508  35.696  29.523  1.00  0.00     0.200 A 
ATOM     91  F   UNL A   1      47.080  36.402  27.311  1.00  0.00    -0.200 F 
ATOM     92  F   UNL A   1      48.149  36.843  29.782  1.00  0.00    -0.200 F 
ENDBRANCH  58  82
BRANCH  70  93
ATOM     93  C   UNL A   1      47.538  27.635  25.165  1.00  0.00     0.064 A 
ATOM     94  C   UNL A   1      48.709  27.047  25.669  1.00  0.00     0.173 A 
ATOM     95  C   UNL A   1      47.460  27.856  23.781  1.00  0.00     0.173 A 
ATOM     96  F   UNL A   1      48.841  26.826  26.986  1.00  0.00    -0.203 F 
ATOM     97  C   UNL A   1      49.770  26.729  24.825  1.00  0.00     0.198 A 
ATOM     98  C   UNL A   1      48.507  27.499  22.936  1.00  0.00     0.198 A 
ATOM     99  F   UNL A   1      46.361  28.405  23.244  1.00  0.00    -0.203 F 
ATOM    100  F   UNL A   1      50.902  26.225  25.337  1.00  0.00    -0.200 F 
ATOM    101  C   UNL A   1      49.666  26.947  23.459  1.00  0.00     0.200 A 
ATOM    102  F   UNL A   1      48.396  27.696  21.615  1.00  0.00    -0.200 F 
ATOM    103  F   UNL A   1      50.686  26.635  22.649  1.00  0.00    -0.200 F 
ENDBRANCH  70  93
ENDBRANCH  44  45
ENDBRANCH  37  39
ENDBRANCH  36  37
ENDBRANCH  35  36
ENDBRANCH  34  35
ENDBRANCH  33  34
ENDBRANCH  32  33
ENDBRANCH  31  32
ENDBRANCH  30  31
ENDBRANCH   1  30
TORSDOF 24
ENDMDL
MODEL 3
REMARK VINA RESULT:      -9.0      6.303     10.758
REMARK SMILES C[C@H](NC(=O)OC(C)(C)C)C(=O)N[C@@H](C)C(=O)N1CCC[C@H]1C(=O)OCCOCCOCCOC(=O)c1ccc(-c2c3nc(c(-c4c(F)c(F)c(F)c(F)c4F)c4ccc([nH]4)c(-c4c(F)c(F)c(F)c(F)c4F)c4nc(c(-c5c(F)c(F)c(F)c(F)c5F)c5ccc2[nH]5)C=C4)C=C3)cc1
REMARK SMILES IDX 27 1 26 2 25 3 23 4 24 5 22 6 18 7 19 8 20 9 21 10 16 11
REMARK SMILES IDX 17 12 14 13 15 14 13 15 11 16 12 17 2 19 1 20 3 21 4 22 5 24
REMARK SMILES IDX 6 25 7 26 8 27 9 28 10 29 28 30 29 31 30 32 31 33 32 34
REMARK SMILES IDX 33 35 34 36 35 37 36 38 37 39 38 40 99 41 39 42 98 43 40 44
REMARK SMILES IDX 41 45 42 46 92 47 43 48 97 49 91 50 93 51 44 52 96 53 90 54
REMARK SMILES IDX 89 55 45 57 77 58 57 59 76 60 58 61 61 62 75 63 94 64 59 65
REMARK SMILES IDX 60 66 74 68 95 69 62 70 46 71 47 72 55 73 48 74 49 75 53 76
REMARK SMILES IDX 56 77 50 78 51 79 54 80 52 81 78 82 79 83 87 84 80 85 81 86
REMARK SMILES IDX 85 87 88 88 82 89 83 90 86 91 84 92 63 93 64 94 72 95 65 96
REMARK SMILES IDX 66 97 70 98 73 99 67 100 68 101 71 102 69 103
REMARK H PARENT 13 18 3 23 93 56 61 67
REMARK Flexibility Score: inf
ROOT
ATOM      1  C   UNL A   1      32.898  35.872  29.629  1.00  0.00     0.202 C 
ENDROOT
BRANCH   1   2
ATOM      2  C   UNL A   1      34.006  34.856  29.280  1.00  0.00     0.261 C 
BRANCH   2   3
ATOM      3  O   UNL A   1      33.779  33.979  28.155  1.00  0.00    -0.462 OA
BRANCH   3   4
ATOM      4  C   UNL A   1      34.762  33.075  27.920  1.00  0.00     0.328 C 
ATOM      5  O   UNL A   1      35.912  33.396  27.625  1.00  0.00    -0.250 OA
BRANCH   4   6
ATOM      6  C   UNL A   1      34.399  31.607  28.286  1.00  0.00     0.195 C 
ATOM      7  N   UNL A   1      34.179  30.516  27.318  1.00  0.00    -0.327 N 
ATOM      8  C   UNL A   1      35.353  29.679  27.246  1.00  0.00     0.120 C 
ATOM      9  C   UNL A   1      35.897  29.690  28.657  1.00  0.00     0.024 C 
ATOM     10  C   UNL A   1      35.511  31.055  29.211  1.00  0.00     0.039 C 
BRANCH   7  11
ATOM     11  C   UNL A   1      32.966  30.267  26.714  1.00  0.00     0.245 C 
ATOM     12  O   UNL A   1      32.001  31.012  26.880  1.00  0.00    -0.272 OA
BRANCH  11  13
ATOM     13  C   UNL A   1      32.767  29.014  25.823  1.00  0.00     0.168 C 
ATOM     14  C   UNL A   1      32.666  29.324  24.334  1.00  0.00     0.041 C 
BRANCH  13  15
ATOM     15  N   UNL A   1      31.715  28.127  26.286  1.00  0.00    -0.343 N 
ATOM     16  C   UNL A   1      31.602  26.775  26.195  1.00  0.00     0.243 C 
ATOM     17  O   UNL A   1      30.690  26.259  26.851  1.00  0.00    -0.273 OA
ATOM     18  H   UNL A   1      30.964  28.576  26.739  1.00  0.00     0.164 HD
BRANCH  16  19
ATOM     19  C   UNL A   1      32.564  25.885  25.372  1.00  0.00     0.171 C 
ATOM     20  C   UNL A   1      34.006  26.020  25.846  1.00  0.00     0.042 C 
BRANCH  19  21
ATOM     21  N   UNL A   1      32.296  25.938  23.930  1.00  0.00    -0.310 N 
ATOM     22  C   UNL A   1      31.943  24.975  23.041  1.00  0.00     0.408 C 
ATOM     23  H   UNL A   1      32.391  26.835  23.536  1.00  0.00     0.167 HD
ATOM     24  O   UNL A   1      31.859  25.221  21.842  1.00  0.00    -0.225 OA
BRANCH  22  25
ATOM     25  O   UNL A   1      31.740  23.777  23.609  1.00  0.00    -0.444 OA
BRANCH  25  26
ATOM     26  C   UNL A   1      32.730  22.724  23.581  1.00  0.00     0.106 C 
ATOM     27  C   UNL A   1      34.084  23.219  23.073  1.00  0.00     0.056 C 
ATOM     28  C   UNL A   1      32.845  22.016  24.935  1.00  0.00     0.056 C 
ATOM     29  C   UNL A   1      32.162  21.732  22.567  1.00  0.00     0.056 C 
ENDBRANCH  25  26
ENDBRANCH  22  25
ENDBRANCH  19  21
ENDBRANCH  16  19
ENDBRANCH  13  15
ENDBRANCH  11  13
ENDBRANCH   7  11
ENDBRANCH   4   6
ENDBRANCH   3   4
ENDBRANCH   2   3
ENDBRANCH   1   2
BRANCH   1  30
ATOM     30  O   UNL A   1      33.220  37.020  30.400  1.00  0.00    -0.376 OA
BRANCH  30  31
ATOM     31  C   UNL A   1      32.935  37.052  31.792  1.00  0.00     0.188 C 
BRANCH  31  32
ATOM     32  C   UNL A   1      34.029  36.778  32.834  1.00  0.00     0.188 C 
BRANCH  32  33
ATOM     33  O   UNL A   1      34.719  35.561  32.657  1.00  0.00    -0.376 OA
BRANCH  33  34
ATOM     34  C   UNL A   1      34.034  34.373  32.998  1.00  0.00     0.202 C 
BRANCH  34  35
ATOM     35  C   UNL A   1      34.402  33.119  32.189  1.00  0.00     0.261 C 
BRANCH  35  36
ATOM     36  O   UNL A   1      35.578  32.436  32.667  1.00  0.00    -0.460 OA
BRANCH  36  37
ATOM     37  C   UNL A   1      36.777  32.888  32.248  1.00  0.00     0.338 C 
ATOM     38  O   UNL A   1      37.050  33.382  31.170  1.00  0.00    -0.246 OA
BRANCH  37  39
ATOM     39  C   UNL A   1      37.762  32.745  33.338  1.00  0.00     0.060 A 
ATOM     40  C   UNL A   1      39.099  33.125  33.147  1.00  0.00     0.016 A 
ATOM     41  C   UNL A   1      37.374  32.098  34.509  1.00  0.00     0.016 A 
ATOM     42  C   UNL A   1      40.060  32.819  34.113  1.00  0.00     0.010 A 
ATOM     43  C   UNL A   1      38.337  31.781  35.470  1.00  0.00     0.010 A 
ATOM     44  C   UNL A   1      39.691  32.100  35.257  1.00  0.00    -0.014 A 
BRANCH  44  45
ATOM     45  C   UNL A   1      40.723  31.523  36.155  1.00  0.00     0.031 A 
ATOM     46  C   UNL A   1      41.173  32.323  37.348  1.00  0.00     0.074 A 
ATOM     47  C   UNL A   1      41.266  30.321  35.903  1.00  0.00     0.049 A 
ATOM     48  N   UNL A   1      42.138  32.084  38.199  1.00  0.00    -0.248 NA
ATOM     49  C   UNL A   1      40.438  33.571  37.610  1.00  0.00     0.031 C 
ATOM     50  C   UNL A   1      40.886  29.438  34.802  1.00  0.00     0.029 A 
ATOM     51  N   UNL A   1      42.272  29.645  36.547  1.00  0.00    -0.354 N 
ATOM     52  C   UNL A   1      42.138  33.157  39.083  1.00  0.00     0.074 A 
ATOM     53  C   UNL A   1      41.096  34.063  38.649  1.00  0.00     0.031 C 
ATOM     54  C   UNL A   1      41.664  28.343  34.836  1.00  0.00     0.029 A 
ATOM     55  C   UNL A   1      42.624  28.469  35.931  1.00  0.00     0.049 A 
ATOM     56  H   UNL A   1      42.701  29.972  37.371  1.00  0.00     0.167 HD
ATOM     57  C   UNL A   1      42.934  33.363  40.160  1.00  0.00     0.037 A 
ATOM     58  C   UNL A   1      43.628  27.613  36.203  1.00  0.00     0.037 A 
ATOM     59  C   UNL A   1      43.970  32.457  40.581  1.00  0.00     0.049 A 
ATOM     60  C   UNL A   1      44.547  27.902  37.363  1.00  0.00     0.074 A 
ATOM     61  C   UNL A   1      44.818  32.559  41.671  1.00  0.00     0.029 A 
ATOM     62  N   UNL A   1      44.308  31.283  39.922  1.00  0.00    -0.354 N 
ATOM     63  N   UNL A   1      44.527  28.903  38.210  1.00  0.00    -0.248 NA
ATOM     64  C   UNL A   1      45.629  26.937  37.604  1.00  0.00     0.031 C 
ATOM     65  C   UNL A   1      45.709  31.481  41.634  1.00  0.00     0.029 A 
ATOM     66  C   UNL A   1      45.372  30.668  40.564  1.00  0.00     0.049 A 
ATOM     67  H   UNL A   1      43.858  30.938  39.116  1.00  0.00     0.167 HD
ATOM     68  C   UNL A   1      45.567  28.673  39.102  1.00  0.00     0.074 A 
ATOM     69  C   UNL A   1      46.187  27.427  38.703  1.00  0.00     0.031 C 
ATOM     70  C   UNL A   1      45.975  29.423  40.156  1.00  0.00     0.037 A 
BRANCH  57  71
ATOM     71  C   UNL A   1      42.736  34.633  40.941  1.00  0.00     0.064 A 
ATOM     72  C   UNL A   1      41.869  34.700  42.042  1.00  0.00     0.173 A 
ATOM     73  C   UNL A   1      43.452  35.793  40.603  1.00  0.00     0.173 A 
ATOM     74  F   UNL A   1      41.151  33.626  42.403  1.00  0.00    -0.203 F 
ATOM     75  C   UNL A   1      41.703  35.886  42.755  1.00  0.00     0.198 A 
ATOM     76  C   UNL A   1      43.310  36.967  41.339  1.00  0.00     0.198 A 
ATOM     77  F   UNL A   1      44.299  35.786  39.564  1.00  0.00    -0.203 F 
ATOM     78  F   UNL A   1      40.829  35.938  43.770  1.00  0.00    -0.200 F 
ATOM     79  C   UNL A   1      42.430  37.015  42.408  1.00  0.00     0.200 A 
ATOM     80  F   UNL A   1      44.026  38.051  41.012  1.00  0.00    -0.200 F 
ATOM     81  F   UNL A   1      42.276  38.151  43.101  1.00  0.00    -0.200 F 
ENDBRANCH  57  71
BRANCH  58  82
ATOM     82  C   UNL A   1      43.828  26.406  35.357  1.00  0.00     0.064 A 
ATOM     83  C   UNL A   1      44.707  26.427  34.265  1.00  0.00     0.173 A 
ATOM     84  C   UNL A   1      43.131  25.214  35.606  1.00  0.00     0.173 A 
ATOM     85  F   UNL A   1      45.380  27.550  33.969  1.00  0.00    -0.203 F 
ATOM     86  C   UNL A   1      44.865  25.311  33.444  1.00  0.00     0.198 A 
ATOM     87  C   UNL A   1      43.315  24.088  34.806  1.00  0.00     0.198 A 
ATOM     88  F   UNL A   1      42.275  25.139  36.636  1.00  0.00    -0.203 F 
ATOM     89  F   UNL A   1      45.673  25.379  32.376  1.00  0.00    -0.200 F 
ATOM     90  C   UNL A   1      44.175  24.142  33.720  1.00  0.00     0.200 A 
ATOM     91  F   UNL A   1      42.657  22.956  35.084  1.00  0.00    -0.200 F 
ATOM     92  F   UNL A   1      44.330  23.069  32.933  1.00  0.00    -0.200 F 
ENDBRANCH  58  82
BRANCH  70  93
ATOM     93  C   UNL A   1      47.119  28.897  40.978  1.00  0.00     0.064 A 
ATOM     94  C   UNL A   1      48.456  29.110  40.610  1.00  0.00     0.173 A 
ATOM     95  C   UNL A   1      46.871  28.193  42.167  1.00  0.00     0.173 A 
ATOM     96  F   UNL A   1      48.749  29.765  39.476  1.00  0.00    -0.203 F 
ATOM     97  C   UNL A   1      49.500  28.606  41.381  1.00  0.00     0.198 A 
ATOM     98  C   UNL A   1      47.919  27.726  42.957  1.00  0.00     0.198 A 
ATOM     99  F   UNL A   1      45.613  27.970  42.573  1.00  0.00    -0.203 F 
ATOM    100  F   UNL A   1      50.768  28.767  40.978  1.00  0.00    -0.200 F 
ATOM    101  C   UNL A   1      49.231  27.922  42.558  1.00  0.00     0.200 A 
ATOM    102  F   UNL A   1      47.655  27.081  44.102  1.00  0.00    -0.200 F 
ATOM    103  F   UNL A   1      50.237  27.443  43.302  1.00  0.00    -0.200 F 
ENDBRANCH  70  93
ENDBRANCH  44  45
ENDBRANCH  37  39
ENDBRANCH  36  37
ENDBRANCH  35  36
ENDBRANCH  34  35
ENDBRANCH  33  34
ENDBRANCH  32  33
ENDBRANCH  31  32
ENDBRANCH  30  31
ENDBRANCH   1  30
TORSDOF 24
ENDMDL
