MODEL 1
REMARK VINA RESULT:     -10.7      0.000      0.000
REMARK SMILES Cc1nc(C(=O)OCCOCCOCCOC(=O)c2ccc(-c3c4nc(c(-c5c(F)c(F)c(F)c(F)c5F)c5ccc([nH]5)c(-c5c(F)c(F)c(F)c(F)c5F)c5nc(c(-c6c(F)c(F)c(F)c(F)c6F)c6ccc3[nH]6)C=C5)C=C4)cc2)nn1-c1cccc(C(F)(F)F)c1
REMARK SMILES IDX 11 1 10 2 9 3 8 4 7 5 5 6 6 7 4 8 1 9 2 10 3 11 83 12 82 13
REMARK SMILES IDX 84 14 85 15 93 16 86 17 88 18 87 19 89 20 90 21 91 22 92 23
REMARK SMILES IDX 12 24 13 25 14 26 15 27 16 28 17 29 18 30 19 31 20 32 81 33
REMARK SMILES IDX 21 34 80 35 22 36 23 37 24 38 74 39 25 40 79 41 73 42 75 43
REMARK SMILES IDX 26 44 78 45 72 46 71 47 27 49 59 50 39 51 58 52 40 53 43 54
REMARK SMILES IDX 57 55 76 56 41 57 42 58 56 60 77 61 44 62 28 63 29 64 37 65
REMARK SMILES IDX 30 66 31 67 35 68 38 69 32 70 33 71 36 72 34 73 60 74 61 75
REMARK SMILES IDX 69 76 62 77 63 78 67 79 70 80 64 81 65 82 68 83 66 84 45 85
REMARK SMILES IDX 46 86 54 87 47 88 48 89 52 90 55 91 49 92 50 93 53 94 51 95
REMARK H PARENT 75 48 43 59
REMARK Flexibility Score: inf
ROOT
ATOM      1  C   UNL A   1      43.778  18.801  25.114  1.00  0.00     0.188 C 
ENDROOT
BRANCH   1   2
ATOM      2  O   UNL A   1      44.947  18.070  25.462  1.00  0.00    -0.376 OA
BRANCH   2   3
ATOM      3  C   UNL A   1      46.192  18.747  25.590  1.00  0.00     0.202 C 
BRANCH   3   4
ATOM      4  C   UNL A   1      46.455  19.996  24.732  1.00  0.00     0.261 C 
BRANCH   4   5
ATOM      5  O   UNL A   1      46.159  21.244  25.380  1.00  0.00    -0.457 OA
BRANCH   5   6
ATOM      6  C   UNL A   1      45.424  22.144  24.651  1.00  0.00     0.378 C 
ATOM      7  O   UNL A   1      44.816  21.862  23.624  1.00  0.00    -0.242 OA
BRANCH   6   8
ATOM      8  C   UNL A   1      45.301  23.456  25.322  1.00  0.00     0.260 A 
ATOM      9  C   UNL A   1      44.473  26.931  25.290  1.00  0.00     0.090 C 
ATOM     10  C   UNL A   1      44.776  25.508  25.573  1.00  0.00     0.130 A 
ATOM     11  N   UNL A   1      44.803  24.559  24.660  1.00  0.00    -0.206 NA
ATOM     12  N   UNL A   1      45.212  24.990  26.782  1.00  0.00    -0.217 N 
ATOM     13  N   UNL A   1      45.590  23.695  26.612  1.00  0.00    -0.138 NA
BRANCH  12  14
ATOM     14  C   UNL A   1      45.324  25.610  28.058  1.00  0.00     0.067 A 
ATOM     15  C   UNL A   1      45.820  26.920  28.127  1.00  0.00     0.028 A 
ATOM     16  C   UNL A   1      44.970  24.944  29.242  1.00  0.00     0.041 A 
ATOM     17  C   UNL A   1      45.902  27.578  29.356  1.00  0.00     0.003 A 
ATOM     18  C   UNL A   1      45.093  25.589  30.489  1.00  0.00     0.058 A 
ATOM     19  C   UNL A   1      45.539  26.918  30.528  1.00  0.00     0.013 A 
BRANCH  18  20
ATOM     20  C   UNL A   1      44.779  24.871  31.781  1.00  0.00     0.416 C 
ATOM     21  F   UNL A   1      43.956  25.594  32.591  1.00  0.00    -0.166 F 
ATOM     22  F   UNL A   1      44.154  23.679  31.578  1.00  0.00    -0.166 F 
ATOM     23  F   UNL A   1      45.884  24.591  32.527  1.00  0.00    -0.166 F 
ENDBRANCH  18  20
ENDBRANCH  12  14
ENDBRANCH   6   8
ENDBRANCH   5   6
ENDBRANCH   4   5
ENDBRANCH   3   4
ENDBRANCH   2   3
ENDBRANCH   1   2
BRANCH   1  24
ATOM     24  C   UNL A   1      42.658  19.044  26.148  1.00  0.00     0.188 C 
BRANCH  24  25
ATOM     25  O   UNL A   1      41.348  19.137  25.606  1.00  0.00    -0.376 OA
BRANCH  25  26
ATOM     26  C   UNL A   1      40.459  20.008  26.295  1.00  0.00     0.202 C 
BRANCH  26  27
ATOM     27  C   UNL A   1      41.161  21.126  27.064  1.00  0.00     0.261 C 
BRANCH  27  28
ATOM     28  O   UNL A   1      41.235  22.372  26.373  1.00  0.00    -0.460 OA
BRANCH  28  29
ATOM     29  C   UNL A   1      40.314  23.295  26.712  1.00  0.00     0.338 C 
ATOM     30  O   UNL A   1      39.109  23.134  26.790  1.00  0.00    -0.246 OA
BRANCH  29  31
ATOM     31  C   UNL A   1      40.986  24.594  26.900  1.00  0.00     0.060 A 
ATOM     32  C   UNL A   1      41.602  24.825  28.131  1.00  0.00     0.016 A 
ATOM     33  C   UNL A   1      40.802  25.631  25.971  1.00  0.00     0.016 A 
ATOM     34  C   UNL A   1      41.857  26.128  28.512  1.00  0.00     0.010 A 
ATOM     35  C   UNL A   1      41.049  26.935  26.355  1.00  0.00     0.010 A 
ATOM     36  C   UNL A   1      41.485  27.174  27.658  1.00  0.00    -0.014 A 
BRANCH  36  37
ATOM     37  C   UNL A   1      41.395  28.499  28.246  1.00  0.00     0.031 A 
ATOM     38  C   UNL A   1      42.512  29.439  28.024  1.00  0.00     0.074 A 
ATOM     39  C   UNL A   1      40.315  28.874  28.958  1.00  0.00     0.049 A 
ATOM     40  N   UNL A   1      43.267  29.994  28.917  1.00  0.00    -0.248 NA
ATOM     41  C   UNL A   1      42.831  29.803  26.640  1.00  0.00     0.031 C 
ATOM     42  C   UNL A   1      39.015  28.204  29.048  1.00  0.00     0.029 A 
ATOM     43  N   UNL A   1      40.141  30.006  29.697  1.00  0.00    -0.354 N 
ATOM     44  C   UNL A   1      44.075  30.889  28.226  1.00  0.00     0.074 A 
ATOM     45  C   UNL A   1      43.818  30.681  26.822  1.00  0.00     0.031 C 
ATOM     46  C   UNL A   1      38.130  29.040  29.635  1.00  0.00     0.029 A 
ATOM     47  C   UNL A   1      38.829  30.238  30.068  1.00  0.00     0.049 A 
ATOM     48  H   UNL A   1      40.883  30.604  29.944  1.00  0.00     0.167 HD
ATOM     49  C   UNL A   1      44.787  31.860  28.857  1.00  0.00     0.037 A 
ATOM     50  C   UNL A   1      38.340  31.369  30.626  1.00  0.00     0.037 A 
ATOM     51  C   UNL A   1      44.968  31.597  30.256  1.00  0.00     0.049 A 
ATOM     52  C   UNL A   1      39.471  32.108  31.240  1.00  0.00     0.074 A 
ATOM     53  C   UNL A   1      45.561  30.581  30.981  1.00  0.00     0.029 A 
ATOM     54  N   UNL A   1      44.245  32.321  31.170  1.00  0.00    -0.354 N 
ATOM     55  N   UNL A   1      40.105  31.734  32.316  1.00  0.00    -0.248 NA
ATOM     56  C   UNL A   1      40.146  33.119  30.439  1.00  0.00     0.031 C 
ATOM     57  C   UNL A   1      44.796  30.473  32.179  1.00  0.00     0.029 A 
ATOM     58  C   UNL A   1      43.783  31.428  32.104  1.00  0.00     0.049 A 
ATOM     59  H   UNL A   1      44.088  33.293  31.159  1.00  0.00     0.167 HD
ATOM     60  C   UNL A   1      41.413  32.149  32.119  1.00  0.00     0.074 A 
ATOM     61  C   UNL A   1      41.350  33.099  31.016  1.00  0.00     0.031 C 
ATOM     62  C   UNL A   1      42.460  31.478  32.679  1.00  0.00     0.037 A 
BRANCH  49  63
ATOM     63  C   UNL A   1      45.106  33.186  28.233  1.00  0.00     0.064 A 
ATOM     64  C   UNL A   1      46.440  33.575  28.035  1.00  0.00     0.173 A 
ATOM     65  C   UNL A   1      44.133  34.194  28.060  1.00  0.00     0.173 A 
ATOM     66  F   UNL A   1      47.441  32.702  28.228  1.00  0.00    -0.203 F 
ATOM     67  C   UNL A   1      46.779  34.889  27.704  1.00  0.00     0.198 A 
ATOM     68  C   UNL A   1      44.470  35.491  27.680  1.00  0.00     0.198 A 
ATOM     69  F   UNL A   1      42.842  33.978  28.351  1.00  0.00    -0.203 F 
ATOM     70  F   UNL A   1      48.069  35.242  27.615  1.00  0.00    -0.200 F 
ATOM     71  C   UNL A   1      45.795  35.844  27.522  1.00  0.00     0.200 A 
ATOM     72  F   UNL A   1      43.504  36.409  27.535  1.00  0.00    -0.200 F 
ATOM     73  F   UNL A   1      46.121  37.113  27.243  1.00  0.00    -0.200 F 
ENDBRANCH  49  63
BRANCH  50  74
ATOM     74  C   UNL A   1      36.996  31.958  30.447  1.00  0.00     0.064 A 
ATOM     75  C   UNL A   1      36.057  31.958  31.489  1.00  0.00     0.173 A 
ATOM     76  C   UNL A   1      36.689  32.754  29.325  1.00  0.00     0.173 A 
ATOM     77  F   UNL A   1      36.296  31.270  32.615  1.00  0.00    -0.203 F 
ATOM     78  C   UNL A   1      34.883  32.715  31.414  1.00  0.00     0.198 A 
ATOM     79  C   UNL A   1      35.511  33.495  29.245  1.00  0.00     0.198 A 
ATOM     80  F   UNL A   1      37.565  32.902  28.321  1.00  0.00    -0.203 F 
ATOM     81  F   UNL A   1      34.037  32.737  32.454  1.00  0.00    -0.200 F 
ATOM     82  C   UNL A   1      34.613  33.485  30.296  1.00  0.00     0.200 A 
ATOM     83  F   UNL A   1      35.281  34.263  28.171  1.00  0.00    -0.200 F 
ATOM     84  F   UNL A   1      33.513  34.248  30.244  1.00  0.00    -0.200 F 
ENDBRANCH  50  74
BRANCH  62  85
ATOM     85  C   UNL A   1      42.150  30.487  33.763  1.00  0.00     0.064 A 
ATOM     86  C   UNL A   1      41.738  29.169  33.508  1.00  0.00     0.173 A 
ATOM     87  C   UNL A   1      42.405  30.841  35.095  1.00  0.00     0.173 A 
ATOM     88  F   UNL A   1      41.582  28.727  32.251  1.00  0.00    -0.203 F 
ATOM     89  C   UNL A   1      41.535  28.264  34.547  1.00  0.00     0.198 A 
ATOM     90  C   UNL A   1      42.235  29.924  36.128  1.00  0.00     0.198 A 
ATOM     91  F   UNL A   1      42.863  32.068  35.390  1.00  0.00    -0.203 F 
ATOM     92  F   UNL A   1      41.126  27.014  34.280  1.00  0.00    -0.200 F 
ATOM     93  C   UNL A   1      41.788  28.640  35.856  1.00  0.00     0.200 A 
ATOM     94  F   UNL A   1      42.529  30.275  37.388  1.00  0.00    -0.200 F 
ATOM     95  F   UNL A   1      41.628  27.758  36.853  1.00  0.00    -0.200 F 
ENDBRANCH  62  85
ENDBRANCH  36  37
ENDBRANCH  29  31
ENDBRANCH  28  29
ENDBRANCH  27  28
ENDBRANCH  26  27
ENDBRANCH  25  26
ENDBRANCH  24  25
ENDBRANCH   1  24
TORSDOF 19
ENDMDL
MODEL 2
REMARK VINA RESULT:     -10.3      3.343      6.290
REMARK SMILES Cc1nc(C(=O)OCCOCCOCCOC(=O)c2ccc(-c3c4nc(c(-c5c(F)c(F)c(F)c(F)c5F)c5ccc([nH]5)c(-c5c(F)c(F)c(F)c(F)c5F)c5nc(c(-c6c(F)c(F)c(F)c(F)c6F)c6ccc3[nH]6)C=C5)C=C4)cc2)nn1-c1cccc(C(F)(F)F)c1
REMARK SMILES IDX 11 1 10 2 9 3 8 4 7 5 5 6 6 7 4 8 1 9 2 10 3 11 83 12 82 13
REMARK SMILES IDX 84 14 85 15 93 16 86 17 88 18 87 19 89 20 90 21 91 22 92 23
REMARK SMILES IDX 12 24 13 25 14 26 15 27 16 28 17 29 18 30 19 31 20 32 81 33
REMARK SMILES IDX 21 34 80 35 22 36 23 37 24 38 74 39 25 40 79 41 73 42 75 43
REMARK SMILES IDX 26 44 78 45 72 46 71 47 27 49 59 50 39 51 58 52 40 53 43 54
REMARK SMILES IDX 57 55 76 56 41 57 42 58 56 60 77 61 44 62 28 63 29 64 37 65
REMARK SMILES IDX 30 66 31 67 35 68 38 69 32 70 33 71 36 72 34 73 60 74 61 75
REMARK SMILES IDX 69 76 62 77 63 78 67 79 70 80 64 81 65 82 68 83 66 84 45 85
REMARK SMILES IDX 46 86 54 87 47 88 48 89 52 90 55 91 49 92 50 93 53 94 51 95
REMARK H PARENT 75 48 43 59
REMARK Flexibility Score: inf
ROOT
ATOM      1  C   UNL A   1      38.298  23.130  26.144  1.00  0.00     0.188 C 
ENDROOT
BRANCH   1   2
ATOM      2  O   UNL A   1      37.424  23.591  25.121  1.00  0.00    -0.376 OA
BRANCH   2   3
ATOM      3  C   UNL A   1      36.967  22.687  24.122  1.00  0.00     0.202 C 
BRANCH   3   4
ATOM      4  C   UNL A   1      35.456  22.562  23.861  1.00  0.00     0.261 C 
BRANCH   4   5
ATOM      5  O   UNL A   1      35.016  23.103  22.605  1.00  0.00    -0.457 OA
BRANCH   5   6
ATOM      6  C   UNL A   1      33.745  23.620  22.581  1.00  0.00     0.378 C 
ATOM      7  O   UNL A   1      32.737  22.953  22.370  1.00  0.00    -0.242 OA
BRANCH   6   8
ATOM      8  C   UNL A   1      33.697  25.037  22.999  1.00  0.00     0.260 A 
ATOM      9  C   UNL A   1      33.763  28.531  22.258  1.00  0.00     0.090 C 
ATOM     10  C   UNL A   1      33.606  27.158  22.795  1.00  0.00     0.130 A 
ATOM     11  N   UNL A   1      33.739  26.062  22.076  1.00  0.00    -0.206 NA
ATOM     12  N   UNL A   1      33.446  26.814  24.127  1.00  0.00    -0.217 N 
ATOM     13  N   UNL A   1      33.550  25.465  24.265  1.00  0.00    -0.138 NA
BRANCH  12  14
ATOM     14  C   UNL A   1      33.233  27.638  25.267  1.00  0.00     0.067 A 
ATOM     15  C   UNL A   1      31.955  27.672  25.842  1.00  0.00     0.028 A 
ATOM     16  C   UNL A   1      34.257  28.425  25.817  1.00  0.00     0.041 A 
ATOM     17  C   UNL A   1      31.718  28.434  26.988  1.00  0.00     0.003 A 
ATOM     18  C   UNL A   1      34.012  29.229  26.948  1.00  0.00     0.058 A 
ATOM     19  C   UNL A   1      32.739  29.205  27.539  1.00  0.00     0.013 A 
BRANCH  18  20
ATOM     20  C   UNL A   1      35.080  30.134  27.519  1.00  0.00     0.416 C 
ATOM     21  F   UNL A   1      34.875  31.443  27.205  1.00  0.00    -0.166 F 
ATOM     22  F   UNL A   1      35.140  30.078  28.877  1.00  0.00    -0.166 F 
ATOM     23  F   UNL A   1      36.334  29.836  27.077  1.00  0.00    -0.166 F 
ENDBRANCH  18  20
ENDBRANCH  12  14
ENDBRANCH   6   8
ENDBRANCH   5   6
ENDBRANCH   4   5
ENDBRANCH   3   4
ENDBRANCH   2   3
ENDBRANCH   1   2
BRANCH   1  24
ATOM     24  C   UNL A   1      38.997  21.758  26.030  1.00  0.00     0.188 C 
BRANCH  24  25
ATOM     25  O   UNL A   1      39.951  21.482  27.044  1.00  0.00    -0.376 OA
BRANCH  25  26
ATOM     26  C   UNL A   1      40.967  20.549  26.695  1.00  0.00     0.202 C 
BRANCH  26  27
ATOM     27  C   UNL A   1      42.266  21.200  26.220  1.00  0.00     0.261 C 
BRANCH  27  28
ATOM     28  O   UNL A   1      42.526  22.489  26.773  1.00  0.00    -0.460 OA
BRANCH  28  29
ATOM     29  C   UNL A   1      42.442  23.529  25.920  1.00  0.00     0.338 C 
ATOM     30  O   UNL A   1      42.931  23.605  24.807  1.00  0.00    -0.246 OA
BRANCH  29  31
ATOM     31  C   UNL A   1      41.721  24.632  26.581  1.00  0.00     0.060 A 
ATOM     32  C   UNL A   1      41.309  25.699  25.781  1.00  0.00     0.016 A 
ATOM     33  C   UNL A   1      41.670  24.709  27.982  1.00  0.00     0.016 A 
ATOM     34  C   UNL A   1      41.030  26.911  26.383  1.00  0.00     0.010 A 
ATOM     35  C   UNL A   1      41.400  25.924  28.584  1.00  0.00     0.010 A 
ATOM     36  C   UNL A   1      41.176  27.034  27.770  1.00  0.00    -0.014 A 
BRANCH  36  37
ATOM     37  C   UNL A   1      41.271  28.382  28.302  1.00  0.00     0.031 A 
ATOM     38  C   UNL A   1      42.471  29.178  27.976  1.00  0.00     0.074 A 
ATOM     39  C   UNL A   1      40.285  28.905  29.056  1.00  0.00     0.049 A 
ATOM     40  N   UNL A   1      43.337  29.676  28.799  1.00  0.00    -0.248 NA
ATOM     41  C   UNL A   1      42.745  29.449  26.562  1.00  0.00     0.031 C 
ATOM     42  C   UNL A   1      38.926  28.394  29.248  1.00  0.00     0.029 A 
ATOM     43  N   UNL A   1      40.285  30.078  29.752  1.00  0.00    -0.354 N 
ATOM     44  C   UNL A   1      44.197  30.446  28.025  1.00  0.00     0.074 A 
ATOM     45  C   UNL A   1      43.834  30.215  26.647  1.00  0.00     0.031 C 
ATOM     46  C   UNL A   1      38.178  29.347  29.846  1.00  0.00     0.029 A 
ATOM     47  C   UNL A   1      39.033  30.474  30.185  1.00  0.00     0.049 A 
ATOM     48  H   UNL A   1      41.103  30.596  29.930  1.00  0.00     0.167 HD
ATOM     49  C   UNL A   1      45.051  31.352  28.570  1.00  0.00     0.037 A 
ATOM     50  C   UNL A   1      38.709  31.673  30.718  1.00  0.00     0.037 A 
ATOM     51  C   UNL A   1      45.285  31.124  29.968  1.00  0.00     0.049 A 
ATOM     52  C   UNL A   1      39.950  32.301  31.233  1.00  0.00     0.074 A 
ATOM     53  C   UNL A   1      45.803  30.076  30.703  1.00  0.00     0.029 A 
ATOM     54  N   UNL A   1      44.705  31.961  30.887  1.00  0.00    -0.354 N 
ATOM     55  N   UNL A   1      40.602  31.898  32.288  1.00  0.00    -0.248 NA
ATOM     56  C   UNL A   1      40.685  33.196  30.351  1.00  0.00     0.031 C 
ATOM     57  C   UNL A   1      45.105  30.103  31.946  1.00  0.00     0.029 A 
ATOM     58  C   UNL A   1      44.203  31.164  31.885  1.00  0.00     0.049 A 
ATOM     59  H   UNL A   1      44.658  32.943  30.840  1.00  0.00     0.167 HD
ATOM     60  C   UNL A   1      41.935  32.152  31.999  1.00  0.00     0.074 A 
ATOM     61  C   UNL A   1      41.912  33.060  30.860  1.00  0.00     0.031 C 
ATOM     62  C   UNL A   1      42.931  31.387  32.530  1.00  0.00     0.037 A 
BRANCH  49  63
ATOM     63  C   UNL A   1      45.478  32.608  27.870  1.00  0.00     0.064 A 
ATOM     64  C   UNL A   1      44.547  33.626  27.607  1.00  0.00     0.173 A 
ATOM     65  C   UNL A   1      46.727  32.727  27.225  1.00  0.00     0.173 A 
ATOM     66  F   UNL A   1      43.313  33.574  28.131  1.00  0.00    -0.203 F 
ATOM     67  C   UNL A   1      44.840  34.681  26.740  1.00  0.00     0.198 A 
ATOM     68  C   UNL A   1      47.035  33.807  26.401  1.00  0.00     0.198 A 
ATOM     69  F   UNL A   1      47.645  31.752  27.293  1.00  0.00    -0.203 F 
ATOM     70  F   UNL A   1      43.893  35.581  26.441  1.00  0.00    -0.200 F 
ATOM     71  C   UNL A   1      46.084  34.773  26.142  1.00  0.00     0.200 A 
ATOM     72  F   UNL A   1      48.236  33.866  25.810  1.00  0.00    -0.200 F 
ATOM     73  F   UNL A   1      46.353  35.763  25.281  1.00  0.00    -0.200 F 
ENDBRANCH  49  63
BRANCH  50  74
ATOM     74  C   UNL A   1      37.431  32.406  30.588  1.00  0.00     0.064 A 
ATOM     75  C   UNL A   1      37.120  33.125  29.424  1.00  0.00     0.173 A 
ATOM     76  C   UNL A   1      36.380  32.213  31.507  1.00  0.00     0.173 A 
ATOM     77  F   UNL A   1      38.047  33.306  28.473  1.00  0.00    -0.203 F 
ATOM     78  C   UNL A   1      35.830  33.616  29.193  1.00  0.00     0.198 A 
ATOM     79  C   UNL A   1      35.100  32.719  31.283  1.00  0.00     0.198 A 
ATOM     80  F   UNL A   1      36.547  31.455  32.601  1.00  0.00    -0.203 F 
ATOM     81  F   UNL A   1      35.555  34.248  28.043  1.00  0.00    -0.200 F 
ATOM     82  C   UNL A   1      34.822  33.410  30.119  1.00  0.00     0.200 A 
ATOM     83  F   UNL A   1      34.127  32.480  32.172  1.00  0.00    -0.200 F 
ATOM     84  F   UNL A   1      33.577  33.839  29.875  1.00  0.00    -0.200 F 
ENDBRANCH  50  74
BRANCH  62  85
ATOM     85  C   UNL A   1      42.578  30.482  33.673  1.00  0.00     0.064 A 
ATOM     86  C   UNL A   1      42.648  30.876  35.019  1.00  0.00     0.173 A 
ATOM     87  C   UNL A   1      42.026  29.224  33.393  1.00  0.00     0.173 A 
ATOM     88  F   UNL A   1      43.061  32.106  35.355  1.00  0.00    -0.203 F 
ATOM     89  C   UNL A   1      42.237  30.024  36.042  1.00  0.00     0.198 A 
ATOM     90  C   UNL A   1      41.584  28.388  34.415  1.00  0.00     0.198 A 
ATOM     91  F   UNL A   1      41.875  28.823  32.121  1.00  0.00    -0.203 F 
ATOM     92  F   UNL A   1      42.328  30.416  37.321  1.00  0.00    -0.200 F 
ATOM     93  C   UNL A   1      41.701  28.783  35.739  1.00  0.00     0.200 A 
ATOM     94  F   UNL A   1      41.019  27.209  34.117  1.00  0.00    -0.200 F 
ATOM     95  F   UNL A   1      41.271  27.977  36.721  1.00  0.00    -0.200 F 
ENDBRANCH  62  85
ENDBRANCH  36  37
ENDBRANCH  29  31
ENDBRANCH  28  29
ENDBRANCH  27  28
ENDBRANCH  26  27
ENDBRANCH  25  26
ENDBRANCH  24  25
ENDBRANCH   1  24
TORSDOF 19
ENDMDL
MODEL 3
REMARK VINA RESULT:     -10.1      3.791      7.059
REMARK SMILES Cc1nc(C(=O)OCCOCCOCCOC(=O)c2ccc(-c3c4nc(c(-c5c(F)c(F)c(F)c(F)c5F)c5ccc([nH]5)c(-c5c(F)c(F)c(F)c(F)c5F)c5nc(c(-c6c(F)c(F)c(F)c(F)c6F)c6ccc3[nH]6)C=C5)C=C4)cc2)nn1-c1cccc(C(F)(F)F)c1
REMARK SMILES IDX 11 1 10 2 9 3 8 4 7 5 5 6 6 7 4 8 1 9 2 10 3 11 83 12 82 13
REMARK SMILES IDX 84 14 85 15 93 16 86 17 88 18 87 19 89 20 90 21 91 22 92 23
REMARK SMILES IDX 12 24 13 25 14 26 15 27 16 28 17 29 18 30 19 31 20 32 81 33
REMARK SMILES IDX 21 34 80 35 22 36 23 37 24 38 74 39 25 40 79 41 73 42 75 43
REMARK SMILES IDX 26 44 78 45 72 46 71 47 27 49 59 50 39 51 58 52 40 53 43 54
REMARK SMILES IDX 57 55 76 56 41 57 42 58 56 60 77 61 44 62 28 63 29 64 37 65
REMARK SMILES IDX 30 66 31 67 35 68 38 69 32 70 33 71 36 72 34 73 60 74 61 75
REMARK SMILES IDX 69 76 62 77 63 78 67 79 70 80 64 81 65 82 68 83 66 84 45 85
REMARK SMILES IDX 46 86 54 87 47 88 48 89 52 90 55 91 49 92 50 93 53 94 51 95
REMARK H PARENT 75 48 43 59
REMARK Flexibility Score: inf
ROOT
ATOM      1  C   UNL A   1      40.817  21.467  26.388  1.00  0.00     0.188 C 
ENDROOT
BRANCH   1   2
ATOM      2  O   UNL A   1      39.761  22.233  26.956  1.00  0.00    -0.376 OA
BRANCH   2   3
ATOM      3  C   UNL A   1      38.730  22.745  26.120  1.00  0.00     0.202 C 
BRANCH   3   4
ATOM      4  C   UNL A   1      37.755  21.763  25.449  1.00  0.00     0.261 C 
BRANCH   4   5
ATOM      5  O   UNL A   1      36.446  21.716  26.040  1.00  0.00    -0.457 OA
BRANCH   5   6
ATOM      6  C   UNL A   1      35.415  21.377  25.200  1.00  0.00     0.378 C 
ATOM      7  O   UNL A   1      35.206  20.238  24.795  1.00  0.00    -0.242 OA
BRANCH   6   8
ATOM      8  C   UNL A   1      34.481  22.498  24.963  1.00  0.00     0.260 A 
ATOM      9  C   UNL A   1      31.178  23.797  24.552  1.00  0.00     0.090 C 
ATOM     10  C   UNL A   1      32.614  23.515  24.792  1.00  0.00     0.130 A 
ATOM     11  N   UNL A   1      33.114  22.308  24.961  1.00  0.00    -0.206 NA
ATOM     12  N   UNL A   1      33.649  24.434  24.729  1.00  0.00    -0.217 N 
ATOM     13  N   UNL A   1      34.841  23.782  24.792  1.00  0.00    -0.138 NA
BRANCH  12  14
ATOM     14  C   UNL A   1      33.611  25.849  24.591  1.00  0.00     0.067 A 
ATOM     15  C   UNL A   1      33.679  26.401  23.305  1.00  0.00     0.028 A 
ATOM     16  C   UNL A   1      33.526  26.702  25.703  1.00  0.00     0.041 A 
ATOM     17  C   UNL A   1      33.599  27.784  23.126  1.00  0.00     0.003 A 
ATOM     18  C   UNL A   1      33.489  28.100  25.531  1.00  0.00     0.058 A 
ATOM     19  C   UNL A   1      33.502  28.627  24.231  1.00  0.00     0.013 A 
BRANCH  18  20
ATOM     20  C   UNL A   1      33.461  29.040  26.715  1.00  0.00     0.416 C 
ATOM     21  F   UNL A   1      32.208  29.201  27.221  1.00  0.00    -0.166 F 
ATOM     22  F   UNL A   1      34.230  28.600  27.748  1.00  0.00    -0.166 F 
ATOM     23  F   UNL A   1      33.909  30.292  26.421  1.00  0.00    -0.166 F 
ENDBRANCH  18  20
ENDBRANCH  12  14
ENDBRANCH   6   8
ENDBRANCH   5   6
ENDBRANCH   4   5
ENDBRANCH   3   4
ENDBRANCH   2   3
ENDBRANCH   1   2
BRANCH   1  24
ATOM     24  C   UNL A   1      41.065  20.009  26.830  1.00  0.00     0.188 C 
BRANCH  24  25
ATOM     25  O   UNL A   1      41.527  19.140  25.807  1.00  0.00    -0.376 OA
BRANCH  25  26
ATOM     26  C   UNL A   1      42.707  18.407  26.110  1.00  0.00     0.202 C 
BRANCH  26  27
ATOM     27  C   UNL A   1      43.871  18.690  25.161  1.00  0.00     0.261 C 
BRANCH  27  28
ATOM     28  O   UNL A   1      43.937  20.031  24.679  1.00  0.00    -0.460 OA
BRANCH  28  29
ATOM     29  C   UNL A   1      45.168  20.574  24.598  1.00  0.00     0.338 C 
ATOM     30  O   UNL A   1      46.231  19.980  24.583  1.00  0.00    -0.246 OA
BRANCH  29  31
ATOM     31  C   UNL A   1      45.044  22.042  24.617  1.00  0.00     0.060 A 
ATOM     32  C   UNL A   1      46.141  22.772  25.079  1.00  0.00     0.016 A 
ATOM     33  C   UNL A   1      43.798  22.654  24.408  1.00  0.00     0.016 A 
ATOM     34  C   UNL A   1      45.941  24.067  25.517  1.00  0.00     0.010 A 
ATOM     35  C   UNL A   1      43.595  23.947  24.855  1.00  0.00     0.010 A 
ATOM     36  C   UNL A   1      44.648  24.604  25.490  1.00  0.00    -0.014 A 
BRANCH  36  37
ATOM     37  C   UNL A   1      44.409  25.778  26.311  1.00  0.00     0.031 A 
ATOM     38  C   UNL A   1      45.380  26.889  26.240  1.00  0.00     0.074 A 
ATOM     39  C   UNL A   1      43.324  25.867  27.103  1.00  0.00     0.049 A 
ATOM     40  N   UNL A   1      46.096  27.376  27.202  1.00  0.00    -0.248 NA
ATOM     41  C   UNL A   1      45.584  27.533  24.938  1.00  0.00     0.031 C 
ATOM     42  C   UNL A   1      42.130  25.018  27.098  1.00  0.00     0.029 A 
ATOM     43  N   UNL A   1      43.035  26.815  28.039  1.00  0.00    -0.354 N 
ATOM     44  C   UNL A   1      46.745  28.483  26.668  1.00  0.00     0.074 A 
ATOM     45  C   UNL A   1      46.453  28.494  25.255  1.00  0.00     0.031 C 
ATOM     46  C   UNL A   1      41.170  25.605  27.847  1.00  0.00     0.029 A 
ATOM     47  C   UNL A   1      41.723  26.793  28.475  1.00  0.00     0.049 A 
ATOM     48  H   UNL A   1      43.702  27.457  28.375  1.00  0.00     0.167 HD
ATOM     49  C   UNL A   1      47.350  29.417  27.449  1.00  0.00     0.037 A 
ATOM     50  C   UNL A   1      41.115  27.728  29.240  1.00  0.00     0.037 A 
ATOM     51  C   UNL A   1      47.629  28.938  28.773  1.00  0.00     0.049 A 
ATOM     52  C   UNL A   1      42.164  28.497  29.952  1.00  0.00     0.074 A 
ATOM     53  C   UNL A   1      48.385  27.903  29.288  1.00  0.00     0.029 A 
ATOM     54  N   UNL A   1      46.860  29.381  29.819  1.00  0.00    -0.354 N 
ATOM     55  N   UNL A   1      42.892  28.030  30.928  1.00  0.00    -0.248 NA
ATOM     56  C   UNL A   1      42.661  29.718  29.334  1.00  0.00     0.031 C 
ATOM     57  C   UNL A   1      47.697  27.479  30.463  1.00  0.00     0.029 A 
ATOM     58  C   UNL A   1      46.564  28.281  30.585  1.00  0.00     0.049 A 
ATOM     59  H   UNL A   1      46.575  30.308  29.987  1.00  0.00     0.167 HD
ATOM     60  C   UNL A   1      44.123  28.652  30.782  1.00  0.00     0.074 A 
ATOM     61  C   UNL A   1      43.883  29.764  29.871  1.00  0.00     0.031 C 
ATOM     62  C   UNL A   1      45.274  28.044  31.188  1.00  0.00     0.037 A 
BRANCH  49  63
ATOM     63  C   UNL A   1      47.460  30.864  27.070  1.00  0.00     0.064 A 
ATOM     64  C   UNL A   1      48.711  31.501  27.058  1.00  0.00     0.173 A 
ATOM     65  C   UNL A   1      46.333  31.706  26.965  1.00  0.00     0.173 A 
ATOM     66  F   UNL A   1      49.840  30.791  27.206  1.00  0.00    -0.203 F 
ATOM     67  C   UNL A   1      48.825  32.891  26.967  1.00  0.00     0.198 A 
ATOM     68  C   UNL A   1      46.450  33.086  26.823  1.00  0.00     0.198 A 
ATOM     69  F   UNL A   1      45.087  31.228  27.098  1.00  0.00    -0.203 F 
ATOM     70  F   UNL A   1      50.031  33.467  27.054  1.00  0.00    -0.200 F 
ATOM     71  C   UNL A   1      47.696  33.681  26.845  1.00  0.00     0.200 A 
ATOM     72  F   UNL A   1      45.345  33.839  26.733  1.00  0.00    -0.200 F 
ATOM     73  F   UNL A   1      47.802  35.015  26.796  1.00  0.00    -0.200 F 
ENDBRANCH  49  63
BRANCH  50  74
ATOM     74  C   UNL A   1      39.697  28.147  29.200  1.00  0.00     0.064 A 
ATOM     75  C   UNL A   1      38.912  28.166  30.362  1.00  0.00     0.173 A 
ATOM     76  C   UNL A   1      39.150  28.773  28.062  1.00  0.00     0.173 A 
ATOM     77  F   UNL A   1      39.379  27.641  31.503  1.00  0.00    -0.203 F 
ATOM     78  C   UNL A   1      37.655  28.781  30.384  1.00  0.00     0.198 A 
ATOM     79  C   UNL A   1      37.891  29.370  28.080  1.00  0.00     0.198 A 
ATOM     80  F   UNL A   1      39.861  28.897  26.931  1.00  0.00    -0.203 F 
ATOM     81  F   UNL A   1      36.958  28.831  31.527  1.00  0.00    -0.200 F 
ATOM     82  C   UNL A   1      37.148  29.385  29.246  1.00  0.00     0.200 A 
ATOM     83  F   UNL A   1      37.429  29.981  26.980  1.00  0.00    -0.200 F 
ATOM     84  F   UNL A   1      35.967  30.015  29.279  1.00  0.00    -0.200 F 
ENDBRANCH  50  74
BRANCH  62  85
ATOM     85  C   UNL A   1      45.150  26.844  32.080  1.00  0.00     0.064 A 
ATOM     86  C   UNL A   1      45.123  26.925  33.482  1.00  0.00     0.173 A 
ATOM     87  C   UNL A   1      44.915  25.590  31.498  1.00  0.00     0.173 A 
ATOM     88  F   UNL A   1      45.230  28.107  34.105  1.00  0.00    -0.203 F 
ATOM     89  C   UNL A   1      44.930  25.790  34.266  1.00  0.00     0.198 A 
ATOM     90  C   UNL A   1      44.687  24.464  32.283  1.00  0.00     0.198 A 
ATOM     91  F   UNL A   1      44.863  25.468  30.162  1.00  0.00    -0.203 F 
ATOM     92  F   UNL A   1      44.925  25.888  35.603  1.00  0.00    -0.200 F 
ATOM     93  C   UNL A   1      44.707  24.561  33.666  1.00  0.00     0.200 A 
ATOM     94  F   UNL A   1      44.420  23.286  31.700  1.00  0.00    -0.200 F 
ATOM     95  F   UNL A   1      44.483  23.475  34.419  1.00  0.00    -0.200 F 
ENDBRANCH  62  85
ENDBRANCH  36  37
ENDBRANCH  29  31
ENDBRANCH  28  29
ENDBRANCH  27  28
ENDBRANCH  26  27
ENDBRANCH  25  26
ENDBRANCH  24  25
ENDBRANCH   1  24
TORSDOF 19
ENDMDL
