MODEL 1
REMARK VINA RESULT:     -10.8      0.000      0.000
REMARK SMILES O=C(C[N@@H+]1CCC[C@H]1C(=O)OCCOCCOCCOC(=O)c1ccc(-c2c3nc(c(-c4c(F)c(F)c(F)c(F)c4F)c4ccc([nH]4)c(-c4c(F)c(F)c(F)c(F)c4F)c4nc(c(-c5c(F)c(F)c(F)c(F)c5F)c5ccc2[nH]5)C=C4)C=C3)cc1)Nc1ccc(F)c(F)c1F
REMARK SMILES IDX 15 1 14 2 13 3 12 4 11 5 9 6 10 7 8 8 4 9 5 10 6 12 7 13
REMARK SMILES IDX 3 14 2 15 1 16 86 17 87 19 88 20 94 21 89 22 92 23 95 24
REMARK SMILES IDX 90 25 93 26 91 27 16 28 17 29 18 30 19 31 20 32 21 33 22 34
REMARK SMILES IDX 23 35 24 36 85 37 25 38 84 39 26 40 27 41 28 42 78 43 29 44
REMARK SMILES IDX 83 45 77 46 79 47 30 48 82 49 76 50 75 51 31 53 63 54 43 55
REMARK SMILES IDX 62 56 44 57 47 58 61 59 80 60 45 61 46 62 60 64 81 65 48 66
REMARK SMILES IDX 32 67 33 68 41 69 34 70 35 71 39 72 42 73 36 74 37 75 40 76
REMARK SMILES IDX 38 77 64 78 65 79 73 80 66 81 67 82 71 83 74 84 68 85 69 86
REMARK SMILES IDX 72 87 70 88 49 89 50 90 58 91 51 92 52 93 56 94 59 95 53 96
REMARK SMILES IDX 54 97 57 98 55 99
REMARK H PARENT 4 11 86 18 79 52 47 63
REMARK Flexibility Score: inf
ROOT
ATOM      1  C   UNL A   1      34.020  29.096  26.281  1.00  0.00     0.188 C 
ENDROOT
BRANCH   1   2
ATOM      2  O   UNL A   1      33.918  28.485  25.011  1.00  0.00    -0.376 OA
BRANCH   2   3
ATOM      3  C   UNL A   1      33.258  29.156  23.959  1.00  0.00     0.202 C 
BRANCH   3   4
ATOM      4  C   UNL A   1      33.175  28.511  22.574  1.00  0.00     0.261 C 
BRANCH   4   5
ATOM      5  O   UNL A   1      32.654  27.177  22.526  1.00  0.00    -0.459 OA
BRANCH   5   6
ATOM      6  C   UNL A   1      31.289  27.073  22.505  1.00  0.00     0.365 C 
ATOM      7  O   UNL A   1      30.543  27.871  21.954  1.00  0.00    -0.245 OA
BRANCH   6   8
ATOM      8  C   UNL A   1      30.846  25.856  23.344  1.00  0.00     0.295 C 
ATOM      9  N   UNL A   1      31.874  25.554  24.399  1.00  0.00    -0.315 N 
ATOM     10  C   UNL A   1      31.319  26.177  25.611  1.00  0.00     0.263 C 
ATOM     11  H   UNL A   1      32.813  25.931  24.264  1.00  0.00     0.349 HD
ATOM     12  C   UNL A   1      29.851  25.849  25.578  1.00  0.00     0.068 C 
ATOM     13  C   UNL A   1      29.524  26.040  24.110  1.00  0.00     0.083 C 
BRANCH   9  14
ATOM     14  C   UNL A   1      32.104  24.085  24.412  1.00  0.00     0.364 C 
BRANCH  14  15
ATOM     15  C   UNL A   1      33.544  23.655  24.197  1.00  0.00     0.279 C 
ATOM     16  O   UNL A   1      34.043  23.689  23.073  1.00  0.00    -0.268 OA
ATOM     17  N   UNL A   1      34.150  23.144  25.332  1.00  0.00    -0.319 N 
ATOM     18  H   UNL A   1      33.667  23.176  26.188  1.00  0.00     0.170 HD
BRANCH  17  19
ATOM     19  C   UNL A   1      35.440  22.579  25.297  1.00  0.00     0.080 A 
ATOM     20  C   UNL A   1      36.524  23.413  25.595  1.00  0.00     0.032 A 
ATOM     21  C   UNL A   1      35.663  21.222  25.026  1.00  0.00     0.185 A 
ATOM     22  C   UNL A   1      37.808  22.872  25.692  1.00  0.00     0.045 A 
ATOM     23  C   UNL A   1      36.943  20.694  25.100  1.00  0.00     0.196 A 
ATOM     24  F   UNL A   1      34.659  20.431  24.612  1.00  0.00    -0.201 F 
ATOM     25  C   UNL A   1      38.007  21.514  25.447  1.00  0.00     0.162 A 
ATOM     26  F   UNL A   1      37.155  19.399  24.824  1.00  0.00    -0.200 F 
ATOM     27  F   UNL A   1      39.244  21.009  25.539  1.00  0.00    -0.204 F 
ENDBRANCH  17  19
ENDBRANCH  14  15
ENDBRANCH   9  14
ENDBRANCH   6   8
ENDBRANCH   5   6
ENDBRANCH   4   5
ENDBRANCH   3   4
ENDBRANCH   2   3
ENDBRANCH   1   2
BRANCH   1  28
ATOM     28  C   UNL A   1      32.860  29.075  27.305  1.00  0.00     0.188 C 
BRANCH  28  29
ATOM     29  O   UNL A   1      31.754  29.944  27.199  1.00  0.00    -0.376 OA
BRANCH  29  30
ATOM     30  C   UNL A   1      31.859  31.182  26.524  1.00  0.00     0.202 C 
BRANCH  30  31
ATOM     31  C   UNL A   1      31.833  32.507  27.292  1.00  0.00     0.261 C 
BRANCH  31  32
ATOM     32  O   UNL A   1      33.081  33.218  27.334  1.00  0.00    -0.460 OA
BRANCH  32  33
ATOM     33  C   UNL A   1      33.175  34.185  28.269  1.00  0.00     0.338 C 
ATOM     34  O   UNL A   1      32.383  35.117  28.458  1.00  0.00    -0.246 OA
BRANCH  33  35
ATOM     35  C   UNL A   1      34.299  33.925  29.179  1.00  0.00     0.060 A 
ATOM     36  C   UNL A   1      35.593  34.283  28.773  1.00  0.00     0.016 A 
ATOM     37  C   UNL A   1      34.099  33.263  30.393  1.00  0.00     0.016 A 
ATOM     38  C   UNL A   1      36.695  33.937  29.559  1.00  0.00     0.010 A 
ATOM     39  C   UNL A   1      35.204  32.906  31.171  1.00  0.00     0.010 A 
ATOM     40  C   UNL A   1      36.510  33.209  30.741  1.00  0.00    -0.014 A 
BRANCH  40  41
ATOM     41  C   UNL A   1      37.674  32.608  31.440  1.00  0.00     0.031 A 
ATOM     42  C   UNL A   1      38.386  31.450  30.795  1.00  0.00     0.074 A 
ATOM     43  C   UNL A   1      38.098  33.074  32.628  1.00  0.00     0.049 A 
ATOM     44  N   UNL A   1      39.377  30.723  31.246  1.00  0.00    -0.248 NA
ATOM     45  C   UNL A   1      37.911  31.060  29.459  1.00  0.00     0.031 C 
ATOM     46  C   UNL A   1      37.525  34.210  33.344  1.00  0.00     0.029 A 
ATOM     47  N   UNL A   1      39.106  32.629  33.447  1.00  0.00    -0.354 N 
ATOM     48  C   UNL A   1      39.639  29.787  30.254  1.00  0.00     0.074 A 
ATOM     49  C   UNL A   1      38.684  30.019  29.191  1.00  0.00     0.031 C 
ATOM     50  C   UNL A   1      38.183  34.368  34.505  1.00  0.00     0.029 A 
ATOM     51  C   UNL A   1      39.200  33.322  34.628  1.00  0.00     0.049 A 
ATOM     52  H   UNL A   1      39.705  31.884  33.211  1.00  0.00     0.167 HD
ATOM     53  C   UNL A   1      40.591  28.823  30.226  1.00  0.00     0.037 A 
ATOM     54  C   UNL A   1      39.999  33.120  35.695  1.00  0.00     0.037 A 
ATOM     55  C   UNL A   1      41.534  28.580  31.286  1.00  0.00     0.049 A 
ATOM     56  C   UNL A   1      40.993  31.985  35.681  1.00  0.00     0.074 A 
ATOM     57  C   UNL A   1      42.543  27.635  31.346  1.00  0.00     0.029 A 
ATOM     58  N   UNL A   1      41.575  29.281  32.483  1.00  0.00    -0.354 N 
ATOM     59  N   UNL A   1      41.252  31.119  34.731  1.00  0.00    -0.248 NA
ATOM     60  C   UNL A   1      41.807  31.802  36.892  1.00  0.00     0.031 C 
ATOM     61  C   UNL A   1      43.159  27.729  32.598  1.00  0.00     0.029 A 
ATOM     62  C   UNL A   1      42.573  28.770  33.297  1.00  0.00     0.049 A 
ATOM     63  H   UNL A   1      40.981  30.031  32.718  1.00  0.00     0.167 HD
ATOM     64  C   UNL A   1      42.274  30.311  35.215  1.00  0.00     0.074 A 
ATOM     65  C   UNL A   1      42.596  30.795  36.542  1.00  0.00     0.031 C 
ATOM     66  C   UNL A   1      42.892  29.265  34.613  1.00  0.00     0.037 A 
BRANCH  53  67
ATOM     67  C   UNL A   1      40.632  27.935  29.017  1.00  0.00     0.064 A 
ATOM     68  C   UNL A   1      41.444  28.230  27.911  1.00  0.00     0.173 A 
ATOM     69  C   UNL A   1      39.851  26.770  28.964  1.00  0.00     0.173 A 
ATOM     70  F   UNL A   1      42.199  29.339  27.904  1.00  0.00    -0.203 F 
ATOM     71  C   UNL A   1      41.445  27.413  26.783  1.00  0.00     0.198 A 
ATOM     72  C   UNL A   1      39.877  25.938  27.848  1.00  0.00     0.198 A 
ATOM     73  F   UNL A   1      39.061  26.439  29.996  1.00  0.00    -0.203 F 
ATOM     74  F   UNL A   1      42.181  27.746  25.716  1.00  0.00    -0.200 F 
ATOM     75  C   UNL A   1      40.665  26.266  26.754  1.00  0.00     0.200 A 
ATOM     76  F   UNL A   1      39.133  24.824  27.827  1.00  0.00    -0.200 F 
ATOM     77  F   UNL A   1      40.663  25.481  25.667  1.00  0.00    -0.200 F 
ENDBRANCH  53  67
BRANCH  54  78
ATOM     78  C   UNL A   1      39.893  34.012  36.878  1.00  0.00     0.064 A 
ATOM     79  C   UNL A   1      39.071  33.672  37.962  1.00  0.00     0.173 A 
ATOM     80  C   UNL A   1      40.597  35.222  36.946  1.00  0.00     0.173 A 
ATOM     81  F   UNL A   1      38.362  32.535  37.934  1.00  0.00    -0.203 F 
ATOM     82  C   UNL A   1      38.948  34.517  39.063  1.00  0.00     0.198 A 
ATOM     83  C   UNL A   1      40.494  36.054  38.059  1.00  0.00     0.198 A 
ATOM     84  F   UNL A   1      41.395  35.592  35.933  1.00  0.00    -0.203 F 
ATOM     85  F   UNL A   1      38.129  34.185  40.070  1.00  0.00    -0.200 F 
ATOM     86  C   UNL A   1      39.665  35.703  39.114  1.00  0.00     0.200 A 
ATOM     87  F   UNL A   1      41.198  37.193  38.111  1.00  0.00    -0.200 F 
ATOM     88  F   UNL A   1      39.553  36.510  40.178  1.00  0.00    -0.200 F 
ENDBRANCH  54  78
BRANCH  66  89
ATOM     89  C   UNL A   1      44.013  28.594  35.359  1.00  0.00     0.064 A 
ATOM     90  C   UNL A   1      45.341  29.029  35.246  1.00  0.00     0.173 A 
ATOM     91  C   UNL A   1      43.743  27.531  36.234  1.00  0.00     0.173 A 
ATOM     92  F   UNL A   1      45.655  30.032  34.412  1.00  0.00    -0.203 F 
ATOM     93  C   UNL A   1      46.361  28.408  35.964  1.00  0.00     0.198 A 
ATOM     94  C   UNL A   1      44.761  26.933  36.974  1.00  0.00     0.198 A 
ATOM     95  F   UNL A   1      42.489  27.080  36.385  1.00  0.00    -0.203 F 
ATOM     96  F   UNL A   1      47.629  28.811  35.807  1.00  0.00    -0.200 F 
ATOM     97  C   UNL A   1      46.069  27.368  36.834  1.00  0.00     0.200 A 
ATOM     98  F   UNL A   1      44.473  25.937  37.824  1.00  0.00    -0.200 F 
ATOM     99  F   UNL A   1      47.050  26.778  37.530  1.00  0.00    -0.200 F 
ENDBRANCH  66  89
ENDBRANCH  40  41
ENDBRANCH  33  35
ENDBRANCH  32  33
ENDBRANCH  31  32
ENDBRANCH  30  31
ENDBRANCH  29  30
ENDBRANCH  28  29
ENDBRANCH   1  28
TORSDOF 20
ENDMDL
MODEL 2
REMARK VINA RESULT:     -10.7      1.804      3.151
REMARK SMILES O=C(C[N@@H+]1CCC[C@H]1C(=O)OCCOCCOCCOC(=O)c1ccc(-c2c3nc(c(-c4c(F)c(F)c(F)c(F)c4F)c4ccc([nH]4)c(-c4c(F)c(F)c(F)c(F)c4F)c4nc(c(-c5c(F)c(F)c(F)c(F)c5F)c5ccc2[nH]5)C=C4)C=C3)cc1)Nc1ccc(F)c(F)c1F
REMARK SMILES IDX 15 1 14 2 13 3 12 4 11 5 9 6 10 7 8 8 4 9 5 10 6 12 7 13
REMARK SMILES IDX 3 14 2 15 1 16 86 17 87 19 88 20 94 21 89 22 92 23 95 24
REMARK SMILES IDX 90 25 93 26 91 27 16 28 17 29 18 30 19 31 20 32 21 33 22 34
REMARK SMILES IDX 23 35 24 36 85 37 25 38 84 39 26 40 27 41 28 42 78 43 29 44
REMARK SMILES IDX 83 45 77 46 79 47 30 48 82 49 76 50 75 51 31 53 63 54 43 55
REMARK SMILES IDX 62 56 44 57 47 58 61 59 80 60 45 61 46 62 60 64 81 65 48 66
REMARK SMILES IDX 32 67 33 68 41 69 34 70 35 71 39 72 42 73 36 74 37 75 40 76
REMARK SMILES IDX 38 77 64 78 65 79 73 80 66 81 67 82 71 83 74 84 68 85 69 86
REMARK SMILES IDX 72 87 70 88 49 89 50 90 58 91 51 92 52 93 56 94 59 95 53 96
REMARK SMILES IDX 54 97 57 98 55 99
REMARK H PARENT 4 11 86 18 79 52 47 63
REMARK Flexibility Score: inf
ROOT
ATOM      1  C   UNL A   1      33.992  27.528  25.670  1.00  0.00     0.188 C 
ENDROOT
BRANCH   1   2
ATOM      2  O   UNL A   1      33.672  27.285  24.315  1.00  0.00    -0.376 OA
BRANCH   2   3
ATOM      3  C   UNL A   1      33.924  28.278  23.345  1.00  0.00     0.202 C 
BRANCH   3   4
ATOM      4  C   UNL A   1      32.859  29.333  23.038  1.00  0.00     0.261 C 
BRANCH   4   5
ATOM      5  O   UNL A   1      31.722  28.888  22.288  1.00  0.00    -0.459 OA
BRANCH   5   6
ATOM      6  C   UNL A   1      30.556  28.765  22.995  1.00  0.00     0.365 C 
ATOM      7  O   UNL A   1      30.051  29.661  23.657  1.00  0.00    -0.245 OA
BRANCH   6   8
ATOM      8  C   UNL A   1      30.035  27.316  22.892  1.00  0.00     0.295 C 
ATOM      9  N   UNL A   1      30.952  26.383  23.635  1.00  0.00    -0.315 N 
ATOM     10  C   UNL A   1      30.275  26.188  24.926  1.00  0.00     0.263 C 
ATOM     11  H   UNL A   1      31.898  26.711  23.832  1.00  0.00     0.349 HD
ATOM     12  C   UNL A   1      28.819  26.030  24.580  1.00  0.00     0.068 C 
ATOM     13  C   UNL A   1      28.641  27.081  23.501  1.00  0.00     0.083 C 
BRANCH   9  14
ATOM     14  C   UNL A   1      31.186  25.189  22.781  1.00  0.00     0.364 C 
BRANCH  14  15
ATOM     15  C   UNL A   1      32.567  24.570  22.901  1.00  0.00     0.279 C 
ATOM     16  O   UNL A   1      33.267  24.410  21.902  1.00  0.00    -0.268 OA
ATOM     17  N   UNL A   1      32.874  24.131  24.177  1.00  0.00    -0.319 N 
ATOM     18  H   UNL A   1      32.248  24.323  24.912  1.00  0.00     0.170 HD
BRANCH  17  19
ATOM     19  C   UNL A   1      34.056  23.419  24.456  1.00  0.00     0.080 A 
ATOM     20  C   UNL A   1      35.170  24.149  24.886  1.00  0.00     0.032 A 
ATOM     21  C   UNL A   1      34.135  22.022  24.365  1.00  0.00     0.185 A 
ATOM     22  C   UNL A   1      36.326  23.476  25.290  1.00  0.00     0.045 A 
ATOM     23  C   UNL A   1      35.294  21.360  24.744  1.00  0.00     0.196 A 
ATOM     24  F   UNL A   1      33.128  21.311  23.834  1.00  0.00    -0.201 F 
ATOM     25  C   UNL A   1      36.377  22.085  25.219  1.00  0.00     0.162 A 
ATOM     26  F   UNL A   1      35.371  20.025  24.640  1.00  0.00    -0.200 F 
ATOM     27  F   UNL A   1      37.493  21.453  25.606  1.00  0.00    -0.204 F 
ENDBRANCH  17  19
ENDBRANCH  14  15
ENDBRANCH   9  14
ENDBRANCH   6   8
ENDBRANCH   5   6
ENDBRANCH   4   5
ENDBRANCH   3   4
ENDBRANCH   2   3
ENDBRANCH   1   2
BRANCH   1  28
ATOM     28  C   UNL A   1      33.049  27.125  26.829  1.00  0.00     0.188 C 
BRANCH  28  29
ATOM     29  O   UNL A   1      32.195  28.057  27.456  1.00  0.00    -0.376 OA
BRANCH  29  30
ATOM     30  C   UNL A   1      31.418  28.961  26.696  1.00  0.00     0.202 C 
BRANCH  30  31
ATOM     31  C   UNL A   1      31.763  30.453  26.648  1.00  0.00     0.261 C 
BRANCH  31  32
ATOM     32  O   UNL A   1      33.151  30.757  26.436  1.00  0.00    -0.460 OA
BRANCH  32  33
ATOM     33  C   UNL A   1      33.678  31.693  27.251  1.00  0.00     0.338 C 
ATOM     34  O   UNL A   1      33.126  32.722  27.659  1.00  0.00    -0.246 OA
BRANCH  33  35
ATOM     35  C   UNL A   1      34.998  31.272  27.744  1.00  0.00     0.060 A 
ATOM     36  C   UNL A   1      35.220  29.911  28.001  1.00  0.00     0.016 A 
ATOM     37  C   UNL A   1      35.990  32.215  28.028  1.00  0.00     0.016 A 
ATOM     38  C   UNL A   1      36.417  29.495  28.588  1.00  0.00     0.010 A 
ATOM     39  C   UNL A   1      37.182  31.797  28.628  1.00  0.00     0.010 A 
ATOM     40  C   UNL A   1      37.388  30.441  28.943  1.00  0.00    -0.014 A 
BRANCH  40  41
ATOM     41  C   UNL A   1      38.535  30.049  29.801  1.00  0.00     0.031 A 
ATOM     42  C   UNL A   1      39.534  29.060  29.265  1.00  0.00     0.074 A 
ATOM     43  C   UNL A   1      38.695  30.556  31.035  1.00  0.00     0.049 A 
ATOM     44  N   UNL A   1      40.571  28.517  29.853  1.00  0.00    -0.248 NA
ATOM     45  C   UNL A   1      39.330  28.621  27.876  1.00  0.00     0.031 C 
ATOM     46  C   UNL A   1      37.826  31.549  31.661  1.00  0.00     0.029 A 
ATOM     47  N   UNL A   1      39.645  30.286  31.990  1.00  0.00    -0.354 N 
ATOM     48  C   UNL A   1      41.138  27.671  28.910  1.00  0.00     0.074 A 
ATOM     49  C   UNL A   1      40.314  27.748  27.721  1.00  0.00     0.031 C 
ATOM     50  C   UNL A   1      38.275  31.797  32.904  1.00  0.00     0.029 A 
ATOM     51  C   UNL A   1      39.442  30.955  33.171  1.00  0.00     0.049 A 
ATOM     52  H   UNL A   1      40.399  29.671  31.842  1.00  0.00     0.167 HD
ATOM     53  C   UNL A   1      42.248  26.901  29.018  1.00  0.00     0.037 A 
ATOM     54  C   UNL A   1      40.109  30.878  34.340  1.00  0.00     0.037 A 
ATOM     55  C   UNL A   1      43.063  26.811  30.201  1.00  0.00     0.049 A 
ATOM     56  C   UNL A   1      41.289  29.948  34.469  1.00  0.00     0.074 A 
ATOM     57  C   UNL A   1      44.212  26.068  30.404  1.00  0.00     0.029 A 
ATOM     58  N   UNL A   1      42.805  27.478  31.390  1.00  0.00    -0.354 N 
ATOM     59  N   UNL A   1      41.834  29.168  33.567  1.00  0.00    -0.248 NA
ATOM     60  C   UNL A   1      41.947  29.889  35.784  1.00  0.00     0.031 C 
ATOM     61  C   UNL A   1      44.620  26.243  31.731  1.00  0.00     0.029 A 
ATOM     62  C   UNL A   1      43.758  27.141  32.338  1.00  0.00     0.049 A 
ATOM     63  H   UNL A   1      42.055  28.099  31.538  1.00  0.00     0.167 HD
ATOM     64  C   UNL A   1      42.912  28.553  34.192  1.00  0.00     0.074 A 
ATOM     65  C   UNL A   1      42.950  29.055  35.550  1.00  0.00     0.031 C 
ATOM     66  C   UNL A   1      43.793  27.654  33.686  1.00  0.00     0.037 A 
BRANCH  53  67
ATOM     67  C   UNL A   1      42.622  26.066  27.829  1.00  0.00     0.064 A 
ATOM     68  C   UNL A   1      41.991  24.842  27.558  1.00  0.00     0.173 A 
ATOM     69  C   UNL A   1      43.623  26.497  26.944  1.00  0.00     0.173 A 
ATOM     70  F   UNL A   1      41.038  24.377  28.380  1.00  0.00    -0.203 F 
ATOM     71  C   UNL A   1      42.374  24.063  26.469  1.00  0.00     0.198 A 
ATOM     72  C   UNL A   1      43.982  25.730  25.839  1.00  0.00     0.198 A 
ATOM     73  F   UNL A   1      44.254  27.661  27.154  1.00  0.00    -0.203 F 
ATOM     74  F   UNL A   1      41.800  22.870  26.265  1.00  0.00    -0.200 F 
ATOM     75  C   UNL A   1      43.365  24.509  25.608  1.00  0.00     0.200 A 
ATOM     76  F   UNL A   1      44.931  26.169  25.001  1.00  0.00    -0.200 F 
ATOM     77  F   UNL A   1      43.735  23.758  24.561  1.00  0.00    -0.200 F 
ENDBRANCH  53  67
BRANCH  54  78
ATOM     78  C   UNL A   1      39.674  31.706  35.495  1.00  0.00     0.064 A 
ATOM     79  C   UNL A   1      40.265  32.952  35.747  1.00  0.00     0.173 A 
ATOM     80  C   UNL A   1      38.676  31.266  36.375  1.00  0.00     0.173 A 
ATOM     81  F   UNL A   1      41.239  33.407  34.946  1.00  0.00    -0.203 F 
ATOM     82  C   UNL A   1      39.879  33.722  36.843  1.00  0.00     0.198 A 
ATOM     83  C   UNL A   1      38.272  32.048  37.455  1.00  0.00     0.198 A 
ATOM     84  F   UNL A   1      38.082  30.080  36.177  1.00  0.00    -0.203 F 
ATOM     85  F   UNL A   1      40.483  34.894  37.080  1.00  0.00    -0.200 F 
ATOM     86  C   UNL A   1      38.879  33.272  37.692  1.00  0.00     0.200 A 
ATOM     87  F   UNL A   1      37.297  31.616  38.266  1.00  0.00    -0.200 F 
ATOM     88  F   UNL A   1      38.504  34.017  38.740  1.00  0.00    -0.200 F 
ENDBRANCH  54  78
BRANCH  66  89
ATOM     89  C   UNL A   1      44.904  27.184  34.583  1.00  0.00     0.064 A 
ATOM     90  C   UNL A   1      44.782  26.030  35.370  1.00  0.00     0.173 A 
ATOM     91  C   UNL A   1      46.125  27.875  34.618  1.00  0.00     0.173 A 
ATOM     92  F   UNL A   1      43.631  25.341  35.384  1.00  0.00    -0.203 F 
ATOM     93  C   UNL A   1      45.833  25.599  36.177  1.00  0.00     0.198 A 
ATOM     94  C   UNL A   1      47.184  27.424  35.402  1.00  0.00     0.198 A 
ATOM     95  F   UNL A   1      46.298  28.982  33.880  1.00  0.00    -0.203 F 
ATOM     96  F   UNL A   1      45.678  24.519  36.954  1.00  0.00    -0.200 F 
ATOM     97  C   UNL A   1      47.035  26.291  36.185  1.00  0.00     0.200 A 
ATOM     98  F   UNL A   1      48.350  28.086  35.397  1.00  0.00    -0.200 F 
ATOM     99  F   UNL A   1      48.048  25.869  36.955  1.00  0.00    -0.200 F 
ENDBRANCH  66  89
ENDBRANCH  40  41
ENDBRANCH  33  35
ENDBRANCH  32  33
ENDBRANCH  31  32
ENDBRANCH  30  31
ENDBRANCH  29  30
ENDBRANCH  28  29
ENDBRANCH   1  28
TORSDOF 20
ENDMDL
MODEL 3
REMARK VINA RESULT:     -10.5      2.746      8.206
REMARK SMILES O=C(C[N@@H+]1CCC[C@H]1C(=O)OCCOCCOCCOC(=O)c1ccc(-c2c3nc(c(-c4c(F)c(F)c(F)c(F)c4F)c4ccc([nH]4)c(-c4c(F)c(F)c(F)c(F)c4F)c4nc(c(-c5c(F)c(F)c(F)c(F)c5F)c5ccc2[nH]5)C=C4)C=C3)cc1)Nc1ccc(F)c(F)c1F
REMARK SMILES IDX 15 1 14 2 13 3 12 4 11 5 9 6 10 7 8 8 4 9 5 10 6 12 7 13
REMARK SMILES IDX 3 14 2 15 1 16 86 17 87 19 88 20 94 21 89 22 92 23 95 24
REMARK SMILES IDX 90 25 93 26 91 27 16 28 17 29 18 30 19 31 20 32 21 33 22 34
REMARK SMILES IDX 23 35 24 36 85 37 25 38 84 39 26 40 27 41 28 42 78 43 29 44
REMARK SMILES IDX 83 45 77 46 79 47 30 48 82 49 76 50 75 51 31 53 63 54 43 55
REMARK SMILES IDX 62 56 44 57 47 58 61 59 80 60 45 61 46 62 60 64 81 65 48 66
REMARK SMILES IDX 32 67 33 68 41 69 34 70 35 71 39 72 42 73 36 74 37 75 40 76
REMARK SMILES IDX 38 77 64 78 65 79 73 80 66 81 67 82 71 83 74 84 68 85 69 86
REMARK SMILES IDX 72 87 70 88 49 89 50 90 58 91 51 92 52 93 56 94 59 95 53 96
REMARK SMILES IDX 54 97 57 98 55 99
REMARK H PARENT 4 11 86 18 79 52 47 63
REMARK Flexibility Score: inf
ROOT
ATOM      1  C   UNL A   1      33.351  29.249  26.720  1.00  0.00     0.188 C 
ENDROOT
BRANCH   1   2
ATOM      2  O   UNL A   1      33.514  27.905  26.316  1.00  0.00    -0.376 OA
BRANCH   2   3
ATOM      3  C   UNL A   1      32.380  27.115  26.029  1.00  0.00     0.202 C 
BRANCH   3   4
ATOM      4  C   UNL A   1      32.117  25.837  26.829  1.00  0.00     0.261 C 
BRANCH   4   5
ATOM      5  O   UNL A   1      31.035  25.015  26.374  1.00  0.00    -0.459 OA
BRANCH   5   6
ATOM      6  C   UNL A   1      31.189  23.670  26.570  1.00  0.00     0.365 C 
ATOM      7  O   UNL A   1      31.257  23.133  27.668  1.00  0.00    -0.245 OA
BRANCH   6   8
ATOM      8  C   UNL A   1      31.347  22.959  25.209  1.00  0.00     0.295 C 
ATOM      9  N   UNL A   1      32.371  23.672  24.370  1.00  0.00    -0.315 N 
ATOM     10  C   UNL A   1      33.590  22.871  24.558  1.00  0.00     0.263 C 
ATOM     11  H   UNL A   1      32.596  24.635  24.619  1.00  0.00     0.349 HD
ATOM     12  C   UNL A   1      33.127  21.440  24.500  1.00  0.00     0.068 C 
ATOM     13  C   UNL A   1      31.833  21.501  25.288  1.00  0.00     0.083 C 
BRANCH   9  14
ATOM     14  C   UNL A   1      31.827  23.803  22.992  1.00  0.00     0.364 C 
BRANCH  14  15
ATOM     15  C   UNL A   1      31.437  25.212  22.584  1.00  0.00     0.279 C 
ATOM     16  O   UNL A   1      32.087  25.818  21.734  1.00  0.00    -0.268 OA
ATOM     17  N   UNL A   1      30.393  25.739  23.325  1.00  0.00    -0.319 N 
ATOM     18  H   UNL A   1      29.928  25.163  23.974  1.00  0.00     0.170 HD
BRANCH  17  19
ATOM     19  C   UNL A   1      29.975  27.076  23.178  1.00  0.00     0.080 A 
ATOM     20  C   UNL A   1      30.924  28.011  22.749  1.00  0.00     0.032 A 
ATOM     21  C   UNL A   1      28.651  27.482  23.396  1.00  0.00     0.185 A 
ATOM     22  C   UNL A   1      30.529  29.322  22.472  1.00  0.00     0.045 A 
ATOM     23  C   UNL A   1      28.269  28.791  23.142  1.00  0.00     0.196 A 
ATOM     24  F   UNL A   1      27.754  26.637  23.929  1.00  0.00    -0.201 F 
ATOM     25  C   UNL A   1      29.202  29.701  22.668  1.00  0.00     0.162 A 
ATOM     26  F   UNL A   1      27.005  29.179  23.368  1.00  0.00    -0.200 F 
ATOM     27  F   UNL A   1      28.838  30.962  22.403  1.00  0.00    -0.204 F 
ENDBRANCH  17  19
ENDBRANCH  14  15
ENDBRANCH   9  14
ENDBRANCH   6   8
ENDBRANCH   5   6
ENDBRANCH   4   5
ENDBRANCH   3   4
ENDBRANCH   2   3
ENDBRANCH   1   2
BRANCH   1  28
ATOM     28  C   UNL A   1      32.167  30.121  26.236  1.00  0.00     0.188 C 
BRANCH  28  29
ATOM     29  O   UNL A   1      31.616  31.144  27.037  1.00  0.00    -0.376 OA
BRANCH  29  30
ATOM     30  C   UNL A   1      31.432  32.450  26.529  1.00  0.00     0.202 C 
BRANCH  30  31
ATOM     31  C   UNL A   1      32.124  33.655  27.175  1.00  0.00     0.261 C 
BRANCH  31  32
ATOM     32  O   UNL A   1      33.170  33.336  28.107  1.00  0.00    -0.460 OA
BRANCH  32  33
ATOM     33  C   UNL A   1      34.325  34.013  27.948  1.00  0.00     0.338 C 
ATOM     34  O   UNL A   1      34.454  35.209  27.657  1.00  0.00    -0.246 OA
BRANCH  33  35
ATOM     35  C   UNL A   1      35.476  33.174  28.313  1.00  0.00     0.060 A 
ATOM     36  C   UNL A   1      35.277  31.798  28.502  1.00  0.00     0.016 A 
ATOM     37  C   UNL A   1      36.731  33.743  28.545  1.00  0.00     0.016 A 
ATOM     38  C   UNL A   1      36.320  30.997  28.970  1.00  0.00     0.010 A 
ATOM     39  C   UNL A   1      37.770  32.941  29.026  1.00  0.00     0.010 A 
ATOM     40  C   UNL A   1      37.561  31.572  29.276  1.00  0.00    -0.014 A 
BRANCH  40  41
ATOM     41  C   UNL A   1      38.584  30.793  30.018  1.00  0.00     0.031 A 
ATOM     42  C   UNL A   1      38.792  31.081  31.480  1.00  0.00     0.074 A 
ATOM     43  C   UNL A   1      39.320  29.845  29.413  1.00  0.00     0.049 A 
ATOM     44  N   UNL A   1      39.670  30.582  32.313  1.00  0.00    -0.248 NA
ATOM     45  C   UNL A   1      37.887  32.073  32.081  1.00  0.00     0.031 C 
ATOM     46  C   UNL A   1      39.194  29.438  28.017  1.00  0.00     0.029 A 
ATOM     47  N   UNL A   1      40.337  29.062  29.905  1.00  0.00    -0.354 N 
ATOM     48  C   UNL A   1      39.428  31.202  33.532  1.00  0.00     0.074 A 
ATOM     49  C   UNL A   1      38.340  32.135  33.323  1.00  0.00     0.031 C 
ATOM     50  C   UNL A   1      40.110  28.488  27.757  1.00  0.00     0.029 A 
ATOM     51  C   UNL A   1      40.907  28.246  28.960  1.00  0.00     0.049 A 
ATOM     52  H   UNL A   1      40.629  29.085  30.845  1.00  0.00     0.167 HD
ATOM     53  C   UNL A   1      40.049  31.010  34.721  1.00  0.00     0.037 A 
ATOM     54  C   UNL A   1      41.965  27.416  29.052  1.00  0.00     0.037 A 
ATOM     55  C   UNL A   1      41.139  30.093  34.930  1.00  0.00     0.049 A 
ATOM     56  C   UNL A   1      42.699  27.282  30.363  1.00  0.00     0.074 A 
ATOM     57  C   UNL A   1      41.826  29.820  36.100  1.00  0.00     0.029 A 
ATOM     58  N   UNL A   1      41.711  29.308  33.940  1.00  0.00    -0.354 N 
ATOM     59  N   UNL A   1      42.451  27.852  31.517  1.00  0.00    -0.248 NA
ATOM     60  C   UNL A   1      43.866  26.385  30.380  1.00  0.00     0.031 C 
ATOM     61  C   UNL A   1      42.847  28.910  35.807  1.00  0.00     0.029 A 
ATOM     62  C   UNL A   1      42.761  28.572  34.467  1.00  0.00     0.049 A 
ATOM     63  H   UNL A   1      41.415  29.279  33.002  1.00  0.00     0.167 HD
ATOM     64  C   UNL A   1      43.404  27.363  32.401  1.00  0.00     0.074 A 
ATOM     65  C   UNL A   1      44.234  26.442  31.653  1.00  0.00     0.031 C 
ATOM     66  C   UNL A   1      43.576  27.649  33.716  1.00  0.00     0.037 A 
BRANCH  53  67
ATOM     67  C   UNL A   1      39.581  31.839  35.881  1.00  0.00     0.064 A 
ATOM     68  C   UNL A   1      38.518  31.431  36.700  1.00  0.00     0.173 A 
ATOM     69  C   UNL A   1      40.208  33.060  36.180  1.00  0.00     0.173 A 
ATOM     70  F   UNL A   1      37.875  30.280  36.448  1.00  0.00    -0.203 F 
ATOM     71  C   UNL A   1      38.074  32.229  37.751  1.00  0.00     0.198 A 
ATOM     72  C   UNL A   1      39.782  33.840  37.251  1.00  0.00     0.198 A 
ATOM     73  F   UNL A   1      41.232  33.494  35.431  1.00  0.00    -0.203 F 
ATOM     74  F   UNL A   1      37.019  31.847  38.482  1.00  0.00    -0.200 F 
ATOM     75  C   UNL A   1      38.710  33.431  38.029  1.00  0.00     0.200 A 
ATOM     76  F   UNL A   1      40.405  34.995  37.525  1.00  0.00    -0.200 F 
ATOM     77  F   UNL A   1      38.281  34.200  39.039  1.00  0.00    -0.200 F 
ENDBRANCH  53  67
BRANCH  54  78
ATOM     78  C   UNL A   1      42.403  26.642  27.862  1.00  0.00     0.064 A 
ATOM     79  C   UNL A   1      41.922  25.345  27.632  1.00  0.00     0.173 A 
ATOM     80  C   UNL A   1      43.317  27.173  26.941  1.00  0.00     0.173 A 
ATOM     81  F   UNL A   1      41.063  24.786  28.496  1.00  0.00    -0.203 F 
ATOM     82  C   UNL A   1      42.350  24.605  26.532  1.00  0.00     0.198 A 
ATOM     83  C   UNL A   1      43.723  26.442  25.827  1.00  0.00     0.198 A 
ATOM     84  F   UNL A   1      43.807  28.409  27.118  1.00  0.00    -0.203 F 
ATOM     85  F   UNL A   1      41.901  23.355  26.354  1.00  0.00    -0.200 F 
ATOM     86  C   UNL A   1      43.244  25.156  25.626  1.00  0.00     0.200 A 
ATOM     87  F   UNL A   1      44.577  26.983  24.947  1.00  0.00    -0.200 F 
ATOM     88  F   UNL A   1      43.646  24.446  24.564  1.00  0.00    -0.200 F 
ENDBRANCH  54  78
BRANCH  66  89
ATOM     89  C   UNL A   1      44.673  26.929  34.449  1.00  0.00     0.064 A 
ATOM     90  C   UNL A   1      45.957  27.476  34.585  1.00  0.00     0.173 A 
ATOM     91  C   UNL A   1      44.419  25.694  35.066  1.00  0.00     0.173 A 
ATOM     92  F   UNL A   1      46.255  28.648  34.003  1.00  0.00    -0.203 F 
ATOM     93  C   UNL A   1      46.952  26.803  35.290  1.00  0.00     0.198 A 
ATOM     94  C   UNL A   1      45.407  25.038  35.795  1.00  0.00     0.198 A 
ATOM     95  F   UNL A   1      43.206  25.128  34.973  1.00  0.00    -0.203 F 
ATOM     96  F   UNL A   1      48.184  27.324  35.368  1.00  0.00    -0.200 F 
ATOM     97  C   UNL A   1      46.674  25.589  35.901  1.00  0.00     0.200 A 
ATOM     98  F   UNL A   1      45.132  23.872  36.398  1.00  0.00    -0.200 F 
ATOM     99  F   UNL A   1      47.630  24.948  36.587  1.00  0.00    -0.200 F 
ENDBRANCH  66  89
ENDBRANCH  40  41
ENDBRANCH  33  35
ENDBRANCH  32  33
ENDBRANCH  31  32
ENDBRANCH  30  31
ENDBRANCH  29  30
ENDBRANCH  28  29
ENDBRANCH   1  28
TORSDOF 20
ENDMDL
