MODEL 1
REMARK VINA RESULT:     -12.1      0.000      0.000
REMARK SMILES Cn1cc([C@@H]2CC(OCCOCCOCCOC(=O)c3ccc(-c4c5nc(c(-c6c(F)c(F)c(F)c(F)c6F)c6ccc([nH]6)c(-c6c(F)c(F)c(F)c(F)c6F)c6nc(c(-c7c(F)c(F)c(F)c(F)c7F)c7ccc4[nH]7)C=C6)C=C5)cc3)=Nc3c2sc(C(=O)[O-])c3-c2ccc(Cl)cc2)cn1
REMARK SMILES IDX 13 1 12 2 11 3 10 4 9 5 8 6 7 7 5 8 6 9 85 10 84 11 86 12
REMARK SMILES IDX 83 13 91 14 87 15 4 16 1 17 2 18 3 19 100 20 99 21 92 22
REMARK SMILES IDX 93 23 98 24 94 25 97 26 95 27 96 28 88 29 89 30 90 31 14 32
REMARK SMILES IDX 15 33 16 34 17 35 18 36 19 37 20 38 21 39 82 40 22 41 81 42
REMARK SMILES IDX 23 43 24 44 25 45 75 46 26 47 80 48 74 49 76 50 27 51 79 52
REMARK SMILES IDX 73 53 72 54 28 56 60 57 40 58 59 59 41 60 44 61 58 62 77 63
REMARK SMILES IDX 42 64 43 65 57 67 78 68 45 69 29 70 30 71 38 72 31 73 32 74
REMARK SMILES IDX 36 75 39 76 33 77 34 78 37 79 35 80 61 81 62 82 70 83 63 84
REMARK SMILES IDX 64 85 68 86 71 87 65 88 66 89 69 90 67 91 46 92 47 93 55 94
REMARK SMILES IDX 48 95 49 96 53 97 56 98 50 99 51 100 54 101 52 102
REMARK H PARENT 76 55 44 66
REMARK Flexibility Score: inf
ROOT
ATOM      1  C   UNL A   1      34.602  34.567  28.077  1.00  0.00     0.188 C 
ENDROOT
BRANCH   1   2
ATOM      2  C   UNL A   1      33.727  33.366  27.756  1.00  0.00     0.188 C 
BRANCH   2   3
ATOM      3  O   UNL A   1      34.428  32.136  27.653  1.00  0.00    -0.376 OA
BRANCH   3   4
ATOM      4  C   UNL A   1      33.652  30.941  27.645  1.00  0.00     0.201 C 
BRANCH   4   5
ATOM      5  C   UNL A   1      34.172  29.689  26.911  1.00  0.00     0.259 C 
BRANCH   5   6
ATOM      6  O   UNL A   1      33.656  28.364  27.230  1.00  0.00    -0.478 OA
BRANCH   6   7
ATOM      7  C   UNL A   1      32.908  27.548  26.456  1.00  0.00     0.189 C 
ATOM      8  C   UNL A   1      30.758  27.182  25.109  1.00  0.00     0.074 C 
ATOM      9  C   UNL A   1      31.518  28.033  26.129  1.00  0.00     0.111 C 
ATOM     10  C   UNL A   1      31.495  25.923  24.802  1.00  0.00     0.040 A 
ATOM     11  C   UNL A   1      32.735  25.588  25.269  1.00  0.00     0.090 A 
ATOM     12  S   UNL A   1      30.837  24.703  23.826  1.00  0.00    -0.135 S 
ATOM     13  N   UNL A   1      33.463  26.419  26.129  1.00  0.00    -0.216 NA
ATOM     14  C   UNL A   1      33.229  24.340  24.739  1.00  0.00     0.028 A 
ATOM     15  C   UNL A   1      32.237  23.713  23.979  1.00  0.00     0.060 A 
BRANCH   8  16
ATOM     16  C   UNL A   1      30.373  27.955  23.870  1.00  0.00    -0.001 A 
ATOM     17  C   UNL A   1      28.388  29.966  21.627  1.00  0.00     0.173 C 
ATOM     18  N   UNL A   1      29.355  29.160  22.333  1.00  0.00    -0.276 N 
ATOM     19  C   UNL A   1      29.128  28.324  23.391  1.00  0.00     0.112 A 
ATOM     20  N   UNL A   1      30.653  29.252  21.999  1.00  0.00    -0.182 NA
ATOM     21  C   UNL A   1      31.271  28.550  22.949  1.00  0.00     0.139 A 
ENDBRANCH   8  16
BRANCH  14  22
ATOM     22  C   UNL A   1      34.541  23.719  24.975  1.00  0.00    -0.015 A 
ATOM     23  C   UNL A   1      35.620  23.946  24.101  1.00  0.00     0.010 A 
ATOM     24  C   UNL A   1      34.712  22.818  26.035  1.00  0.00     0.010 A 
ATOM     25  C   UNL A   1      36.804  23.211  24.223  1.00  0.00     0.021 A 
ATOM     26  C   UNL A   1      35.905  22.097  26.168  1.00  0.00     0.021 A 
ATOM     27  C   UNL A   1      36.934  22.277  25.246  1.00  0.00     0.041 A 
ATOM     28  Cl  UNL A   1      38.362  21.323  25.360  1.00  0.00    -0.084 Cl
ENDBRANCH  14  22
BRANCH  15  29
ATOM     29  C   UNL A   1      32.153  22.420  23.326  1.00  0.00     0.082 C 
ATOM     30  O   UNL A   1      31.819  21.350  23.814  1.00  0.00    -0.544 OA
ATOM     31  O   UNL A   1      32.549  22.451  22.037  1.00  0.00    -0.544 OA
ENDBRANCH  15  29
ENDBRANCH   6   7
ENDBRANCH   5   6
ENDBRANCH   4   5
ENDBRANCH   3   4
ENDBRANCH   2   3
ENDBRANCH   1   2
BRANCH   1  32
ATOM     32  O   UNL A   1      34.227  35.352  29.209  1.00  0.00    -0.376 OA
BRANCH  32  33
ATOM     33  C   UNL A   1      33.666  34.694  30.341  1.00  0.00     0.202 C 
BRANCH  33  34
ATOM     34  C   UNL A   1      34.624  33.923  31.246  1.00  0.00     0.261 C 
BRANCH  34  35
ATOM     35  O   UNL A   1      34.565  32.519  31.066  1.00  0.00    -0.460 OA
BRANCH  35  36
ATOM     36  C   UNL A   1      35.623  31.859  31.583  1.00  0.00     0.338 C 
ATOM     37  O   UNL A   1      35.976  31.804  32.748  1.00  0.00    -0.246 OA
BRANCH  36  38
ATOM     38  C   UNL A   1      36.408  31.289  30.482  1.00  0.00     0.060 A 
ATOM     39  C   UNL A   1      36.292  29.906  30.319  1.00  0.00     0.016 A 
ATOM     40  C   UNL A   1      37.520  32.014  30.036  1.00  0.00     0.016 A 
ATOM     41  C   UNL A   1      37.434  29.207  30.021  1.00  0.00     0.010 A 
ATOM     42  C   UNL A   1      38.667  31.315  29.775  1.00  0.00     0.010 A 
ATOM     43  C   UNL A   1      38.624  29.928  29.885  1.00  0.00    -0.014 A 
BRANCH  43  44
ATOM     44  C   UNL A   1      39.858  29.188  29.898  1.00  0.00     0.031 A 
ATOM     45  C   UNL A   1      40.427  29.009  31.245  1.00  0.00     0.074 A 
ATOM     46  C   UNL A   1      40.356  28.631  28.781  1.00  0.00     0.049 A 
ATOM     47  N   UNL A   1      41.530  29.489  31.707  1.00  0.00    -0.248 NA
ATOM     48  C   UNL A   1      39.585  28.341  32.248  1.00  0.00     0.031 C 
ATOM     49  C   UNL A   1      39.733  28.482  27.463  1.00  0.00     0.029 A 
ATOM     50  N   UNL A   1      41.530  27.970  28.640  1.00  0.00    -0.354 N 
ATOM     51  C   UNL A   1      41.611  29.043  33.021  1.00  0.00     0.074 A 
ATOM     52  C   UNL A   1      40.320  28.496  33.348  1.00  0.00     0.031 C 
ATOM     53  C   UNL A   1      40.439  27.579  26.743  1.00  0.00     0.029 A 
ATOM     54  C   UNL A   1      41.616  27.190  27.500  1.00  0.00     0.049 A 
ATOM     55  H   UNL A   1      42.262  28.039  29.295  1.00  0.00     0.167 HD
ATOM     56  C   UNL A   1      42.808  28.956  33.659  1.00  0.00     0.037 A 
ATOM     57  C   UNL A   1      42.541  26.220  27.298  1.00  0.00     0.037 A 
ATOM     58  C   UNL A   1      43.808  29.759  33.003  1.00  0.00     0.049 A 
ATOM     59  C   UNL A   1      43.677  26.496  28.227  1.00  0.00     0.074 A 
ATOM     60  C   UNL A   1      43.921  31.108  32.721  1.00  0.00     0.029 A 
ATOM     61  N   UNL A   1      44.720  29.135  32.185  1.00  0.00    -0.354 N 
ATOM     62  N   UNL A   1      44.465  27.533  28.120  1.00  0.00    -0.248 NA
ATOM     63  C   UNL A   1      43.634  25.885  29.552  1.00  0.00     0.031 C 
ATOM     64  C   UNL A   1      44.507  31.165  31.422  1.00  0.00     0.029 A 
ATOM     65  C   UNL A   1      44.766  29.856  31.018  1.00  0.00     0.049 A 
ATOM     66  H   UNL A   1      45.240  28.326  32.397  1.00  0.00     0.167 HD
ATOM     67  C   UNL A   1      44.691  27.951  29.426  1.00  0.00     0.074 A 
ATOM     68  C   UNL A   1      44.216  26.854  30.266  1.00  0.00     0.031 C 
ATOM     69  C   UNL A   1      44.963  29.257  29.719  1.00  0.00     0.037 A 
BRANCH  56  70
ATOM     70  C   UNL A   1      43.156  27.873  34.650  1.00  0.00     0.064 A 
ATOM     71  C   UNL A   1      43.526  28.246  35.956  1.00  0.00     0.173 A 
ATOM     72  C   UNL A   1      43.434  26.534  34.297  1.00  0.00     0.173 A 
ATOM     73  F   UNL A   1      43.313  29.495  36.398  1.00  0.00    -0.203 F 
ATOM     74  C   UNL A   1      44.214  27.375  36.803  1.00  0.00     0.198 A 
ATOM     75  C   UNL A   1      44.069  25.651  35.166  1.00  0.00     0.198 A 
ATOM     76  F   UNL A   1      43.211  26.052  33.070  1.00  0.00    -0.203 F 
ATOM     77  F   UNL A   1      44.669  27.819  37.983  1.00  0.00    -0.200 F 
ATOM     78  C   UNL A   1      44.495  26.082  36.404  1.00  0.00     0.200 A 
ATOM     79  F   UNL A   1      44.342  24.405  34.754  1.00  0.00    -0.200 F 
ATOM     80  F   UNL A   1      45.215  25.268  37.185  1.00  0.00    -0.200 F 
ENDBRANCH  56  70
BRANCH  57  81
ATOM     81  C   UNL A   1      42.312  24.895  26.671  1.00  0.00     0.064 A 
ATOM     82  C   UNL A   1      43.055  24.489  25.552  1.00  0.00     0.173 A 
ATOM     83  C   UNL A   1      41.547  23.895  27.306  1.00  0.00     0.173 A 
ATOM     84  F   UNL A   1      43.848  25.365  24.916  1.00  0.00    -0.203 F 
ATOM     85  C   UNL A   1      43.049  23.161  25.108  1.00  0.00     0.198 A 
ATOM     86  C   UNL A   1      41.533  22.574  26.856  1.00  0.00     0.198 A 
ATOM     87  F   UNL A   1      40.870  24.150  28.434  1.00  0.00    -0.203 F 
ATOM     88  F   UNL A   1      43.820  22.799  24.073  1.00  0.00    -0.200 F 
ATOM     89  C   UNL A   1      42.294  22.204  25.766  1.00  0.00     0.200 A 
ATOM     90  F   UNL A   1      40.824  21.653  27.526  1.00  0.00    -0.200 F 
ATOM     91  F   UNL A   1      42.332  20.922  25.378  1.00  0.00    -0.200 F 
ENDBRANCH  57  81
BRANCH  69  92
ATOM     92  C   UNL A   1      45.227  30.199  28.578  1.00  0.00     0.064 A 
ATOM     93  C   UNL A   1      44.215  30.905  27.903  1.00  0.00     0.173 A 
ATOM     94  C   UNL A   1      46.553  30.528  28.269  1.00  0.00     0.173 A 
ATOM     95  F   UNL A   1      42.928  30.734  28.222  1.00  0.00    -0.203 F 
ATOM     96  C   UNL A   1      44.518  31.856  26.930  1.00  0.00     0.198 A 
ATOM     97  C   UNL A   1      46.854  31.506  27.325  1.00  0.00     0.198 A 
ATOM     98  F   UNL A   1      47.562  29.936  28.927  1.00  0.00    -0.203 F 
ATOM     99  F   UNL A   1      43.530  32.506  26.297  1.00  0.00    -0.200 F 
ATOM    100  C   UNL A   1      45.837  32.162  26.648  1.00  0.00     0.200 A 
ATOM    101  F   UNL A   1      48.131  31.839  27.095  1.00  0.00    -0.200 F 
ATOM    102  F   UNL A   1      46.130  33.110  25.747  1.00  0.00    -0.200 F 
ENDBRANCH  69  92
ENDBRANCH  43  44
ENDBRANCH  36  38
ENDBRANCH  35  36
ENDBRANCH  34  35
ENDBRANCH  33  34
ENDBRANCH  32  33
ENDBRANCH   1  32
TORSDOF 19
ENDMDL
MODEL 2
REMARK VINA RESULT:     -11.9      1.783      6.361
REMARK SMILES Cn1cc([C@@H]2CC(OCCOCCOCCOC(=O)c3ccc(-c4c5nc(c(-c6c(F)c(F)c(F)c(F)c6F)c6ccc([nH]6)c(-c6c(F)c(F)c(F)c(F)c6F)c6nc(c(-c7c(F)c(F)c(F)c(F)c7F)c7ccc4[nH]7)C=C6)C=C5)cc3)=Nc3c2sc(C(=O)[O-])c3-c2ccc(Cl)cc2)cn1
REMARK SMILES IDX 13 1 12 2 11 3 10 4 9 5 8 6 7 7 5 8 6 9 85 10 84 11 86 12
REMARK SMILES IDX 83 13 91 14 87 15 4 16 1 17 2 18 3 19 100 20 99 21 92 22
REMARK SMILES IDX 93 23 98 24 94 25 97 26 95 27 96 28 88 29 89 30 90 31 14 32
REMARK SMILES IDX 15 33 16 34 17 35 18 36 19 37 20 38 21 39 82 40 22 41 81 42
REMARK SMILES IDX 23 43 24 44 25 45 75 46 26 47 80 48 74 49 76 50 27 51 79 52
REMARK SMILES IDX 73 53 72 54 28 56 60 57 40 58 59 59 41 60 44 61 58 62 77 63
REMARK SMILES IDX 42 64 43 65 57 67 78 68 45 69 29 70 30 71 38 72 31 73 32 74
REMARK SMILES IDX 36 75 39 76 33 77 34 78 37 79 35 80 61 81 62 82 70 83 63 84
REMARK SMILES IDX 64 85 68 86 71 87 65 88 66 89 69 90 67 91 46 92 47 93 55 94
REMARK SMILES IDX 48 95 49 96 53 97 56 98 50 99 51 100 54 101 52 102
REMARK H PARENT 76 55 44 66
REMARK Flexibility Score: inf
ROOT
ATOM      1  C   UNL A   1      34.541  34.333  29.215  1.00  0.00     0.188 C 
ENDROOT
BRANCH   1   2
ATOM      2  C   UNL A   1      34.132  33.143  28.362  1.00  0.00     0.188 C 
BRANCH   2   3
ATOM      3  O   UNL A   1      35.187  32.575  27.600  1.00  0.00    -0.376 OA
BRANCH   3   4
ATOM      4  C   UNL A   1      35.312  31.155  27.616  1.00  0.00     0.201 C 
BRANCH   4   5
ATOM      5  C   UNL A   1      34.127  30.272  27.175  1.00  0.00     0.259 C 
BRANCH   5   6
ATOM      6  O   UNL A   1      34.339  29.086  26.355  1.00  0.00    -0.478 OA
BRANCH   6   7
ATOM      7  C   UNL A   1      33.419  28.214  25.892  1.00  0.00     0.189 C 
ATOM      8  C   UNL A   1      31.031  27.795  25.056  1.00  0.00     0.074 C 
ATOM      9  C   UNL A   1      32.014  28.743  25.747  1.00  0.00     0.111 C 
ATOM     10  C   UNL A   1      31.638  26.450  24.847  1.00  0.00     0.040 A 
ATOM     11  C   UNL A   1      32.930  26.102  25.128  1.00  0.00     0.090 A 
ATOM     12  S   UNL A   1      30.748  25.138  24.245  1.00  0.00    -0.135 S 
ATOM     13  N   UNL A   1      33.848  27.007  25.675  1.00  0.00    -0.216 NA
ATOM     14  C   UNL A   1      33.255  24.749  24.748  1.00  0.00     0.028 A 
ATOM     15  C   UNL A   1      32.106  24.083  24.310  1.00  0.00     0.060 A 
BRANCH   8  16
ATOM     16  C   UNL A   1      30.445  28.378  23.792  1.00  0.00    -0.001 A 
ATOM     17  C   UNL A   1      28.081  30.007  21.606  1.00  0.00     0.173 C 
ATOM     18  N   UNL A   1      29.171  29.331  22.269  1.00  0.00    -0.276 N 
ATOM     19  C   UNL A   1      29.130  28.646  23.451  1.00  0.00     0.112 A 
ATOM     20  N   UNL A   1      30.406  29.407  21.742  1.00  0.00    -0.182 NA
ATOM     21  C   UNL A   1      31.180  28.859  22.680  1.00  0.00     0.139 A 
ENDBRANCH   8  16
BRANCH  14  22
ATOM     22  C   UNL A   1      34.558  24.076  24.843  1.00  0.00    -0.015 A 
ATOM     23  C   UNL A   1      35.283  23.728  23.687  1.00  0.00     0.010 A 
ATOM     24  C   UNL A   1      35.063  23.692  26.092  1.00  0.00     0.010 A 
ATOM     25  C   UNL A   1      36.426  22.927  23.775  1.00  0.00     0.021 A 
ATOM     26  C   UNL A   1      36.219  22.907  26.181  1.00  0.00     0.021 A 
ATOM     27  C   UNL A   1      36.879  22.506  25.022  1.00  0.00     0.041 A 
ATOM     28  Cl  UNL A   1      38.246  21.465  25.131  1.00  0.00    -0.084 Cl
ENDBRANCH  14  22
BRANCH  15  29
ATOM     29  C   UNL A   1      31.838  22.709  23.926  1.00  0.00     0.082 C 
ATOM     30  O   UNL A   1      31.817  22.231  22.801  1.00  0.00    -0.544 OA
ATOM     31  O   UNL A   1      31.534  21.915  24.975  1.00  0.00    -0.544 OA
ENDBRANCH  15  29
ENDBRANCH   6   7
ENDBRANCH   5   6
ENDBRANCH   4   5
ENDBRANCH   3   4
ENDBRANCH   2   3
ENDBRANCH   1   2
BRANCH   1  32
ATOM     32  O   UNL A   1      34.641  34.112  30.621  1.00  0.00    -0.376 OA
BRANCH  32  33
ATOM     33  C   UNL A   1      34.571  32.775  31.109  1.00  0.00     0.202 C 
BRANCH  33  34
ATOM     34  C   UNL A   1      35.871  32.143  31.601  1.00  0.00     0.261 C 
BRANCH  34  35
ATOM     35  O   UNL A   1      36.092  30.838  31.093  1.00  0.00    -0.460 OA
BRANCH  35  36
ATOM     36  C   UNL A   1      36.838  30.058  31.903  1.00  0.00     0.338 C 
ATOM     37  O   UNL A   1      37.096  30.232  33.082  1.00  0.00    -0.246 OA
BRANCH  36  38
ATOM     38  C   UNL A   1      37.435  28.981  31.105  1.00  0.00     0.060 A 
ATOM     39  C   UNL A   1      38.211  28.066  31.822  1.00  0.00     0.016 A 
ATOM     40  C   UNL A   1      37.605  29.210  29.734  1.00  0.00     0.016 A 
ATOM     41  C   UNL A   1      39.377  27.636  31.241  1.00  0.00     0.010 A 
ATOM     42  C   UNL A   1      38.785  28.809  29.168  1.00  0.00     0.010 A 
ATOM     43  C   UNL A   1      39.694  28.127  29.972  1.00  0.00    -0.014 A 
BRANCH  43  44
ATOM     44  C   UNL A   1      41.043  27.945  29.503  1.00  0.00     0.031 A 
ATOM     45  C   UNL A   1      41.273  26.645  28.849  1.00  0.00     0.074 A 
ATOM     46  C   UNL A   1      41.950  28.934  29.571  1.00  0.00     0.049 A 
ATOM     47  N   UNL A   1      42.032  25.683  29.247  1.00  0.00    -0.248 NA
ATOM     48  C   UNL A   1      40.431  26.317  27.689  1.00  0.00     0.031 C 
ATOM     49  C   UNL A   1      41.758  30.346  29.913  1.00  0.00     0.029 A 
ATOM     50  N   UNL A   1      43.260  28.877  29.231  1.00  0.00    -0.354 N 
ATOM     51  C   UNL A   1      41.897  24.681  28.294  1.00  0.00     0.074 A 
ATOM     52  C   UNL A   1      40.780  25.052  27.465  1.00  0.00     0.031 C 
ATOM     53  C   UNL A   1      42.856  31.043  29.535  1.00  0.00     0.029 A 
ATOM     54  C   UNL A   1      43.858  30.112  29.047  1.00  0.00     0.049 A 
ATOM     55  H   UNL A   1      43.747  28.028  29.122  1.00  0.00     0.167 HD
ATOM     56  C   UNL A   1      42.861  23.738  28.128  1.00  0.00     0.037 A 
ATOM     57  C   UNL A   1      45.044  30.308  28.418  1.00  0.00     0.037 A 
ATOM     58  C   UNL A   1      43.720  23.661  29.282  1.00  0.00     0.049 A 
ATOM     59  C   UNL A   1      45.772  29.005  28.438  1.00  0.00     0.074 A 
ATOM     60  C   UNL A   1      43.508  23.380  30.619  1.00  0.00     0.029 A 
ATOM     61  N   UNL A   1      44.952  24.269  29.226  1.00  0.00    -0.354 N 
ATOM     62  N   UNL A   1      46.227  28.445  29.528  1.00  0.00    -0.248 NA
ATOM     63  C   UNL A   1      45.568  28.096  27.315  1.00  0.00     0.031 C 
ATOM     64  C   UNL A   1      44.366  24.274  31.325  1.00  0.00     0.029 A 
ATOM     65  C   UNL A   1      45.087  25.002  30.379  1.00  0.00     0.049 A 
ATOM     66  H   UNL A   1      45.611  24.193  28.498  1.00  0.00     0.167 HD
ATOM     67  C   UNL A   1      45.978  27.088  29.368  1.00  0.00     0.074 A 
ATOM     68  C   UNL A   1      45.640  26.925  27.956  1.00  0.00     0.031 C 
ATOM     69  C   UNL A   1      45.776  26.269  30.442  1.00  0.00     0.037 A 
BRANCH  56  70
ATOM     70  C   UNL A   1      43.240  23.148  26.792  1.00  0.00     0.064 A 
ATOM     71  C   UNL A   1      43.047  21.769  26.582  1.00  0.00     0.173 A 
ATOM     72  C   UNL A   1      44.051  23.802  25.837  1.00  0.00     0.173 A 
ATOM     73  F   UNL A   1      42.297  21.046  27.428  1.00  0.00    -0.203 F 
ATOM     74  C   UNL A   1      43.699  21.082  25.557  1.00  0.00     0.198 A 
ATOM     75  C   UNL A   1      44.654  23.122  24.783  1.00  0.00     0.198 A 
ATOM     76  F   UNL A   1      44.389  25.091  25.942  1.00  0.00    -0.203 F 
ATOM     77  F   UNL A   1      43.595  19.748  25.482  1.00  0.00    -0.200 F 
ATOM     78  C   UNL A   1      44.511  21.757  24.664  1.00  0.00     0.200 A 
ATOM     79  F   UNL A   1      45.446  23.794  23.936  1.00  0.00    -0.200 F 
ATOM     80  F   UNL A   1      45.193  21.091  23.725  1.00  0.00    -0.200 F 
ENDBRANCH  56  70
BRANCH  57  81
ATOM     81  C   UNL A   1      45.376  31.408  27.479  1.00  0.00     0.064 A 
ATOM     82  C   UNL A   1      44.479  31.790  26.470  1.00  0.00     0.173 A 
ATOM     83  C   UNL A   1      46.460  32.279  27.711  1.00  0.00     0.173 A 
ATOM     84  F   UNL A   1      43.393  31.044  26.217  1.00  0.00    -0.203 F 
ATOM     85  C   UNL A   1      44.646  32.979  25.751  1.00  0.00     0.198 A 
ATOM     86  C   UNL A   1      46.632  33.459  26.985  1.00  0.00     0.198 A 
ATOM     87  F   UNL A   1      47.328  32.059  28.708  1.00  0.00    -0.203 F 
ATOM     88  F   UNL A   1      43.734  33.341  24.837  1.00  0.00    -0.200 F 
ATOM     89  C   UNL A   1      45.718  33.816  26.015  1.00  0.00     0.200 A 
ATOM     90  F   UNL A   1      47.657  34.274  27.278  1.00  0.00    -0.200 F 
ATOM     91  F   UNL A   1      45.847  34.982  25.368  1.00  0.00    -0.200 F 
ENDBRANCH  57  81
BRANCH  69  92
ATOM     92  C   UNL A   1      46.042  26.822  31.814  1.00  0.00     0.064 A 
ATOM     93  C   UNL A   1      45.064  27.464  32.596  1.00  0.00     0.173 A 
ATOM     94  C   UNL A   1      47.270  26.545  32.427  1.00  0.00     0.173 A 
ATOM     95  F   UNL A   1      43.827  27.660  32.125  1.00  0.00    -0.203 F 
ATOM     96  C   UNL A   1      45.324  27.855  33.908  1.00  0.00     0.198 A 
ATOM     97  C   UNL A   1      47.515  26.901  33.750  1.00  0.00     0.198 A 
ATOM     98  F   UNL A   1      48.219  25.876  31.753  1.00  0.00    -0.203 F 
ATOM     99  F   UNL A   1      44.375  28.474  34.625  1.00  0.00    -0.200 F 
ATOM    100  C   UNL A   1      46.547  27.566  34.487  1.00  0.00     0.200 A 
ATOM    101  F   UNL A   1      48.680  26.571  34.324  1.00  0.00    -0.200 F 
ATOM    102  F   UNL A   1      46.783  27.899  35.763  1.00  0.00    -0.200 F 
ENDBRANCH  69  92
ENDBRANCH  43  44
ENDBRANCH  36  38
ENDBRANCH  35  36
ENDBRANCH  34  35
ENDBRANCH  33  34
ENDBRANCH  32  33
ENDBRANCH   1  32
TORSDOF 19
ENDMDL
MODEL 3
REMARK VINA RESULT:     -11.8      2.244      3.390
REMARK SMILES Cn1cc([C@@H]2CC(OCCOCCOCCOC(=O)c3ccc(-c4c5nc(c(-c6c(F)c(F)c(F)c(F)c6F)c6ccc([nH]6)c(-c6c(F)c(F)c(F)c(F)c6F)c6nc(c(-c7c(F)c(F)c(F)c(F)c7F)c7ccc4[nH]7)C=C6)C=C5)cc3)=Nc3c2sc(C(=O)[O-])c3-c2ccc(Cl)cc2)cn1
REMARK SMILES IDX 13 1 12 2 11 3 10 4 9 5 8 6 7 7 5 8 6 9 85 10 84 11 86 12
REMARK SMILES IDX 83 13 91 14 87 15 4 16 1 17 2 18 3 19 100 20 99 21 92 22
REMARK SMILES IDX 93 23 98 24 94 25 97 26 95 27 96 28 88 29 89 30 90 31 14 32
REMARK SMILES IDX 15 33 16 34 17 35 18 36 19 37 20 38 21 39 82 40 22 41 81 42
REMARK SMILES IDX 23 43 24 44 25 45 75 46 26 47 80 48 74 49 76 50 27 51 79 52
REMARK SMILES IDX 73 53 72 54 28 56 60 57 40 58 59 59 41 60 44 61 58 62 77 63
REMARK SMILES IDX 42 64 43 65 57 67 78 68 45 69 29 70 30 71 38 72 31 73 32 74
REMARK SMILES IDX 36 75 39 76 33 77 34 78 37 79 35 80 61 81 62 82 70 83 63 84
REMARK SMILES IDX 64 85 68 86 71 87 65 88 66 89 69 90 67 91 46 92 47 93 55 94
REMARK SMILES IDX 48 95 49 96 53 97 56 98 50 99 51 100 54 101 52 102
REMARK H PARENT 76 55 44 66
REMARK Flexibility Score: inf
ROOT
ATOM      1  C   UNL A   1      33.925  34.473  28.931  1.00  0.00     0.188 C 
ENDROOT
BRANCH   1   2
ATOM      2  C   UNL A   1      33.730  33.242  28.059  1.00  0.00     0.188 C 
BRANCH   2   3
ATOM      3  O   UNL A   1      34.935  32.638  27.615  1.00  0.00    -0.376 OA
BRANCH   3   4
ATOM      4  C   UNL A   1      35.015  31.216  27.684  1.00  0.00     0.201 C 
BRANCH   4   5
ATOM      5  C   UNL A   1      33.892  30.350  27.079  1.00  0.00     0.259 C 
BRANCH   5   6
ATOM      6  O   UNL A   1      34.153  28.988  26.632  1.00  0.00    -0.478 OA
BRANCH   6   7
ATOM      7  C   UNL A   1      33.291  28.111  26.074  1.00  0.00     0.189 C 
ATOM      8  C   UNL A   1      30.971  27.659  25.082  1.00  0.00     0.074 C 
ATOM      9  C   UNL A   1      31.880  28.602  25.874  1.00  0.00     0.111 C 
ATOM     10  C   UNL A   1      31.635  26.346  24.843  1.00  0.00     0.040 A 
ATOM     11  C   UNL A   1      32.920  26.025  25.182  1.00  0.00     0.090 A 
ATOM     12  S   UNL A   1      30.827  25.038  24.128  1.00  0.00    -0.135 S 
ATOM     13  N   UNL A   1      33.774  26.930  25.825  1.00  0.00    -0.216 NA
ATOM     14  C   UNL A   1      33.313  24.704  24.756  1.00  0.00     0.028 A 
ATOM     15  C   UNL A   1      32.214  24.025  24.221  1.00  0.00     0.060 A 
BRANCH   8  16
ATOM     16  C   UNL A   1      30.438  28.286  23.815  1.00  0.00    -0.001 A 
ATOM     17  C   UNL A   1      28.197  30.056  21.610  1.00  0.00     0.173 C 
ATOM     18  N   UNL A   1      29.240  29.319  22.282  1.00  0.00    -0.276 N 
ATOM     19  C   UNL A   1      29.144  28.622  23.454  1.00  0.00     0.112 A 
ATOM     20  N   UNL A   1      30.486  29.341  21.779  1.00  0.00    -0.182 NA
ATOM     21  C   UNL A   1      31.215  28.744  22.723  1.00  0.00     0.139 A 
ENDBRANCH   8  16
BRANCH  14  22
ATOM     22  C   UNL A   1      34.632  24.069  24.894  1.00  0.00    -0.015 A 
ATOM     23  C   UNL A   1      35.420  23.779  23.766  1.00  0.00     0.010 A 
ATOM     24  C   UNL A   1      35.089  23.664  26.155  1.00  0.00     0.010 A 
ATOM     25  C   UNL A   1      36.584  23.012  23.885  1.00  0.00     0.021 A 
ATOM     26  C   UNL A   1      36.264  22.912  26.277  1.00  0.00     0.021 A 
ATOM     27  C   UNL A   1      36.991  22.567  25.140  1.00  0.00     0.041 A 
ATOM     28  Cl  UNL A   1      38.384  21.566  25.284  1.00  0.00    -0.084 Cl
ENDBRANCH  14  22
BRANCH  15  29
ATOM     29  C   UNL A   1      32.017  22.664  23.756  1.00  0.00     0.082 C 
ATOM     30  O   UNL A   1      31.770  22.284  22.621  1.00  0.00    -0.544 OA
ATOM     31  O   UNL A   1      32.076  21.751  24.748  1.00  0.00    -0.544 OA
ENDBRANCH  15  29
ENDBRANCH   6   7
ENDBRANCH   5   6
ENDBRANCH   4   5
ENDBRANCH   3   4
ENDBRANCH   2   3
ENDBRANCH   1   2
BRANCH   1  32
ATOM     32  O   UNL A   1      32.779  34.950  29.635  1.00  0.00    -0.376 OA
BRANCH  32  33
ATOM     33  C   UNL A   1      32.868  36.198  30.317  1.00  0.00     0.202 C 
BRANCH  33  34
ATOM     34  C   UNL A   1      33.062  36.154  31.830  1.00  0.00     0.261 C 
BRANCH  34  35
ATOM     35  O   UNL A   1      34.319  35.632  32.224  1.00  0.00    -0.460 OA
BRANCH  35  36
ATOM     36  C   UNL A   1      34.254  34.387  32.740  1.00  0.00     0.338 C 
ATOM     37  O   UNL A   1      33.289  33.644  32.788  1.00  0.00    -0.246 OA
BRANCH  36  38
ATOM     38  C   UNL A   1      35.534  34.077  33.387  1.00  0.00     0.060 A 
ATOM     39  C   UNL A   1      36.606  34.892  33.012  1.00  0.00     0.016 A 
ATOM     40  C   UNL A   1      35.708  32.782  33.892  1.00  0.00     0.016 A 
ATOM     41  C   UNL A   1      37.823  34.288  32.823  1.00  0.00     0.010 A 
ATOM     42  C   UNL A   1      36.912  32.172  33.669  1.00  0.00     0.010 A 
ATOM     43  C   UNL A   1      37.908  32.909  33.034  1.00  0.00    -0.014 A 
BRANCH  43  44
ATOM     44  C   UNL A   1      39.071  32.227  32.531  1.00  0.00     0.031 A 
ATOM     45  C   UNL A   1      40.102  31.978  33.554  1.00  0.00     0.074 A 
ATOM     46  C   UNL A   1      39.127  31.774  31.267  1.00  0.00     0.049 A 
ATOM     47  N   UNL A   1      41.289  32.474  33.615  1.00  0.00    -0.248 NA
ATOM     48  C   UNL A   1      39.702  31.203  34.738  1.00  0.00     0.031 C 
ATOM     49  C   UNL A   1      38.062  31.691  30.263  1.00  0.00     0.029 A 
ATOM     50  N   UNL A   1      40.176  31.179  30.650  1.00  0.00    -0.354 N 
ATOM     51  C   UNL A   1      41.858  31.939  34.765  1.00  0.00     0.074 A 
ATOM     52  C   UNL A   1      40.789  31.313  35.498  1.00  0.00     0.031 C 
ATOM     53  C   UNL A   1      38.465  30.874  29.262  1.00  0.00     0.029 A 
ATOM     54  C   UNL A   1      39.845  30.486  29.498  1.00  0.00     0.049 A 
ATOM     55  H   UNL A   1      41.097  31.233  30.992  1.00  0.00     0.167 HD
ATOM     56  C   UNL A   1      43.208  31.861  34.908  1.00  0.00     0.037 A 
ATOM     57  C   UNL A   1      40.644  29.575  28.890  1.00  0.00     0.037 A 
ATOM     58  C   UNL A   1      43.881  32.753  33.998  1.00  0.00     0.049 A 
ATOM     59  C   UNL A   1      42.039  29.836  29.355  1.00  0.00     0.074 A 
ATOM     60  C   UNL A   1      43.860  34.123  33.807  1.00  0.00     0.029 A 
ATOM     61  N   UNL A   1      44.434  32.231  32.854  1.00  0.00    -0.354 N 
ATOM     62  N   UNL A   1      42.715  30.911  29.051  1.00  0.00    -0.248 NA
ATOM     63  C   UNL A   1      42.500  29.131  30.546  1.00  0.00     0.031 C 
ATOM     64  C   UNL A   1      43.922  34.298  32.393  1.00  0.00     0.029 A 
ATOM     65  C   UNL A   1      44.033  33.034  31.815  1.00  0.00     0.049 A 
ATOM     66  H   UNL A   1      45.008  31.433  32.791  1.00  0.00     0.167 HD
ATOM     67  C   UNL A   1      43.403  31.245  30.211  1.00  0.00     0.074 A 
ATOM     68  C   UNL A   1      43.290  30.071  31.074  1.00  0.00     0.031 C 
ATOM     69  C   UNL A   1      43.743  32.538  30.490  1.00  0.00     0.037 A 
BRANCH  56  70
ATOM     70  C   UNL A   1      43.915  30.728  35.607  1.00  0.00     0.064 A 
ATOM     71  C   UNL A   1      43.643  29.407  35.201  1.00  0.00     0.173 A 
ATOM     72  C   UNL A   1      44.602  30.858  36.835  1.00  0.00     0.173 A 
ATOM     73  F   UNL A   1      42.992  29.164  34.053  1.00  0.00    -0.203 F 
ATOM     74  C   UNL A   1      43.943  28.311  36.012  1.00  0.00     0.198 A 
ATOM     75  C   UNL A   1      44.950  29.758  37.613  1.00  0.00     0.198 A 
ATOM     76  F   UNL A   1      44.865  32.045  37.390  1.00  0.00    -0.203 F 
ATOM     77  F   UNL A   1      43.538  27.087  35.648  1.00  0.00    -0.200 F 
ATOM     78  C   UNL A   1      44.586  28.487  37.222  1.00  0.00     0.200 A 
ATOM     79  F   UNL A   1      45.564  29.952  38.789  1.00  0.00    -0.200 F 
ATOM     80  F   UNL A   1      44.811  27.446  38.033  1.00  0.00    -0.200 F 
ENDBRANCH  56  70
BRANCH  57  81
ATOM     81  C   UNL A   1      40.219  28.290  28.283  1.00  0.00     0.064 A 
ATOM     82  C   UNL A   1      40.690  27.896  27.022  1.00  0.00     0.173 A 
ATOM     83  C   UNL A   1      39.551  27.300  29.034  1.00  0.00     0.173 A 
ATOM     84  F   UNL A   1      41.379  28.761  26.261  1.00  0.00    -0.203 F 
ATOM     85  C   UNL A   1      40.521  26.590  26.548  1.00  0.00     0.198 A 
ATOM     86  C   UNL A   1      39.373  26.001  28.557  1.00  0.00     0.198 A 
ATOM     87  F   UNL A   1      39.138  27.539  30.286  1.00  0.00    -0.203 F 
ATOM     88  F   UNL A   1      41.040  26.236  25.364  1.00  0.00    -0.200 F 
ATOM     89  C   UNL A   1      39.870  25.641  27.320  1.00  0.00     0.200 A 
ATOM     90  F   UNL A   1      38.770  25.086  29.332  1.00  0.00    -0.200 F 
ATOM     91  F   UNL A   1      39.758  24.377  26.893  1.00  0.00    -0.200 F 
ENDBRANCH  57  81
BRANCH  69  92
ATOM     92  C   UNL A   1      43.551  33.570  29.414  1.00  0.00     0.064 A 
ATOM     93  C   UNL A   1      42.387  34.348  29.283  1.00  0.00     0.173 A 
ATOM     94  C   UNL A   1      44.638  33.901  28.597  1.00  0.00     0.173 A 
ATOM     95  F   UNL A   1      41.347  34.173  30.105  1.00  0.00    -0.203 F 
ATOM     96  C   UNL A   1      42.301  35.374  28.344  1.00  0.00     0.198 A 
ATOM     97  C   UNL A   1      44.565  34.952  27.686  1.00  0.00     0.198 A 
ATOM     98  F   UNL A   1      45.799  33.238  28.721  1.00  0.00    -0.203 F 
ATOM     99  F   UNL A   1      41.174  36.094  28.237  1.00  0.00    -0.200 F 
ATOM    100  C   UNL A   1      43.393  35.680  27.551  1.00  0.00     0.200 A 
ATOM    101  F   UNL A   1      45.641  35.280  26.959  1.00  0.00    -0.200 F 
ATOM    102  F   UNL A   1      43.328  36.697  26.680  1.00  0.00    -0.200 F 
ENDBRANCH  69  92
ENDBRANCH  43  44
ENDBRANCH  36  38
ENDBRANCH  35  36
ENDBRANCH  34  35
ENDBRANCH  33  34
ENDBRANCH  32  33
ENDBRANCH   1  32
TORSDOF 19
ENDMDL
