MODEL 1
REMARK VINA RESULT:     -11.3      0.000      0.000
REMARK SMILES O=C(OCCOCCOCCOC(=O)[C@@H]1CCCC[C@H]1C(=O)N[C@@H]1CONC1=O)c1ccc(-c2c3nc(c(-c4c(F)c(F)c(F)c(F)c4F)c4ccc([nH]4)c(-c4c(F)c(F)c(F)c(F)c4F)c4nc(c(-c5c(F)c(F)c(F)c(F)c5F)c5ccc2[nH]5)C=C4)C=C3)cc1
REMARK SMILES IDX 7 1 6 2 5 3 4 4 3 5 2 6 1 7 30 8 31 9 92 10 32 11 91 12
REMARK SMILES IDX 33 13 34 14 35 15 85 16 36 17 90 18 84 19 86 20 37 21 89 22
REMARK SMILES IDX 83 23 82 24 38 26 70 27 50 28 69 29 51 30 54 31 68 32 87 33
REMARK SMILES IDX 52 34 53 35 67 37 88 38 55 39 39 40 40 41 48 42 41 43 42 44
REMARK SMILES IDX 46 45 49 46 43 47 44 48 47 49 45 50 71 51 72 52 80 53 73 54
REMARK SMILES IDX 74 55 78 56 81 57 75 58 76 59 79 60 77 61 56 62 57 63 65 64
REMARK SMILES IDX 58 65 59 66 63 67 66 68 60 69 61 70 64 71 62 72 8 73 9 74
REMARK SMILES IDX 10 75 11 76 12 77 13 78 14 79 15 80 16 81 20 82 17 83 19 84
REMARK SMILES IDX 18 85 21 86 22 87 23 88 24 90 25 91 28 92 26 93 27 94 29 95
REMARK H PARENT 86 25 54 36 23 89 27 96
REMARK Flexibility Score: inf
ROOT
ATOM      1  C   UNL A   1      32.796  26.944  25.166  1.00  0.00     0.188 C 
ENDROOT
BRANCH   1   2
ATOM      2  O   UNL A   1      31.543  27.303  24.579  1.00  0.00    -0.376 OA
BRANCH   2   3
ATOM      3  C   UNL A   1      31.436  28.672  24.202  1.00  0.00     0.202 C 
BRANCH   3   4
ATOM      4  C   UNL A   1      31.404  29.741  25.307  1.00  0.00     0.261 C 
BRANCH   4   5
ATOM      5  O   UNL A   1      32.642  30.397  25.635  1.00  0.00    -0.460 OA
BRANCH   5   6
ATOM      6  C   UNL A   1      33.093  31.048  26.726  1.00  0.00     0.338 C 
ATOM      7  O   UNL A   1      32.466  32.039  27.100  1.00  0.00    -0.246 OA
BRANCH   6   8
ATOM      8  C   UNL A   1      34.329  30.690  27.488  1.00  0.00     0.060 A 
ATOM      9  C   UNL A   1      34.723  29.403  27.833  1.00  0.00     0.016 A 
ATOM     10  C   UNL A   1      35.171  31.756  27.880  1.00  0.00     0.016 A 
ATOM     11  C   UNL A   1      35.955  29.179  28.454  1.00  0.00     0.010 A 
ATOM     12  C   UNL A   1      36.385  31.539  28.547  1.00  0.00     0.010 A 
ATOM     13  C   UNL A   1      36.810  30.239  28.807  1.00  0.00    -0.014 A 
BRANCH  13  14
ATOM     14  C   UNL A   1      38.063  29.894  29.528  1.00  0.00     0.031 A 
ATOM     15  C   UNL A   1      38.132  30.188  30.983  1.00  0.00     0.074 A 
ATOM     16  C   UNL A   1      39.138  29.339  28.937  1.00  0.00     0.049 A 
ATOM     17  N   UNL A   1      39.101  29.918  31.809  1.00  0.00    -0.248 NA
ATOM     18  C   UNL A   1      37.039  30.994  31.550  1.00  0.00     0.031 C 
ATOM     19  C   UNL A   1      39.383  29.349  27.513  1.00  0.00     0.029 A 
ATOM     20  N   UNL A   1      40.212  28.629  29.435  1.00  0.00    -0.354 N 
ATOM     21  C   UNL A   1      38.815  30.648  32.944  1.00  0.00     0.074 A 
ATOM     22  C   UNL A   1      37.511  31.251  32.759  1.00  0.00     0.031 C 
ATOM     23  C   UNL A   1      40.405  28.527  27.232  1.00  0.00     0.029 A 
ATOM     24  C   UNL A   1      40.924  27.958  28.452  1.00  0.00     0.049 A 
ATOM     25  H   UNL A   1      40.448  28.601  30.391  1.00  0.00     0.167 HD
ATOM     26  C   UNL A   1      39.648  30.897  33.974  1.00  0.00     0.037 A 
ATOM     27  C   UNL A   1      41.881  27.005  28.533  1.00  0.00     0.037 A 
ATOM     28  C   UNL A   1      40.973  30.347  34.076  1.00  0.00     0.049 A 
ATOM     29  C   UNL A   1      42.625  27.006  29.834  1.00  0.00     0.074 A 
ATOM     30  C   UNL A   1      41.899  30.531  35.084  1.00  0.00     0.029 A 
ATOM     31  N   UNL A   1      41.570  29.524  33.125  1.00  0.00    -0.354 N 
ATOM     32  N   UNL A   1      42.334  27.666  30.927  1.00  0.00    -0.248 NA
ATOM     33  C   UNL A   1      43.920  26.313  29.867  1.00  0.00     0.031 C 
ATOM     34  C   UNL A   1      43.066  29.848  34.730  1.00  0.00     0.029 A 
ATOM     35  C   UNL A   1      42.851  29.185  33.532  1.00  0.00     0.049 A 
ATOM     36  H   UNL A   1      41.145  29.228  32.287  1.00  0.00     0.167 HD
ATOM     37  C   UNL A   1      43.468  27.603  31.711  1.00  0.00     0.074 A 
ATOM     38  C   UNL A   1      44.393  26.707  31.041  1.00  0.00     0.031 C 
ATOM     39  C   UNL A   1      43.751  28.307  32.830  1.00  0.00     0.037 A 
BRANCH  26  40
ATOM     40  C   UNL A   1      39.188  31.917  34.964  1.00  0.00     0.064 A 
ATOM     41  C   UNL A   1      39.487  33.279  34.823  1.00  0.00     0.173 A 
ATOM     42  C   UNL A   1      38.493  31.506  36.113  1.00  0.00     0.173 A 
ATOM     43  F   UNL A   1      40.200  33.707  33.770  1.00  0.00    -0.203 F 
ATOM     44  C   UNL A   1      39.123  34.192  35.808  1.00  0.00     0.198 A 
ATOM     45  C   UNL A   1      38.102  32.427  37.078  1.00  0.00     0.198 A 
ATOM     46  F   UNL A   1      38.216  30.208  36.309  1.00  0.00    -0.203 F 
ATOM     47  F   UNL A   1      39.479  35.478  35.689  1.00  0.00    -0.200 F 
ATOM     48  C   UNL A   1      38.424  33.767  36.929  1.00  0.00     0.200 A 
ATOM     49  F   UNL A   1      37.435  32.013  38.164  1.00  0.00    -0.200 F 
ATOM     50  F   UNL A   1      38.078  34.648  37.877  1.00  0.00    -0.200 F 
ENDBRANCH  26  40
BRANCH  27  51
ATOM     51  C   UNL A   1      42.319  26.117  27.400  1.00  0.00     0.064 A 
ATOM     52  C   UNL A   1      41.654  24.893  27.170  1.00  0.00     0.173 A 
ATOM     53  C   UNL A   1      43.408  26.390  26.562  1.00  0.00     0.173 A 
ATOM     54  F   UNL A   1      40.642  24.521  27.971  1.00  0.00    -0.203 F 
ATOM     55  C   UNL A   1      42.058  24.006  26.167  1.00  0.00     0.198 A 
ATOM     56  C   UNL A   1      43.764  25.540  25.511  1.00  0.00     0.198 A 
ATOM     57  F   UNL A   1      44.183  27.460  26.786  1.00  0.00    -0.203 F 
ATOM     58  F   UNL A   1      41.460  22.810  26.048  1.00  0.00    -0.200 F 
ATOM     59  C   UNL A   1      43.099  24.341  25.320  1.00  0.00     0.200 A 
ATOM     60  F   UNL A   1      44.784  25.868  24.705  1.00  0.00    -0.200 F 
ATOM     61  F   UNL A   1      43.486  23.497  24.355  1.00  0.00    -0.200 F 
ENDBRANCH  27  51
BRANCH  39  62
ATOM     62  C   UNL A   1      45.130  28.138  33.377  1.00  0.00     0.064 A 
ATOM     63  C   UNL A   1      46.183  28.975  32.978  1.00  0.00     0.173 A 
ATOM     64  C   UNL A   1      45.390  27.142  34.324  1.00  0.00     0.173 A 
ATOM     65  F   UNL A   1      45.982  29.925  32.052  1.00  0.00    -0.203 F 
ATOM     66  C   UNL A   1      47.458  28.809  33.506  1.00  0.00     0.198 A 
ATOM     67  C   UNL A   1      46.658  26.996  34.868  1.00  0.00     0.198 A 
ATOM     68  F   UNL A   1      44.409  26.319  34.723  1.00  0.00    -0.203 F 
ATOM     69  F   UNL A   1      48.464  29.588  33.086  1.00  0.00    -0.200 F 
ATOM     70  C   UNL A   1      47.692  27.825  34.456  1.00  0.00     0.200 A 
ATOM     71  F   UNL A   1      46.881  26.051  35.791  1.00  0.00    -0.200 F 
ATOM     72  F   UNL A   1      48.919  27.668  34.970  1.00  0.00    -0.200 F 
ENDBRANCH  39  62
ENDBRANCH  13  14
ENDBRANCH   6   8
ENDBRANCH   5   6
ENDBRANCH   4   5
ENDBRANCH   3   4
ENDBRANCH   2   3
ENDBRANCH   1   2
BRANCH   1  73
ATOM     73  C   UNL A   1      33.738  26.211  24.213  1.00  0.00     0.188 C 
BRANCH  73  74
ATOM     74  O   UNL A   1      33.724  26.602  22.842  1.00  0.00    -0.376 OA
BRANCH  74  75
ATOM     75  C   UNL A   1      33.122  25.727  21.899  1.00  0.00     0.202 C 
BRANCH  75  76
ATOM     76  C   UNL A   1      32.519  24.411  22.406  1.00  0.00     0.261 C 
BRANCH  76  77
ATOM     77  O   UNL A   1      33.410  23.298  22.361  1.00  0.00    -0.463 OA
BRANCH  77  78
ATOM     78  C   UNL A   1      33.199  22.331  23.302  1.00  0.00     0.309 C 
ATOM     79  O   UNL A   1      32.196  21.644  23.414  1.00  0.00    -0.252 OA
BRANCH  78  80
ATOM     80  C   UNL A   1      34.415  22.250  24.210  1.00  0.00     0.111 C 
ATOM     81  C   UNL A   1      35.643  22.875  23.549  1.00  0.00     0.016 C 
ATOM     82  C   UNL A   1      34.562  20.797  24.648  1.00  0.00     0.092 C 
ATOM     83  C   UNL A   1      36.948  22.559  24.262  1.00  0.00     0.001 C 
ATOM     84  C   UNL A   1      35.953  20.321  25.085  1.00  0.00     0.014 C 
ATOM     85  C   UNL A   1      37.142  21.068  24.485  1.00  0.00     0.001 C 
BRANCH  82  86
ATOM     86  C   UNL A   1      33.515  20.406  25.697  1.00  0.00     0.224 C 
ATOM     87  O   UNL A   1      33.387  21.082  26.721  1.00  0.00    -0.275 OA
ATOM     88  N   UNL A   1      32.627  19.390  25.537  1.00  0.00    -0.342 N 
ATOM     89  H   UNL A   1      31.761  19.552  25.974  1.00  0.00     0.164 HD
BRANCH  88  90
ATOM     90  C   UNL A   1      32.702  18.104  24.846  1.00  0.00     0.202 C 
ATOM     91  C   UNL A   1      33.825  17.181  25.292  1.00  0.00     0.228 C 
ATOM     92  C   UNL A   1      32.816  18.052  23.350  1.00  0.00     0.268 C 
ATOM     93  O   UNL A   1      34.413  16.580  24.132  1.00  0.00    -0.271 OA
ATOM     94  N   UNL A   1      33.767  17.134  23.015  1.00  0.00    -0.233 N 
ATOM     95  O   UNL A   1      32.154  18.687  22.539  1.00  0.00    -0.270 OA
ATOM     96  H   UNL A   1      33.978  16.886  22.085  1.00  0.00     0.199 HD
ENDBRANCH  88  90
ENDBRANCH  82  86
ENDBRANCH  78  80
ENDBRANCH  77  78
ENDBRANCH  76  77
ENDBRANCH  75  76
ENDBRANCH  74  75
ENDBRANCH  73  74
ENDBRANCH   1  73
TORSDOF 19
ENDMDL
MODEL 2
REMARK VINA RESULT:     -11.2      0.690      7.355
REMARK SMILES O=C(OCCOCCOCCOC(=O)[C@@H]1CCCC[C@H]1C(=O)N[C@@H]1CONC1=O)c1ccc(-c2c3nc(c(-c4c(F)c(F)c(F)c(F)c4F)c4ccc([nH]4)c(-c4c(F)c(F)c(F)c(F)c4F)c4nc(c(-c5c(F)c(F)c(F)c(F)c5F)c5ccc2[nH]5)C=C4)C=C3)cc1
REMARK SMILES IDX 7 1 6 2 5 3 4 4 3 5 2 6 1 7 30 8 31 9 92 10 32 11 91 12
REMARK SMILES IDX 33 13 34 14 35 15 85 16 36 17 90 18 84 19 86 20 37 21 89 22
REMARK SMILES IDX 83 23 82 24 38 26 70 27 50 28 69 29 51 30 54 31 68 32 87 33
REMARK SMILES IDX 52 34 53 35 67 37 88 38 55 39 39 40 40 41 48 42 41 43 42 44
REMARK SMILES IDX 46 45 49 46 43 47 44 48 47 49 45 50 71 51 72 52 80 53 73 54
REMARK SMILES IDX 74 55 78 56 81 57 75 58 76 59 79 60 77 61 56 62 57 63 65 64
REMARK SMILES IDX 58 65 59 66 63 67 66 68 60 69 61 70 64 71 62 72 8 73 9 74
REMARK SMILES IDX 10 75 11 76 12 77 13 78 14 79 15 80 16 81 20 82 17 83 19 84
REMARK SMILES IDX 18 85 21 86 22 87 23 88 24 90 25 91 28 92 26 93 27 94 29 95
REMARK H PARENT 86 25 54 36 23 89 27 96
REMARK Flexibility Score: inf
ROOT
ATOM      1  C   UNL A   1      32.175  27.077  25.743  1.00  0.00     0.188 C 
ENDROOT
BRANCH   1   2
ATOM      2  O   UNL A   1      31.176  27.549  24.837  1.00  0.00    -0.376 OA
BRANCH   2   3
ATOM      3  C   UNL A   1      31.405  28.860  24.330  1.00  0.00     0.202 C 
BRANCH   3   4
ATOM      4  C   UNL A   1      31.426  30.038  25.318  1.00  0.00     0.261 C 
BRANCH   4   5
ATOM      5  O   UNL A   1      32.710  30.550  25.718  1.00  0.00    -0.460 OA
BRANCH   5   6
ATOM      6  C   UNL A   1      33.150  31.229  26.797  1.00  0.00     0.338 C 
ATOM      7  O   UNL A   1      32.491  32.201  27.167  1.00  0.00    -0.246 OA
BRANCH   6   8
ATOM      8  C   UNL A   1      34.406  30.925  27.548  1.00  0.00     0.060 A 
ATOM      9  C   UNL A   1      35.267  31.865  28.100  1.00  0.00     0.016 A 
ATOM     10  C   UNL A   1      34.736  29.561  27.718  1.00  0.00     0.016 A 
ATOM     11  C   UNL A   1      36.358  31.462  28.876  1.00  0.00     0.010 A 
ATOM     12  C   UNL A   1      35.858  29.152  28.454  1.00  0.00     0.010 A 
ATOM     13  C   UNL A   1      36.661  30.103  29.077  1.00  0.00    -0.014 A 
BRANCH  13  14
ATOM     14  C   UNL A   1      37.885  29.786  29.858  1.00  0.00     0.031 A 
ATOM     15  C   UNL A   1      39.039  29.194  29.133  1.00  0.00     0.074 A 
ATOM     16  C   UNL A   1      38.003  29.997  31.183  1.00  0.00     0.049 A 
ATOM     17  N   UNL A   1      40.214  28.896  29.607  1.00  0.00    -0.248 NA
ATOM     18  C   UNL A   1      38.804  28.769  27.744  1.00  0.00     0.031 C 
ATOM     19  C   UNL A   1      36.888  30.188  32.081  1.00  0.00     0.029 A 
ATOM     20  N   UNL A   1      39.100  30.123  32.012  1.00  0.00    -0.354 N 
ATOM     21  C   UNL A   1      40.802  28.114  28.635  1.00  0.00     0.074 A 
ATOM     22  C   UNL A   1      39.921  28.108  27.486  1.00  0.00     0.031 C 
ATOM     23  C   UNL A   1      37.344  30.595  33.275  1.00  0.00     0.029 A 
ATOM     24  C   UNL A   1      38.786  30.658  33.253  1.00  0.00     0.049 A 
ATOM     25  H   UNL A   1      40.011  29.860  31.749  1.00  0.00     0.167 HD
ATOM     26  C   UNL A   1      41.911  27.358  28.769  1.00  0.00     0.037 A 
ATOM     27  C   UNL A   1      39.570  31.133  34.247  1.00  0.00     0.037 A 
ATOM     28  C   UNL A   1      42.712  27.326  29.963  1.00  0.00     0.049 A 
ATOM     29  C   UNL A   1      40.963  30.579  34.234  1.00  0.00     0.074 A 
ATOM     30  C   UNL A   1      43.861  26.598  30.201  1.00  0.00     0.029 A 
ATOM     31  N   UNL A   1      42.434  28.035  31.128  1.00  0.00    -0.354 N 
ATOM     32  N   UNL A   1      41.538  29.870  33.295  1.00  0.00    -0.248 NA
ATOM     33  C   UNL A   1      41.745  30.701  35.472  1.00  0.00     0.031 C 
ATOM     34  C   UNL A   1      44.261  26.840  31.518  1.00  0.00     0.029 A 
ATOM     35  C   UNL A   1      43.401  27.766  32.085  1.00  0.00     0.049 A 
ATOM     36  H   UNL A   1      41.665  28.637  31.254  1.00  0.00     0.167 HD
ATOM     37  C   UNL A   1      42.667  29.332  33.877  1.00  0.00     0.074 A 
ATOM     38  C   UNL A   1      42.782  29.923  35.198  1.00  0.00     0.031 C 
ATOM     39  C   UNL A   1      43.473  28.358  33.396  1.00  0.00     0.037 A 
BRANCH  26  40
ATOM     40  C   UNL A   1      42.203  26.411  27.651  1.00  0.00     0.064 A 
ATOM     41  C   UNL A   1      41.570  25.166  27.545  1.00  0.00     0.173 A 
ATOM     42  C   UNL A   1      43.192  26.734  26.707  1.00  0.00     0.173 A 
ATOM     43  F   UNL A   1      40.662  24.792  28.459  1.00  0.00    -0.203 F 
ATOM     44  C   UNL A   1      41.929  24.268  26.545  1.00  0.00     0.198 A 
ATOM     45  C   UNL A   1      43.524  25.848  25.689  1.00  0.00     0.198 A 
ATOM     46  F   UNL A   1      43.852  27.900  26.789  1.00  0.00    -0.203 F 
ATOM     47  F   UNL A   1      41.362  23.055  26.503  1.00  0.00    -0.200 F 
ATOM     48  C   UNL A   1      42.899  24.613  25.614  1.00  0.00     0.200 A 
ATOM     49  F   UNL A   1      44.467  26.179  24.796  1.00  0.00    -0.200 F 
ATOM     50  F   UNL A   1      43.245  23.745  24.654  1.00  0.00    -0.200 F 
ENDBRANCH  26  40
BRANCH  27  51
ATOM     51  C   UNL A   1      39.100  32.000  35.383  1.00  0.00     0.064 A 
ATOM     52  C   UNL A   1      39.463  33.363  35.424  1.00  0.00     0.173 A 
ATOM     53  C   UNL A   1      38.352  31.531  36.472  1.00  0.00     0.173 A 
ATOM     54  F   UNL A   1      40.236  33.878  34.454  1.00  0.00    -0.203 F 
ATOM     55  C   UNL A   1      39.099  34.197  36.486  1.00  0.00     0.198 A 
ATOM     56  C   UNL A   1      37.925  32.382  37.497  1.00  0.00     0.198 A 
ATOM     57  F   UNL A   1      38.075  30.225  36.592  1.00  0.00    -0.203 F 
ATOM     58  F   UNL A   1      39.549  35.461  36.532  1.00  0.00    -0.200 F 
ATOM     59  C   UNL A   1      38.309  33.712  37.512  1.00  0.00     0.200 A 
ATOM     60  F   UNL A   1      37.170  31.897  38.493  1.00  0.00    -0.200 F 
ATOM     61  F   UNL A   1      37.953  34.508  38.529  1.00  0.00    -0.200 F 
ENDBRANCH  27  51
BRANCH  39  62
ATOM     62  C   UNL A   1      44.535  27.870  34.325  1.00  0.00     0.064 A 
ATOM     63  C   UNL A   1      45.792  28.491  34.391  1.00  0.00     0.173 A 
ATOM     64  C   UNL A   1      44.280  26.786  35.171  1.00  0.00     0.173 A 
ATOM     65  F   UNL A   1      46.085  29.518  33.578  1.00  0.00    -0.203 F 
ATOM     66  C   UNL A   1      46.764  28.029  35.270  1.00  0.00     0.198 A 
ATOM     67  C   UNL A   1      45.244  26.344  36.066  1.00  0.00     0.198 A 
ATOM     68  F   UNL A   1      43.092  26.164  35.131  1.00  0.00    -0.203 F 
ATOM     69  F   UNL A   1      47.974  28.604  35.293  1.00  0.00    -0.200 F 
ATOM     70  C   UNL A   1      46.486  26.961  36.112  1.00  0.00     0.200 A 
ATOM     71  F   UNL A   1      44.973  25.318  36.883  1.00  0.00    -0.200 F 
ATOM     72  F   UNL A   1      47.421  26.519  36.964  1.00  0.00    -0.200 F 
ENDBRANCH  39  62
ENDBRANCH  13  14
ENDBRANCH   6   8
ENDBRANCH   5   6
ENDBRANCH   4   5
ENDBRANCH   3   4
ENDBRANCH   2   3
ENDBRANCH   1   2
BRANCH   1  73
ATOM     73  C   UNL A   1      33.065  25.978  25.164  1.00  0.00     0.188 C 
BRANCH  73  74
ATOM     74  O   UNL A   1      33.832  26.294  24.004  1.00  0.00    -0.376 OA
BRANCH  74  75
ATOM     75  C   UNL A   1      33.266  26.023  22.730  1.00  0.00     0.202 C 
BRANCH  75  76
ATOM     76  C   UNL A   1      32.627  24.650  22.492  1.00  0.00     0.261 C 
BRANCH  76  77
ATOM     77  O   UNL A   1      33.552  23.564  22.477  1.00  0.00    -0.463 OA
BRANCH  77  78
ATOM     78  C   UNL A   1      33.288  22.547  23.350  1.00  0.00     0.309 C 
ATOM     79  O   UNL A   1      32.255  21.900  23.409  1.00  0.00    -0.252 OA
BRANCH  78  80
ATOM     80  C   UNL A   1      34.491  22.352  24.259  1.00  0.00     0.111 C 
ATOM     81  C   UNL A   1      35.763  22.913  23.624  1.00  0.00     0.016 C 
ATOM     82  C   UNL A   1      34.535  20.879  24.649  1.00  0.00     0.092 C 
ATOM     83  C   UNL A   1      37.039  22.484  24.331  1.00  0.00     0.001 C 
ATOM     84  C   UNL A   1      35.887  20.294  25.074  1.00  0.00     0.014 C 
ATOM     85  C   UNL A   1      37.129  20.977  24.504  1.00  0.00     0.001 C 
BRANCH  82  86
ATOM     86  C   UNL A   1      33.457  20.526  25.680  1.00  0.00     0.224 C 
ATOM     87  O   UNL A   1      33.336  21.208  26.702  1.00  0.00    -0.275 OA
ATOM     88  N   UNL A   1      32.537  19.542  25.506  1.00  0.00    -0.342 N 
ATOM     89  H   UNL A   1      31.670  19.735  25.928  1.00  0.00     0.164 HD
BRANCH  88  90
ATOM     90  C   UNL A   1      32.578  18.254  24.817  1.00  0.00     0.202 C 
ATOM     91  C   UNL A   1      33.614  17.265  25.329  1.00  0.00     0.228 C 
ATOM     92  C   UNL A   1      32.781  18.194  23.330  1.00  0.00     0.268 C 
ATOM     93  O   UNL A   1      34.236  16.630  24.205  1.00  0.00    -0.271 OA
ATOM     94  N   UNL A   1      33.694  17.221  23.052  1.00  0.00    -0.233 N 
ATOM     95  O   UNL A   1      32.210  18.867  22.482  1.00  0.00    -0.270 OA
ATOM     96  H   UNL A   1      33.948  16.960  22.137  1.00  0.00     0.199 HD
ENDBRANCH  88  90
ENDBRANCH  82  86
ENDBRANCH  78  80
ENDBRANCH  77  78
ENDBRANCH  76  77
ENDBRANCH  75  76
ENDBRANCH  74  75
ENDBRANCH  73  74
ENDBRANCH   1  73
TORSDOF 19
ENDMDL
MODEL 3
REMARK VINA RESULT:     -11.1      3.162      9.080
REMARK SMILES O=C(OCCOCCOCCOC(=O)[C@@H]1CCCC[C@H]1C(=O)N[C@@H]1CONC1=O)c1ccc(-c2c3nc(c(-c4c(F)c(F)c(F)c(F)c4F)c4ccc([nH]4)c(-c4c(F)c(F)c(F)c(F)c4F)c4nc(c(-c5c(F)c(F)c(F)c(F)c5F)c5ccc2[nH]5)C=C4)C=C3)cc1
REMARK SMILES IDX 7 1 6 2 5 3 4 4 3 5 2 6 1 7 30 8 31 9 92 10 32 11 91 12
REMARK SMILES IDX 33 13 34 14 35 15 85 16 36 17 90 18 84 19 86 20 37 21 89 22
REMARK SMILES IDX 83 23 82 24 38 26 70 27 50 28 69 29 51 30 54 31 68 32 87 33
REMARK SMILES IDX 52 34 53 35 67 37 88 38 55 39 39 40 40 41 48 42 41 43 42 44
REMARK SMILES IDX 46 45 49 46 43 47 44 48 47 49 45 50 71 51 72 52 80 53 73 54
REMARK SMILES IDX 74 55 78 56 81 57 75 58 76 59 79 60 77 61 56 62 57 63 65 64
REMARK SMILES IDX 58 65 59 66 63 67 66 68 60 69 61 70 64 71 62 72 8 73 9 74
REMARK SMILES IDX 10 75 11 76 12 77 13 78 14 79 15 80 16 81 20 82 17 83 19 84
REMARK SMILES IDX 18 85 21 86 22 87 23 88 24 90 25 91 28 92 26 93 27 94 29 95
REMARK H PARENT 86 25 54 36 23 89 27 96
REMARK Flexibility Score: inf
ROOT
ATOM      1  C   UNL A   1      35.532  33.539  28.637  1.00  0.00     0.188 C 
ENDROOT
BRANCH   1   2
ATOM      2  O   UNL A   1      35.004  34.844  28.885  1.00  0.00    -0.376 OA
BRANCH   2   3
ATOM      3  C   UNL A   1      33.597  34.883  29.108  1.00  0.00     0.202 C 
BRANCH   3   4
ATOM      4  C   UNL A   1      32.954  36.218  29.518  1.00  0.00     0.261 C 
BRANCH   4   5
ATOM      5  O   UNL A   1      32.478  36.341  30.871  1.00  0.00    -0.460 OA
BRANCH   5   6
ATOM      6  C   UNL A   1      32.517  35.535  31.951  1.00  0.00     0.338 C 
ATOM      7  O   UNL A   1      31.479  35.399  32.599  1.00  0.00    -0.246 OA
BRANCH   6   8
ATOM      8  C   UNL A   1      33.738  34.836  32.455  1.00  0.00     0.060 A 
ATOM      9  C   UNL A   1      33.814  33.496  32.813  1.00  0.00     0.016 A 
ATOM     10  C   UNL A   1      34.918  35.607  32.563  1.00  0.00     0.016 A 
ATOM     11  C   UNL A   1      35.038  32.923  33.170  1.00  0.00     0.010 A 
ATOM     12  C   UNL A   1      36.139  35.047  32.968  1.00  0.00     0.010 A 
ATOM     13  C   UNL A   1      36.219  33.684  33.238  1.00  0.00    -0.014 A 
BRANCH  13  14
ATOM     14  C   UNL A   1      37.452  32.991  33.698  1.00  0.00     0.031 A 
ATOM     15  C   UNL A   1      38.250  32.248  32.689  1.00  0.00     0.074 A 
ATOM     16  C   UNL A   1      37.880  32.994  34.974  1.00  0.00     0.049 A 
ATOM     17  N   UNL A   1      39.380  31.626  32.862  1.00  0.00    -0.248 NA
ATOM     18  C   UNL A   1      37.643  32.074  31.359  1.00  0.00     0.031 C 
ATOM     19  C   UNL A   1      37.052  33.321  36.112  1.00  0.00     0.029 A 
ATOM     20  N   UNL A   1      39.115  32.753  35.544  1.00  0.00    -0.354 N 
ATOM     21  C   UNL A   1      39.543  30.862  31.725  1.00  0.00     0.074 A 
ATOM     22  C   UNL A   1      38.480  31.211  30.807  1.00  0.00     0.031 C 
ATOM     23  C   UNL A   1      37.824  33.451  37.201  1.00  0.00     0.029 A 
ATOM     24  C   UNL A   1      39.200  33.180  36.861  1.00  0.00     0.049 A 
ATOM     25  H   UNL A   1      39.858  32.322  35.063  1.00  0.00     0.167 HD
ATOM     26  C   UNL A   1      40.427  29.859  31.548  1.00  0.00     0.037 A 
ATOM     27  C   UNL A   1      40.261  33.326  37.688  1.00  0.00     0.037 A 
ATOM     28  C   UNL A   1      41.414  29.486  32.525  1.00  0.00     0.049 A 
ATOM     29  C   UNL A   1      41.435  32.470  37.319  1.00  0.00     0.074 A 
ATOM     30  C   UNL A   1      42.363  28.486  32.443  1.00  0.00     0.029 A 
ATOM     31  N   UNL A   1      41.563  30.082  33.774  1.00  0.00    -0.354 N 
ATOM     32  N   UNL A   1      41.613  31.775  36.223  1.00  0.00    -0.248 NA
ATOM     33  C   UNL A   1      42.452  32.244  38.355  1.00  0.00     0.031 C 
ATOM     34  C   UNL A   1      43.065  28.454  33.650  1.00  0.00     0.029 A 
ATOM     35  C   UNL A   1      42.599  29.473  34.466  1.00  0.00     0.049 A 
ATOM     36  H   UNL A   1      41.013  30.824  34.116  1.00  0.00     0.167 HD
ATOM     37  C   UNL A   1      42.659  30.919  36.493  1.00  0.00     0.074 A 
ATOM     38  C   UNL A   1      43.181  31.289  37.796  1.00  0.00     0.031 C 
ATOM     39  C   UNL A   1      43.078  29.856  35.770  1.00  0.00     0.037 A 
BRANCH  26  40
ATOM     40  C   UNL A   1      40.240  29.024  30.323  1.00  0.00     0.064 A 
ATOM     41  C   UNL A   1      39.570  27.794  30.355  1.00  0.00     0.173 A 
ATOM     42  C   UNL A   1      40.809  29.437  29.107  1.00  0.00     0.173 A 
ATOM     43  F   UNL A   1      39.062  27.333  31.508  1.00  0.00    -0.203 F 
ATOM     44  C   UNL A   1      39.492  26.997  29.218  1.00  0.00     0.198 A 
ATOM     45  C   UNL A   1      40.700  28.653  27.965  1.00  0.00     0.198 A 
ATOM     46  F   UNL A   1      41.492  30.590  29.036  1.00  0.00    -0.203 F 
ATOM     47  F   UNL A   1      38.908  25.793  29.286  1.00  0.00    -0.200 F 
ATOM     48  C   UNL A   1      40.048  27.431  28.022  1.00  0.00     0.200 A 
ATOM     49  F   UNL A   1      41.246  29.070  26.814  1.00  0.00    -0.200 F 
ATOM     50  F   UNL A   1      39.975  26.659  26.930  1.00  0.00    -0.200 F 
ENDBRANCH  26  40
BRANCH  27  51
ATOM     51  C   UNL A   1      40.263  34.122  38.964  1.00  0.00     0.064 A 
ATOM     52  C   UNL A   1      40.895  35.383  39.004  1.00  0.00     0.173 A 
ATOM     53  C   UNL A   1      39.716  33.670  40.173  1.00  0.00     0.173 A 
ATOM     54  F   UNL A   1      41.503  35.862  37.907  1.00  0.00    -0.203 F 
ATOM     55  C   UNL A   1      40.974  36.137  40.180  1.00  0.00     0.198 A 
ATOM     56  C   UNL A   1      39.728  34.456  41.329  1.00  0.00     0.198 A 
ATOM     57  F   UNL A   1      39.214  32.431  40.268  1.00  0.00    -0.203 F 
ATOM     58  F   UNL A   1      41.670  37.284  40.197  1.00  0.00    -0.200 F 
ATOM     59  C   UNL A   1      40.368  35.684  41.338  1.00  0.00     0.200 A 
ATOM     60  F   UNL A   1      39.150  34.001  42.450  1.00  0.00    -0.200 F 
ATOM     61  F   UNL A   1      40.436  36.404  42.465  1.00  0.00    -0.200 F 
ENDBRANCH  27  51
BRANCH  39  62
ATOM     62  C   UNL A   1      44.143  29.018  36.396  1.00  0.00     0.064 A 
ATOM     63  C   UNL A   1      45.485  29.426  36.406  1.00  0.00     0.173 A 
ATOM     64  C   UNL A   1      43.809  27.806  37.010  1.00  0.00     0.173 A 
ATOM     65  F   UNL A   1      45.852  30.569  35.805  1.00  0.00    -0.203 F 
ATOM     66  C   UNL A   1      46.461  28.637  37.003  1.00  0.00     0.198 A 
ATOM     67  C   UNL A   1      44.782  27.033  37.628  1.00  0.00     0.198 A 
ATOM     68  F   UNL A   1      42.537  27.381  37.014  1.00  0.00    -0.203 F 
ATOM     69  F   UNL A   1      47.745  29.019  36.969  1.00  0.00    -0.200 F 
ATOM     70  C   UNL A   1      46.107  27.446  37.620  1.00  0.00     0.200 A 
ATOM     71  F   UNL A   1      44.438  25.888  38.231  1.00  0.00    -0.200 F 
ATOM     72  F   UNL A   1      47.046  26.687  38.201  1.00  0.00    -0.200 F 
ENDBRANCH  39  62
ENDBRANCH  13  14
ENDBRANCH   6   8
ENDBRANCH   5   6
ENDBRANCH   4   5
ENDBRANCH   3   4
ENDBRANCH   2   3
ENDBRANCH   1   2
BRANCH   1  73
ATOM     73  C   UNL A   1      34.472  32.442  28.587  1.00  0.00     0.188 C 
BRANCH  73  74
ATOM     74  O   UNL A   1      34.279  31.768  27.345  1.00  0.00    -0.376 OA
BRANCH  74  75
ATOM     75  C   UNL A   1      33.394  30.657  27.312  1.00  0.00     0.202 C 
BRANCH  75  76
ATOM     76  C   UNL A   1      33.994  29.249  27.227  1.00  0.00     0.261 C 
BRANCH  76  77
ATOM     77  O   UNL A   1      33.590  28.505  26.079  1.00  0.00    -0.463 OA
BRANCH  77  78
ATOM     78  C   UNL A   1      32.282  28.110  26.058  1.00  0.00     0.309 C 
ATOM     79  O   UNL A   1      31.653  27.655  27.000  1.00  0.00    -0.252 OA
BRANCH  78  80
ATOM     80  C   UNL A   1      31.726  28.315  24.658  1.00  0.00     0.111 C 
ATOM     81  C   UNL A   1      30.905  29.601  24.570  1.00  0.00     0.016 C 
ATOM     82  C   UNL A   1      31.001  27.034  24.261  1.00  0.00     0.092 C 
ATOM     83  C   UNL A   1      30.076  29.711  23.301  1.00  0.00     0.001 C 
ATOM     84  C   UNL A   1      29.908  27.135  23.191  1.00  0.00     0.014 C 
ATOM     85  C   UNL A   1      29.207  28.486  23.067  1.00  0.00     0.001 C 
BRANCH  82  86
ATOM     86  C   UNL A   1      31.980  25.906  23.915  1.00  0.00     0.224 C 
ATOM     87  O   UNL A   1      32.865  26.095  23.076  1.00  0.00    -0.275 OA
ATOM     88  N   UNL A   1      32.003  24.704  24.548  1.00  0.00    -0.342 N 
ATOM     89  H   UNL A   1      32.902  24.310  24.611  1.00  0.00     0.164 HD
BRANCH  88  90
ATOM     90  C   UNL A   1      30.959  23.879  25.152  1.00  0.00     0.202 C 
ATOM     91  C   UNL A   1      30.324  24.441  26.415  1.00  0.00     0.228 C 
ATOM     92  C   UNL A   1      31.245  22.457  25.540  1.00  0.00     0.268 C 
ATOM     93  O   UNL A   1      30.163  23.376  27.360  1.00  0.00    -0.271 OA
ATOM     94  N   UNL A   1      30.723  22.227  26.778  1.00  0.00    -0.233 N 
ATOM     95  O   UNL A   1      31.815  21.611  24.864  1.00  0.00    -0.270 OA
ATOM     96  H   UNL A   1      30.739  21.347  27.219  1.00  0.00     0.199 HD
ENDBRANCH  88  90
ENDBRANCH  82  86
ENDBRANCH  78  80
ENDBRANCH  77  78
ENDBRANCH  76  77
ENDBRANCH  75  76
ENDBRANCH  74  75
ENDBRANCH  73  74
ENDBRANCH   1  73
TORSDOF 19
ENDMDL
