MODEL 1
REMARK VINA RESULT:     -11.1      0.000      0.000
REMARK SMILES CCOC(=O)c1ccc(NC(=O)[C@H]2CC=CC[C@@]2(C)C(=O)OCCOCCOCCOC(=O)c2ccc(-c3c4nc(c(-c5c(F)c(F)c(F)c(F)c5F)c5ccc([nH]5)c(-c5c(F)c(F)c(F)c(F)c5F)c5nc(c(-c6c(F)c(F)c(F)c(F)c6F)c6ccc3[nH]6)C=C5)C=C4)cc2)cc1
REMARK SMILES IDX 25 1 24 2 23 3 22 4 20 5 21 6 18 7 13 8 14 9 15 10 17 11
REMARK SMILES IDX 19 12 16 13 11 14 10 15 12 17 9 18 6 19 7 20 98 21 8 22
REMARK SMILES IDX 97 23 4 24 5 25 3 26 2 27 1 28 26 29 27 30 28 31 29 32 30 33
REMARK SMILES IDX 31 34 32 35 33 36 34 37 35 38 96 39 36 40 95 41 37 42 38 43
REMARK SMILES IDX 39 44 89 45 40 46 94 47 88 48 90 49 41 50 93 51 87 52 86 53
REMARK SMILES IDX 42 55 74 56 54 57 73 58 55 59 58 60 72 61 91 62 56 63 57 64
REMARK SMILES IDX 71 66 92 67 59 68 43 69 44 70 52 71 45 72 46 73 50 74 53 75
REMARK SMILES IDX 47 76 48 77 51 78 49 79 75 80 76 81 84 82 77 83 78 84 82 85
REMARK SMILES IDX 85 86 79 87 80 88 83 89 81 90 60 91 61 92 69 93 62 94 63 95
REMARK SMILES IDX 67 96 70 97 64 98 65 99 68 100 66 101
REMARK H PARENT 10 16 90 54 58 65
REMARK Flexibility Score: inf
ROOT
ATOM      1  O   UNL A   1      32.491  28.108  27.302  1.00  0.00    -0.376 OA
ENDROOT
BRANCH   1   2
ATOM      2  C   UNL A   1      31.994  27.327  26.225  1.00  0.00     0.202 C 
BRANCH   2   3
ATOM      3  C   UNL A   1      31.659  25.855  26.494  1.00  0.00     0.261 C 
BRANCH   3   4
ATOM      4  O   UNL A   1      32.700  24.909  26.165  1.00  0.00    -0.463 OA
BRANCH   4   5
ATOM      5  C   UNL A   1      32.580  23.669  26.684  1.00  0.00     0.313 C 
ATOM      6  O   UNL A   1      31.559  23.289  27.255  1.00  0.00    -0.252 OA
BRANCH   5   7
ATOM      7  C   UNL A   1      33.793  22.718  26.501  1.00  0.00     0.080 C 
ATOM      8  C   UNL A   1      33.754  21.455  25.535  1.00  0.00     0.100 C 
ATOM      9  C   UNL A   1      34.980  21.160  24.630  1.00  0.00     0.041 C 
ATOM     10  C   UNL A   1      36.060  22.183  24.575  1.00  0.00    -0.030 C 
ATOM     11  C   UNL A   1      34.971  23.719  26.220  1.00  0.00     0.046 C 
ATOM     12  C   UNL A   1      34.037  22.158  27.945  1.00  0.00     0.025 C 
ATOM     13  C   UNL A   1      36.058  23.311  25.284  1.00  0.00    -0.030 C 
BRANCH   8  14
ATOM     14  C   UNL A   1      32.489  20.970  24.795  1.00  0.00     0.228 C 
ATOM     15  N   UNL A   1      31.687  21.685  23.967  1.00  0.00    -0.326 N 
ATOM     16  H   UNL A   1      30.908  21.172  23.652  1.00  0.00     0.169 HD
ATOM     17  O   UNL A   1      32.186  19.769  24.914  1.00  0.00    -0.274 OA
BRANCH  15  18
ATOM     18  C   UNL A   1      31.724  22.987  23.461  1.00  0.00     0.041 A 
ATOM     19  C   UNL A   1      31.879  25.608  22.501  1.00  0.00     0.060 A 
ATOM     20  C   UNL A   1      30.705  25.151  23.078  1.00  0.00     0.018 A 
ATOM     21  C   UNL A   1      32.977  24.760  22.356  1.00  0.00     0.018 A 
ATOM     22  C   UNL A   1      30.653  23.856  23.557  1.00  0.00     0.027 A 
ATOM     23  C   UNL A   1      32.894  23.444  22.839  1.00  0.00     0.027 A 
BRANCH  19  24
ATOM     24  C   UNL A   1      31.920  27.043  22.221  1.00  0.00     0.338 C 
ATOM     25  O   UNL A   1      32.932  27.704  22.379  1.00  0.00    -0.246 OA
BRANCH  24  26
ATOM     26  O   UNL A   1      30.666  27.493  21.996  1.00  0.00    -0.462 OA
BRANCH  26  27
ATOM     27  C   UNL A   1      30.474  28.861  22.387  1.00  0.00     0.230 C 
ATOM     28  C   UNL A   1      29.153  29.010  23.127  1.00  0.00     0.049 C 
ENDBRANCH  26  27
ENDBRANCH  24  26
ENDBRANCH  19  24
ENDBRANCH  15  18
ENDBRANCH   8  14
ENDBRANCH   5   7
ENDBRANCH   4   5
ENDBRANCH   3   4
ENDBRANCH   2   3
ENDBRANCH   1   2
BRANCH   1  29
ATOM     29  C   UNL A   1      33.449  29.127  27.046  1.00  0.00     0.188 C 
BRANCH  29  30
ATOM     30  C   UNL A   1      33.057  30.603  27.218  1.00  0.00     0.188 C 
BRANCH  30  31
ATOM     31  O   UNL A   1      31.722  30.895  26.856  1.00  0.00    -0.376 OA
BRANCH  31  32
ATOM     32  C   UNL A   1      31.432  32.259  26.602  1.00  0.00     0.202 C 
BRANCH  32  33
ATOM     33  C   UNL A   1      32.500  33.254  27.081  1.00  0.00     0.261 C 
BRANCH  33  34
ATOM     34  O   UNL A   1      32.153  34.032  28.241  1.00  0.00    -0.460 OA
BRANCH  34  35
ATOM     35  C   UNL A   1      33.053  34.934  28.687  1.00  0.00     0.338 C 
ATOM     36  O   UNL A   1      32.882  36.136  28.834  1.00  0.00    -0.246 OA
BRANCH  35  37
ATOM     37  C   UNL A   1      34.232  34.184  29.177  1.00  0.00     0.060 A 
ATOM     38  C   UNL A   1      34.053  33.091  30.039  1.00  0.00     0.016 A 
ATOM     39  C   UNL A   1      35.514  34.536  28.746  1.00  0.00     0.016 A 
ATOM     40  C   UNL A   1      35.159  32.369  30.501  1.00  0.00     0.010 A 
ATOM     41  C   UNL A   1      36.619  33.829  29.225  1.00  0.00     0.010 A 
ATOM     42  C   UNL A   1      36.451  32.765  30.130  1.00  0.00    -0.014 A 
BRANCH  42  43
ATOM     43  C   UNL A   1      37.640  32.247  30.855  1.00  0.00     0.031 A 
ATOM     44  C   UNL A   1      38.430  31.145  30.203  1.00  0.00     0.074 A 
ATOM     45  C   UNL A   1      37.997  32.705  32.067  1.00  0.00     0.049 A 
ATOM     46  N   UNL A   1      39.415  30.426  30.676  1.00  0.00    -0.248 NA
ATOM     47  C   UNL A   1      38.040  30.801  28.825  1.00  0.00     0.031 C 
ATOM     48  C   UNL A   1      37.350  33.796  32.786  1.00  0.00     0.029 A 
ATOM     49  N   UNL A   1      38.992  32.281  32.915  1.00  0.00    -0.354 N 
ATOM     50  C   UNL A   1      39.750  29.537  29.663  1.00  0.00     0.074 A 
ATOM     51  C   UNL A   1      38.845  29.784  28.562  1.00  0.00     0.031 C 
ATOM     52  C   UNL A   1      37.951  33.947  33.981  1.00  0.00     0.029 A 
ATOM     53  C   UNL A   1      38.998  32.934  34.124  1.00  0.00     0.049 A 
ATOM     54  H   UNL A   1      39.639  31.578  32.680  1.00  0.00     0.167 HD
ATOM     55  C   UNL A   1      40.728  28.600  29.649  1.00  0.00     0.037 A 
ATOM     56  C   UNL A   1      39.742  32.713  35.226  1.00  0.00     0.037 A 
ATOM     57  C   UNL A   1      41.620  28.350  30.748  1.00  0.00     0.049 A 
ATOM     58  C   UNL A   1      40.768  31.605  35.221  1.00  0.00     0.074 A 
ATOM     59  C   UNL A   1      42.651  27.430  30.831  1.00  0.00     0.029 A 
ATOM     60  N   UNL A   1      41.580  29.016  31.963  1.00  0.00    -0.354 N 
ATOM     61  N   UNL A   1      41.092  30.777  34.258  1.00  0.00    -0.248 NA
ATOM     62  C   UNL A   1      41.530  31.400  36.463  1.00  0.00     0.031 C 
ATOM     63  C   UNL A   1      43.194  27.499  32.118  1.00  0.00     0.029 A 
ATOM     64  C   UNL A   1      42.550  28.510  32.814  1.00  0.00     0.049 A 
ATOM     65  H   UNL A   1      40.954  29.742  32.190  1.00  0.00     0.167 HD
ATOM     66  C   UNL A   1      42.119  29.984  34.761  1.00  0.00     0.074 A 
ATOM     67  C   UNL A   1      42.367  30.434  36.114  1.00  0.00     0.031 C 
ATOM     68  C   UNL A   1      42.798  28.979  34.154  1.00  0.00     0.037 A 
BRANCH  55  69
ATOM     69  C   UNL A   1      40.851  27.754  28.415  1.00  0.00     0.064 A 
ATOM     70  C   UNL A   1      40.162  26.539  28.277  1.00  0.00     0.173 A 
ATOM     71  C   UNL A   1      41.669  28.166  27.350  1.00  0.00     0.173 A 
ATOM     72  F   UNL A   1      39.380  26.089  29.271  1.00  0.00    -0.203 F 
ATOM     73  C   UNL A   1      40.314  25.752  27.138  1.00  0.00     0.198 A 
ATOM     74  C   UNL A   1      41.791  27.395  26.198  1.00  0.00     0.198 A 
ATOM     75  F   UNL A   1      42.349  29.319  27.427  1.00  0.00    -0.203 F 
ATOM     76  F   UNL A   1      39.696  24.566  27.057  1.00  0.00    -0.200 F 
ATOM     77  C   UNL A   1      41.123  26.184  26.097  1.00  0.00     0.200 A 
ATOM     78  F   UNL A   1      42.562  27.820  25.187  1.00  0.00    -0.200 F 
ATOM     79  F   UNL A   1      41.267  25.427  25.001  1.00  0.00    -0.200 F 
ENDBRANCH  55  69
BRANCH  56  80
ATOM     80  C   UNL A   1      39.543  33.550  36.441  1.00  0.00     0.064 A 
ATOM     81  C   UNL A   1      38.718  33.116  37.488  1.00  0.00     0.173 A 
ATOM     82  C   UNL A   1      40.149  34.809  36.570  1.00  0.00     0.173 A 
ATOM     83  F   UNL A   1      38.089  31.934  37.399  1.00  0.00    -0.203 F 
ATOM     84  C   UNL A   1      38.493  33.915  38.609  1.00  0.00     0.198 A 
ATOM     85  C   UNL A   1      39.948  35.593  37.705  1.00  0.00     0.198 A 
ATOM     86  F   UNL A   1      40.940  35.277  35.594  1.00  0.00    -0.203 F 
ATOM     87  F   UNL A   1      37.659  33.496  39.571  1.00  0.00    -0.200 F 
ATOM     88  C   UNL A   1      39.115  35.149  38.720  1.00  0.00     0.200 A 
ATOM     89  F   UNL A   1      40.557  36.782  37.811  1.00  0.00    -0.200 F 
ATOM     90  F   UNL A   1      38.900  35.915  39.798  1.00  0.00    -0.200 F 
ENDBRANCH  56  80
BRANCH  68  91
ATOM     91  C   UNL A   1      43.917  28.329  34.920  1.00  0.00     0.064 A 
ATOM     92  C   UNL A   1      43.720  27.174  35.690  1.00  0.00     0.173 A 
ATOM     93  C   UNL A   1      45.221  28.844  34.834  1.00  0.00     0.173 A 
ATOM     94  F   UNL A   1      42.493  26.646  35.814  1.00  0.00    -0.203 F 
ATOM     95  C   UNL A   1      44.781  26.574  36.366  1.00  0.00     0.198 A 
ATOM     96  C   UNL A   1      46.284  28.223  35.483  1.00  0.00     0.198 A 
ATOM     97  F   UNL A   1      45.468  29.942  34.104  1.00  0.00    -0.203 F 
ATOM     98  F   UNL A   1      44.560  25.499  37.135  1.00  0.00    -0.200 F 
ATOM     99  C   UNL A   1      46.063  27.093  36.255  1.00  0.00     0.200 A 
ATOM    100  F   UNL A   1      47.525  28.716  35.359  1.00  0.00    -0.200 F 
ATOM    101  F   UNL A   1      47.083  26.507  36.896  1.00  0.00    -0.200 F 
ENDBRANCH  68  91
ENDBRANCH  42  43
ENDBRANCH  35  37
ENDBRANCH  34  35
ENDBRANCH  33  34
ENDBRANCH  32  33
ENDBRANCH  31  32
ENDBRANCH  30  31
ENDBRANCH  29  30
ENDBRANCH   1  29
TORSDOF 22
ENDMDL
MODEL 2
REMARK VINA RESULT:     -11.0      4.483      8.510
REMARK SMILES CCOC(=O)c1ccc(NC(=O)[C@H]2CC=CC[C@@]2(C)C(=O)OCCOCCOCCOC(=O)c2ccc(-c3c4nc(c(-c5c(F)c(F)c(F)c(F)c5F)c5ccc([nH]5)c(-c5c(F)c(F)c(F)c(F)c5F)c5nc(c(-c6c(F)c(F)c(F)c(F)c6F)c6ccc3[nH]6)C=C5)C=C4)cc2)cc1
REMARK SMILES IDX 25 1 24 2 23 3 22 4 20 5 21 6 18 7 13 8 14 9 15 10 17 11
REMARK SMILES IDX 19 12 16 13 11 14 10 15 12 17 9 18 6 19 7 20 98 21 8 22
REMARK SMILES IDX 97 23 4 24 5 25 3 26 2 27 1 28 26 29 27 30 28 31 29 32 30 33
REMARK SMILES IDX 31 34 32 35 33 36 34 37 35 38 96 39 36 40 95 41 37 42 38 43
REMARK SMILES IDX 39 44 89 45 40 46 94 47 88 48 90 49 41 50 93 51 87 52 86 53
REMARK SMILES IDX 42 55 74 56 54 57 73 58 55 59 58 60 72 61 91 62 56 63 57 64
REMARK SMILES IDX 71 66 92 67 59 68 43 69 44 70 52 71 45 72 46 73 50 74 53 75
REMARK SMILES IDX 47 76 48 77 51 78 49 79 75 80 76 81 84 82 77 83 78 84 82 85
REMARK SMILES IDX 85 86 79 87 80 88 83 89 81 90 60 91 61 92 69 93 62 94 63 95
REMARK SMILES IDX 67 96 70 97 64 98 65 99 68 100 66 101
REMARK H PARENT 10 16 90 54 58 65
REMARK Flexibility Score: inf
ROOT
ATOM      1  O   UNL A   1      36.109  23.825  24.673  1.00  0.00    -0.376 OA
ENDROOT
BRANCH   1   2
ATOM      2  C   UNL A   1      35.380  23.338  23.555  1.00  0.00     0.202 C 
BRANCH   2   3
ATOM      3  C   UNL A   1      34.192  24.166  23.051  1.00  0.00     0.261 C 
BRANCH   3   4
ATOM      4  O   UNL A   1      34.044  25.472  23.650  1.00  0.00    -0.463 OA
BRANCH   4   5
ATOM      5  C   UNL A   1      33.681  26.480  22.830  1.00  0.00     0.313 C 
ATOM      6  O   UNL A   1      33.576  26.334  21.613  1.00  0.00    -0.252 OA
BRANCH   5   7
ATOM      7  C   UNL A   1      33.367  27.844  23.500  1.00  0.00     0.080 C 
ATOM      8  C   UNL A   1      31.907  28.476  23.515  1.00  0.00     0.100 C 
ATOM      9  C   UNL A   1      31.384  29.131  24.820  1.00  0.00     0.041 C 
ATOM     10  C   UNL A   1      32.203  28.969  26.053  1.00  0.00    -0.030 C 
ATOM     11  C   UNL A   1      34.025  27.686  24.918  1.00  0.00     0.046 C 
ATOM     12  C   UNL A   1      34.274  28.853  22.713  1.00  0.00     0.025 C 
ATOM     13  C   UNL A   1      33.376  28.336  26.093  1.00  0.00    -0.030 C 
BRANCH   8  14
ATOM     14  C   UNL A   1      30.698  27.880  22.763  1.00  0.00     0.228 C 
ATOM     15  N   UNL A   1      30.189  26.628  22.872  1.00  0.00    -0.326 N 
ATOM     16  H   UNL A   1      29.443  26.463  22.251  1.00  0.00     0.169 HD
ATOM     17  O   UNL A   1      30.068  28.641  22.007  1.00  0.00    -0.274 OA
BRANCH  15  18
ATOM     18  C   UNL A   1      30.489  25.520  23.670  1.00  0.00     0.041 A 
ATOM     19  C   UNL A   1      31.168  23.355  25.302  1.00  0.00     0.060 A 
ATOM     20  C   UNL A   1      30.954  23.159  23.947  1.00  0.00     0.018 A 
ATOM     21  C   UNL A   1      31.009  24.618  25.872  1.00  0.00     0.018 A 
ATOM     22  C   UNL A   1      30.631  24.246  23.156  1.00  0.00     0.027 A 
ATOM     23  C   UNL A   1      30.667  25.703  25.049  1.00  0.00     0.027 A 
BRANCH  19  24
ATOM     24  C   UNL A   1      31.713  22.204  26.021  1.00  0.00     0.338 C 
ATOM     25  O   UNL A   1      32.426  22.332  27.002  1.00  0.00    -0.246 OA
BRANCH  24  26
ATOM     26  O   UNL A   1      31.481  21.079  25.309  1.00  0.00    -0.462 OA
BRANCH  26  27
ATOM     27  C   UNL A   1      32.557  20.131  25.378  1.00  0.00     0.230 C 
ATOM     28  C   UNL A   1      32.584  19.280  24.118  1.00  0.00     0.049 C 
ENDBRANCH  26  27
ENDBRANCH  24  26
ENDBRANCH  19  24
ENDBRANCH  15  18
ENDBRANCH   8  14
ENDBRANCH   5   7
ENDBRANCH   4   5
ENDBRANCH   3   4
ENDBRANCH   2   3
ENDBRANCH   1   2
BRANCH   1  29
ATOM     29  C   UNL A   1      36.439  22.938  25.734  1.00  0.00     0.188 C 
BRANCH  29  30
ATOM     30  C   UNL A   1      35.851  21.517  25.751  1.00  0.00     0.188 C 
BRANCH  30  31
ATOM     31  O   UNL A   1      36.628  20.560  25.061  1.00  0.00    -0.376 OA
BRANCH  31  32
ATOM     32  C   UNL A   1      38.011  20.851  24.943  1.00  0.00     0.202 C 
BRANCH  32  33
ATOM     33  C   UNL A   1      38.945  19.919  25.730  1.00  0.00     0.261 C 
BRANCH  33  34
ATOM     34  O   UNL A   1      40.282  20.405  25.938  1.00  0.00    -0.460 OA
BRANCH  34  35
ATOM     35  C   UNL A   1      40.723  20.514  27.210  1.00  0.00     0.338 C 
ATOM     36  O   UNL A   1      41.090  19.607  27.943  1.00  0.00    -0.246 OA
BRANCH  35  37
ATOM     37  C   UNL A   1      40.891  21.956  27.502  1.00  0.00     0.060 A 
ATOM     38  C   UNL A   1      40.094  22.899  26.835  1.00  0.00     0.016 A 
ATOM     39  C   UNL A   1      41.809  22.371  28.470  1.00  0.00     0.016 A 
ATOM     40  C   UNL A   1      40.238  24.263  27.111  1.00  0.00     0.010 A 
ATOM     41  C   UNL A   1      41.968  23.734  28.728  1.00  0.00     0.010 A 
ATOM     42  C   UNL A   1      41.209  24.689  28.027  1.00  0.00    -0.014 A 
BRANCH  42  43
ATOM     43  C   UNL A   1      41.616  26.116  28.093  1.00  0.00     0.031 A 
ATOM     44  C   UNL A   1      42.966  26.483  27.541  1.00  0.00     0.074 A 
ATOM     45  C   UNL A   1      40.839  27.059  28.653  1.00  0.00     0.049 A 
ATOM     46  N   UNL A   1      43.616  27.616  27.598  1.00  0.00    -0.248 NA
ATOM     47  C   UNL A   1      43.686  25.410  26.834  1.00  0.00     0.031 C 
ATOM     48  C   UNL A   1      39.496  26.847  29.182  1.00  0.00     0.029 A 
ATOM     49  N   UNL A   1      41.091  28.389  28.888  1.00  0.00    -0.354 N 
ATOM     50  C   UNL A   1      44.825  27.389  26.953  1.00  0.00     0.074 A 
ATOM     51  C   UNL A   1      44.831  26.003  26.538  1.00  0.00     0.031 C 
ATOM     52  C   UNL A   1      39.045  28.005  29.699  1.00  0.00     0.029 A 
ATOM     53  C   UNL A   1      40.086  29.026  29.574  1.00  0.00     0.049 A 
ATOM     54  H   UNL A   1      41.913  28.843  28.592  1.00  0.00     0.167 HD
ATOM     55  C   UNL A   1      45.836  28.258  26.721  1.00  0.00     0.037 A 
ATOM     56  C   UNL A   1      40.032  30.279  30.070  1.00  0.00     0.037 A 
ATOM     57  C   UNL A   1      45.831  29.633  27.142  1.00  0.00     0.049 A 
ATOM     58  C   UNL A   1      41.208  31.206  29.878  1.00  0.00     0.074 A 
ATOM     59  C   UNL A   1      46.803  30.599  26.949  1.00  0.00     0.029 A 
ATOM     60  N   UNL A   1      44.805  30.234  27.855  1.00  0.00    -0.354 N 
ATOM     61  N   UNL A   1      42.342  30.993  29.255  1.00  0.00    -0.248 NA
ATOM     62  C   UNL A   1      41.096  32.551  30.464  1.00  0.00     0.031 C 
ATOM     63  C   UNL A   1      46.390  31.768  27.597  1.00  0.00     0.029 A 
ATOM     64  C   UNL A   1      45.130  31.553  28.133  1.00  0.00     0.049 A 
ATOM     65  H   UNL A   1      43.967  29.791  28.124  1.00  0.00     0.167 HD
ATOM     66  C   UNL A   1      43.056  32.183  29.338  1.00  0.00     0.074 A 
ATOM     67  C   UNL A   1      42.226  33.118  30.068  1.00  0.00     0.031 C 
ATOM     68  C   UNL A   1      44.287  32.477  28.847  1.00  0.00     0.037 A 
BRANCH  55  69
ATOM     69  C   UNL A   1      47.049  27.728  26.011  1.00  0.00     0.064 A 
ATOM     70  C   UNL A   1      48.151  27.211  26.709  1.00  0.00     0.173 A 
ATOM     71  C   UNL A   1      47.108  27.733  24.608  1.00  0.00     0.173 A 
ATOM     72  F   UNL A   1      48.154  27.198  28.051  1.00  0.00    -0.203 F 
ATOM     73  C   UNL A   1      49.279  26.754  26.033  1.00  0.00     0.198 A 
ATOM     74  C   UNL A   1      48.223  27.242  23.935  1.00  0.00     0.198 A 
ATOM     75  F   UNL A   1      46.083  28.213  23.889  1.00  0.00    -0.203 F 
ATOM     76  F   UNL A   1      50.344  26.324  26.724  1.00  0.00    -0.200 F 
ATOM     77  C   UNL A   1      49.311  26.763  24.647  1.00  0.00     0.200 A 
ATOM     78  F   UNL A   1      48.247  27.239  22.594  1.00  0.00    -0.200 F 
ATOM     79  F   UNL A   1      50.397  26.321  23.998  1.00  0.00    -0.200 F 
ENDBRANCH  55  69
BRANCH  56  80
ATOM     80  C   UNL A   1      38.825  30.736  30.811  1.00  0.00     0.064 A 
ATOM     81  C   UNL A   1      37.742  31.317  30.135  1.00  0.00     0.173 A 
ATOM     82  C   UNL A   1      38.737  30.628  32.207  1.00  0.00     0.173 A 
ATOM     83  F   UNL A   1      37.790  31.473  28.804  1.00  0.00    -0.203 F 
ATOM     84  C   UNL A   1      36.627  31.787  30.828  1.00  0.00     0.198 A 
ATOM     85  C   UNL A   1      37.609  31.070  32.895  1.00  0.00     0.198 A 
ATOM     86  F   UNL A   1      39.748  30.089  32.904  1.00  0.00    -0.203 F 
ATOM     87  F   UNL A   1      35.629  32.385  30.161  1.00  0.00    -0.200 F 
ATOM     88  C   UNL A   1      36.558  31.656  32.207  1.00  0.00     0.200 A 
ATOM     89  F   UNL A   1      37.543  30.934  34.227  1.00  0.00    -0.200 F 
ATOM     90  F   UNL A   1      35.485  32.106  32.872  1.00  0.00    -0.200 F 
ENDBRANCH  56  80
BRANCH  68  91
ATOM     91  C   UNL A   1      44.794  33.881  29.028  1.00  0.00     0.064 A 
ATOM     92  C   UNL A   1      45.553  34.260  30.145  1.00  0.00     0.173 A 
ATOM     93  C   UNL A   1      44.562  34.847  28.036  1.00  0.00     0.173 A 
ATOM     94  F   UNL A   1      45.796  33.380  31.128  1.00  0.00    -0.203 F 
ATOM     95  C   UNL A   1      46.037  35.561  30.274  1.00  0.00     0.198 A 
ATOM     96  C   UNL A   1      45.076  36.136  28.152  1.00  0.00     0.198 A 
ATOM     97  F   UNL A   1      43.850  34.536  26.942  1.00  0.00    -0.203 F 
ATOM     98  F   UNL A   1      46.718  35.915  31.373  1.00  0.00    -0.200 F 
ATOM     99  C   UNL A   1      45.806  36.494  29.274  1.00  0.00     0.200 A 
ATOM    100  F   UNL A   1      44.867  37.030  27.175  1.00  0.00    -0.200 F 
ATOM    101  F   UNL A   1      46.283  37.741  29.395  1.00  0.00    -0.200 F 
ENDBRANCH  68  91
ENDBRANCH  42  43
ENDBRANCH  35  37
ENDBRANCH  34  35
ENDBRANCH  33  34
ENDBRANCH  32  33
ENDBRANCH  31  32
ENDBRANCH  30  31
ENDBRANCH  29  30
ENDBRANCH   1  29
TORSDOF 22
ENDMDL
MODEL 3
REMARK VINA RESULT:     -10.8      1.759      8.018
REMARK SMILES CCOC(=O)c1ccc(NC(=O)[C@H]2CC=CC[C@@]2(C)C(=O)OCCOCCOCCOC(=O)c2ccc(-c3c4nc(c(-c5c(F)c(F)c(F)c(F)c5F)c5ccc([nH]5)c(-c5c(F)c(F)c(F)c(F)c5F)c5nc(c(-c6c(F)c(F)c(F)c(F)c6F)c6ccc3[nH]6)C=C5)C=C4)cc2)cc1
REMARK SMILES IDX 25 1 24 2 23 3 22 4 20 5 21 6 18 7 13 8 14 9 15 10 17 11
REMARK SMILES IDX 19 12 16 13 11 14 10 15 12 17 9 18 6 19 7 20 98 21 8 22
REMARK SMILES IDX 97 23 4 24 5 25 3 26 2 27 1 28 26 29 27 30 28 31 29 32 30 33
REMARK SMILES IDX 31 34 32 35 33 36 34 37 35 38 96 39 36 40 95 41 37 42 38 43
REMARK SMILES IDX 39 44 89 45 40 46 94 47 88 48 90 49 41 50 93 51 87 52 86 53
REMARK SMILES IDX 42 55 74 56 54 57 73 58 55 59 58 60 72 61 91 62 56 63 57 64
REMARK SMILES IDX 71 66 92 67 59 68 43 69 44 70 52 71 45 72 46 73 50 74 53 75
REMARK SMILES IDX 47 76 48 77 51 78 49 79 75 80 76 81 84 82 77 83 78 84 82 85
REMARK SMILES IDX 85 86 79 87 80 88 83 89 81 90 60 91 61 92 69 93 62 94 63 95
REMARK SMILES IDX 67 96 70 97 64 98 65 99 68 100 66 101
REMARK H PARENT 10 16 90 54 58 65
REMARK Flexibility Score: inf
ROOT
ATOM      1  O   UNL A   1      34.809  31.857  28.013  1.00  0.00    -0.376 OA
ENDROOT
BRANCH   1   2
ATOM      2  C   UNL A   1      33.831  31.023  27.410  1.00  0.00     0.202 C 
BRANCH   2   3
ATOM      3  C   UNL A   1      34.214  29.573  27.092  1.00  0.00     0.261 C 
BRANCH   3   4
ATOM      4  O   UNL A   1      33.831  29.100  25.782  1.00  0.00    -0.463 OA
BRANCH   4   5
ATOM      5  C   UNL A   1      33.232  27.893  25.722  1.00  0.00     0.313 C 
ATOM      6  O   UNL A   1      33.647  26.919  26.350  1.00  0.00    -0.252 OA
BRANCH   5   7
ATOM      7  C   UNL A   1      31.961  27.788  24.838  1.00  0.00     0.080 C 
ATOM      8  C   UNL A   1      32.002  27.262  23.337  1.00  0.00     0.100 C 
ATOM      9  C   UNL A   1      30.901  26.283  22.852  1.00  0.00     0.041 C 
ATOM     10  C   UNL A   1      29.964  25.736  23.871  1.00  0.00    -0.030 C 
ATOM     11  C   UNL A   1      30.960  27.018  25.772  1.00  0.00     0.046 C 
ATOM     12  C   UNL A   1      31.442  29.265  24.771  1.00  0.00     0.025 C 
ATOM     13  C   UNL A   1      29.986  26.068  25.162  1.00  0.00    -0.030 C 
BRANCH   8  14
ATOM     14  C   UNL A   1      33.301  26.936  22.569  1.00  0.00     0.228 C 
ATOM     15  N   UNL A   1      33.936  25.740  22.483  1.00  0.00    -0.326 N 
ATOM     16  H   UNL A   1      34.777  25.790  21.975  1.00  0.00     0.169 HD
ATOM     17  O   UNL A   1      33.808  27.851  21.896  1.00  0.00    -0.274 OA
BRANCH  15  18
ATOM     18  C   UNL A   1      33.658  24.454  22.955  1.00  0.00     0.041 A 
ATOM     19  C   UNL A   1      33.010  21.892  23.865  1.00  0.00     0.060 A 
ATOM     20  C   UNL A   1      33.589  22.806  24.730  1.00  0.00     0.018 A 
ATOM     21  C   UNL A   1      32.782  22.221  22.529  1.00  0.00     0.018 A 
ATOM     22  C   UNL A   1      33.890  24.072  24.263  1.00  0.00     0.027 A 
ATOM     23  C   UNL A   1      33.110  23.510  22.076  1.00  0.00     0.027 A 
BRANCH  19  24
ATOM     24  C   UNL A   1      32.528  20.661  24.490  1.00  0.00     0.338 C 
ATOM     25  O   UNL A   1      31.664  20.669  25.351  1.00  0.00    -0.246 OA
BRANCH  24  26
ATOM     26  O   UNL A   1      33.322  19.630  24.125  1.00  0.00    -0.462 OA
BRANCH  26  27
ATOM     27  C   UNL A   1      32.608  18.395  23.956  1.00  0.00     0.230 C 
ATOM     28  C   UNL A   1      32.400  18.113  22.476  1.00  0.00     0.049 C 
ENDBRANCH  26  27
ENDBRANCH  24  26
ENDBRANCH  19  24
ENDBRANCH  15  18
ENDBRANCH   8  14
ENDBRANCH   5   7
ENDBRANCH   4   5
ENDBRANCH   3   4
ENDBRANCH   2   3
ENDBRANCH   1   2
BRANCH   1  29
ATOM     29  C   UNL A   1      34.406  32.841  28.957  1.00  0.00     0.188 C 
BRANCH  29  30
ATOM     30  C   UNL A   1      33.911  34.211  28.466  1.00  0.00     0.188 C 
BRANCH  30  31
ATOM     31  O   UNL A   1      32.725  34.657  29.091  1.00  0.00    -0.376 OA
BRANCH  31  32
ATOM     32  C   UNL A   1      32.545  36.063  29.150  1.00  0.00     0.202 C 
BRANCH  32  33
ATOM     33  C   UNL A   1      33.397  36.787  30.203  1.00  0.00     0.261 C 
BRANCH  33  34
ATOM     34  O   UNL A   1      32.707  37.174  31.405  1.00  0.00    -0.460 OA
BRANCH  34  35
ATOM     35  C   UNL A   1      32.363  36.201  32.275  1.00  0.00     0.338 C 
ATOM     36  O   UNL A   1      31.255  35.994  32.751  1.00  0.00    -0.246 OA
BRANCH  35  37
ATOM     37  C   UNL A   1      33.517  35.281  32.397  1.00  0.00     0.060 A 
ATOM     38  C   UNL A   1      33.302  33.932  32.714  1.00  0.00     0.016 A 
ATOM     39  C   UNL A   1      34.812  35.748  32.153  1.00  0.00     0.016 A 
ATOM     40  C   UNL A   1      34.385  33.052  32.822  1.00  0.00     0.010 A 
ATOM     41  C   UNL A   1      35.893  34.875  32.283  1.00  0.00     0.010 A 
ATOM     42  C   UNL A   1      35.690  33.532  32.651  1.00  0.00    -0.014 A 
BRANCH  42  43
ATOM     43  C   UNL A   1      36.859  32.723  33.083  1.00  0.00     0.031 A 
ATOM     44  C   UNL A   1      37.482  33.051  34.412  1.00  0.00     0.074 A 
ATOM     45  C   UNL A   1      37.381  31.751  32.316  1.00  0.00     0.049 A 
ATOM     46  N   UNL A   1      38.582  32.600  34.958  1.00  0.00    -0.248 NA
ATOM     47  C   UNL A   1      36.764  34.040  35.234  1.00  0.00     0.031 C 
ATOM     48  C   UNL A   1      36.849  31.303  31.034  1.00  0.00     0.029 A 
ATOM     49  N   UNL A   1      38.503  30.980  32.507  1.00  0.00    -0.354 N 
ATOM     50  C   UNL A   1      38.696  33.260  36.174  1.00  0.00     0.074 A 
ATOM     51  C   UNL A   1      37.571  34.164  36.275  1.00  0.00     0.031 C 
ATOM     52  C   UNL A   1      37.654  30.345  30.540  1.00  0.00     0.029 A 
ATOM     53  C   UNL A   1      38.781  30.145  31.452  1.00  0.00     0.049 A 
ATOM     54  H   UNL A   1      39.054  31.021  33.322  1.00  0.00     0.167 HD
ATOM     55  C   UNL A   1      39.649  33.121  37.126  1.00  0.00     0.037 A 
ATOM     56  C   UNL A   1      39.841  29.339  31.239  1.00  0.00     0.037 A 
ATOM     57  C   UNL A   1      40.771  32.228  37.019  1.00  0.00     0.049 A 
ATOM     58  C   UNL A   1      40.939  29.266  32.273  1.00  0.00     0.074 A 
ATOM     59  C   UNL A   1      41.788  32.006  37.931  1.00  0.00     0.029 A 
ATOM     60  N   UNL A   1      41.030  31.416  35.925  1.00  0.00    -0.354 N 
ATOM     61  N   UNL A   1      41.036  29.878  33.428  1.00  0.00    -0.248 NA
ATOM     62  C   UNL A   1      42.079  28.386  31.969  1.00  0.00     0.031 C 
ATOM     63  C   UNL A   1      42.694  31.105  37.363  1.00  0.00     0.029 A 
ATOM     64  C   UNL A   1      42.206  30.710  36.127  1.00  0.00     0.049 A 
ATOM     65  H   UNL A   1      40.463  31.350  35.123  1.00  0.00     0.167 HD
ATOM     66  C   UNL A   1      42.220  29.430  34.003  1.00  0.00     0.074 A 
ATOM     67  C   UNL A   1      42.806  28.488  33.072  1.00  0.00     0.031 C 
ATOM     68  C   UNL A   1      42.769  29.763  35.198  1.00  0.00     0.037 A 
BRANCH  55  69
ATOM     69  C   UNL A   1      39.533  33.988  38.347  1.00  0.00     0.064 A 
ATOM     70  C   UNL A   1      38.827  33.574  39.486  1.00  0.00     0.173 A 
ATOM     71  C   UNL A   1      40.144  35.252  38.379  1.00  0.00     0.173 A 
ATOM     72  F   UNL A   1      38.209  32.382  39.502  1.00  0.00    -0.203 F 
ATOM     73  C   UNL A   1      38.703  34.406  40.596  1.00  0.00     0.198 A 
ATOM     74  C   UNL A   1      40.049  36.066  39.504  1.00  0.00     0.198 A 
ATOM     75  F   UNL A   1      40.834  35.698  37.319  1.00  0.00    -0.203 F 
ATOM     76  F   UNL A   1      37.970  34.014  41.647  1.00  0.00    -0.200 F 
ATOM     77  C   UNL A   1      39.321  35.648  40.607  1.00  0.00     0.200 A 
ATOM     78  F   UNL A   1      40.658  37.260  39.518  1.00  0.00    -0.200 F 
ATOM     79  F   UNL A   1      39.203  36.446  41.676  1.00  0.00    -0.200 F 
ENDBRANCH  55  69
BRANCH  56  80
ATOM     80  C   UNL A   1      39.930  28.539  29.986  1.00  0.00     0.064 A 
ATOM     81  C   UNL A   1      40.550  29.060  28.841  1.00  0.00     0.173 A 
ATOM     82  C   UNL A   1      39.377  27.253  29.898  1.00  0.00     0.173 A 
ATOM     83  F   UNL A   1      41.066  30.298  28.864  1.00  0.00    -0.203 F 
ATOM     84  C   UNL A   1      40.598  28.332  27.653  1.00  0.00     0.198 A 
ATOM     85  C   UNL A   1      39.452  26.515  28.719  1.00  0.00     0.198 A 
ATOM     86  F   UNL A   1      38.763  26.712  30.961  1.00  0.00    -0.203 F 
ATOM     87  F   UNL A   1      41.151  28.875  26.559  1.00  0.00    -0.200 F 
ATOM     88  C   UNL A   1      40.056  27.057  27.595  1.00  0.00     0.200 A 
ATOM     89  F   UNL A   1      38.934  25.280  28.670  1.00  0.00    -0.200 F 
ATOM     90  F   UNL A   1      40.104  26.358  26.453  1.00  0.00    -0.200 F 
ENDBRANCH  56  80
BRANCH  68  91
ATOM     91  C   UNL A   1      44.039  29.067  35.603  1.00  0.00     0.064 A 
ATOM     92  C   UNL A   1      45.304  29.597  35.310  1.00  0.00     0.173 A 
ATOM     93  C   UNL A   1      43.984  27.876  36.345  1.00  0.00     0.173 A 
ATOM     94  F   UNL A   1      45.415  30.727  34.595  1.00  0.00    -0.203 F 
ATOM     95  C   UNL A   1      46.466  28.947  35.723  1.00  0.00     0.198 A 
ATOM     96  C   UNL A   1      45.147  27.248  36.784  1.00  0.00     0.198 A 
ATOM     97  F   UNL A   1      42.801  27.330  36.660  1.00  0.00    -0.203 F 
ATOM     98  F   UNL A   1      47.665  29.447  35.390  1.00  0.00    -0.200 F 
ATOM     99  C   UNL A   1      46.387  27.779  36.466  1.00  0.00     0.200 A 
ATOM    100  F   UNL A   1      45.066  26.129  37.518  1.00  0.00    -0.200 F 
ATOM    101  F   UNL A   1      47.505  27.163  36.872  1.00  0.00    -0.200 F 
ENDBRANCH  68  91
ENDBRANCH  42  43
ENDBRANCH  35  37
ENDBRANCH  34  35
ENDBRANCH  33  34
ENDBRANCH  32  33
ENDBRANCH  31  32
ENDBRANCH  30  31
ENDBRANCH  29  30
ENDBRANCH   1  29
TORSDOF 22
ENDMDL
