MODEL 1
REMARK VINA RESULT:      -8.8      0.000      0.000
REMARK SMILES CCCCCCNC(=O)Oc1cccc(-c2ccc([C@@H](C)C(=O)OCCOCCOCCOC(=O)c3ccc(-c4c5nc(c(-c6c(F)c(F)c(F)c(F)c6F)c6ccc([nH]6)c(-c6c(F)c(F)c(F)c(F)c6F)c6nc(c(-c7c(F)c(F)c(F)c(F)c7F)c7ccc4[nH]7)C=C6)C=C5)cc3)cc2[N+](=O)[O-])c1
REMARK SMILES IDX 25 1 24 2 22 3 23 4 20 5 21 6 19 7 16 8 17 9 100 10 18 11
REMARK SMILES IDX 99 12 15 13 11 14 12 15 104 16 13 17 14 18 10 19 8 20 7 21
REMARK SMILES IDX 9 23 6 24 5 25 4 26 3 27 2 28 1 29 101 30 102 31 103 32
REMARK SMILES IDX 26 33 27 34 28 35 29 36 30 37 31 38 32 39 33 40 34 41 35 42
REMARK SMILES IDX 36 43 37 44 98 45 38 46 97 47 39 48 40 49 41 50 91 51 42 52
REMARK SMILES IDX 96 53 90 54 92 55 43 56 95 57 89 58 88 59 44 61 76 62 56 63
REMARK SMILES IDX 75 64 57 65 60 66 74 67 93 68 58 69 59 70 73 72 94 73 61 74
REMARK SMILES IDX 45 75 46 76 54 77 47 78 48 79 52 80 55 81 49 82 50 83 53 84
REMARK SMILES IDX 51 85 77 86 78 87 86 88 79 89 80 90 84 91 87 92 81 93 82 94
REMARK SMILES IDX 85 95 83 96 62 97 63 98 71 99 64 100 65 101 69 102 72 103
REMARK SMILES IDX 66 104 67 105 70 106 68 107
REMARK H PARENT 7 22 92 60 60 71
REMARK Flexibility Score: inf
ROOT
ATOM      1  C   UNL A   1      35.315  33.455  33.896  1.00  0.00     0.261 C 
ENDROOT
BRANCH   1   2
ATOM      2  O   UNL A   1      36.669  32.963  33.769  1.00  0.00    -0.463 OA
BRANCH   2   3
ATOM      3  C   UNL A   1      37.655  33.834  34.096  1.00  0.00     0.313 C 
ATOM      4  O   UNL A   1      37.723  34.978  33.648  1.00  0.00    -0.252 OA
BRANCH   3   5
ATOM      5  C   UNL A   1      38.713  33.324  35.074  1.00  0.00     0.126 C 
ATOM      6  C   UNL A   1      39.056  31.879  34.712  1.00  0.00     0.025 C 
BRANCH   5   7
ATOM      7  C   UNL A   1      38.547  33.466  36.587  1.00  0.00    -0.027 A 
ATOM      8  C   UNL A   1      38.087  33.672  39.434  1.00  0.00     0.060 A 
ATOM      9  C   UNL A   1      38.801  34.652  38.713  1.00  0.00     0.016 A 
ATOM     10  C   UNL A   1      37.596  32.593  38.680  1.00  0.00     0.277 A 
ATOM     11  C   UNL A   1      39.012  34.564  37.320  1.00  0.00     0.006 A 
ATOM     12  C   UNL A   1      37.826  32.482  37.290  1.00  0.00     0.091 A 
BRANCH   8  13
ATOM     13  C   UNL A   1      37.861  33.849  40.887  1.00  0.00    -0.008 A 
ATOM     14  C   UNL A   1      36.428  33.877  42.851  1.00  0.00     0.133 A 
ATOM     15  C   UNL A   1      37.462  34.380  43.637  1.00  0.00     0.047 A 
ATOM     16  C   UNL A   1      36.614  33.599  41.491  1.00  0.00     0.056 A 
ATOM     17  C   UNL A   1      38.709  34.601  43.061  1.00  0.00     0.004 A 
ATOM     18  C   UNL A   1      38.901  34.344  41.699  1.00  0.00     0.009 A 
BRANCH  14  19
ATOM     19  O   UNL A   1      35.155  33.838  43.452  1.00  0.00    -0.410 OA
BRANCH  19  20
ATOM     20  C   UNL A   1      34.345  32.727  43.268  1.00  0.00     0.412 C 
ATOM     21  N   UNL A   1      34.664  31.688  44.103  1.00  0.00    -0.321 N 
ATOM     22  H   UNL A   1      34.085  30.892  44.056  1.00  0.00     0.167 HD
ATOM     23  O   UNL A   1      33.445  32.626  42.446  1.00  0.00    -0.224 OA
BRANCH  21  24
ATOM     24  C   UNL A   1      35.764  31.630  45.050  1.00  0.00     0.119 C 
BRANCH  24  25
ATOM     25  C   UNL A   1      36.194  30.198  45.370  1.00  0.00     0.021 C 
BRANCH  25  26
ATOM     26  C   UNL A   1      37.429  29.700  44.609  1.00  0.00     0.002 C 
BRANCH  26  27
ATOM     27  C   UNL A   1      38.651  30.627  44.643  1.00  0.00    -0.000 C 
BRANCH  27  28
ATOM     28  C   UNL A   1      39.980  29.959  45.003  1.00  0.00    -0.003 C 
ATOM     29  C   UNL A   1      40.026  29.429  46.428  1.00  0.00     0.004 C 
ENDBRANCH  27  28
ENDBRANCH  26  27
ENDBRANCH  25  26
ENDBRANCH  24  25
ENDBRANCH  21  24
ENDBRANCH  19  20
ENDBRANCH  14  19
ENDBRANCH   8  13
BRANCH  10  30
ATOM     30  N   UNL A   1      36.769  31.551  39.288  1.00  0.00     0.063 N 
ATOM     31  O   UNL A   1      37.370  30.596  39.803  1.00  0.00    -0.258 OA
ATOM     32  O   UNL A   1      35.540  31.651  39.196  1.00  0.00    -0.258 OA
ENDBRANCH  10  30
ENDBRANCH   5   7
ENDBRANCH   3   5
ENDBRANCH   2   3
ENDBRANCH   1   2
BRANCH   1  33
ATOM     33  C   UNL A   1      34.396  33.112  32.718  1.00  0.00     0.202 C 
BRANCH  33  34
ATOM     34  O   UNL A   1      33.436  34.091  32.341  1.00  0.00    -0.376 OA
BRANCH  34  35
ATOM     35  C   UNL A   1      33.871  35.303  31.737  1.00  0.00     0.188 C 
BRANCH  35  36
ATOM     36  C   UNL A   1      33.585  35.563  30.252  1.00  0.00     0.188 C 
BRANCH  36  37
ATOM     37  O   UNL A   1      32.735  34.608  29.648  1.00  0.00    -0.376 OA
BRANCH  37  38
ATOM     38  C   UNL A   1      33.219  34.030  28.448  1.00  0.00     0.202 C 
BRANCH  38  39
ATOM     39  C   UNL A   1      34.536  33.288  28.695  1.00  0.00     0.261 C 
BRANCH  39  40
ATOM     40  O   UNL A   1      34.379  31.917  29.109  1.00  0.00    -0.460 OA
BRANCH  40  41
ATOM     41  C   UNL A   1      34.593  30.981  28.157  1.00  0.00     0.338 C 
ATOM     42  O   UNL A   1      33.925  30.781  27.159  1.00  0.00    -0.246 OA
BRANCH  41  43
ATOM     43  C   UNL A   1      35.917  30.368  28.384  1.00  0.00     0.060 A 
ATOM     44  C   UNL A   1      36.136  29.709  29.599  1.00  0.00     0.016 A 
ATOM     45  C   UNL A   1      36.940  30.463  27.440  1.00  0.00     0.016 A 
ATOM     46  C   UNL A   1      37.394  29.195  29.907  1.00  0.00     0.010 A 
ATOM     47  C   UNL A   1      38.208  29.961  27.753  1.00  0.00     0.010 A 
ATOM     48  C   UNL A   1      38.450  29.366  29.005  1.00  0.00    -0.014 A 
BRANCH  48  49
ATOM     49  C   UNL A   1      39.842  29.141  29.464  1.00  0.00     0.031 A 
ATOM     50  C   UNL A   1      40.554  27.905  28.982  1.00  0.00     0.074 A 
ATOM     51  C   UNL A   1      40.477  30.017  30.261  1.00  0.00     0.049 A 
ATOM     52  N   UNL A   1      41.744  27.454  29.285  1.00  0.00    -0.248 NA
ATOM     53  C   UNL A   1      39.815  27.059  28.028  1.00  0.00     0.031 C 
ATOM     54  C   UNL A   1      39.920  31.273  30.755  1.00  0.00     0.029 A 
ATOM     55  N   UNL A   1      41.740  29.971  30.802  1.00  0.00    -0.354 N 
ATOM     56  C   UNL A   1      41.891  26.272  28.569  1.00  0.00     0.074 A 
ATOM     57  C   UNL A   1      40.660  26.058  27.841  1.00  0.00     0.031 C 
ATOM     58  C   UNL A   1      40.832  31.874  31.541  1.00  0.00     0.029 A 
ATOM     59  C   UNL A   1      42.023  31.030  31.628  1.00  0.00     0.049 A 
ATOM     60  H   UNL A   1      42.380  29.246  30.615  1.00  0.00     0.167 HD
ATOM     61  C   UNL A   1      42.960  25.444  28.517  1.00  0.00     0.037 A 
ATOM     62  C   UNL A   1      43.112  31.273  32.384  1.00  0.00     0.037 A 
ATOM     63  C   UNL A   1      44.189  25.660  29.233  1.00  0.00     0.049 A 
ATOM     64  C   UNL A   1      44.265  30.297  32.360  1.00  0.00     0.074 A 
ATOM     65  C   UNL A   1      45.334  24.883  29.236  1.00  0.00     0.029 A 
ATOM     66  N   UNL A   1      44.429  26.733  30.078  1.00  0.00    -0.354 N 
ATOM     67  N   UNL A   1      44.404  29.192  31.669  1.00  0.00    -0.248 NA
ATOM     68  C   UNL A   1      45.415  30.609  33.223  1.00  0.00     0.031 C 
ATOM     69  C   UNL A   1      46.250  25.459  30.120  1.00  0.00     0.029 A 
ATOM     70  C   UNL A   1      45.697  26.626  30.625  1.00  0.00     0.049 A 
ATOM     71  H   UNL A   1      43.793  27.461  30.262  1.00  0.00     0.167 HD
ATOM     72  C   UNL A   1      45.664  28.698  31.985  1.00  0.00     0.074 A 
ATOM     73  C   UNL A   1      46.255  29.630  32.921  1.00  0.00     0.031 C 
ATOM     74  C   UNL A   1      46.279  27.572  31.542  1.00  0.00     0.037 A 
BRANCH  61  75
ATOM     75  C   UNL A   1      42.838  24.209  27.674  1.00  0.00     0.064 A 
ATOM     76  C   UNL A   1      43.109  24.225  26.297  1.00  0.00     0.173 A 
ATOM     77  C   UNL A   1      42.475  22.987  28.258  1.00  0.00     0.173 A 
ATOM     78  F   UNL A   1      43.441  25.373  25.687  1.00  0.00    -0.203 F 
ATOM     79  C   UNL A   1      43.001  23.066  25.534  1.00  0.00     0.198 A 
ATOM     80  C   UNL A   1      42.399  21.824  27.498  1.00  0.00     0.198 A 
ATOM     81  F   UNL A   1      42.205  22.918  29.571  1.00  0.00    -0.203 F 
ATOM     82  F   UNL A   1      43.220  23.112  24.212  1.00  0.00    -0.200 F 
ATOM     83  C   UNL A   1      42.654  21.865  26.136  1.00  0.00     0.200 A 
ATOM     84  F   UNL A   1      42.073  20.663  28.083  1.00  0.00    -0.200 F 
ATOM     85  F   UNL A   1      42.561  20.748  25.401  1.00  0.00    -0.200 F 
ENDBRANCH  61  75
BRANCH  62  86
ATOM     86  C   UNL A   1      43.172  32.482  33.248  1.00  0.00     0.064 A 
ATOM     87  C   UNL A   1      42.698  32.455  34.567  1.00  0.00     0.173 A 
ATOM     88  C   UNL A   1      43.654  33.704  32.755  1.00  0.00     0.173 A 
ATOM     89  F   UNL A   1      42.197  31.318  35.075  1.00  0.00    -0.203 F 
ATOM     90  C   UNL A   1      42.679  33.608  35.350  1.00  0.00     0.198 A 
ATOM     91  C   UNL A   1      43.663  34.848  33.550  1.00  0.00     0.198 A 
ATOM     92  F   UNL A   1      44.112  33.787  31.497  1.00  0.00    -0.203 F 
ATOM     93  F   UNL A   1      42.163  33.566  36.587  1.00  0.00    -0.200 F 
ATOM     94  C   UNL A   1      43.165  34.802  34.842  1.00  0.00     0.200 A 
ATOM     95  F   UNL A   1      44.141  35.999  33.057  1.00  0.00    -0.200 F 
ATOM     96  F   UNL A   1      43.141  35.912  35.593  1.00  0.00    -0.200 F 
ENDBRANCH  62  86
BRANCH  74  97
ATOM     97  C   UNL A   1      47.678  27.311  32.021  1.00  0.00     0.064 A 
ATOM     98  C   UNL A   1      48.796  27.840  31.362  1.00  0.00     0.173 A 
ATOM     99  C   UNL A   1      47.898  26.553  33.182  1.00  0.00     0.173 A 
ATOM    100  F   UNL A   1      48.641  28.562  30.242  1.00  0.00    -0.203 F 
ATOM    101  C   UNL A   1      50.085  27.597  31.830  1.00  0.00     0.198 A 
ATOM    102  C   UNL A   1      49.186  26.338  33.666  1.00  0.00     0.198 A 
ATOM    103  F   UNL A   1      46.863  26.031  33.857  1.00  0.00    -0.203 F 
ATOM    104  F   UNL A   1      51.142  28.072  31.157  1.00  0.00    -0.200 F 
ATOM    105  C   UNL A   1      50.279  26.853  32.986  1.00  0.00     0.200 A 
ATOM    106  F   UNL A   1      49.370  25.633  34.791  1.00  0.00    -0.200 F 
ATOM    107  F   UNL A   1      51.519  26.626  33.438  1.00  0.00    -0.200 F 
ENDBRANCH  74  97
ENDBRANCH  48  49
ENDBRANCH  41  43
ENDBRANCH  40  41
ENDBRANCH  39  40
ENDBRANCH  38  39
ENDBRANCH  37  38
ENDBRANCH  36  37
ENDBRANCH  35  36
ENDBRANCH  34  35
ENDBRANCH  33  34
ENDBRANCH   1  33
TORSDOF 27
ENDMDL
MODEL 2
REMARK VINA RESULT:      -8.7      6.277     11.625
REMARK SMILES CCCCCCNC(=O)Oc1cccc(-c2ccc([C@@H](C)C(=O)OCCOCCOCCOC(=O)c3ccc(-c4c5nc(c(-c6c(F)c(F)c(F)c(F)c6F)c6ccc([nH]6)c(-c6c(F)c(F)c(F)c(F)c6F)c6nc(c(-c7c(F)c(F)c(F)c(F)c7F)c7ccc4[nH]7)C=C6)C=C5)cc3)cc2[N+](=O)[O-])c1
REMARK SMILES IDX 25 1 24 2 22 3 23 4 20 5 21 6 19 7 16 8 17 9 100 10 18 11
REMARK SMILES IDX 99 12 15 13 11 14 12 15 104 16 13 17 14 18 10 19 8 20 7 21
REMARK SMILES IDX 9 23 6 24 5 25 4 26 3 27 2 28 1 29 101 30 102 31 103 32
REMARK SMILES IDX 26 33 27 34 28 35 29 36 30 37 31 38 32 39 33 40 34 41 35 42
REMARK SMILES IDX 36 43 37 44 98 45 38 46 97 47 39 48 40 49 41 50 91 51 42 52
REMARK SMILES IDX 96 53 90 54 92 55 43 56 95 57 89 58 88 59 44 61 76 62 56 63
REMARK SMILES IDX 75 64 57 65 60 66 74 67 93 68 58 69 59 70 73 72 94 73 61 74
REMARK SMILES IDX 45 75 46 76 54 77 47 78 48 79 52 80 55 81 49 82 50 83 53 84
REMARK SMILES IDX 51 85 77 86 78 87 86 88 79 89 80 90 84 91 87 92 81 93 82 94
REMARK SMILES IDX 85 95 83 96 62 97 63 98 71 99 64 100 65 101 69 102 72 103
REMARK SMILES IDX 66 104 67 105 70 106 68 107
REMARK H PARENT 7 22 92 60 60 71
REMARK Flexibility Score: inf
ROOT
ATOM      1  C   UNL A   1      35.291  33.009  32.631  1.00  0.00     0.261 C 
ENDROOT
BRANCH   1   2
ATOM      2  O   UNL A   1      34.402  32.547  31.588  1.00  0.00    -0.463 OA
BRANCH   2   3
ATOM      3  C   UNL A   1      34.579  33.100  30.363  1.00  0.00     0.313 C 
ATOM      4  O   UNL A   1      33.953  34.082  29.966  1.00  0.00    -0.252 OA
BRANCH   3   5
ATOM      5  C   UNL A   1      35.620  32.434  29.463  1.00  0.00     0.126 C 
ATOM      6  C   UNL A   1      36.426  33.525  28.758  1.00  0.00     0.025 C 
BRANCH   5   7
ATOM      7  C   UNL A   1      35.242  31.331  28.473  1.00  0.00    -0.027 A 
ATOM      8  C   UNL A   1      34.387  29.235  26.675  1.00  0.00     0.060 A 
ATOM      9  C   UNL A   1      35.714  29.332  27.143  1.00  0.00     0.016 A 
ATOM     10  C   UNL A   1      33.496  30.213  27.151  1.00  0.00     0.277 A 
ATOM     11  C   UNL A   1      36.131  30.343  28.035  1.00  0.00     0.006 A 
ATOM     12  C   UNL A   1      33.911  31.245  28.022  1.00  0.00     0.091 A 
BRANCH   8  13
ATOM     13  C   UNL A   1      34.004  28.122  25.777  1.00  0.00    -0.008 A 
ATOM     14  C   UNL A   1      33.487  25.784  25.352  1.00  0.00     0.133 A 
ATOM     15  C   UNL A   1      33.450  26.009  23.978  1.00  0.00     0.047 A 
ATOM     16  C   UNL A   1      33.750  26.822  26.255  1.00  0.00     0.056 A 
ATOM     17  C   UNL A   1      33.667  27.295  23.494  1.00  0.00     0.004 A 
ATOM     18  C   UNL A   1      33.948  28.336  24.385  1.00  0.00     0.009 A 
BRANCH  14  19
ATOM     19  O   UNL A   1      33.429  24.437  25.762  1.00  0.00    -0.410 OA
BRANCH  19  20
ATOM     20  C   UNL A   1      34.579  23.664  25.739  1.00  0.00     0.412 C 
ATOM     21  N   UNL A   1      34.325  22.322  25.860  1.00  0.00    -0.321 N 
ATOM     22  H   UNL A   1      35.101  21.720  25.792  1.00  0.00     0.167 HD
ATOM     23  O   UNL A   1      35.724  24.086  25.645  1.00  0.00    -0.224 OA
BRANCH  21  24
ATOM     24  C   UNL A   1      33.035  21.692  26.079  1.00  0.00     0.119 C 
BRANCH  24  25
ATOM     25  C   UNL A   1      32.261  21.465  24.779  1.00  0.00     0.021 C 
BRANCH  25  26
ATOM     26  C   UNL A   1      32.802  20.346  23.881  1.00  0.00     0.002 C 
BRANCH  26  27
ATOM     27  C   UNL A   1      33.675  19.295  24.579  1.00  0.00    -0.000 C 
BRANCH  27  28
ATOM     28  C   UNL A   1      33.133  17.864  24.557  1.00  0.00    -0.003 C 
ATOM     29  C   UNL A   1      33.564  17.071  23.332  1.00  0.00     0.004 C 
ENDBRANCH  27  28
ENDBRANCH  26  27
ENDBRANCH  25  26
ENDBRANCH  24  25
ENDBRANCH  21  24
ENDBRANCH  19  20
ENDBRANCH  14  19
ENDBRANCH   8  13
BRANCH  10  30
ATOM     30  N   UNL A   1      32.075  30.180  26.811  1.00  0.00     0.063 N 
ATOM     31  O   UNL A   1      31.658  31.091  26.079  1.00  0.00    -0.258 OA
ATOM     32  O   UNL A   1      31.371  29.299  27.319  1.00  0.00    -0.258 OA
ENDBRANCH  10  30
ENDBRANCH   5   7
ENDBRANCH   3   5
ENDBRANCH   2   3
ENDBRANCH   1   2
BRANCH   1  33
ATOM     33  C   UNL A   1      36.266  31.949  33.157  1.00  0.00     0.202 C 
BRANCH  33  34
ATOM     34  O   UNL A   1      36.353  30.732  32.427  1.00  0.00    -0.376 OA
BRANCH  34  35
ATOM     35  C   UNL A   1      37.632  30.204  32.094  1.00  0.00     0.188 C 
BRANCH  35  36
ATOM     36  C   UNL A   1      37.783  28.712  31.772  1.00  0.00     0.188 C 
BRANCH  36  37
ATOM     37  O   UNL A   1      37.926  28.426  30.395  1.00  0.00    -0.376 OA
BRANCH  37  38
ATOM     38  C   UNL A   1      38.871  27.420  30.073  1.00  0.00     0.202 C 
BRANCH  38  39
ATOM     39  C   UNL A   1      39.031  27.290  28.556  1.00  0.00     0.261 C 
BRANCH  39  40
ATOM     40  O   UNL A   1      39.699  26.087  28.128  1.00  0.00    -0.460 OA
BRANCH  40  41
ATOM     41  C   UNL A   1      40.896  26.256  27.522  1.00  0.00     0.338 C 
ATOM     42  O   UNL A   1      41.101  26.725  26.417  1.00  0.00    -0.246 OA
BRANCH  41  43
ATOM     43  C   UNL A   1      41.967  25.997  28.505  1.00  0.00     0.060 A 
ATOM     44  C   UNL A   1      42.416  27.070  29.285  1.00  0.00     0.016 A 
ATOM     45  C   UNL A   1      42.549  24.736  28.640  1.00  0.00     0.016 A 
ATOM     46  C   UNL A   1      43.487  26.907  30.160  1.00  0.00     0.010 A 
ATOM     47  C   UNL A   1      43.635  24.574  29.506  1.00  0.00     0.010 A 
ATOM     48  C   UNL A   1      44.136  25.669  30.235  1.00  0.00    -0.014 A 
BRANCH  48  49
ATOM     49  C   UNL A   1      45.467  25.584  30.883  1.00  0.00     0.031 A 
ATOM     50  C   UNL A   1      46.674  25.973  30.070  1.00  0.00     0.074 A 
ATOM     51  C   UNL A   1      45.612  25.202  32.163  1.00  0.00     0.049 A 
ATOM     52  N   UNL A   1      47.943  25.929  30.385  1.00  0.00    -0.248 NA
ATOM     53  C   UNL A   1      46.409  26.478  28.712  1.00  0.00     0.031 C 
ATOM     54  C   UNL A   1      44.523  24.849  33.070  1.00  0.00     0.029 A 
ATOM     55  N   UNL A   1      46.748  25.042  32.919  1.00  0.00    -0.354 N 
ATOM     56  C   UNL A   1      48.624  26.390  29.265  1.00  0.00     0.074 A 
ATOM     57  C   UNL A   1      47.633  26.679  28.252  1.00  0.00     0.031 C 
ATOM     58  C   UNL A   1      45.045  24.498  34.260  1.00  0.00     0.029 A 
ATOM     59  C   UNL A   1      46.504  24.573  34.186  1.00  0.00     0.049 A 
ATOM     60  H   UNL A   1      47.651  25.244  32.583  1.00  0.00     0.167 HD
ATOM     61  C   UNL A   1      49.955  26.564  29.098  1.00  0.00     0.037 A 
ATOM     62  C   UNL A   1      47.366  24.225  35.162  1.00  0.00     0.037 A 
ATOM     63  C   UNL A   1      50.942  26.287  30.107  1.00  0.00     0.049 A 
ATOM     64  C   UNL A   1      48.851  24.364  34.927  1.00  0.00     0.074 A 
ATOM     65  C   UNL A   1      52.315  26.442  30.038  1.00  0.00     0.029 A 
ATOM     66  N   UNL A   1      50.657  25.791  31.371  1.00  0.00    -0.354 N 
ATOM     67  N   UNL A   1      49.486  24.816  33.873  1.00  0.00    -0.248 NA
ATOM     68  C   UNL A   1      49.738  23.948  36.023  1.00  0.00     0.031 C 
ATOM     69  C   UNL A   1      52.867  25.994  31.242  1.00  0.00     0.029 A 
ATOM     70  C   UNL A   1      51.832  25.613  32.083  1.00  0.00     0.049 A 
ATOM     71  H   UNL A   1      49.754  25.594  31.711  1.00  0.00     0.167 HD
ATOM     72  C   UNL A   1      50.838  24.771  34.191  1.00  0.00     0.074 A 
ATOM     73  C   UNL A   1      50.932  24.259  35.542  1.00  0.00     0.031 C 
ATOM     74  C   UNL A   1      51.908  25.120  33.434  1.00  0.00     0.037 A 
BRANCH  61  75
ATOM     75  C   UNL A   1      50.427  27.058  27.762  1.00  0.00     0.064 A 
ATOM     76  C   UNL A   1      50.511  28.427  27.468  1.00  0.00     0.173 A 
ATOM     77  C   UNL A   1      50.830  26.147  26.775  1.00  0.00     0.173 A 
ATOM     78  F   UNL A   1      50.118  29.338  28.371  1.00  0.00    -0.203 F 
ATOM     79  C   UNL A   1      50.961  28.865  26.225  1.00  0.00     0.198 A 
ATOM     80  C   UNL A   1      51.309  26.589  25.545  1.00  0.00     0.198 A 
ATOM     81  F   UNL A   1      50.769  24.827  27.006  1.00  0.00    -0.203 F 
ATOM     82  F   UNL A   1      50.990  30.176  25.948  1.00  0.00    -0.200 F 
ATOM     83  C   UNL A   1      51.368  27.946  25.268  1.00  0.00     0.200 A 
ATOM     84  F   UNL A   1      51.712  25.700  24.626  1.00  0.00    -0.200 F 
ATOM     85  F   UNL A   1      51.811  28.370  24.077  1.00  0.00    -0.200 F 
ENDBRANCH  61  75
BRANCH  62  86
ATOM     86  C   UNL A   1      46.860  23.689  36.454  1.00  0.00     0.064 A 
ATOM     87  C   UNL A   1      46.731  22.309  36.667  1.00  0.00     0.173 A 
ATOM     88  C   UNL A   1      46.442  24.547  37.482  1.00  0.00     0.173 A 
ATOM     89  F   UNL A   1      47.086  21.447  35.702  1.00  0.00    -0.203 F 
ATOM     90  C   UNL A   1      46.181  21.810  37.846  1.00  0.00     0.198 A 
ATOM     91  C   UNL A   1      45.921  24.045  38.673  1.00  0.00     0.198 A 
ATOM     92  F   UNL A   1      46.536  25.876  37.328  1.00  0.00    -0.203 F 
ATOM     93  F   UNL A   1      46.013  20.488  37.997  1.00  0.00    -0.200 F 
ATOM     94  C   UNL A   1      45.781  22.678  38.850  1.00  0.00     0.200 A 
ATOM     95  F   UNL A   1      45.542  24.888  39.643  1.00  0.00    -0.200 F 
ATOM     96  F   UNL A   1      45.245  22.197  39.981  1.00  0.00    -0.200 F 
ENDBRANCH  62  86
BRANCH  74  97
ATOM     97  C   UNL A   1      53.268  25.011  34.061  1.00  0.00     0.064 A 
ATOM     98  C   UNL A   1      53.859  26.087  34.740  1.00  0.00     0.173 A 
ATOM     99  C   UNL A   1      53.972  23.797  34.019  1.00  0.00     0.173 A 
ATOM    100  F   UNL A   1      53.233  27.272  34.800  1.00  0.00    -0.203 F 
ATOM    101  C   UNL A   1      55.115  25.960  35.327  1.00  0.00     0.198 A 
ATOM    102  C   UNL A   1      55.214  23.664  34.634  1.00  0.00     0.198 A 
ATOM    103  F   UNL A   1      53.449  22.733  33.391  1.00  0.00    -0.203 F 
ATOM    104  F   UNL A   1      55.681  27.017  35.927  1.00  0.00    -0.200 F 
ATOM    105  C   UNL A   1      55.788  24.748  35.281  1.00  0.00     0.200 A 
ATOM    106  F   UNL A   1      55.855  22.488  34.603  1.00  0.00    -0.200 F 
ATOM    107  F   UNL A   1      56.994  24.627  35.852  1.00  0.00    -0.200 F 
ENDBRANCH  74  97
ENDBRANCH  48  49
ENDBRANCH  41  43
ENDBRANCH  40  41
ENDBRANCH  39  40
ENDBRANCH  38  39
ENDBRANCH  37  38
ENDBRANCH  36  37
ENDBRANCH  35  36
ENDBRANCH  34  35
ENDBRANCH  33  34
ENDBRANCH   1  33
TORSDOF 27
ENDMDL
MODEL 3
REMARK VINA RESULT:      -8.5      3.929      7.582
REMARK SMILES CCCCCCNC(=O)Oc1cccc(-c2ccc([C@@H](C)C(=O)OCCOCCOCCOC(=O)c3ccc(-c4c5nc(c(-c6c(F)c(F)c(F)c(F)c6F)c6ccc([nH]6)c(-c6c(F)c(F)c(F)c(F)c6F)c6nc(c(-c7c(F)c(F)c(F)c(F)c7F)c7ccc4[nH]7)C=C6)C=C5)cc3)cc2[N+](=O)[O-])c1
REMARK SMILES IDX 25 1 24 2 22 3 23 4 20 5 21 6 19 7 16 8 17 9 100 10 18 11
REMARK SMILES IDX 99 12 15 13 11 14 12 15 104 16 13 17 14 18 10 19 8 20 7 21
REMARK SMILES IDX 9 23 6 24 5 25 4 26 3 27 2 28 1 29 101 30 102 31 103 32
REMARK SMILES IDX 26 33 27 34 28 35 29 36 30 37 31 38 32 39 33 40 34 41 35 42
REMARK SMILES IDX 36 43 37 44 98 45 38 46 97 47 39 48 40 49 41 50 91 51 42 52
REMARK SMILES IDX 96 53 90 54 92 55 43 56 95 57 89 58 88 59 44 61 76 62 56 63
REMARK SMILES IDX 75 64 57 65 60 66 74 67 93 68 58 69 59 70 73 72 94 73 61 74
REMARK SMILES IDX 45 75 46 76 54 77 47 78 48 79 52 80 55 81 49 82 50 83 53 84
REMARK SMILES IDX 51 85 77 86 78 87 86 88 79 89 80 90 84 91 87 92 81 93 82 94
REMARK SMILES IDX 85 95 83 96 62 97 63 98 71 99 64 100 65 101 69 102 72 103
REMARK SMILES IDX 66 104 67 105 70 106 68 107
REMARK H PARENT 7 22 92 60 60 71
REMARK Flexibility Score: inf
ROOT
ATOM      1  C   UNL A   1      35.329  33.496  33.698  1.00  0.00     0.261 C 
ENDROOT
BRANCH   1   2
ATOM      2  O   UNL A   1      36.746  33.209  33.728  1.00  0.00    -0.463 OA
BRANCH   2   3
ATOM      3  C   UNL A   1      37.574  34.266  33.540  1.00  0.00     0.313 C 
ATOM      4  O   UNL A   1      37.278  35.245  32.856  1.00  0.00    -0.252 OA
BRANCH   3   5
ATOM      5  C   UNL A   1      38.934  34.193  34.235  1.00  0.00     0.126 C 
ATOM      6  C   UNL A   1      38.846  34.947  35.562  1.00  0.00     0.025 C 
BRANCH   5   7
ATOM      7  C   UNL A   1      40.230  34.551  33.507  1.00  0.00    -0.027 A 
ATOM      8  C   UNL A   1      42.666  35.378  32.186  1.00  0.00     0.060 A 
ATOM      9  C   UNL A   1      41.773  34.450  31.610  1.00  0.00     0.016 A 
ATOM     10  C   UNL A   1      42.291  35.893  33.438  1.00  0.00     0.277 A 
ATOM     11  C   UNL A   1      40.574  34.057  32.244  1.00  0.00     0.006 A 
ATOM     12  C   UNL A   1      41.107  35.485  34.094  1.00  0.00     0.091 A 
BRANCH   8  13
ATOM     13  C   UNL A   1      43.883  35.782  31.446  1.00  0.00    -0.008 A 
ATOM     14  C   UNL A   1      45.079  37.237  29.908  1.00  0.00     0.133 A 
ATOM     15  C   UNL A   1      46.187  36.393  29.923  1.00  0.00     0.047 A 
ATOM     16  C   UNL A   1      43.936  36.953  30.665  1.00  0.00     0.056 A 
ATOM     17  C   UNL A   1      46.161  35.250  30.714  1.00  0.00     0.004 A 
ATOM     18  C   UNL A   1      45.018  34.947  31.461  1.00  0.00     0.009 A 
BRANCH  14  19
ATOM     19  O   UNL A   1      45.105  38.279  28.961  1.00  0.00    -0.410 OA
BRANCH  19  20
ATOM     20  C   UNL A   1      44.275  39.377  29.129  1.00  0.00     0.412 C 
ATOM     21  N   UNL A   1      43.386  39.538  28.097  1.00  0.00    -0.321 N 
ATOM     22  H   UNL A   1      42.732  40.270  28.190  1.00  0.00     0.167 HD
ATOM     23  O   UNL A   1      44.307  40.162  30.066  1.00  0.00    -0.224 OA
BRANCH  21  24
ATOM     24  C   UNL A   1      43.303  38.749  26.881  1.00  0.00     0.119 C 
BRANCH  24  25
ATOM     25  C   UNL A   1      42.153  37.741  26.908  1.00  0.00     0.021 C 
BRANCH  25  26
ATOM     26  C   UNL A   1      42.522  36.341  27.416  1.00  0.00     0.002 C 
BRANCH  26  27
ATOM     27  C   UNL A   1      43.627  35.619  26.635  1.00  0.00    -0.000 C 
BRANCH  27  28
ATOM     28  C   UNL A   1      43.156  34.769  25.453  1.00  0.00    -0.003 C 
ATOM     29  C   UNL A   1      43.990  33.515  25.238  1.00  0.00     0.004 C 
ENDBRANCH  27  28
ENDBRANCH  26  27
ENDBRANCH  25  26
ENDBRANCH  24  25
ENDBRANCH  21  24
ENDBRANCH  19  20
ENDBRANCH  14  19
ENDBRANCH   8  13
BRANCH  10  30
ATOM     30  N   UNL A   1      43.082  36.924  34.108  1.00  0.00     0.063 N 
ATOM     31  O   UNL A   1      42.552  38.039  34.231  1.00  0.00    -0.258 OA
ATOM     32  O   UNL A   1      44.239  36.646  34.446  1.00  0.00    -0.258 OA
ENDBRANCH  10  30
ENDBRANCH   5   7
ENDBRANCH   3   5
ENDBRANCH   2   3
ENDBRANCH   1   2
BRANCH   1  33
ATOM     33  C   UNL A   1      34.685  33.401  32.310  1.00  0.00     0.202 C 
BRANCH  33  34
ATOM     34  O   UNL A   1      33.510  34.171  32.089  1.00  0.00    -0.376 OA
BRANCH  34  35
ATOM     35  C   UNL A   1      33.614  35.447  31.470  1.00  0.00     0.188 C 
BRANCH  35  36
ATOM     36  C   UNL A   1      33.428  35.580  29.953  1.00  0.00     0.188 C 
BRANCH  36  37
ATOM     37  O   UNL A   1      32.676  34.536  29.366  1.00  0.00    -0.376 OA
BRANCH  37  38
ATOM     38  C   UNL A   1      33.185  34.026  28.146  1.00  0.00     0.202 C 
BRANCH  38  39
ATOM     39  C   UNL A   1      34.537  33.340  28.364  1.00  0.00     0.261 C 
BRANCH  39  40
ATOM     40  O   UNL A   1      34.447  31.998  28.881  1.00  0.00    -0.460 OA
BRANCH  40  41
ATOM     41  C   UNL A   1      34.689  31.004  27.998  1.00  0.00     0.338 C 
ATOM     42  O   UNL A   1      34.100  30.787  26.955  1.00  0.00    -0.246 OA
BRANCH  41  43
ATOM     43  C   UNL A   1      35.951  30.335  28.371  1.00  0.00     0.060 A 
ATOM     44  C   UNL A   1      35.958  29.542  29.525  1.00  0.00     0.016 A 
ATOM     45  C   UNL A   1      37.119  30.505  27.627  1.00  0.00     0.016 A 
ATOM     46  C   UNL A   1      37.142  28.964  29.978  1.00  0.00     0.010 A 
ATOM     47  C   UNL A   1      38.312  29.939  28.088  1.00  0.00     0.010 A 
ATOM     48  C   UNL A   1      38.336  29.204  29.288  1.00  0.00    -0.014 A 
BRANCH  48  49
ATOM     49  C   UNL A   1      39.630  28.895  29.944  1.00  0.00     0.031 A 
ATOM     50  C   UNL A   1      40.463  27.779  29.370  1.00  0.00     0.074 A 
ATOM     51  C   UNL A   1      40.077  29.595  31.000  1.00  0.00     0.049 A 
ATOM     52  N   UNL A   1      41.595  27.278  29.794  1.00  0.00    -0.248 NA
ATOM     53  C   UNL A   1      39.942  27.139  28.150  1.00  0.00     0.031 C 
ATOM     54  C   UNL A   1      39.392  30.727  31.618  1.00  0.00     0.029 A 
ATOM     55  N   UNL A   1      41.221  29.443  31.745  1.00  0.00    -0.354 N 
ATOM     56  C   UNL A   1      41.913  26.263  28.901  1.00  0.00     0.074 A 
ATOM     57  C   UNL A   1      40.844  26.196  27.930  1.00  0.00     0.031 C 
ATOM     58  C   UNL A   1      40.123  31.160  32.661  1.00  0.00     0.029 A 
ATOM     59  C   UNL A   1      41.309  30.317  32.800  1.00  0.00     0.049 A 
ATOM     60  H   UNL A   1      41.911  28.771  31.542  1.00  0.00     0.167 HD
ATOM     61  C   UNL A   1      43.004  25.462  28.886  1.00  0.00     0.037 A 
ATOM     62  C   UNL A   1      42.234  30.406  33.777  1.00  0.00     0.037 A 
ATOM     63  C   UNL A   1      44.074  25.533  29.845  1.00  0.00     0.049 A 
ATOM     64  C   UNL A   1      43.408  29.455  33.777  1.00  0.00     0.074 A 
ATOM     65  C   UNL A   1      45.228  24.772  29.908  1.00  0.00     0.029 A 
ATOM     66  N   UNL A   1      44.117  26.416  30.913  1.00  0.00    -0.354 N 
ATOM     67  N   UNL A   1      43.712  28.510  32.922  1.00  0.00    -0.248 NA
ATOM     68  C   UNL A   1      44.370  29.591  34.882  1.00  0.00     0.031 C 
ATOM     69  C   UNL A   1      45.947  25.162  31.042  1.00  0.00     0.029 A 
ATOM     70  C   UNL A   1      45.268  26.204  31.654  1.00  0.00     0.049 A 
ATOM     71  H   UNL A   1      43.431  27.093  31.115  1.00  0.00     0.167 HD
ATOM     72  C   UNL A   1      44.911  27.964  33.362  1.00  0.00     0.074 A 
ATOM     73  C   UNL A   1      45.287  28.692  34.556  1.00  0.00     0.031 C 
ATOM     74  C   UNL A   1      45.638  26.950  32.830  1.00  0.00     0.037 A 
BRANCH  61  75
ATOM     75  C   UNL A   1      43.084  24.420  27.810  1.00  0.00     0.064 A 
ATOM     76  C   UNL A   1      43.623  24.703  26.546  1.00  0.00     0.173 A 
ATOM     77  C   UNL A   1      42.644  23.112  28.060  1.00  0.00     0.173 A 
ATOM     78  F   UNL A   1      44.040  25.944  26.251  1.00  0.00    -0.203 F 
ATOM     79  C   UNL A   1      43.698  23.719  25.564  1.00  0.00     0.198 A 
ATOM     80  C   UNL A   1      42.749  22.123  27.086  1.00  0.00     0.198 A 
ATOM     81  F   UNL A   1      42.120  22.790  29.252  1.00  0.00    -0.203 F 
ATOM     82  F   UNL A   1      44.174  24.022  24.348  1.00  0.00    -0.200 F 
ATOM     83  C   UNL A   1      43.269  22.428  25.838  1.00  0.00     0.200 A 
ATOM     84  F   UNL A   1      42.344  20.874  27.356  1.00  0.00    -0.200 F 
ATOM     85  F   UNL A   1      43.352  21.479  24.895  1.00  0.00    -0.200 F 
ENDBRANCH  61  75
BRANCH  62  86
ATOM     86  C   UNL A   1      42.091  31.419  34.857  1.00  0.00     0.064 A 
ATOM     87  C   UNL A   1      42.983  32.495  34.965  1.00  0.00     0.173 A 
ATOM     88  C   UNL A   1      41.092  31.301  35.835  1.00  0.00     0.173 A 
ATOM     89  F   UNL A   1      43.975  32.634  34.073  1.00  0.00    -0.203 F 
ATOM     90  C   UNL A   1      42.898  33.398  36.023  1.00  0.00     0.198 A 
ATOM     91  C   UNL A   1      40.990  32.223  36.875  1.00  0.00     0.198 A 
ATOM     92  F   UNL A   1      40.218  30.286  35.784  1.00  0.00    -0.203 F 
ATOM     93  F   UNL A   1      43.802  34.382  36.135  1.00  0.00    -0.200 F 
ATOM     94  C   UNL A   1      41.899  33.263  36.975  1.00  0.00     0.200 A 
ATOM     95  F   UNL A   1      40.018  32.092  37.789  1.00  0.00    -0.200 F 
ATOM     96  F   UNL A   1      41.822  34.128  37.996  1.00  0.00    -0.200 F 
ENDBRANCH  62  86
BRANCH  74  97
ATOM     97  C   UNL A   1      46.936  26.599  33.498  1.00  0.00     0.064 A 
ATOM     98  C   UNL A   1      48.118  27.307  33.237  1.00  0.00     0.173 A 
ATOM     99  C   UNL A   1      46.987  25.566  34.447  1.00  0.00     0.173 A 
ATOM    100  F   UNL A   1      48.125  28.297  32.331  1.00  0.00    -0.203 F 
ATOM    101  C   UNL A   1      49.308  26.975  33.878  1.00  0.00     0.198 A 
ATOM    102  C   UNL A   1      48.172  25.257  35.110  1.00  0.00     0.198 A 
ATOM    103  F   UNL A   1      45.884  24.863  34.743  1.00  0.00    -0.203 F 
ATOM    104  F   UNL A   1      50.436  27.633  33.576  1.00  0.00    -0.200 F 
ATOM    105  C   UNL A   1      49.333  25.956  34.820  1.00  0.00     0.200 A 
ATOM    106  F   UNL A   1      48.190  24.284  36.031  1.00  0.00    -0.200 F 
ATOM    107  F   UNL A   1      50.478  25.643  35.440  1.00  0.00    -0.200 F 
ENDBRANCH  74  97
ENDBRANCH  48  49
ENDBRANCH  41  43
ENDBRANCH  40  41
ENDBRANCH  39  40
ENDBRANCH  38  39
ENDBRANCH  37  38
ENDBRANCH  36  37
ENDBRANCH  35  36
ENDBRANCH  34  35
ENDBRANCH  33  34
ENDBRANCH   1  33
TORSDOF 27
ENDMDL
