MODEL 1
REMARK VINA RESULT:     -11.3      0.000      0.000
REMARK SMILES CSCc1ccc(C(=O)Nc2cc(C)c(C(=O)OCCOCCOCCOC(=O)c3ccc(-c4c5nc(c(-c6c(F)c(F)c(F)c(F)c6F)c6ccc([nH]6)c(-c6c(F)c(F)c(F)c(F)c6F)c6nc(c(-c7c(F)c(F)c(F)c(F)c7F)c7ccc4[nH]7)C=C6)C=C5)cc3)s2)cc1
REMARK SMILES IDX 22 1 21 2 20 3 19 4 18 5 16 6 17 7 15 8 11 9 12 10 93 11
REMARK SMILES IDX 13 12 14 13 10 14 8 15 9 16 7 18 4 19 5 20 95 21 6 22 94 23
REMARK SMILES IDX 3 24 2 25 1 26 23 27 24 28 25 29 26 30 27 31 28 32 29 33
REMARK SMILES IDX 30 34 31 35 92 36 32 37 91 38 33 39 34 40 35 41 85 42 36 43
REMARK SMILES IDX 90 44 84 45 86 46 37 47 89 48 83 49 82 50 38 52 70 53 50 54
REMARK SMILES IDX 69 55 51 56 54 57 68 58 87 59 52 60 53 61 67 63 88 64 55 65
REMARK SMILES IDX 39 66 40 67 48 68 41 69 42 70 46 71 49 72 43 73 44 74 47 75
REMARK SMILES IDX 45 76 71 77 72 78 80 79 73 80 74 81 78 82 81 83 75 84 76 85
REMARK SMILES IDX 79 86 77 87 56 88 57 89 65 90 58 91 59 92 63 93 66 94 60 95
REMARK SMILES IDX 61 96 64 97 62 98
REMARK H PARENT 10 17 86 51 54 62
REMARK Flexibility Score: inf
ROOT
ATOM      1  C   UNL A   1      39.790  21.243  26.238  1.00  0.00     0.188 C 
ENDROOT
BRANCH   1   2
ATOM      2  O   UNL A   1      38.761  21.909  25.520  1.00  0.00    -0.376 OA
BRANCH   2   3
ATOM      3  C   UNL A   1      37.672  21.141  25.015  1.00  0.00     0.202 C 
BRANCH   3   4
ATOM      4  C   UNL A   1      36.270  21.464  25.544  1.00  0.00     0.261 C 
BRANCH   4   5
ATOM      5  O   UNL A   1      35.278  21.509  24.502  1.00  0.00    -0.459 OA
BRANCH   5   6
ATOM      6  C   UNL A   1      35.163  22.697  23.839  1.00  0.00     0.348 C 
ATOM      7  O   UNL A   1      36.089  23.252  23.256  1.00  0.00    -0.245 OA
BRANCH   6   8
ATOM      8  C   UNL A   1      33.776  23.140  23.816  1.00  0.00     0.117 A 
ATOM      9  C   UNL A   1      31.542  23.797  24.621  1.00  0.00     0.096 A 
ATOM     10  C   UNL A   1      31.587  23.713  23.256  1.00  0.00     0.042 A 
ATOM     11  S   UNL A   1      33.008  23.376  25.349  1.00  0.00    -0.111 S 
ATOM     12  C   UNL A   1      32.917  23.464  22.766  1.00  0.00    -0.023 A 
ATOM     13  C   UNL A   1      33.248  23.498  21.308  1.00  0.00     0.046 C 
BRANCH   9  14
ATOM     14  N   UNL A   1      30.449  24.018  25.414  1.00  0.00    -0.314 N 
ATOM     15  C   UNL A   1      29.922  25.215  25.850  1.00  0.00     0.256 C 
ATOM     16  O   UNL A   1      29.228  25.194  26.871  1.00  0.00    -0.269 OA
ATOM     17  H   UNL A   1      29.973  23.210  25.714  1.00  0.00     0.171 HD
BRANCH  15  18
ATOM     18  C   UNL A   1      29.964  26.481  25.036  1.00  0.00     0.040 A 
ATOM     19  C   UNL A   1      30.077  28.611  23.138  1.00  0.00    -0.038 A 
ATOM     20  C   UNL A   1      29.015  27.698  23.133  1.00  0.00     0.005 A 
ATOM     21  C   UNL A   1      31.040  28.478  24.143  1.00  0.00     0.005 A 
ATOM     22  C   UNL A   1      28.961  26.653  24.067  1.00  0.00     0.014 A 
ATOM     23  C   UNL A   1      30.999  27.418  25.059  1.00  0.00     0.014 A 
BRANCH  19  24
ATOM     24  C   UNL A   1      30.130  29.716  22.110  1.00  0.00     0.104 C 
BRANCH  24  25
ATOM     25  S   UNL A   1      28.519  30.417  21.628  1.00  0.00    -0.161 SA
ATOM     26  C   UNL A   1      28.208  31.539  23.017  1.00  0.00     0.085 C 
ENDBRANCH  24  25
ENDBRANCH  19  24
ENDBRANCH  15  18
ENDBRANCH   9  14
ENDBRANCH   6   8
ENDBRANCH   5   6
ENDBRANCH   4   5
ENDBRANCH   3   4
ENDBRANCH   2   3
ENDBRANCH   1   2
BRANCH   1  27
ATOM     27  C   UNL A   1      40.056  19.746  25.967  1.00  0.00     0.188 C 
BRANCH  27  28
ATOM     28  O   UNL A   1      41.356  19.472  25.469  1.00  0.00    -0.376 OA
BRANCH  28  29
ATOM     29  C   UNL A   1      42.444  19.980  26.232  1.00  0.00     0.202 C 
BRANCH  29  30
ATOM     30  C   UNL A   1      43.376  20.976  25.526  1.00  0.00     0.261 C 
BRANCH  30  31
ATOM     31  O   UNL A   1      43.427  22.235  26.223  1.00  0.00    -0.460 OA
BRANCH  31  32
ATOM     32  C   UNL A   1      43.296  23.355  25.479  1.00  0.00     0.338 C 
ATOM     33  O   UNL A   1      43.668  23.507  24.328  1.00  0.00    -0.246 OA
BRANCH  32  34
ATOM     34  C   UNL A   1      42.618  24.421  26.269  1.00  0.00     0.060 A 
ATOM     35  C   UNL A   1      43.006  25.761  26.190  1.00  0.00     0.016 A 
ATOM     36  C   UNL A   1      41.612  24.064  27.172  1.00  0.00     0.016 A 
ATOM     37  C   UNL A   1      42.444  26.720  27.033  1.00  0.00     0.010 A 
ATOM     38  C   UNL A   1      41.046  25.028  28.020  1.00  0.00     0.010 A 
ATOM     39  C   UNL A   1      41.502  26.356  28.000  1.00  0.00    -0.014 A 
BRANCH  39  40
ATOM     40  C   UNL A   1      41.161  27.314  29.092  1.00  0.00     0.031 A 
ATOM     41  C   UNL A   1      42.054  27.398  30.308  1.00  0.00     0.074 A 
ATOM     42  C   UNL A   1      40.155  28.201  28.967  1.00  0.00     0.049 A 
ATOM     43  N   UNL A   1      41.909  28.107  31.401  1.00  0.00    -0.248 NA
ATOM     44  C   UNL A   1      43.291  26.599  30.278  1.00  0.00     0.031 C 
ATOM     45  C   UNL A   1      39.285  28.339  27.800  1.00  0.00     0.029 A 
ATOM     46  N   UNL A   1      39.711  29.174  29.831  1.00  0.00    -0.354 N 
ATOM     47  C   UNL A   1      43.015  27.820  32.191  1.00  0.00     0.074 A 
ATOM     48  C   UNL A   1      43.826  26.873  31.458  1.00  0.00     0.031 C 
ATOM     49  C   UNL A   1      38.433  29.356  28.008  1.00  0.00     0.029 A 
ATOM     50  C   UNL A   1      38.639  29.888  29.353  1.00  0.00     0.049 A 
ATOM     51  H   UNL A   1      40.123  29.344  30.709  1.00  0.00     0.167 HD
ATOM     52  C   UNL A   1      43.334  28.301  33.417  1.00  0.00     0.037 A 
ATOM     53  C   UNL A   1      37.876  30.829  29.945  1.00  0.00     0.037 A 
ATOM     54  C   UNL A   1      42.547  29.250  34.157  1.00  0.00     0.049 A 
ATOM     55  C   UNL A   1      38.162  31.234  31.368  1.00  0.00     0.074 A 
ATOM     56  C   UNL A   1      42.770  29.754  35.427  1.00  0.00     0.029 A 
ATOM     57  N   UNL A   1      41.388  29.849  33.689  1.00  0.00    -0.354 N 
ATOM     58  N   UNL A   1      39.155  30.881  32.148  1.00  0.00    -0.248 NA
ATOM     59  C   UNL A   1      37.199  32.147  32.001  1.00  0.00     0.031 C 
ATOM     60  C   UNL A   1      41.723  30.627  35.744  1.00  0.00     0.029 A 
ATOM     61  C   UNL A   1      40.873  30.699  34.653  1.00  0.00     0.049 A 
ATOM     62  H   UNL A   1      40.990  29.692  32.801  1.00  0.00     0.167 HD
ATOM     63  C   UNL A   1      38.941  31.535  33.355  1.00  0.00     0.074 A 
ATOM     64  C   UNL A   1      37.740  32.325  33.198  1.00  0.00     0.031 C 
ATOM     65  C   UNL A   1      39.673  31.477  34.495  1.00  0.00     0.037 A 
BRANCH  52  66
ATOM     66  C   UNL A   1      44.575  27.767  34.065  1.00  0.00     0.064 A 
ATOM     67  C   UNL A   1      44.565  26.582  34.813  1.00  0.00     0.173 A 
ATOM     68  C   UNL A   1      45.799  28.432  33.897  1.00  0.00     0.173 A 
ATOM     69  F   UNL A   1      43.415  25.923  35.018  1.00  0.00    -0.203 F 
ATOM     70  C   UNL A   1      45.737  26.087  35.381  1.00  0.00     0.198 A 
ATOM     71  C   UNL A   1      46.971  27.923  34.446  1.00  0.00     0.198 A 
ATOM     72  F   UNL A   1      45.858  29.570  33.190  1.00  0.00    -0.203 F 
ATOM     73  F   UNL A   1      45.702  24.969  36.118  1.00  0.00    -0.200 F 
ATOM     74  C   UNL A   1      46.939  26.753  35.190  1.00  0.00     0.200 A 
ATOM     75  F   UNL A   1      48.133  28.564  34.255  1.00  0.00    -0.200 F 
ATOM     76  F   UNL A   1      48.067  26.270  35.729  1.00  0.00    -0.200 F 
ENDBRANCH  52  66
BRANCH  53  77
ATOM     77  C   UNL A   1      36.712  31.408  29.224  1.00  0.00     0.064 A 
ATOM     78  C   UNL A   1      36.688  32.759  28.849  1.00  0.00     0.173 A 
ATOM     79  C   UNL A   1      35.579  30.632  28.936  1.00  0.00     0.173 A 
ATOM     80  F   UNL A   1      37.729  33.553  29.140  1.00  0.00    -0.203 F 
ATOM     81  C   UNL A   1      35.572  33.311  28.224  1.00  0.00     0.198 A 
ATOM     82  C   UNL A   1      34.479  31.177  28.283  1.00  0.00     0.198 A 
ATOM     83  F   UNL A   1      35.544  29.338  29.291  1.00  0.00    -0.203 F 
ATOM     84  F   UNL A   1      35.551  34.617  27.926  1.00  0.00    -0.200 F 
ATOM     85  C   UNL A   1      34.471  32.518  27.933  1.00  0.00     0.200 A 
ATOM     86  F   UNL A   1      33.421  30.403  28.001  1.00  0.00    -0.200 F 
ATOM     87  F   UNL A   1      33.397  33.050  27.334  1.00  0.00    -0.200 F 
ENDBRANCH  53  77
BRANCH  65  88
ATOM     88  C   UNL A   1      39.201  32.300  35.658  1.00  0.00     0.064 A 
ATOM     89  C   UNL A   1      38.333  31.771  36.624  1.00  0.00     0.173 A 
ATOM     90  C   UNL A   1      39.638  33.623  35.821  1.00  0.00     0.173 A 
ATOM     91  F   UNL A   1      37.877  30.514  36.505  1.00  0.00    -0.203 F 
ATOM     92  C   UNL A   1      37.895  32.546  37.694  1.00  0.00     0.198 A 
ATOM     93  C   UNL A   1      39.219  34.387  36.908  1.00  0.00     0.198 A 
ATOM     94  F   UNL A   1      40.474  34.174  34.930  1.00  0.00    -0.203 F 
ATOM     95  F   UNL A   1      37.026  32.035  38.579  1.00  0.00    -0.200 F 
ATOM     96  C   UNL A   1      38.341  33.850  37.839  1.00  0.00     0.200 A 
ATOM     97  F   UNL A   1      39.660  35.644  37.052  1.00  0.00    -0.200 F 
ATOM     98  F   UNL A   1      37.918  34.595  38.870  1.00  0.00    -0.200 F 
ENDBRANCH  65  88
ENDBRANCH  39  40
ENDBRANCH  32  34
ENDBRANCH  31  32
ENDBRANCH  30  31
ENDBRANCH  29  30
ENDBRANCH  28  29
ENDBRANCH  27  28
ENDBRANCH   1  27
TORSDOF 21
ENDMDL
MODEL 2
REMARK VINA RESULT:     -10.5      2.969      9.257
REMARK SMILES CSCc1ccc(C(=O)Nc2cc(C)c(C(=O)OCCOCCOCCOC(=O)c3ccc(-c4c5nc(c(-c6c(F)c(F)c(F)c(F)c6F)c6ccc([nH]6)c(-c6c(F)c(F)c(F)c(F)c6F)c6nc(c(-c7c(F)c(F)c(F)c(F)c7F)c7ccc4[nH]7)C=C6)C=C5)cc3)s2)cc1
REMARK SMILES IDX 22 1 21 2 20 3 19 4 18 5 16 6 17 7 15 8 11 9 12 10 93 11
REMARK SMILES IDX 13 12 14 13 10 14 8 15 9 16 7 18 4 19 5 20 95 21 6 22 94 23
REMARK SMILES IDX 3 24 2 25 1 26 23 27 24 28 25 29 26 30 27 31 28 32 29 33
REMARK SMILES IDX 30 34 31 35 92 36 32 37 91 38 33 39 34 40 35 41 85 42 36 43
REMARK SMILES IDX 90 44 84 45 86 46 37 47 89 48 83 49 82 50 38 52 70 53 50 54
REMARK SMILES IDX 69 55 51 56 54 57 68 58 87 59 52 60 53 61 67 63 88 64 55 65
REMARK SMILES IDX 39 66 40 67 48 68 41 69 42 70 46 71 49 72 43 73 44 74 47 75
REMARK SMILES IDX 45 76 71 77 72 78 80 79 73 80 74 81 78 82 81 83 75 84 76 85
REMARK SMILES IDX 79 86 77 87 56 88 57 89 65 90 58 91 59 92 63 93 66 94 60 95
REMARK SMILES IDX 61 96 64 97 62 98
REMARK H PARENT 10 17 86 51 54 62
REMARK Flexibility Score: inf
ROOT
ATOM      1  C   UNL A   1      32.164  29.140  27.177  1.00  0.00     0.188 C 
ENDROOT
BRANCH   1   2
ATOM      2  O   UNL A   1      31.552  28.851  25.928  1.00  0.00    -0.376 OA
BRANCH   2   3
ATOM      3  C   UNL A   1      31.514  27.498  25.481  1.00  0.00     0.202 C 
BRANCH   3   4
ATOM      4  C   UNL A   1      31.188  26.418  26.518  1.00  0.00     0.261 C 
BRANCH   4   5
ATOM      5  O   UNL A   1      30.499  25.289  25.951  1.00  0.00    -0.459 OA
BRANCH   5   6
ATOM      6  C   UNL A   1      30.725  24.086  26.556  1.00  0.00     0.348 C 
ATOM      7  O   UNL A   1      29.933  23.540  27.319  1.00  0.00    -0.245 OA
BRANCH   6   8
ATOM      8  C   UNL A   1      31.965  23.495  26.076  1.00  0.00     0.117 A 
ATOM      9  C   UNL A   1      33.790  22.869  24.543  1.00  0.00     0.096 A 
ATOM     10  C   UNL A   1      33.914  22.255  25.760  1.00  0.00     0.042 A 
ATOM     11  S   UNL A   1      32.402  23.826  24.434  1.00  0.00    -0.111 S 
ATOM     12  C   UNL A   1      32.934  22.716  26.708  1.00  0.00    -0.023 A 
ATOM     13  C   UNL A   1      32.972  22.318  28.149  1.00  0.00     0.046 C 
BRANCH   9  14
ATOM     14  N   UNL A   1      34.546  22.669  23.421  1.00  0.00    -0.314 N 
ATOM     15  C   UNL A   1      35.913  22.758  23.268  1.00  0.00     0.256 C 
ATOM     16  O   UNL A   1      36.348  22.966  22.132  1.00  0.00    -0.269 OA
ATOM     17  H   UNL A   1      34.043  22.427  22.609  1.00  0.00     0.171 HD
BRANCH  15  18
ATOM     18  C   UNL A   1      36.890  22.398  24.357  1.00  0.00     0.040 A 
ATOM     19  C   UNL A   1      39.025  21.989  26.208  1.00  0.00    -0.038 A 
ATOM     20  C   UNL A   1      38.443  23.252  26.049  1.00  0.00     0.005 A 
ATOM     21  C   UNL A   1      38.479  20.929  25.477  1.00  0.00     0.005 A 
ATOM     22  C   UNL A   1      37.393  23.451  25.140  1.00  0.00     0.014 A 
ATOM     23  C   UNL A   1      37.449  21.134  24.549  1.00  0.00     0.014 A 
BRANCH  19  24
ATOM     24  C   UNL A   1      40.169  21.799  27.175  1.00  0.00     0.104 C 
BRANCH  24  25
ATOM     25  S   UNL A   1      41.836  21.889  26.447  1.00  0.00    -0.161 SA
ATOM     26  C   UNL A   1      42.556  23.242  27.413  1.00  0.00     0.085 C 
ENDBRANCH  24  25
ENDBRANCH  19  24
ENDBRANCH  15  18
ENDBRANCH   9  14
ENDBRANCH   6   8
ENDBRANCH   5   6
ENDBRANCH   4   5
ENDBRANCH   3   4
ENDBRANCH   2   3
ENDBRANCH   1   2
BRANCH   1  27
ATOM     27  C   UNL A   1      33.664  29.504  27.220  1.00  0.00     0.188 C 
BRANCH  27  28
ATOM     28  O   UNL A   1      33.931  30.787  27.760  1.00  0.00    -0.376 OA
BRANCH  28  29
ATOM     29  C   UNL A   1      32.902  31.760  27.614  1.00  0.00     0.202 C 
BRANCH  29  30
ATOM     30  C   UNL A   1      33.348  33.226  27.510  1.00  0.00     0.261 C 
BRANCH  30  31
ATOM     31  O   UNL A   1      32.380  34.114  28.099  1.00  0.00    -0.460 OA
BRANCH  31  32
ATOM     32  C   UNL A   1      32.858  35.172  28.792  1.00  0.00     0.338 C 
ATOM     33  O   UNL A   1      32.394  36.299  28.800  1.00  0.00    -0.246 OA
BRANCH  32  34
ATOM     34  C   UNL A   1      34.066  34.776  29.568  1.00  0.00     0.060 A 
ATOM     35  C   UNL A   1      35.348  34.814  29.013  1.00  0.00     0.016 A 
ATOM     36  C   UNL A   1      33.909  34.282  30.866  1.00  0.00     0.016 A 
ATOM     37  C   UNL A   1      36.447  34.318  29.715  1.00  0.00     0.010 A 
ATOM     38  C   UNL A   1      35.014  33.783  31.573  1.00  0.00     0.010 A 
ATOM     39  C   UNL A   1      36.285  33.741  30.978  1.00  0.00    -0.014 A 
BRANCH  39  40
ATOM     40  C   UNL A   1      37.394  32.933  31.564  1.00  0.00     0.031 A 
ATOM     41  C   UNL A   1      37.867  33.234  32.968  1.00  0.00     0.074 A 
ATOM     42  C   UNL A   1      37.898  31.856  30.930  1.00  0.00     0.049 A 
ATOM     43  N   UNL A   1      38.857  32.705  33.644  1.00  0.00    -0.248 NA
ATOM     44  C   UNL A   1      37.105  34.244  33.720  1.00  0.00     0.031 C 
ATOM     45  C   UNL A   1      37.456  31.354  29.630  1.00  0.00     0.029 A 
ATOM     46  N   UNL A   1      38.881  30.975  31.312  1.00  0.00    -0.354 N 
ATOM     47  C   UNL A   1      38.851  33.334  34.884  1.00  0.00     0.074 A 
ATOM     48  C   UNL A   1      37.761  34.285  34.871  1.00  0.00     0.031 C 
ATOM     49  C   UNL A   1      38.144  30.238  29.336  1.00  0.00     0.029 A 
ATOM     50  C   UNL A   1      39.132  29.993  30.384  1.00  0.00     0.049 A 
ATOM     51  H   UNL A   1      39.360  31.040  32.170  1.00  0.00     0.167 HD
ATOM     52  C   UNL A   1      39.674  33.140  35.941  1.00  0.00     0.037 A 
ATOM     53  C   UNL A   1      40.079  29.034  30.355  1.00  0.00     0.037 A 
ATOM     54  C   UNL A   1      40.756  32.192  35.977  1.00  0.00     0.049 A 
ATOM     55  C   UNL A   1      41.080  28.940  31.477  1.00  0.00     0.074 A 
ATOM     56  C   UNL A   1      41.672  31.964  36.990  1.00  0.00     0.029 A 
ATOM     57  N   UNL A   1      41.062  31.307  34.957  1.00  0.00    -0.354 N 
ATOM     58  N   UNL A   1      41.130  29.608  32.603  1.00  0.00    -0.248 NA
ATOM     59  C   UNL A   1      42.176  27.975  31.305  1.00  0.00     0.031 C 
ATOM     60  C   UNL A   1      42.558  30.969  36.566  1.00  0.00     0.029 A 
ATOM     61  C   UNL A   1      42.166  30.546  35.306  1.00  0.00     0.049 A 
ATOM     62  H   UNL A   1      40.567  31.230  34.108  1.00  0.00     0.167 HD
ATOM     63  C   UNL A   1      42.251  29.139  33.275  1.00  0.00     0.074 A 
ATOM     64  C   UNL A   1      42.840  28.112  32.444  1.00  0.00     0.031 C 
ATOM     65  C   UNL A   1      42.753  29.531  34.472  1.00  0.00     0.037 A 
BRANCH  52  66
ATOM     66  C   UNL A   1      39.468  34.010  37.144  1.00  0.00     0.064 A 
ATOM     67  C   UNL A   1      38.750  33.564  38.262  1.00  0.00     0.173 A 
ATOM     68  C   UNL A   1      40.034  35.293  37.191  1.00  0.00     0.173 A 
ATOM     69  F   UNL A   1      38.173  32.353  38.254  1.00  0.00    -0.203 F 
ATOM     70  C   UNL A   1      38.597  34.377  39.382  1.00  0.00     0.198 A 
ATOM     71  C   UNL A   1      39.898  36.093  38.320  1.00  0.00     0.198 A 
ATOM     72  F   UNL A   1      40.729  35.763  36.145  1.00  0.00    -0.203 F 
ATOM     73  F   UNL A   1      37.881  33.945  40.429  1.00  0.00    -0.200 F 
ATOM     74  C   UNL A   1      39.178  35.636  39.414  1.00  0.00     0.200 A 
ATOM     75  F   UNL A   1      40.466  37.307  38.351  1.00  0.00    -0.200 F 
ATOM     76  F   UNL A   1      39.036  36.415  40.496  1.00  0.00    -0.200 F 
ENDBRANCH  52  66
BRANCH  53  77
ATOM     77  C   UNL A   1      40.182  28.123  29.184  1.00  0.00     0.064 A 
ATOM     78  C   UNL A   1      39.582  26.856  29.195  1.00  0.00     0.173 A 
ATOM     79  C   UNL A   1      40.923  28.484  28.049  1.00  0.00     0.173 A 
ATOM     80  F   UNL A   1      38.898  26.447  30.274  1.00  0.00    -0.203 F 
ATOM     81  C   UNL A   1      39.728  25.982  28.118  1.00  0.00     0.198 A 
ATOM     82  C   UNL A   1      41.041  27.624  26.961  1.00  0.00     0.198 A 
ATOM     83  F   UNL A   1      41.533  29.677  27.997  1.00  0.00    -0.203 F 
ATOM     84  F   UNL A   1      39.192  24.757  28.175  1.00  0.00    -0.200 F 
ATOM     85  C   UNL A   1      40.451  26.370  26.999  1.00  0.00     0.200 A 
ATOM     86  F   UNL A   1      41.737  28.007  25.882  1.00  0.00    -0.200 F 
ATOM     87  F   UNL A   1      40.593  25.530  25.965  1.00  0.00    -0.200 F 
ENDBRANCH  53  77
BRANCH  65  88
ATOM     88  C   UNL A   1      43.993  28.840  34.959  1.00  0.00     0.064 A 
ATOM     89  C   UNL A   1      43.924  27.661  35.714  1.00  0.00     0.173 A 
ATOM     90  C   UNL A   1      45.263  29.350  34.651  1.00  0.00     0.173 A 
ATOM     91  F   UNL A   1      42.732  27.141  36.047  1.00  0.00    -0.203 F 
ATOM     92  C   UNL A   1      45.081  27.033  36.169  1.00  0.00     0.198 A 
ATOM     93  C   UNL A   1      46.418  28.705  35.084  1.00  0.00     0.198 A 
ATOM     94  F   UNL A   1      45.384  30.471  33.925  1.00  0.00    -0.203 F 
ATOM     95  F   UNL A   1      44.990  25.934  36.932  1.00  0.00    -0.200 F 
ATOM     96  C   UNL A   1      46.326  27.552  35.850  1.00  0.00     0.200 A 
ATOM     97  F   UNL A   1      47.622  29.201  34.765  1.00  0.00    -0.200 F 
ATOM     98  F   UNL A   1      47.439  26.947  36.288  1.00  0.00    -0.200 F 
ENDBRANCH  65  88
ENDBRANCH  39  40
ENDBRANCH  32  34
ENDBRANCH  31  32
ENDBRANCH  30  31
ENDBRANCH  29  30
ENDBRANCH  28  29
ENDBRANCH  27  28
ENDBRANCH   1  27
TORSDOF 21
ENDMDL
MODEL 3
REMARK VINA RESULT:     -10.5      3.755      9.292
REMARK SMILES CSCc1ccc(C(=O)Nc2cc(C)c(C(=O)OCCOCCOCCOC(=O)c3ccc(-c4c5nc(c(-c6c(F)c(F)c(F)c(F)c6F)c6ccc([nH]6)c(-c6c(F)c(F)c(F)c(F)c6F)c6nc(c(-c7c(F)c(F)c(F)c(F)c7F)c7ccc4[nH]7)C=C6)C=C5)cc3)s2)cc1
REMARK SMILES IDX 22 1 21 2 20 3 19 4 18 5 16 6 17 7 15 8 11 9 12 10 93 11
REMARK SMILES IDX 13 12 14 13 10 14 8 15 9 16 7 18 4 19 5 20 95 21 6 22 94 23
REMARK SMILES IDX 3 24 2 25 1 26 23 27 24 28 25 29 26 30 27 31 28 32 29 33
REMARK SMILES IDX 30 34 31 35 92 36 32 37 91 38 33 39 34 40 35 41 85 42 36 43
REMARK SMILES IDX 90 44 84 45 86 46 37 47 89 48 83 49 82 50 38 52 70 53 50 54
REMARK SMILES IDX 69 55 51 56 54 57 68 58 87 59 52 60 53 61 67 63 88 64 55 65
REMARK SMILES IDX 39 66 40 67 48 68 41 69 42 70 46 71 49 72 43 73 44 74 47 75
REMARK SMILES IDX 45 76 71 77 72 78 80 79 73 80 74 81 78 82 81 83 75 84 76 85
REMARK SMILES IDX 79 86 77 87 56 88 57 89 65 90 58 91 59 92 63 93 66 94 60 95
REMARK SMILES IDX 61 96 64 97 62 98
REMARK H PARENT 10 17 86 51 54 62
REMARK Flexibility Score: inf
ROOT
ATOM      1  C   UNL A   1      34.607  32.569  29.097  1.00  0.00     0.188 C 
ENDROOT
BRANCH   1   2
ATOM      2  O   UNL A   1      34.689  31.173  28.848  1.00  0.00    -0.376 OA
BRANCH   2   3
ATOM      3  C   UNL A   1      33.993  30.636  27.726  1.00  0.00     0.202 C 
BRANCH   3   4
ATOM      4  C   UNL A   1      34.713  29.577  26.884  1.00  0.00     0.261 C 
BRANCH   4   5
ATOM      5  O   UNL A   1      33.850  28.493  26.495  1.00  0.00    -0.459 OA
BRANCH   5   6
ATOM      6  C   UNL A   1      32.869  28.804  25.597  1.00  0.00     0.348 C 
ATOM      7  O   UNL A   1      32.805  29.868  24.990  1.00  0.00    -0.245 OA
BRANCH   6   8
ATOM      8  C   UNL A   1      31.995  27.661  25.374  1.00  0.00     0.117 A 
ATOM      9  C   UNL A   1      30.680  25.629  25.832  1.00  0.00     0.096 A 
ATOM     10  C   UNL A   1      30.711  25.926  24.496  1.00  0.00     0.042 A 
ATOM     11  S   UNL A   1      31.592  26.706  26.761  1.00  0.00    -0.111 S 
ATOM     12  C   UNL A   1      31.358  27.183  24.230  1.00  0.00    -0.023 A 
ATOM     13  C   UNL A   1      31.367  27.801  22.868  1.00  0.00     0.046 C 
BRANCH   9  14
ATOM     14  N   UNL A   1      30.150  24.521  26.434  1.00  0.00    -0.314 N 
ATOM     15  C   UNL A   1      30.565  23.209  26.356  1.00  0.00     0.256 C 
ATOM     16  O   UNL A   1      29.733  22.331  26.604  1.00  0.00    -0.269 OA
ATOM     17  H   UNL A   1      29.362  24.683  27.004  1.00  0.00     0.171 HD
BRANCH  15  18
ATOM     18  C   UNL A   1      32.009  22.807  26.205  1.00  0.00     0.040 A 
ATOM     19  C   UNL A   1      34.585  21.652  25.783  1.00  0.00    -0.038 A 
ATOM     20  C   UNL A   1      33.697  21.838  24.717  1.00  0.00     0.005 A 
ATOM     21  C   UNL A   1      34.189  22.111  27.043  1.00  0.00     0.005 A 
ATOM     22  C   UNL A   1      32.432  22.407  24.926  1.00  0.00     0.014 A 
ATOM     23  C   UNL A   1      32.914  22.654  27.256  1.00  0.00     0.014 A 
BRANCH  19  24
ATOM     24  C   UNL A   1      35.934  21.017  25.543  1.00  0.00     0.104 C 
BRANCH  24  25
ATOM     25  S   UNL A   1      37.083  21.983  24.511  1.00  0.00    -0.161 SA
ATOM     26  C   UNL A   1      36.988  23.601  25.321  1.00  0.00     0.085 C 
ENDBRANCH  24  25
ENDBRANCH  19  24
ENDBRANCH  15  18
ENDBRANCH   9  14
ENDBRANCH   6   8
ENDBRANCH   5   6
ENDBRANCH   4   5
ENDBRANCH   3   4
ENDBRANCH   2   3
ENDBRANCH   1   2
BRANCH   1  27
ATOM     27  C   UNL A   1      34.938  33.562  27.963  1.00  0.00     0.188 C 
BRANCH  27  28
ATOM     28  O   UNL A   1      33.960  34.572  27.777  1.00  0.00    -0.376 OA
BRANCH  28  29
ATOM     29  C   UNL A   1      34.126  35.760  28.542  1.00  0.00     0.202 C 
BRANCH  29  30
ATOM     30  C   UNL A   1      32.945  36.182  29.428  1.00  0.00     0.261 C 
BRANCH  30  31
ATOM     31  O   UNL A   1      32.625  35.167  30.397  1.00  0.00    -0.460 OA
BRANCH  31  32
ATOM     32  C   UNL A   1      32.606  35.541  31.696  1.00  0.00     0.338 C 
ATOM     33  O   UNL A   1      31.761  36.233  32.236  1.00  0.00    -0.246 OA
BRANCH  32  34
ATOM     34  C   UNL A   1      33.789  34.984  32.409  1.00  0.00     0.060 A 
ATOM     35  C   UNL A   1      35.013  35.658  32.451  1.00  0.00     0.016 A 
ATOM     36  C   UNL A   1      33.698  33.717  32.992  1.00  0.00     0.016 A 
ATOM     37  C   UNL A   1      36.140  35.060  33.014  1.00  0.00     0.010 A 
ATOM     38  C   UNL A   1      34.832  33.114  33.558  1.00  0.00     0.010 A 
ATOM     39  C   UNL A   1      36.079  33.757  33.519  1.00  0.00    -0.014 A 
BRANCH  39  40
ATOM     40  C   UNL A   1      37.345  33.022  33.811  1.00  0.00     0.031 A 
ATOM     41  C   UNL A   1      38.022  33.217  35.148  1.00  0.00     0.074 A 
ATOM     42  C   UNL A   1      37.832  32.089  32.970  1.00  0.00     0.049 A 
ATOM     43  N   UNL A   1      39.160  32.734  35.583  1.00  0.00    -0.248 NA
ATOM     44  C   UNL A   1      37.309  34.042  36.137  1.00  0.00     0.031 C 
ATOM     45  C   UNL A   1      37.223  31.688  31.703  1.00  0.00     0.029 A 
ATOM     46  N   UNL A   1      38.946  31.290  33.072  1.00  0.00    -0.354 N 
ATOM     47  C   UNL A   1      39.308  33.215  36.878  1.00  0.00     0.074 A 
ATOM     48  C   UNL A   1      38.146  34.029  37.163  1.00  0.00     0.031 C 
ATOM     49  C   UNL A   1      37.953  30.700  31.161  1.00  0.00     0.029 A 
ATOM     50  C   UNL A   1      39.126  30.454  31.997  1.00  0.00     0.049 A 
ATOM     51  H   UNL A   1      39.558  31.314  33.844  1.00  0.00     0.167 HD
ATOM     52  C   UNL A   1      40.316  33.001  37.756  1.00  0.00     0.037 A 
ATOM     53  C   UNL A   1      40.141  29.621  31.693  1.00  0.00     0.037 A 
ATOM     54  C   UNL A   1      41.473  32.187  37.496  1.00  0.00     0.049 A 
ATOM     55  C   UNL A   1      41.324  29.518  32.619  1.00  0.00     0.074 A 
ATOM     56  C   UNL A   1      42.568  31.954  38.312  1.00  0.00     0.029 A 
ATOM     57  N   UNL A   1      41.682  31.462  36.334  1.00  0.00    -0.354 N 
ATOM     58  N   UNL A   1      41.504  30.057  33.800  1.00  0.00    -0.248 NA
ATOM     59  C   UNL A   1      42.462  28.712  32.150  1.00  0.00     0.031 C 
ATOM     60  C   UNL A   1      43.458  31.122  37.626  1.00  0.00     0.029 A 
ATOM     61  C   UNL A   1      42.897  30.801  36.401  1.00  0.00     0.049 A 
ATOM     62  H   UNL A   1      41.058  31.424  35.572  1.00  0.00     0.167 HD
ATOM     63  C   UNL A   1      42.764  29.649  34.217  1.00  0.00     0.074 A 
ATOM     64  C   UNL A   1      43.296  28.796  33.176  1.00  0.00     0.031 C 
ATOM     65  C   UNL A   1      43.425  29.960  35.359  1.00  0.00     0.037 A 
BRANCH  52  66
ATOM     66  C   UNL A   1      40.239  33.701  39.079  1.00  0.00     0.064 A 
ATOM     67  C   UNL A   1      39.514  33.167  40.154  1.00  0.00     0.173 A 
ATOM     68  C   UNL A   1      40.935  34.902  39.283  1.00  0.00     0.173 A 
ATOM     69  F   UNL A   1      38.817  32.032  40.000  1.00  0.00    -0.203 F 
ATOM     70  C   UNL A   1      39.481  33.818  41.385  1.00  0.00     0.198 A 
ATOM     71  C   UNL A   1      40.918  35.537  40.520  1.00  0.00     0.198 A 
ATOM     72  F   UNL A   1      41.641  35.451  38.283  1.00  0.00    -0.203 F 
ATOM     73  F   UNL A   1      38.759  33.309  42.392  1.00  0.00    -0.200 F 
ATOM     74  C   UNL A   1      40.189  34.997  41.569  1.00  0.00     0.200 A 
ATOM     75  F   UNL A   1      41.608  36.673  40.698  1.00  0.00    -0.200 F 
ATOM     76  F   UNL A   1      40.163  35.618  42.757  1.00  0.00    -0.200 F 
ENDBRANCH  52  66
BRANCH  53  77
ATOM     77  C   UNL A   1      40.127  28.865  30.412  1.00  0.00     0.064 A 
ATOM     78  C   UNL A   1      40.700  29.395  29.248  1.00  0.00     0.173 A 
ATOM     79  C   UNL A   1      39.497  27.614  30.317  1.00  0.00     0.173 A 
ATOM     80  F   UNL A   1      41.276  30.606  29.277  1.00  0.00    -0.203 F 
ATOM     81  C   UNL A   1      40.634  28.708  28.037  1.00  0.00     0.198 A 
ATOM     82  C   UNL A   1      39.462  26.914  29.115  1.00  0.00     0.198 A 
ATOM     83  F   UNL A   1      38.917  27.071  31.398  1.00  0.00    -0.203 F 
ATOM     84  F   UNL A   1      41.141  29.261  26.927  1.00  0.00    -0.200 F 
ATOM     85  C   UNL A   1      40.023  27.464  27.973  1.00  0.00     0.200 A 
ATOM     86  F   UNL A   1      38.873  25.711  29.062  1.00  0.00    -0.200 F 
ATOM     87  F   UNL A   1      39.959  26.804  26.809  1.00  0.00    -0.200 F 
ENDBRANCH  53  77
BRANCH  65  88
ATOM     88  C   UNL A   1      44.791  29.367  35.548  1.00  0.00     0.064 A 
ATOM     89  C   UNL A   1      44.967  28.115  36.154  1.00  0.00     0.173 A 
ATOM     90  C   UNL A   1      45.933  30.048  35.101  1.00  0.00     0.173 A 
ATOM     91  F   UNL A   1      43.906  27.432  36.611  1.00  0.00    -0.203 F 
ATOM     92  C   UNL A   1      46.239  27.579  36.333  1.00  0.00     0.198 A 
ATOM     93  C   UNL A   1      47.202  29.496  35.257  1.00  0.00     0.198 A 
ATOM     94  F   UNL A   1      45.819  31.245  34.508  1.00  0.00    -0.203 F 
ATOM     95  F   UNL A   1      46.388  26.402  36.959  1.00  0.00    -0.200 F 
ATOM     96  C   UNL A   1      47.355  28.266  35.880  1.00  0.00     0.200 A 
ATOM     97  F   UNL A   1      48.279  30.156  34.808  1.00  0.00    -0.200 F 
ATOM     98  F   UNL A   1      48.579  27.748  36.053  1.00  0.00    -0.200 F 
ENDBRANCH  65  88
ENDBRANCH  39  40
ENDBRANCH  32  34
ENDBRANCH  31  32
ENDBRANCH  30  31
ENDBRANCH  29  30
ENDBRANCH  28  29
ENDBRANCH  27  28
ENDBRANCH   1  27
TORSDOF 21
ENDMDL
