MODEL 1
REMARK VINA RESULT:     -10.6      0.000      0.000
REMARK SMILES C=CCOc1ccccc1/C=C1\SC(=S)N(CC(=O)OCCOCCOCCOC(=O)c2ccc(-c3c4nc(c(-c5c(F)c(F)c(F)c(F)c5F)c5ccc([nH]5)c(-c5c(F)c(F)c(F)c(F)c5F)c5nc(c(-c6c(F)c(F)c(F)c(F)c6F)c6ccc3[nH]6)C=C5)C=C4)cc2)C1=O
REMARK SMILES IDX 23 1 22 2 21 3 20 4 18 5 19 6 17 7 16 8 11 9 12 10 13 11
REMARK SMILES IDX 95 12 14 13 96 14 15 15 10 16 5 17 6 18 7 19 9 20 8 21 4 22
REMARK SMILES IDX 3 23 2 24 1 25 24 26 25 27 26 28 27 29 28 30 29 31 30 32
REMARK SMILES IDX 31 33 32 34 33 35 94 36 34 37 93 38 35 39 36 40 37 41 87 42
REMARK SMILES IDX 38 43 92 44 86 45 88 46 39 47 91 48 85 49 84 50 40 52 72 53
REMARK SMILES IDX 52 54 71 55 53 56 56 57 70 58 89 59 54 60 55 61 69 63 90 64
REMARK SMILES IDX 57 65 41 66 42 67 50 68 43 69 44 70 48 71 51 72 45 73 46 74
REMARK SMILES IDX 49 75 47 76 73 77 74 78 82 79 75 80 76 81 80 82 83 83 77 84
REMARK SMILES IDX 78 85 81 86 79 87 58 88 59 89 67 90 60 91 61 92 65 93 68 94
REMARK SMILES IDX 62 95 63 96 66 97 64 98
REMARK H PARENT 88 51 56 62
REMARK Flexibility Score: inf
ROOT
ATOM      1  O   UNL A   1      39.179  21.817  25.985  1.00  0.00    -0.376 OA
ENDROOT
BRANCH   1   2
ATOM      2  C   UNL A   1      38.611  23.102  26.184  1.00  0.00     0.202 C 
BRANCH   2   3
ATOM      3  C   UNL A   1      37.313  23.363  25.418  1.00  0.00     0.261 C 
BRANCH   3   4
ATOM      4  O   UNL A   1      37.002  22.350  24.434  1.00  0.00    -0.462 OA
BRANCH   4   5
ATOM      5  C   UNL A   1      35.886  21.616  24.674  1.00  0.00     0.326 C 
ATOM      6  O   UNL A   1      35.861  20.590  25.349  1.00  0.00    -0.250 OA
BRANCH   5   7
ATOM      7  C   UNL A   1      34.611  22.166  24.037  1.00  0.00     0.250 C 
BRANCH   7   8
ATOM      8  N   UNL A   1      33.957  23.358  24.589  1.00  0.00    -0.282 N 
ATOM      9  C   UNL A   1      33.425  26.917  24.200  1.00  0.00     0.033 C 
ATOM     10  C   UNL A   1      33.467  25.670  24.687  1.00  0.00     0.081 C 
ATOM     11  S   UNL A   1      32.916  25.088  26.203  1.00  0.00    -0.054 SA
ATOM     12  C   UNL A   1      34.095  24.558  23.922  1.00  0.00     0.266 C 
ATOM     13  C   UNL A   1      33.329  23.418  25.815  1.00  0.00     0.148 C 
ATOM     14  O   UNL A   1      34.696  24.711  22.867  1.00  0.00    -0.268 OA
ATOM     15  S   UNL A   1      32.993  22.153  26.847  1.00  0.00    -0.052 S 
BRANCH   9  16
ATOM     16  C   UNL A   1      33.121  28.147  24.946  1.00  0.00     0.018 A 
ATOM     17  C   UNL A   1      31.906  28.823  24.733  1.00  0.00     0.127 A 
ATOM     18  C   UNL A   1      31.581  29.969  25.467  1.00  0.00     0.047 A 
ATOM     19  C   UNL A   1      32.439  30.411  26.470  1.00  0.00     0.004 A 
ATOM     20  C   UNL A   1      33.969  28.595  25.964  1.00  0.00     0.012 A 
ATOM     21  C   UNL A   1      33.626  29.720  26.724  1.00  0.00     0.001 A 
BRANCH  17  22
ATOM     22  O   UNL A   1      31.023  28.372  23.782  1.00  0.00    -0.489 OA
BRANCH  22  23
ATOM     23  C   UNL A   1      30.073  29.389  23.431  1.00  0.00     0.257 C 
BRANCH  23  24
ATOM     24  C   UNL A   1      28.794  28.753  22.971  1.00  0.00     0.006 C 
ATOM     25  C   UNL A   1      27.609  29.377  22.943  1.00  0.00     0.007 C 
ENDBRANCH  23  24
ENDBRANCH  22  23
ENDBRANCH  17  22
ENDBRANCH   9  16
ENDBRANCH   7   8
ENDBRANCH   5   7
ENDBRANCH   4   5
ENDBRANCH   3   4
ENDBRANCH   2   3
ENDBRANCH   1   2
BRANCH   1  26
ATOM     26  C   UNL A   1      40.592  21.661  26.106  1.00  0.00     0.188 C 
BRANCH  26  27
ATOM     27  C   UNL A   1      41.194  21.194  27.436  1.00  0.00     0.188 C 
BRANCH  27  28
ATOM     28  O   UNL A   1      41.702  19.868  27.360  1.00  0.00    -0.376 OA
BRANCH  28  29
ATOM     29  C   UNL A   1      41.656  19.317  26.051  1.00  0.00     0.202 C 
BRANCH  29  30
ATOM     30  C   UNL A   1      42.962  18.569  25.787  1.00  0.00     0.261 C 
BRANCH  30  31
ATOM     31  O   UNL A   1      43.548  18.850  24.502  1.00  0.00    -0.460 OA
BRANCH  31  32
ATOM     32  C   UNL A   1      44.789  19.383  24.509  1.00  0.00     0.338 C 
ATOM     33  O   UNL A   1      45.830  18.837  24.196  1.00  0.00    -0.246 OA
BRANCH  32  34
ATOM     34  C   UNL A   1      44.669  20.813  24.855  1.00  0.00     0.060 A 
ATOM     35  C   UNL A   1      44.395  21.744  23.849  1.00  0.00     0.016 A 
ATOM     36  C   UNL A   1      44.873  21.233  26.169  1.00  0.00     0.016 A 
ATOM     37  C   UNL A   1      44.365  23.109  24.144  1.00  0.00     0.010 A 
ATOM     38  C   UNL A   1      44.841  22.597  26.464  1.00  0.00     0.010 A 
ATOM     39  C   UNL A   1      44.617  23.546  25.450  1.00  0.00    -0.014 A 
BRANCH  39  40
ATOM     40  C   UNL A   1      44.773  24.986  25.769  1.00  0.00     0.031 A 
ATOM     41  C   UNL A   1      46.137  25.604  25.677  1.00  0.00     0.074 A 
ATOM     42  C   UNL A   1      43.731  25.720  26.198  1.00  0.00     0.049 A 
ATOM     43  N   UNL A   1      46.567  26.756  26.128  1.00  0.00    -0.248 NA
ATOM     44  C   UNL A   1      47.162  24.803  24.992  1.00  0.00     0.031 C 
ATOM     45  C   UNL A   1      42.350  25.255  26.281  1.00  0.00     0.029 A 
ATOM     46  N   UNL A   1      43.689  27.005  26.680  1.00  0.00    -0.354 N 
ATOM     47  C   UNL A   1      47.919  26.799  25.819  1.00  0.00     0.074 A 
ATOM     48  C   UNL A   1      48.240  25.555  25.150  1.00  0.00     0.031 C 
ATOM     49  C   UNL A   1      41.597  26.229  26.819  1.00  0.00     0.029 A 
ATOM     50  C   UNL A   1      42.457  27.359  27.170  1.00  0.00     0.049 A 
ATOM     51  H   UNL A   1      44.465  27.611  26.676  1.00  0.00     0.167 HD
ATOM     52  C   UNL A   1      48.812  27.784  26.077  1.00  0.00     0.037 A 
ATOM     53  C   UNL A   1      42.077  28.445  27.870  1.00  0.00     0.037 A 
ATOM     54  C   UNL A   1      48.479  29.023  26.732  1.00  0.00     0.049 A 
ATOM     55  C   UNL A   1      43.093  29.507  28.201  1.00  0.00     0.074 A 
ATOM     56  C   UNL A   1      49.302  30.098  27.020  1.00  0.00     0.029 A 
ATOM     57  N   UNL A   1      47.217  29.348  27.209  1.00  0.00    -0.354 N 
ATOM     58  N   UNL A   1      44.373  29.544  27.921  1.00  0.00    -0.248 NA
ATOM     59  C   UNL A   1      42.610  30.677  28.949  1.00  0.00     0.031 C 
ATOM     60  C   UNL A   1      48.549  31.051  27.716  1.00  0.00     0.029 A 
ATOM     61  C   UNL A   1      47.243  30.596  27.811  1.00  0.00     0.049 A 
ATOM     62  H   UNL A   1      46.419  28.775  27.131  1.00  0.00     0.167 HD
ATOM     63  C   UNL A   1      44.845  30.745  28.437  1.00  0.00     0.074 A 
ATOM     64  C   UNL A   1      43.710  31.412  29.041  1.00  0.00     0.031 C 
ATOM     65  C   UNL A   1      46.104  31.248  28.409  1.00  0.00     0.037 A 
BRANCH  52  66
ATOM     66  C   UNL A   1      50.243  27.533  25.696  1.00  0.00     0.064 A 
ATOM     67  C   UNL A   1      50.705  27.702  24.383  1.00  0.00     0.173 A 
ATOM     68  C   UNL A   1      51.165  27.103  26.664  1.00  0.00     0.173 A 
ATOM     69  F   UNL A   1      49.863  28.095  23.415  1.00  0.00    -0.203 F 
ATOM     70  C   UNL A   1      52.024  27.407  24.044  1.00  0.00     0.198 A 
ATOM     71  C   UNL A   1      52.490  26.842  26.329  1.00  0.00     0.198 A 
ATOM     72  F   UNL A   1      50.778  26.929  27.938  1.00  0.00    -0.203 F 
ATOM     73  F   UNL A   1      52.426  27.509  22.769  1.00  0.00    -0.200 F 
ATOM     74  C   UNL A   1      52.916  26.982  25.017  1.00  0.00     0.200 A 
ATOM     75  F   UNL A   1      53.352  26.442  27.273  1.00  0.00    -0.200 F 
ATOM     76  F   UNL A   1      54.182  26.692  24.688  1.00  0.00    -0.200 F 
ENDBRANCH  52  66
BRANCH  53  77
ATOM     77  C   UNL A   1      40.672  28.554  28.338  1.00  0.00     0.064 A 
ATOM     78  C   UNL A   1      40.306  28.160  29.631  1.00  0.00     0.173 A 
ATOM     79  C   UNL A   1      39.672  29.087  27.509  1.00  0.00     0.173 A 
ATOM     80  F   UNL A   1      41.220  27.618  30.448  1.00  0.00    -0.203 F 
ATOM     81  C   UNL A   1      38.993  28.295  30.079  1.00  0.00     0.198 A 
ATOM     82  C   UNL A   1      38.366  29.247  27.967  1.00  0.00     0.198 A 
ATOM     83  F   UNL A   1      39.971  29.475  26.260  1.00  0.00    -0.203 F 
ATOM     84  F   UNL A   1      38.664  27.884  31.311  1.00  0.00    -0.200 F 
ATOM     85  C   UNL A   1      38.028  28.849  29.252  1.00  0.00     0.200 A 
ATOM     86  F   UNL A   1      37.439  29.792  27.168  1.00  0.00    -0.200 F 
ATOM     87  F   UNL A   1      36.770  28.994  29.690  1.00  0.00    -0.200 F 
ENDBRANCH  53  77
BRANCH  65  88
ATOM     88  C   UNL A   1      46.319  32.606  29.014  1.00  0.00     0.064 A 
ATOM     89  C   UNL A   1      46.731  32.764  30.345  1.00  0.00     0.173 A 
ATOM     90  C   UNL A   1      46.159  33.762  28.235  1.00  0.00     0.173 A 
ATOM     91  F   UNL A   1      46.885  31.693  31.138  1.00  0.00    -0.203 F 
ATOM     92  C   UNL A   1      46.954  34.032  30.879  1.00  0.00     0.198 A 
ATOM     93  C   UNL A   1      46.412  35.025  28.762  1.00  0.00     0.198 A 
ATOM     94  F   UNL A   1      45.773  33.666  26.954  1.00  0.00    -0.203 F 
ATOM     95  F   UNL A   1      47.308  34.162  32.166  1.00  0.00    -0.200 F 
ATOM     96  C   UNL A   1      46.803  35.159  30.086  1.00  0.00     0.200 A 
ATOM     97  F   UNL A   1      46.278  36.112  27.989  1.00  0.00    -0.200 F 
ATOM     98  F   UNL A   1      47.030  36.377  30.598  1.00  0.00    -0.200 F 
ENDBRANCH  65  88
ENDBRANCH  39  40
ENDBRANCH  32  34
ENDBRANCH  31  32
ENDBRANCH  30  31
ENDBRANCH  29  30
ENDBRANCH  28  29
ENDBRANCH  27  28
ENDBRANCH  26  27
ENDBRANCH   1  26
TORSDOF 22
ENDMDL
MODEL 2
REMARK VINA RESULT:      -9.7      4.802      7.064
REMARK SMILES C=CCOc1ccccc1/C=C1\SC(=S)N(CC(=O)OCCOCCOCCOC(=O)c2ccc(-c3c4nc(c(-c5c(F)c(F)c(F)c(F)c5F)c5ccc([nH]5)c(-c5c(F)c(F)c(F)c(F)c5F)c5nc(c(-c6c(F)c(F)c(F)c(F)c6F)c6ccc3[nH]6)C=C5)C=C4)cc2)C1=O
REMARK SMILES IDX 23 1 22 2 21 3 20 4 18 5 19 6 17 7 16 8 11 9 12 10 13 11
REMARK SMILES IDX 95 12 14 13 96 14 15 15 10 16 5 17 6 18 7 19 9 20 8 21 4 22
REMARK SMILES IDX 3 23 2 24 1 25 24 26 25 27 26 28 27 29 28 30 29 31 30 32
REMARK SMILES IDX 31 33 32 34 33 35 94 36 34 37 93 38 35 39 36 40 37 41 87 42
REMARK SMILES IDX 38 43 92 44 86 45 88 46 39 47 91 48 85 49 84 50 40 52 72 53
REMARK SMILES IDX 52 54 71 55 53 56 56 57 70 58 89 59 54 60 55 61 69 63 90 64
REMARK SMILES IDX 57 65 41 66 42 67 50 68 43 69 44 70 48 71 51 72 45 73 46 74
REMARK SMILES IDX 49 75 47 76 73 77 74 78 82 79 75 80 76 81 80 82 83 83 77 84
REMARK SMILES IDX 78 85 81 86 79 87 58 88 59 89 67 90 60 91 61 92 65 93 68 94
REMARK SMILES IDX 62 95 63 96 66 97 64 98
REMARK H PARENT 88 51 56 62
REMARK Flexibility Score: inf
ROOT
ATOM      1  O   UNL A   1      38.927  22.182  26.118  1.00  0.00    -0.376 OA
ENDROOT
BRANCH   1   2
ATOM      2  C   UNL A   1      37.911  23.173  26.131  1.00  0.00     0.202 C 
BRANCH   2   3
ATOM      3  C   UNL A   1      37.200  23.390  24.794  1.00  0.00     0.261 C 
BRANCH   3   4
ATOM      4  O   UNL A   1      36.848  22.163  24.113  1.00  0.00    -0.462 OA
BRANCH   4   5
ATOM      5  C   UNL A   1      35.771  21.501  24.606  1.00  0.00     0.326 C 
ATOM      6  O   UNL A   1      35.819  20.672  25.511  1.00  0.00    -0.250 OA
BRANCH   5   7
ATOM      7  C   UNL A   1      34.441  21.869  23.950  1.00  0.00     0.250 C 
BRANCH   7   8
ATOM      8  N   UNL A   1      33.717  23.078  24.358  1.00  0.00    -0.282 N 
ATOM      9  C   UNL A   1      33.038  26.549  23.586  1.00  0.00     0.033 C 
ATOM     10  C   UNL A   1      33.121  25.362  24.201  1.00  0.00     0.081 C 
ATOM     11  S   UNL A   1      32.552  24.914  25.755  1.00  0.00    -0.054 SA
ATOM     12  C   UNL A   1      33.822  24.209  23.573  1.00  0.00     0.266 C 
ATOM     13  C   UNL A   1      33.051  23.234  25.554  1.00  0.00     0.148 C 
ATOM     14  O   UNL A   1      34.447  24.281  22.523  1.00  0.00    -0.268 OA
ATOM     15  S   UNL A   1      32.741  22.067  26.704  1.00  0.00    -0.052 S 
BRANCH   9  16
ATOM     16  C   UNL A   1      32.657  27.833  24.192  1.00  0.00     0.018 A 
ATOM     17  C   UNL A   1      31.378  28.372  23.965  1.00  0.00     0.127 A 
ATOM     18  C   UNL A   1      30.982  29.569  24.569  1.00  0.00     0.047 A 
ATOM     19  C   UNL A   1      31.840  30.206  25.463  1.00  0.00     0.004 A 
ATOM     20  C   UNL A   1      33.504  28.476  25.099  1.00  0.00     0.012 A 
ATOM     21  C   UNL A   1      33.095  29.656  25.733  1.00  0.00     0.001 A 
BRANCH  17  22
ATOM     22  O   UNL A   1      30.498  27.730  23.126  1.00  0.00    -0.489 OA
BRANCH  22  23
ATOM     23  C   UNL A   1      29.369  28.563  22.821  1.00  0.00     0.257 C 
BRANCH  23  24
ATOM     24  C   UNL A   1      28.112  27.923  23.334  1.00  0.00     0.006 C 
ATOM     25  C   UNL A   1      28.058  26.705  23.888  1.00  0.00     0.007 C 
ENDBRANCH  23  24
ENDBRANCH  22  23
ENDBRANCH  17  22
ENDBRANCH   9  16
ENDBRANCH   7   8
ENDBRANCH   5   7
ENDBRANCH   4   5
ENDBRANCH   3   4
ENDBRANCH   2   3
ENDBRANCH   1   2
BRANCH   1  26
ATOM     26  C   UNL A   1      40.219  22.514  26.621  1.00  0.00     0.188 C 
BRANCH  26  27
ATOM     27  C   UNL A   1      40.821  21.696  27.769  1.00  0.00     0.188 C 
BRANCH  27  28
ATOM     28  O   UNL A   1      42.067  21.107  27.416  1.00  0.00    -0.376 OA
BRANCH  28  29
ATOM     29  C   UNL A   1      42.201  20.857  26.024  1.00  0.00     0.202 C 
BRANCH  29  30
ATOM     30  C   UNL A   1      43.602  21.276  25.582  1.00  0.00     0.261 C 
BRANCH  30  31
ATOM     31  O   UNL A   1      43.818  22.700  25.595  1.00  0.00    -0.460 OA
BRANCH  31  32
ATOM     32  C   UNL A   1      44.754  23.161  26.454  1.00  0.00     0.338 C 
ATOM     33  O   UNL A   1      45.930  22.856  26.498  1.00  0.00    -0.246 OA
BRANCH  32  34
ATOM     34  C   UNL A   1      44.133  24.212  27.284  1.00  0.00     0.060 A 
ATOM     35  C   UNL A   1      44.184  25.543  26.860  1.00  0.00     0.016 A 
ATOM     36  C   UNL A   1      43.542  23.881  28.504  1.00  0.00     0.016 A 
ATOM     37  C   UNL A   1      43.680  26.560  27.675  1.00  0.00     0.010 A 
ATOM     38  C   UNL A   1      43.038  24.897  29.317  1.00  0.00     0.010 A 
ATOM     39  C   UNL A   1      43.129  26.244  28.922  1.00  0.00    -0.014 A 
BRANCH  39  40
ATOM     40  C   UNL A   1      42.749  27.302  29.891  1.00  0.00     0.031 A 
ATOM     41  C   UNL A   1      43.490  27.391  31.193  1.00  0.00     0.074 A 
ATOM     42  C   UNL A   1      41.718  28.130  29.647  1.00  0.00     0.049 A 
ATOM     43  N   UNL A   1      43.193  28.055  32.281  1.00  0.00    -0.248 NA
ATOM     44  C   UNL A   1      44.731  26.608  31.282  1.00  0.00     0.031 C 
ATOM     45  C   UNL A   1      40.954  28.182  28.405  1.00  0.00     0.029 A 
ATOM     46  N   UNL A   1      41.117  29.061  30.458  1.00  0.00    -0.354 N 
ATOM     47  C   UNL A   1      44.187  27.738  33.197  1.00  0.00     0.074 A 
ATOM     48  C   UNL A   1      45.089  26.815  32.540  1.00  0.00     0.031 C 
ATOM     49  C   UNL A   1      39.958  29.074  28.546  1.00  0.00     0.029 A 
ATOM     50  C   UNL A   1      39.985  29.608  29.907  1.00  0.00     0.049 A 
ATOM     51  H   UNL A   1      41.462  29.311  31.346  1.00  0.00     0.167 HD
ATOM     52  C   UNL A   1      44.327  28.171  34.473  1.00  0.00     0.037 A 
ATOM     53  C   UNL A   1      39.046  30.402  30.456  1.00  0.00     0.037 A 
ATOM     54  C   UNL A   1      43.430  29.099  35.114  1.00  0.00     0.049 A 
ATOM     55  C   UNL A   1      39.183  30.831  31.893  1.00  0.00     0.074 A 
ATOM     56  C   UNL A   1      43.496  29.622  36.393  1.00  0.00     0.029 A 
ATOM     57  N   UNL A   1      42.296  29.635  34.519  1.00  0.00    -0.354 N 
ATOM     58  N   UNL A   1      40.115  30.524  32.763  1.00  0.00    -0.248 NA
ATOM     59  C   UNL A   1      38.137  31.717  32.425  1.00  0.00     0.031 C 
ATOM     60  C   UNL A   1      42.373  30.436  36.590  1.00  0.00     0.029 A 
ATOM     61  C   UNL A   1      41.639  30.465  35.415  1.00  0.00     0.049 A 
ATOM     62  H   UNL A   1      42.001  29.453  33.597  1.00  0.00     0.167 HD
ATOM     63  C   UNL A   1      39.781  31.190  33.935  1.00  0.00     0.074 A 
ATOM     64  C   UNL A   1      38.564  31.927  33.663  1.00  0.00     0.031 C 
ATOM     65  C   UNL A   1      40.428  31.193  35.128  1.00  0.00     0.037 A 
BRANCH  52  66
ATOM     66  C   UNL A   1      45.465  27.602  35.271  1.00  0.00     0.064 A 
ATOM     67  C   UNL A   1      45.308  26.479  36.097  1.00  0.00     0.173 A 
ATOM     68  C   UNL A   1      46.734  28.202  35.216  1.00  0.00     0.173 A 
ATOM     69  F   UNL A   1      44.114  25.877  36.198  1.00  0.00    -0.203 F 
ATOM     70  C   UNL A   1      46.365  26.005  36.870  1.00  0.00     0.198 A 
ATOM     71  C   UNL A   1      47.796  27.706  35.965  1.00  0.00     0.198 A 
ATOM     72  F   UNL A   1      46.942  29.277  34.440  1.00  0.00    -0.203 F 
ATOM     73  F   UNL A   1      46.174  24.973  37.704  1.00  0.00    -0.200 F 
ATOM     74  C   UNL A   1      47.609  26.616  36.801  1.00  0.00     0.200 A 
ATOM     75  F   UNL A   1      48.999  28.290  35.888  1.00  0.00    -0.200 F 
ATOM     76  F   UNL A   1      48.622  26.163  37.552  1.00  0.00    -0.200 F 
ENDBRANCH  52  66
BRANCH  53  77
ATOM     77  C   UNL A   1      37.871  30.808  29.642  1.00  0.00     0.064 A 
ATOM     78  C   UNL A   1      37.772  32.097  29.105  1.00  0.00     0.173 A 
ATOM     79  C   UNL A   1      36.839  29.899  29.358  1.00  0.00     0.173 A 
ATOM     80  F   UNL A   1      38.719  33.007  29.374  1.00  0.00    -0.203 F 
ATOM     81  C   UNL A   1      36.686  32.464  28.314  1.00  0.00     0.198 A 
ATOM     82  C   UNL A   1      35.767  30.259  28.544  1.00  0.00     0.198 A 
ATOM     83  F   UNL A   1      36.885  28.653  29.852  1.00  0.00    -0.203 F 
ATOM     84  F   UNL A   1      36.601  33.714  27.836  1.00  0.00    -0.200 F 
ATOM     85  C   UNL A   1      35.691  31.543  28.024  1.00  0.00     0.200 A 
ATOM     86  F   UNL A   1      34.814  29.362  28.258  1.00  0.00    -0.200 F 
ATOM     87  F   UNL A   1      34.655  31.892  27.249  1.00  0.00    -0.200 F 
ENDBRANCH  53  77
BRANCH  65  88
ATOM     88  C   UNL A   1      39.857  32.050  36.222  1.00  0.00     0.064 A 
ATOM     89  C   UNL A   1      40.399  33.303  36.538  1.00  0.00     0.173 A 
ATOM     90  C   UNL A   1      38.719  31.630  36.929  1.00  0.00     0.173 A 
ATOM     91  F   UNL A   1      41.495  33.745  35.902  1.00  0.00    -0.203 F 
ATOM     92  C   UNL A   1      39.836  34.096  37.536  1.00  0.00     0.198 A 
ATOM     93  C   UNL A   1      38.141  32.436  37.904  1.00  0.00     0.198 A 
ATOM     94  F   UNL A   1      38.157  30.441  36.661  1.00  0.00    -0.203 F 
ATOM     95  F   UNL A   1      40.395  35.273  37.849  1.00  0.00    -0.200 F 
ATOM     96  C   UNL A   1      38.704  33.667  38.212  1.00  0.00     0.200 A 
ATOM     97  F   UNL A   1      37.039  32.025  38.547  1.00  0.00    -0.200 F 
ATOM     98  F   UNL A   1      38.157  34.435  39.163  1.00  0.00    -0.200 F 
ENDBRANCH  65  88
ENDBRANCH  39  40
ENDBRANCH  32  34
ENDBRANCH  31  32
ENDBRANCH  30  31
ENDBRANCH  29  30
ENDBRANCH  28  29
ENDBRANCH  27  28
ENDBRANCH  26  27
ENDBRANCH   1  26
TORSDOF 22
ENDMDL
MODEL 3
REMARK VINA RESULT:      -9.0      3.283      8.324
REMARK SMILES C=CCOc1ccccc1/C=C1\SC(=S)N(CC(=O)OCCOCCOCCOC(=O)c2ccc(-c3c4nc(c(-c5c(F)c(F)c(F)c(F)c5F)c5ccc([nH]5)c(-c5c(F)c(F)c(F)c(F)c5F)c5nc(c(-c6c(F)c(F)c(F)c(F)c6F)c6ccc3[nH]6)C=C5)C=C4)cc2)C1=O
REMARK SMILES IDX 23 1 22 2 21 3 20 4 18 5 19 6 17 7 16 8 11 9 12 10 13 11
REMARK SMILES IDX 95 12 14 13 96 14 15 15 10 16 5 17 6 18 7 19 9 20 8 21 4 22
REMARK SMILES IDX 3 23 2 24 1 25 24 26 25 27 26 28 27 29 28 30 29 31 30 32
REMARK SMILES IDX 31 33 32 34 33 35 94 36 34 37 93 38 35 39 36 40 37 41 87 42
REMARK SMILES IDX 38 43 92 44 86 45 88 46 39 47 91 48 85 49 84 50 40 52 72 53
REMARK SMILES IDX 52 54 71 55 53 56 56 57 70 58 89 59 54 60 55 61 69 63 90 64
REMARK SMILES IDX 57 65 41 66 42 67 50 68 43 69 44 70 48 71 51 72 45 73 46 74
REMARK SMILES IDX 49 75 47 76 73 77 74 78 82 79 75 80 76 81 80 82 83 83 77 84
REMARK SMILES IDX 78 85 81 86 79 87 58 88 59 89 67 90 60 91 61 92 65 93 68 94
REMARK SMILES IDX 62 95 63 96 66 97 64 98
REMARK H PARENT 88 51 56 62
REMARK Flexibility Score: inf
ROOT
ATOM      1  O   UNL A   1      38.448  21.051  25.564  1.00  0.00    -0.376 OA
ENDROOT
BRANCH   1   2
ATOM      2  C   UNL A   1      37.368  21.846  25.100  1.00  0.00     0.202 C 
BRANCH   2   3
ATOM      3  C   UNL A   1      36.050  21.095  24.899  1.00  0.00     0.261 C 
BRANCH   3   4
ATOM      4  O   UNL A   1      34.992  21.526  25.785  1.00  0.00    -0.462 OA
BRANCH   4   5
ATOM      5  C   UNL A   1      34.022  22.289  25.220  1.00  0.00     0.326 C 
ATOM      6  O   UNL A   1      33.545  22.094  24.106  1.00  0.00    -0.250 OA
BRANCH   5   7
ATOM      7  C   UNL A   1      33.534  23.447  26.090  1.00  0.00     0.250 C 
BRANCH   7   8
ATOM      8  N   UNL A   1      32.462  24.332  25.620  1.00  0.00    -0.282 N 
ATOM      9  C   UNL A   1      31.684  27.390  23.846  1.00  0.00     0.033 C 
ATOM     10  C   UNL A   1      31.603  26.285  24.599  1.00  0.00     0.081 C 
ATOM     11  S   UNL A   1      30.240  25.633  25.408  1.00  0.00    -0.054 SA
ATOM     12  C   UNL A   1      32.802  25.451  24.886  1.00  0.00     0.266 C 
ATOM     13  C   UNL A   1      31.135  24.225  25.977  1.00  0.00     0.148 C 
ATOM     14  O   UNL A   1      33.940  25.755  24.553  1.00  0.00    -0.268 OA
ATOM     15  S   UNL A   1      30.412  22.994  26.837  1.00  0.00    -0.052 S 
BRANCH   9  16
ATOM     16  C   UNL A   1      30.678  28.456  23.729  1.00  0.00     0.018 A 
ATOM     17  C   UNL A   1      30.888  29.700  24.350  1.00  0.00     0.127 A 
ATOM     18  C   UNL A   1      29.963  30.740  24.211  1.00  0.00     0.047 A 
ATOM     19  C   UNL A   1      28.850  30.567  23.393  1.00  0.00     0.004 A 
ATOM     20  C   UNL A   1      29.562  28.299  22.902  1.00  0.00     0.012 A 
ATOM     21  C   UNL A   1      28.654  29.352  22.733  1.00  0.00     0.001 A 
BRANCH  17  22
ATOM     22  O   UNL A   1      32.007  29.907  25.121  1.00  0.00    -0.489 OA
BRANCH  22  23
ATOM     23  C   UNL A   1      31.678  29.934  26.517  1.00  0.00     0.257 C 
BRANCH  23  24
ATOM     24  C   UNL A   1      32.384  28.816  27.228  1.00  0.00     0.006 C 
ATOM     25  C   UNL A   1      33.646  28.442  26.979  1.00  0.00     0.007 C 
ENDBRANCH  23  24
ENDBRANCH  22  23
ENDBRANCH  17  22
ENDBRANCH   9  16
ENDBRANCH   7   8
ENDBRANCH   5   7
ENDBRANCH   4   5
ENDBRANCH   3   4
ENDBRANCH   2   3
ENDBRANCH   1   2
BRANCH   1  26
ATOM     26  C   UNL A   1      39.585  21.698  26.133  1.00  0.00     0.188 C 
BRANCH  26  27
ATOM     27  C   UNL A   1      40.759  20.857  26.648  1.00  0.00     0.188 C 
BRANCH  27  28
ATOM     28  O   UNL A   1      41.864  20.871  25.753  1.00  0.00    -0.376 OA
BRANCH  28  29
ATOM     29  C   UNL A   1      43.097  21.195  26.381  1.00  0.00     0.202 C 
BRANCH  29  30
ATOM     30  C   UNL A   1      43.816  22.246  25.537  1.00  0.00     0.261 C 
BRANCH  30  31
ATOM     31  O   UNL A   1      42.965  23.318  25.087  1.00  0.00    -0.460 OA
BRANCH  31  32
ATOM     32  C   UNL A   1      42.661  24.269  25.996  1.00  0.00     0.338 C 
ATOM     33  O   UNL A   1      41.652  24.352  26.670  1.00  0.00    -0.246 OA
BRANCH  32  34
ATOM     34  C   UNL A   1      43.831  25.159  26.134  1.00  0.00     0.060 A 
ATOM     35  C   UNL A   1      44.409  25.345  27.393  1.00  0.00     0.016 A 
ATOM     36  C   UNL A   1      44.324  25.841  25.022  1.00  0.00     0.016 A 
ATOM     37  C   UNL A   1      45.461  26.250  27.556  1.00  0.00     0.010 A 
ATOM     38  C   UNL A   1      45.376  26.745  25.185  1.00  0.00     0.010 A 
ATOM     39  C   UNL A   1      45.931  26.978  26.457  1.00  0.00    -0.014 A 
BRANCH  39  40
ATOM     40  C   UNL A   1      46.918  28.074  26.617  1.00  0.00     0.031 A 
ATOM     41  C   UNL A   1      46.417  29.476  26.808  1.00  0.00     0.074 A 
ATOM     42  C   UNL A   1      48.239  27.839  26.530  1.00  0.00     0.049 A 
ATOM     43  N   UNL A   1      47.061  30.613  26.730  1.00  0.00    -0.248 NA
ATOM     44  C   UNL A   1      44.986  29.612  27.115  1.00  0.00     0.031 C 
ATOM     45  C   UNL A   1      48.854  26.522  26.400  1.00  0.00     0.029 A 
ATOM     46  N   UNL A   1      49.296  28.715  26.501  1.00  0.00    -0.354 N 
ATOM     47  C   UNL A   1      46.107  31.599  26.937  1.00  0.00     0.074 A 
ATOM     48  C   UNL A   1      44.839  30.928  27.135  1.00  0.00     0.031 C 
ATOM     49  C   UNL A   1      50.182  26.676  26.268  1.00  0.00     0.029 A 
ATOM     50  C   UNL A   1      50.498  28.104  26.246  1.00  0.00     0.049 A 
ATOM     51  H   UNL A   1      49.201  29.684  26.647  1.00  0.00     0.167 HD
ATOM     52  C   UNL A   1      46.274  32.944  26.952  1.00  0.00     0.037 A 
ATOM     53  C   UNL A   1      51.704  28.636  25.970  1.00  0.00     0.037 A 
ATOM     54  C   UNL A   1      47.542  33.602  26.766  1.00  0.00     0.049 A 
ATOM     55  C   UNL A   1      51.864  30.133  25.933  1.00  0.00     0.074 A 
ATOM     56  C   UNL A   1      47.826  34.956  26.788  1.00  0.00     0.029 A 
ATOM     57  N   UNL A   1      48.740  32.946  26.515  1.00  0.00    -0.354 N 
ATOM     58  N   UNL A   1      50.962  31.066  26.116  1.00  0.00    -0.248 NA
ATOM     59  C   UNL A   1      53.211  30.649  25.648  1.00  0.00     0.031 C 
ATOM     60  C   UNL A   1      49.186  35.122  26.500  1.00  0.00     0.029 A 
ATOM     61  C   UNL A   1      49.762  33.870  26.356  1.00  0.00     0.049 A 
ATOM     62  H   UNL A   1      48.848  31.969  26.459  1.00  0.00     0.167 HD
ATOM     63  C   UNL A   1      51.631  32.278  25.990  1.00  0.00     0.074 A 
ATOM     64  C   UNL A   1      53.019  31.960  25.722  1.00  0.00     0.031 C 
ATOM     65  C   UNL A   1      51.140  33.538  26.090  1.00  0.00     0.037 A 
BRANCH  52  66
ATOM     66  C   UNL A   1      45.044  33.788  27.124  1.00  0.00     0.064 A 
ATOM     67  C   UNL A   1      44.206  34.114  26.047  1.00  0.00     0.173 A 
ATOM     68  C   UNL A   1      44.705  34.289  28.391  1.00  0.00     0.173 A 
ATOM     69  F   UNL A   1      44.492  33.674  24.812  1.00  0.00    -0.203 F 
ATOM     70  C   UNL A   1      43.103  34.945  26.223  1.00  0.00     0.198 A 
ATOM     71  C   UNL A   1      43.582  35.092  28.570  1.00  0.00     0.198 A 
ATOM     72  F   UNL A   1      45.468  34.005  29.458  1.00  0.00    -0.203 F 
ATOM     73  F   UNL A   1      42.357  35.299  25.167  1.00  0.00    -0.200 F 
ATOM     74  C   UNL A   1      42.789  35.430  27.484  1.00  0.00     0.200 A 
ATOM     75  F   UNL A   1      43.275  35.549  29.791  1.00  0.00    -0.200 F 
ATOM     76  F   UNL A   1      41.731  36.235  27.651  1.00  0.00    -0.200 F 
ENDBRANCH  52  66
BRANCH  53  77
ATOM     77  C   UNL A   1      52.845  27.733  25.668  1.00  0.00     0.064 A 
ATOM     78  C   UNL A   1      53.246  27.490  24.348  1.00  0.00     0.173 A 
ATOM     79  C   UNL A   1      53.578  27.123  26.697  1.00  0.00     0.173 A 
ATOM     80  F   UNL A   1      52.558  28.028  23.331  1.00  0.00    -0.203 F 
ATOM     81  C   UNL A   1      54.337  26.670  24.069  1.00  0.00     0.198 A 
ATOM     82  C   UNL A   1      54.686  26.326  26.418  1.00  0.00     0.198 A 
ATOM     83  F   UNL A   1      53.231  27.321  27.978  1.00  0.00    -0.203 F 
ATOM     84  F   UNL A   1      54.683  26.430  22.796  1.00  0.00    -0.200 F 
ATOM     85  C   UNL A   1      55.063  26.099  25.103  1.00  0.00     0.200 A 
ATOM     86  F   UNL A   1      55.390  25.785  27.421  1.00  0.00    -0.200 F 
ATOM     87  F   UNL A   1      56.123  25.324  24.833  1.00  0.00    -0.200 F 
ENDBRANCH  53  77
BRANCH  65  88
ATOM     88  C   UNL A   1      52.113  34.673  25.950  1.00  0.00     0.064 A 
ATOM     89  C   UNL A   1      52.893  35.115  27.028  1.00  0.00     0.173 A 
ATOM     90  C   UNL A   1      52.303  35.293  24.705  1.00  0.00     0.173 A 
ATOM     91  F   UNL A   1      52.739  34.567  28.243  1.00  0.00    -0.203 F 
ATOM     92  C   UNL A   1      53.812  36.150  26.870  1.00  0.00     0.198 A 
ATOM     93  C   UNL A   1      53.243  36.306  24.543  1.00  0.00     0.198 A 
ATOM     94  F   UNL A   1      51.587  34.903  23.640  1.00  0.00    -0.203 F 
ATOM     95  F   UNL A   1      54.518  36.584  27.924  1.00  0.00    -0.200 F 
ATOM     96  C   UNL A   1      53.993  36.738  25.627  1.00  0.00     0.200 A 
ATOM     97  F   UNL A   1      53.426  36.863  23.338  1.00  0.00    -0.200 F 
ATOM     98  F   UNL A   1      54.886  37.726  25.474  1.00  0.00    -0.200 F 
ENDBRANCH  65  88
ENDBRANCH  39  40
ENDBRANCH  32  34
ENDBRANCH  31  32
ENDBRANCH  30  31
ENDBRANCH  29  30
ENDBRANCH  28  29
ENDBRANCH  27  28
ENDBRANCH  26  27
ENDBRANCH   1  26
TORSDOF 22
ENDMDL
