MODEL 1
REMARK VINA RESULT:     -12.5      0.000      0.000
REMARK SMILES Cc1cccc([C@H]2C(C(=O)OCCOCCOCCOC(=O)c3ccc(-c4c5nc(c(-c6c(F)c(F)c(F)c(F)c6F)c6ccc([nH]6)c(-c6c(F)c(F)c(F)c(F)c6F)c6nc(c(-c7c(F)c(F)c(F)c(F)c7F)c7ccc4[nH]7)C=C6)C=C5)cc3)CC(=O)N2C)c1
REMARK SMILES IDX 16 1 15 2 14 3 13 4 12 5 11 6 9 7 10 8 8 9 7 10 89 11 86 12
REMARK SMILES IDX 87 13 90 14 88 15 6 16 1 17 2 18 3 19 91 20 4 21 5 22 17 23
REMARK SMILES IDX 18 24 19 25 20 26 21 27 22 28 23 29 24 30 85 31 25 32 84 33
REMARK SMILES IDX 26 34 27 35 28 36 78 37 29 38 83 39 77 40 79 41 30 42 82 43
REMARK SMILES IDX 76 44 75 45 31 47 63 48 43 49 62 50 44 51 47 52 61 53 80 54
REMARK SMILES IDX 45 55 46 56 60 58 81 59 48 60 32 61 33 62 41 63 34 64 35 65
REMARK SMILES IDX 39 66 42 67 36 68 37 69 40 70 38 71 64 72 65 73 73 74 66 75
REMARK SMILES IDX 67 76 71 77 74 78 68 79 69 80 72 81 70 82 49 83 50 84 58 85
REMARK SMILES IDX 51 86 52 87 56 88 59 89 53 90 54 91 57 92 55 93
REMARK H PARENT 79 46 47 57
REMARK Flexibility Score: inf
ROOT
ATOM      1  C   UNL A   1      33.273  35.575  28.757  1.00  0.00     0.188 C 
ENDROOT
BRANCH   1   2
ATOM      2  C   UNL A   1      34.315  34.737  28.000  1.00  0.00     0.188 C 
BRANCH   2   3
ATOM      3  O   UNL A   1      33.976  33.366  27.982  1.00  0.00    -0.376 OA
BRANCH   3   4
ATOM      4  C   UNL A   1      35.099  32.516  27.827  1.00  0.00     0.202 C 
BRANCH   4   5
ATOM      5  C   UNL A   1      34.867  30.997  27.718  1.00  0.00     0.261 C 
BRANCH   5   6
ATOM      6  O   UNL A   1      33.470  30.301  27.091  1.00  0.00    -0.463 OA
BRANCH   6   7
ATOM      7  C   UNL A   1      32.720  29.715  25.982  1.00  0.00     0.312 C 
ATOM      8  O   UNL A   1      31.776  30.450  25.643  1.00  0.00    -0.252 OA
BRANCH   7   9
ATOM      9  C   UNL A   1      32.920  28.247  24.953  1.00  0.00     0.135 C 
ATOM     10  C   UNL A   1      32.634  26.539  24.455  1.00  0.00     0.130 C 
ATOM     11  N   UNL A   1      33.023  26.687  22.996  1.00  0.00    -0.338 N 
ATOM     12  C   UNL A   1      33.874  28.722  23.831  1.00  0.00     0.118 C 
ATOM     13  C   UNL A   1      33.694  27.841  22.653  1.00  0.00     0.223 C 
ATOM     14  C   UNL A   1      32.698  25.780  21.914  1.00  0.00     0.147 C 
ATOM     15  O   UNL A   1      34.142  28.110  21.545  1.00  0.00    -0.275 OA
BRANCH  10  16
ATOM     16  C   UNL A   1      33.172  24.987  24.913  1.00  0.00    -0.024 A 
ATOM     17  C   UNL A   1      37.255  23.368  26.050  1.00  0.00     0.044 C 
ATOM     18  C   UNL A   1      35.735  23.317  25.989  1.00  0.00    -0.051 A 
ATOM     19  C   UNL A   1      34.654  22.415  27.248  1.00  0.00     0.003 A 
ATOM     20  C   UNL A   1      34.962  24.543  24.813  1.00  0.00     0.009 A 
ATOM     21  C   UNL A   1      32.800  22.612  27.148  1.00  0.00     0.001 A 
ATOM     22  C   UNL A   1      32.093  23.936  25.988  1.00  0.00     0.006 A 
ENDBRANCH  10  16
ENDBRANCH   7   9
ENDBRANCH   6   7
ENDBRANCH   5   6
ENDBRANCH   4   5
ENDBRANCH   3   4
ENDBRANCH   2   3
ENDBRANCH   1   2
BRANCH   1  23
ATOM     23  O   UNL A   1      33.772  36.185  29.937  1.00  0.00    -0.376 OA
BRANCH  23  24
ATOM     24  C   UNL A   1      33.218  37.421  30.357  1.00  0.00     0.202 C 
BRANCH  24  25
ATOM     25  C   UNL A   1      33.176  37.489  31.887  1.00  0.00     0.261 C 
BRANCH  25  26
ATOM     26  O   UNL A   1      33.848  36.346  32.463  1.00  0.00    -0.460 OA
BRANCH  26  27
ATOM     27  C   UNL A   1      33.065  35.241  32.598  1.00  0.00     0.338 C 
ATOM     28  O   UNL A   1      31.879  35.242  32.884  1.00  0.00    -0.246 OA
BRANCH  27  29
ATOM     29  C   UNL A   1      33.956  34.048  32.675  1.00  0.00     0.060 A 
ATOM     30  C   UNL A   1      34.831  33.965  33.742  1.00  0.00     0.016 A 
ATOM     31  C   UNL A   1      34.200  33.261  31.552  1.00  0.00     0.016 A 
ATOM     32  C   UNL A   1      36.051  33.293  33.575  1.00  0.00     0.010 A 
ATOM     33  C   UNL A   1      35.460  32.683  31.372  1.00  0.00     0.010 A 
ATOM     34  C   UNL A   1      36.489  32.771  32.337  1.00  0.00    -0.014 A 
BRANCH  34  35
ATOM     35  C   UNL A   1      37.879  32.266  31.767  1.00  0.00     0.031 A 
ATOM     36  C   UNL A   1      37.555  31.120  30.893  1.00  0.00     0.074 A 
ATOM     37  C   UNL A   1      39.295  32.422  31.976  1.00  0.00     0.049 A 
ATOM     38  N   UNL A   1      38.255  30.786  29.887  1.00  0.00    -0.248 NA
ATOM     39  C   UNL A   1      36.447  30.228  31.167  1.00  0.00     0.031 C 
ATOM     40  C   UNL A   1      40.379  32.579  30.956  1.00  0.00     0.029 A 
ATOM     41  N   UNL A   1      40.113  32.854  33.046  1.00  0.00    -0.354 N 
ATOM     42  C   UNL A   1      38.333  29.262  29.897  1.00  0.00     0.074 A 
ATOM     43  C   UNL A   1      36.756  29.214  30.365  1.00  0.00     0.031 C 
ATOM     44  C   UNL A   1      41.617  32.649  31.538  1.00  0.00     0.029 A 
ATOM     45  C   UNL A   1      41.465  32.774  32.963  1.00  0.00     0.049 A 
ATOM     46  H   UNL A   1      39.696  33.217  33.861  1.00  0.00     0.167 HD
ATOM     47  C   UNL A   1      39.762  28.076  29.526  1.00  0.00     0.037 A 
ATOM     48  C   UNL A   1      42.295  32.727  34.043  1.00  0.00     0.037 A 
ATOM     49  C   UNL A   1      41.410  28.276  29.927  1.00  0.00     0.049 A 
ATOM     50  C   UNL A   1      43.223  31.561  33.945  1.00  0.00     0.074 A 
ATOM     51  C   UNL A   1      42.415  29.052  29.299  1.00  0.00     0.029 A 
ATOM     52  N   UNL A   1      41.964  27.875  31.148  1.00  0.00    -0.354 N 
ATOM     53  N   UNL A   1      43.017  30.593  33.102  1.00  0.00    -0.248 NA
ATOM     54  C   UNL A   1      44.359  31.322  34.834  1.00  0.00     0.031 C 
ATOM     55  C   UNL A   1      43.439  29.298  30.229  1.00  0.00     0.029 A 
ATOM     56  C   UNL A   1      43.146  28.576  31.369  1.00  0.00     0.049 A 
ATOM     57  H   UNL A   1      41.578  27.202  31.755  1.00  0.00     0.167 HD
ATOM     58  C   UNL A   1      43.948  29.610  33.327  1.00  0.00     0.074 A 
ATOM     59  C   UNL A   1      44.774  30.118  34.406  1.00  0.00     0.031 C 
ATOM     60  C   UNL A   1      43.939  28.468  32.580  1.00  0.00     0.037 A 
BRANCH  47  61
ATOM     61  C   UNL A   1      40.137  26.967  28.061  1.00  0.00     0.064 A 
ATOM     62  C   UNL A   1      40.016  25.537  28.180  1.00  0.00     0.173 A 
ATOM     63  C   UNL A   1      40.860  27.220  26.825  1.00  0.00     0.173 A 
ATOM     64  F   UNL A   1      39.069  24.953  28.924  1.00  0.00    -0.203 F 
ATOM     65  C   UNL A   1      40.765  24.581  27.443  1.00  0.00     0.198 A 
ATOM     66  C   UNL A   1      41.514  26.261  26.022  1.00  0.00     0.198 A 
ATOM     67  F   UNL A   1      41.118  28.426  26.323  1.00  0.00    -0.203 F 
ATOM     68  F   UNL A   1      40.705  23.284  27.780  1.00  0.00    -0.200 F 
ATOM     69  C   UNL A   1      41.535  24.947  26.374  1.00  0.00     0.200 A 
ATOM     70  F   UNL A   1      42.193  26.670  24.937  1.00  0.00    -0.200 F 
ATOM     71  F   UNL A   1      42.237  24.055  25.664  1.00  0.00    -0.200 F 
ENDBRANCH  47  61
BRANCH  48  72
ATOM     72  C   UNL A   1      41.830  33.316  35.353  1.00  0.00     0.064 A 
ATOM     73  C   UNL A   1      41.815  34.721  35.485  1.00  0.00     0.173 A 
ATOM     74  C   UNL A   1      41.228  32.596  36.397  1.00  0.00     0.173 A 
ATOM     75  F   UNL A   1      42.426  35.477  34.560  1.00  0.00    -0.203 F 
ATOM     76  C   UNL A   1      41.130  35.371  36.519  1.00  0.00     0.198 A 
ATOM     77  C   UNL A   1      40.558  33.249  37.454  1.00  0.00     0.198 A 
ATOM     78  F   UNL A   1      41.194  31.257  36.354  1.00  0.00    -0.203 F 
ATOM     79  F   UNL A   1      41.067  36.711  36.540  1.00  0.00    -0.200 F 
ATOM     80  C   UNL A   1      40.472  34.634  37.487  1.00  0.00     0.200 A 
ATOM     81  F   UNL A   1      39.915  32.530  38.385  1.00  0.00    -0.200 F 
ATOM     82  F   UNL A   1      39.738  35.256  38.421  1.00  0.00    -0.200 F 
ENDBRANCH  48  72
BRANCH  60  83
ATOM     83  C   UNL A   1      44.810  27.255  32.755  1.00  0.00     0.064 A 
ATOM     84  C   UNL A   1      46.036  27.056  32.106  1.00  0.00     0.173 A 
ATOM     85  C   UNL A   1      44.464  26.279  33.723  1.00  0.00     0.173 A 
ATOM     86  F   UNL A   1      46.516  27.951  31.232  1.00  0.00    -0.203 F 
ATOM     87  C   UNL A   1      46.839  25.945  32.382  1.00  0.00     0.198 A 
ATOM     88  C   UNL A   1      45.291  25.209  34.038  1.00  0.00     0.198 A 
ATOM     89  F   UNL A   1      43.316  26.342  34.411  1.00  0.00    -0.203 F 
ATOM     90  F   UNL A   1      47.987  25.776  31.713  1.00  0.00    -0.200 F 
ATOM     91  C   UNL A   1      46.476  25.035  33.359  1.00  0.00     0.200 A 
ATOM     92  F   UNL A   1      44.938  24.364  35.016  1.00  0.00    -0.200 F 
ATOM     93  F   UNL A   1      47.277  24.006  33.662  1.00  0.00    -0.200 F 
ENDBRANCH  60  83
ENDBRANCH  34  35
ENDBRANCH  27  29
ENDBRANCH  26  27
ENDBRANCH  25  26
ENDBRANCH  24  25
ENDBRANCH  23  24
ENDBRANCH   1  23
TORSDOF 18
ENDMDL
MODEL 2
REMARK VINA RESULT:     -12.5      9.014     16.207
REMARK SMILES Cc1cccc([C@H]2C(C(=O)OCCOCCOCCOC(=O)c3ccc(-c4c5nc(c(-c6c(F)c(F)c(F)c(F)c6F)c6ccc([nH]6)c(-c6c(F)c(F)c(F)c(F)c6F)c6nc(c(-c7c(F)c(F)c(F)c(F)c7F)c7ccc4[nH]7)C=C6)C=C5)cc3)CC(=O)N2C)c1
REMARK SMILES IDX 16 1 15 2 14 3 13 4 12 5 11 6 9 7 10 8 8 9 7 10 89 11 86 12
REMARK SMILES IDX 87 13 90 14 88 15 6 16 1 17 2 18 3 19 91 20 4 21 5 22 17 23
REMARK SMILES IDX 18 24 19 25 20 26 21 27 22 28 23 29 24 30 85 31 25 32 84 33
REMARK SMILES IDX 26 34 27 35 28 36 78 37 29 38 83 39 77 40 79 41 30 42 82 43
REMARK SMILES IDX 76 44 75 45 31 47 63 48 43 49 62 50 44 51 47 52 61 53 80 54
REMARK SMILES IDX 45 55 46 56 60 58 81 59 48 60 32 61 33 62 41 63 34 64 35 65
REMARK SMILES IDX 39 66 42 67 36 68 37 69 40 70 38 71 64 72 65 73 73 74 66 75
REMARK SMILES IDX 67 76 71 77 74 78 68 79 69 80 72 81 70 82 49 83 50 84 58 85
REMARK SMILES IDX 51 86 52 87 56 88 59 89 53 90 54 91 57 92 55 93
REMARK H PARENT 79 46 47 57
REMARK Flexibility Score: inf
ROOT
ATOM      1  C   UNL A   1      48.984  22.177  39.285  1.00  0.00     0.188 C 
ENDROOT
BRANCH   1   2
ATOM      2  C   UNL A   1      49.081  20.899  40.133  1.00  0.00     0.188 C 
BRANCH   2   3
ATOM      3  O   UNL A   1      50.294  20.211  39.910  1.00  0.00    -0.376 OA
BRANCH   3   4
ATOM      4  C   UNL A   1      50.459  19.084  40.754  1.00  0.00     0.202 C 
BRANCH   4   5
ATOM      5  C   UNL A   1      49.675  17.798  40.432  1.00  0.00     0.261 C 
BRANCH   5   6
ATOM      6  O   UNL A   1      48.017  17.626  40.660  1.00  0.00    -0.463 OA
BRANCH   6   7
ATOM      7  C   UNL A   1      46.852  16.816  41.012  1.00  0.00     0.312 C 
ATOM      8  O   UNL A   1      46.368  16.270  40.006  1.00  0.00    -0.252 OA
BRANCH   7   9
ATOM      9  C   UNL A   1      46.045  16.363  42.561  1.00  0.00     0.135 C 
ATOM     10  C   UNL A   1      45.740  15.348  44.018  1.00  0.00     0.130 C 
ATOM     11  N   UNL A   1      45.107  16.423  44.882  1.00  0.00    -0.338 N 
ATOM     12  C   UNL A   1      45.043  17.518  42.794  1.00  0.00     0.118 C 
ATOM     13  C   UNL A   1      44.720  17.580  44.240  1.00  0.00     0.223 C 
ATOM     14  C   UNL A   1      44.934  16.392  46.321  1.00  0.00     0.147 C 
ATOM     15  O   UNL A   1      44.139  18.527  44.753  1.00  0.00    -0.275 OA
BRANCH  10  16
ATOM     16  C   UNL A   1      44.908  13.910  44.400  1.00  0.00    -0.024 A 
ATOM     17  C   UNL A   1      41.104  12.045  42.776  1.00  0.00     0.044 C 
ATOM     18  C   UNL A   1      42.425  12.014  43.531  1.00  0.00    -0.051 A 
ATOM     19  C   UNL A   1      43.500  10.473  43.720  1.00  0.00     0.003 A 
ATOM     20  C   UNL A   1      43.136  13.693  43.927  1.00  0.00     0.009 A 
ATOM     21  C   UNL A   1      45.186  10.641  44.502  1.00  0.00     0.001 A 
ATOM     22  C   UNL A   1      45.875  12.384  44.800  1.00  0.00     0.006 A 
ENDBRANCH  10  16
ENDBRANCH   7   9
ENDBRANCH   6   7
ENDBRANCH   5   6
ENDBRANCH   4   5
ENDBRANCH   3   4
ENDBRANCH   2   3
ENDBRANCH   1   2
BRANCH   1  23
ATOM     23  O   UNL A   1      47.822  22.240  38.472  1.00  0.00    -0.376 OA
BRANCH  23  24
ATOM     24  C   UNL A   1      47.524  21.147  37.618  1.00  0.00     0.202 C 
BRANCH  24  25
ATOM     25  C   UNL A   1      48.343  21.248  36.327  1.00  0.00     0.261 C 
BRANCH  25  26
ATOM     26  O   UNL A   1      47.752  22.211  35.425  1.00  0.00    -0.460 OA
BRANCH  26  27
ATOM     27  C   UNL A   1      46.632  21.774  34.788  1.00  0.00     0.338 C 
ATOM     28  O   UNL A   1      46.582  20.843  34.001  1.00  0.00    -0.246 OA
BRANCH  27  29
ATOM     29  C   UNL A   1      45.574  22.813  34.943  1.00  0.00     0.060 A 
ATOM     30  C   UNL A   1      44.364  22.602  34.309  1.00  0.00     0.016 A 
ATOM     31  C   UNL A   1      45.895  24.106  35.352  1.00  0.00     0.016 A 
ATOM     32  C   UNL A   1      43.615  23.708  33.881  1.00  0.00     0.010 A 
ATOM     33  C   UNL A   1      45.186  25.193  34.831  1.00  0.00     0.010 A 
ATOM     34  C   UNL A   1      44.073  25.042  33.973  1.00  0.00    -0.014 A 
BRANCH  34  35
ATOM     35  C   UNL A   1      43.635  26.420  33.325  1.00  0.00     0.031 A 
ATOM     36  C   UNL A   1      42.959  27.168  34.407  1.00  0.00     0.074 A 
ATOM     37  C   UNL A   1      43.502  27.060  32.042  1.00  0.00     0.049 A 
ATOM     38  N   UNL A   1      42.936  28.436  34.474  1.00  0.00    -0.248 NA
ATOM     39  C   UNL A   1      42.192  26.505  35.442  1.00  0.00     0.031 C 
ATOM     40  C   UNL A   1      43.881  28.454  31.649  1.00  0.00     0.029 A 
ATOM     41  N   UNL A   1      43.381  26.617  30.705  1.00  0.00    -0.354 N 
ATOM     42  C   UNL A   1      41.527  28.824  34.909  1.00  0.00     0.074 A 
ATOM     43  C   UNL A   1      41.524  27.541  35.939  1.00  0.00     0.031 C 
ATOM     44  C   UNL A   1      43.556  28.719  30.346  1.00  0.00     0.029 A 
ATOM     45  C   UNL A   1      43.153  27.499  29.699  1.00  0.00     0.049 A 
ATOM     46  H   UNL A   1      43.464  25.657  30.502  1.00  0.00     0.167 HD
ATOM     47  C   UNL A   1      40.383  30.228  34.354  1.00  0.00     0.037 A 
ATOM     48  C   UNL A   1      42.588  27.165  28.505  1.00  0.00     0.037 A 
ATOM     49  C   UNL A   1      40.188  30.846  32.775  1.00  0.00     0.049 A 
ATOM     50  C   UNL A   1      41.429  28.057  28.202  1.00  0.00     0.074 A 
ATOM     51  C   UNL A   1      40.996  31.748  32.039  1.00  0.00     0.029 A 
ATOM     52  N   UNL A   1      39.283  30.322  31.844  1.00  0.00    -0.354 N 
ATOM     53  N   UNL A   1      40.889  28.810  29.115  1.00  0.00    -0.248 NA
ATOM     54  C   UNL A   1      40.718  28.097  26.925  1.00  0.00     0.031 C 
ATOM     55  C   UNL A   1      40.729  31.578  30.671  1.00  0.00     0.029 A 
ATOM     56  C   UNL A   1      39.678  30.689  30.560  1.00  0.00     0.049 A 
ATOM     57  H   UNL A   1      38.491  29.779  32.063  1.00  0.00     0.167 HD
ATOM     58  C   UNL A   1      39.775  29.412  28.584  1.00  0.00     0.074 A 
ATOM     59  C   UNL A   1      39.719  28.950  27.211  1.00  0.00     0.031 C 
ATOM     60  C   UNL A   1      39.013  30.246  29.349  1.00  0.00     0.037 A 
BRANCH  47  61
ATOM     61  C   UNL A   1      39.869  31.837  35.169  1.00  0.00     0.064 A 
ATOM     62  C   UNL A   1      40.860  32.719  35.728  1.00  0.00     0.173 A 
ATOM     63  C   UNL A   1      38.580  32.293  35.665  1.00  0.00     0.173 A 
ATOM     64  F   UNL A   1      42.068  32.889  35.177  1.00  0.00    -0.203 F 
ATOM     65  C   UNL A   1      40.654  33.605  36.819  1.00  0.00     0.198 A 
ATOM     66  C   UNL A   1      38.361  33.257  36.672  1.00  0.00     0.198 A 
ATOM     67  F   UNL A   1      37.402  31.776  35.323  1.00  0.00    -0.203 F 
ATOM     68  F   UNL A   1      41.703  34.231  37.376  1.00  0.00    -0.200 F 
ATOM     69  C   UNL A   1      39.403  33.858  37.308  1.00  0.00     0.200 A 
ATOM     70  F   UNL A   1      37.103  33.523  37.059  1.00  0.00    -0.200 F 
ATOM     71  F   UNL A   1      39.194  34.699  38.329  1.00  0.00    -0.200 F 
ENDBRANCH  47  61
BRANCH  48  72
ATOM     72  C   UNL A   1      42.697  25.743  28.013  1.00  0.00     0.064 A 
ATOM     73  C   UNL A   1      41.570  24.904  28.139  1.00  0.00     0.173 A 
ATOM     74  C   UNL A   1      43.765  25.223  27.264  1.00  0.00     0.173 A 
ATOM     75  F   UNL A   1      40.533  25.303  28.893  1.00  0.00    -0.203 F 
ATOM     76  C   UNL A   1      41.457  23.687  27.456  1.00  0.00     0.198 A 
ATOM     77  C   UNL A   1      43.664  23.985  26.595  1.00  0.00     0.198 A 
ATOM     78  F   UNL A   1      44.877  25.952  27.090  1.00  0.00    -0.203 F 
ATOM     79  F   UNL A   1      40.321  22.978  27.536  1.00  0.00    -0.200 F 
ATOM     80  C   UNL A   1      42.493  23.242  26.656  1.00  0.00     0.200 A 
ATOM     81  F   UNL A   1      44.668  23.562  25.812  1.00  0.00    -0.200 F 
ATOM     82  F   UNL A   1      42.347  22.126  25.927  1.00  0.00    -0.200 F 
ENDBRANCH  48  72
BRANCH  60  83
ATOM     83  C   UNL A   1      37.716  30.904  28.967  1.00  0.00     0.064 A 
ATOM     84  C   UNL A   1      37.524  32.289  28.875  1.00  0.00     0.173 A 
ATOM     85  C   UNL A   1      36.623  30.104  28.550  1.00  0.00     0.173 A 
ATOM     86  F   UNL A   1      38.510  33.151  29.158  1.00  0.00    -0.203 F 
ATOM     87  C   UNL A   1      36.316  32.832  28.427  1.00  0.00     0.198 A 
ATOM     88  C   UNL A   1      35.445  30.646  28.050  1.00  0.00     0.198 A 
ATOM     89  F   UNL A   1      36.668  28.766  28.595  1.00  0.00    -0.203 F 
ATOM     90  F   UNL A   1      36.163  34.163  28.386  1.00  0.00    -0.200 F 
ATOM     91  C   UNL A   1      35.287  32.013  27.997  1.00  0.00     0.200 A 
ATOM     92  F   UNL A   1      34.480  29.833  27.602  1.00  0.00    -0.200 F 
ATOM     93  F   UNL A   1      34.154  32.538  27.514  1.00  0.00    -0.200 F 
ENDBRANCH  60  83
ENDBRANCH  34  35
ENDBRANCH  27  29
ENDBRANCH  26  27
ENDBRANCH  25  26
ENDBRANCH  24  25
ENDBRANCH  23  24
ENDBRANCH   1  23
TORSDOF 18
ENDMDL
MODEL 3
REMARK VINA RESULT:     -12.4      1.753      2.489
REMARK SMILES Cc1cccc([C@H]2C(C(=O)OCCOCCOCCOC(=O)c3ccc(-c4c5nc(c(-c6c(F)c(F)c(F)c(F)c6F)c6ccc([nH]6)c(-c6c(F)c(F)c(F)c(F)c6F)c6nc(c(-c7c(F)c(F)c(F)c(F)c7F)c7ccc4[nH]7)C=C6)C=C5)cc3)CC(=O)N2C)c1
REMARK SMILES IDX 16 1 15 2 14 3 13 4 12 5 11 6 9 7 10 8 8 9 7 10 89 11 86 12
REMARK SMILES IDX 87 13 90 14 88 15 6 16 1 17 2 18 3 19 91 20 4 21 5 22 17 23
REMARK SMILES IDX 18 24 19 25 20 26 21 27 22 28 23 29 24 30 85 31 25 32 84 33
REMARK SMILES IDX 26 34 27 35 28 36 78 37 29 38 83 39 77 40 79 41 30 42 82 43
REMARK SMILES IDX 76 44 75 45 31 47 63 48 43 49 62 50 44 51 47 52 61 53 80 54
REMARK SMILES IDX 45 55 46 56 60 58 81 59 48 60 32 61 33 62 41 63 34 64 35 65
REMARK SMILES IDX 39 66 42 67 36 68 37 69 40 70 38 71 64 72 65 73 73 74 66 75
REMARK SMILES IDX 67 76 71 77 74 78 68 79 69 80 72 81 70 82 49 83 50 84 58 85
REMARK SMILES IDX 51 86 52 87 56 88 59 89 53 90 54 91 57 92 55 93
REMARK H PARENT 79 46 47 57
REMARK Flexibility Score: inf
ROOT
ATOM      1  C   UNL A   1      32.960  35.744  29.555  1.00  0.00     0.188 C 
ENDROOT
BRANCH   1   2
ATOM      2  C   UNL A   1      33.952  35.900  28.392  1.00  0.00     0.188 C 
BRANCH   2   3
ATOM      3  O   UNL A   1      34.168  34.678  27.717  1.00  0.00    -0.376 OA
BRANCH   3   4
ATOM      4  C   UNL A   1      33.324  33.633  28.172  1.00  0.00     0.202 C 
BRANCH   4   5
ATOM      5  C   UNL A   1      32.200  33.135  27.245  1.00  0.00     0.261 C 
BRANCH   5   6
ATOM      6  O   UNL A   1      32.034  31.539  26.742  1.00  0.00    -0.463 OA
BRANCH   6   7
ATOM      7  C   UNL A   1      32.595  30.214  26.485  1.00  0.00     0.312 C 
ATOM      8  O   UNL A   1      33.742  30.116  26.954  1.00  0.00    -0.252 OA
BRANCH   7   9
ATOM      9  C   UNL A   1      31.965  28.692  25.748  1.00  0.00     0.135 C 
ATOM     10  C   UNL A   1      31.438  26.969  25.735  1.00  0.00     0.130 C 
ATOM     11  N   UNL A   1      30.564  27.036  24.496  1.00  0.00    -0.338 N 
ATOM     12  C   UNL A   1      31.705  29.088  24.275  1.00  0.00     0.118 C 
ATOM     13  C   UNL A   1      30.705  28.155  23.704  1.00  0.00     0.223 C 
ATOM     14  C   UNL A   1      29.545  26.085  24.099  1.00  0.00     0.147 C 
ATOM     15  O   UNL A   1      30.137  28.358  22.639  1.00  0.00    -0.275 OA
BRANCH  10  16
ATOM     16  C   UNL A   1      32.168  25.429  25.693  1.00  0.00    -0.024 A 
ATOM     17  C   UNL A   1      36.500  24.092  25.507  1.00  0.00     0.044 C 
ATOM     18  C   UNL A   1      35.016  23.879  25.768  1.00  0.00    -0.051 A 
ATOM     19  C   UNL A   1      34.326  22.614  26.989  1.00  0.00     0.003 A 
ATOM     20  C   UNL A   1      33.908  25.227  25.105  1.00  0.00     0.009 A 
ATOM     21  C   UNL A   1      32.493  22.611  27.343  1.00  0.00     0.001 A 
ATOM     22  C   UNL A   1      31.446  24.058  26.704  1.00  0.00     0.006 A 
ENDBRANCH  10  16
ENDBRANCH   7   9
ENDBRANCH   6   7
ENDBRANCH   5   6
ENDBRANCH   4   5
ENDBRANCH   3   4
ENDBRANCH   2   3
ENDBRANCH   1   2
BRANCH   1  23
ATOM     23  O   UNL A   1      32.842  36.900  30.369  1.00  0.00    -0.376 OA
BRANCH  23  24
ATOM     24  C   UNL A   1      33.346  36.859  31.695  1.00  0.00     0.202 C 
BRANCH  24  25
ATOM     25  C   UNL A   1      33.105  35.476  32.308  1.00  0.00     0.261 C 
BRANCH  25  26
ATOM     26  O   UNL A   1      34.360  34.853  32.664  1.00  0.00    -0.460 OA
BRANCH  26  27
ATOM     27  C   UNL A   1      34.667  33.746  31.933  1.00  0.00     0.338 C 
ATOM     28  O   UNL A   1      34.032  32.705  31.922  1.00  0.00    -0.246 OA
BRANCH  27  29
ATOM     29  C   UNL A   1      36.064  33.896  31.432  1.00  0.00     0.060 A 
ATOM     30  C   UNL A   1      36.326  33.510  30.130  1.00  0.00     0.016 A 
ATOM     31  C   UNL A   1      37.133  34.027  32.316  1.00  0.00     0.016 A 
ATOM     32  C   UNL A   1      37.604  33.031  29.804  1.00  0.00     0.010 A 
ATOM     33  C   UNL A   1      38.368  33.455  31.998  1.00  0.00     0.010 A 
ATOM     34  C   UNL A   1      38.626  32.825  30.759  1.00  0.00    -0.014 A 
BRANCH  34  35
ATOM     35  C   UNL A   1      40.000  32.037  30.770  1.00  0.00     0.031 A 
ATOM     36  C   UNL A   1      39.851  30.969  29.759  1.00  0.00     0.074 A 
ATOM     37  C   UNL A   1      41.204  31.900  31.549  1.00  0.00     0.049 A 
ATOM     38  N   UNL A   1      40.825  30.484  29.104  1.00  0.00    -0.248 NA
ATOM     39  C   UNL A   1      38.579  30.329  29.493  1.00  0.00     0.031 C 
ATOM     40  C   UNL A   1      42.620  31.815  31.072  1.00  0.00     0.029 A 
ATOM     41  N   UNL A   1      41.572  32.169  32.887  1.00  0.00    -0.354 N 
ATOM     42  C   UNL A   1      40.595  28.977  29.034  1.00  0.00     0.074 A 
ATOM     43  C   UNL A   1      38.990  29.262  28.815  1.00  0.00     0.031 C 
ATOM     44  C   UNL A   1      43.495  31.637  32.111  1.00  0.00     0.029 A 
ATOM     45  C   UNL A   1      42.794  31.810  33.356  1.00  0.00     0.049 A 
ATOM     46  H   UNL A   1      40.935  32.622  33.485  1.00  0.00     0.167 HD
ATOM     47  C   UNL A   1      41.791  27.516  29.192  1.00  0.00     0.037 A 
ATOM     48  C   UNL A   1      43.078  31.609  34.674  1.00  0.00     0.037 A 
ATOM     49  C   UNL A   1      43.129  27.378  30.242  1.00  0.00     0.049 A 
ATOM     50  C   UNL A   1      43.718  30.276  34.878  1.00  0.00     0.074 A 
ATOM     51  C   UNL A   1      44.434  27.921  30.137  1.00  0.00     0.029 A 
ATOM     52  N   UNL A   1      43.040  26.889  31.551  1.00  0.00    -0.354 N 
ATOM     53  N   UNL A   1      43.696  29.359  33.956  1.00  0.00    -0.248 NA
ATOM     54  C   UNL A   1      44.315  29.820  36.132  1.00  0.00     0.031 C 
ATOM     55  C   UNL A   1      45.008  27.963  31.418  1.00  0.00     0.029 A 
ATOM     56  C   UNL A   1      44.136  27.334  32.285  1.00  0.00     0.049 A 
ATOM     57  H   UNL A   1      42.316  26.319  31.898  1.00  0.00     0.167 HD
ATOM     58  C   UNL A   1      44.241  28.208  34.468  1.00  0.00     0.074 A 
ATOM     59  C   UNL A   1      44.628  28.550  35.824  1.00  0.00     0.031 C 
ATOM     60  C   UNL A   1      44.320  27.082  33.702  1.00  0.00     0.037 A 
BRANCH  47  61
ATOM     61  C   UNL A   1      42.515  26.333  27.930  1.00  0.00     0.064 A 
ATOM     62  C   UNL A   1      42.463  24.912  28.152  1.00  0.00     0.173 A 
ATOM     63  C   UNL A   1      43.449  26.549  26.837  1.00  0.00     0.173 A 
ATOM     64  F   UNL A   1      41.428  24.312  28.751  1.00  0.00    -0.203 F 
ATOM     65  C   UNL A   1      43.402  23.965  27.659  1.00  0.00     0.198 A 
ATOM     66  C   UNL A   1      44.307  25.587  26.263  1.00  0.00     0.198 A 
ATOM     67  F   UNL A   1      43.724  27.731  26.287  1.00  0.00    -0.203 F 
ATOM     68  F   UNL A   1      43.359  22.696  28.094  1.00  0.00    -0.200 F 
ATOM     69  C   UNL A   1      44.342  24.310  26.728  1.00  0.00     0.200 A 
ATOM     70  F   UNL A   1      45.158  25.966  25.295  1.00  0.00    -0.200 F 
ATOM     71  F   UNL A   1      45.224  23.424  26.247  1.00  0.00    -0.200 F 
ENDBRANCH  47  61
BRANCH  48  72
ATOM     72  C   UNL A   1      42.236  32.300  35.719  1.00  0.00     0.064 A 
ATOM     73  C   UNL A   1      42.600  33.605  36.113  1.00  0.00     0.173 A 
ATOM     74  C   UNL A   1      41.005  31.834  36.207  1.00  0.00     0.173 A 
ATOM     75  F   UNL A   1      43.791  34.098  35.741  1.00  0.00    -0.203 F 
ATOM     76  C   UNL A   1      41.737  34.441  36.832  1.00  0.00     0.198 A 
ATOM     77  C   UNL A   1      40.144  32.666  36.953  1.00  0.00     0.198 A 
ATOM     78  F   UNL A   1      40.578  30.605  35.882  1.00  0.00    -0.203 F 
ATOM     79  F   UNL A   1      42.096  35.706  37.095  1.00  0.00    -0.200 F 
ATOM     80  C   UNL A   1      40.493  33.982  37.225  1.00  0.00     0.200 A 
ATOM     81  F   UNL A   1      38.935  32.219  37.324  1.00  0.00    -0.200 F 
ATOM     82  F   UNL A   1      39.630  34.812  37.829  1.00  0.00    -0.200 F 
ENDBRANCH  48  72
BRANCH  60  83
ATOM     83  C   UNL A   1      44.788  25.719  34.128  1.00  0.00     0.064 A 
ATOM     84  C   UNL A   1      43.944  24.684  34.553  1.00  0.00     0.173 A 
ATOM     85  C   UNL A   1      46.157  25.377  33.994  1.00  0.00     0.173 A 
ATOM     86  F   UNL A   1      42.618  24.854  34.638  1.00  0.00    -0.203 F 
ATOM     87  C   UNL A   1      44.440  23.410  34.850  1.00  0.00     0.198 A 
ATOM     88  C   UNL A   1      46.637  24.095  34.234  1.00  0.00     0.198 A 
ATOM     89  F   UNL A   1      47.075  26.272  33.605  1.00  0.00    -0.203 F 
ATOM     90  F   UNL A   1      43.602  22.459  35.286  1.00  0.00    -0.200 F 
ATOM     91  C   UNL A   1      45.779  23.112  34.672  1.00  0.00     0.200 A 
ATOM     92  F   UNL A   1      47.930  23.820  34.015  1.00  0.00    -0.200 F 
ATOM     93  F   UNL A   1      46.238  21.876  34.902  1.00  0.00    -0.200 F 
ENDBRANCH  60  83
ENDBRANCH  34  35
ENDBRANCH  27  29
ENDBRANCH  26  27
ENDBRANCH  25  26
ENDBRANCH  24  25
ENDBRANCH  23  24
ENDBRANCH   1  23
TORSDOF 18
ENDMDL
