MODEL 1
REMARK VINA RESULT:     -11.1      0.000      0.000
REMARK SMILES COc1ccc(Cc2ncc(C(=O)OCCOCCOCCOC(=O)c3ccc(-c4c5nc(c(-c6c(F)c(F)c(F)c(F)c6F)c6ccc([nH]6)c(-c6c(F)c(F)c(F)c(F)c6F)c6nc(c(-c7c(F)c(F)c(F)c(F)c7F)c7ccc4[nH]7)C=C6)C=C5)cc3)c(C)n2)cn1
REMARK SMILES IDX 18 1 17 2 16 3 15 4 14 5 12 6 13 7 11 8 8 9 9 10 91 11 10 12
REMARK SMILES IDX 89 13 90 14 7 15 6 16 3 17 4 18 93 19 5 20 92 21 2 22 1 23
REMARK SMILES IDX 19 24 20 25 21 26 22 27 23 28 24 29 25 30 26 31 27 32 88 33
REMARK SMILES IDX 28 34 87 35 29 36 30 37 31 38 81 39 32 40 86 41 80 42 82 43
REMARK SMILES IDX 33 44 85 45 79 46 78 47 34 49 66 50 46 51 65 52 47 53 50 54
REMARK SMILES IDX 64 55 83 56 48 57 49 58 63 60 84 61 51 62 35 63 36 64 44 65
REMARK SMILES IDX 37 66 38 67 42 68 45 69 39 70 40 71 43 72 41 73 67 74 68 75
REMARK SMILES IDX 76 76 69 77 70 78 74 79 77 80 71 81 72 82 75 83 73 84 52 85
REMARK SMILES IDX 53 86 61 87 54 88 55 89 59 90 62 91 56 92 57 93 60 94 58 95
REMARK H PARENT 82 48 50 59
REMARK Flexibility Score: inf
ROOT
ATOM      1  C   UNL A   1      39.654  21.646  26.159  1.00  0.00     0.188 C 
ENDROOT
BRANCH   1   2
ATOM      2  O   UNL A   1      38.419  21.089  25.715  1.00  0.00    -0.376 OA
BRANCH   2   3
ATOM      3  C   UNL A   1      37.558  21.870  24.889  1.00  0.00     0.202 C 
BRANCH   3   4
ATOM      4  C   UNL A   1      37.324  23.338  25.273  1.00  0.00     0.261 C 
BRANCH   4   5
ATOM      5  O   UNL A   1      36.277  23.510  26.248  1.00  0.00    -0.460 OA
BRANCH   5   6
ATOM      6  C   UNL A   1      35.258  22.622  26.191  1.00  0.00     0.341 C 
ATOM      7  O   UNL A   1      35.262  21.485  26.633  1.00  0.00    -0.246 OA
BRANCH   6   8
ATOM      8  C   UNL A   1      34.020  23.268  25.725  1.00  0.00     0.099 A 
ATOM      9  C   UNL A   1      31.628  24.446  25.152  1.00  0.00     0.133 A 
ATOM     10  N   UNL A   1      31.926  24.238  26.447  1.00  0.00    -0.240 NA
ATOM     11  N   UNL A   1      32.459  24.141  24.130  1.00  0.00    -0.237 NA
ATOM     12  C   UNL A   1      33.113  23.644  26.699  1.00  0.00     0.130 A 
ATOM     13  C   UNL A   1      33.658  23.561  24.422  1.00  0.00     0.056 A 
ATOM     14  C   UNL A   1      34.497  23.209  23.230  1.00  0.00     0.068 C 
BRANCH   9  15
ATOM     15  C   UNL A   1      30.240  24.947  24.824  1.00  0.00     0.114 C 
BRANCH  15  16
ATOM     16  C   UNL A   1      30.157  26.390  24.398  1.00  0.00    -0.022 A 
ATOM     17  C   UNL A   1      29.972  28.990  23.514  1.00  0.00     0.212 A 
ATOM     18  C   UNL A   1      31.085  28.615  24.254  1.00  0.00     0.069 A 
ATOM     19  N   UNL A   1      28.962  28.145  23.223  1.00  0.00    -0.222 NA
ATOM     20  C   UNL A   1      31.177  27.296  24.696  1.00  0.00     0.011 A 
ATOM     21  C   UNL A   1      29.081  26.869  23.657  1.00  0.00     0.119 A 
BRANCH  17  22
ATOM     22  O   UNL A   1      29.772  30.280  23.100  1.00  0.00    -0.481 OA
ATOM     23  C   UNL A   1      28.395  30.635  23.039  1.00  0.00     0.280 C 
ENDBRANCH  17  22
ENDBRANCH  15  16
ENDBRANCH   9  15
ENDBRANCH   6   8
ENDBRANCH   5   6
ENDBRANCH   4   5
ENDBRANCH   3   4
ENDBRANCH   2   3
ENDBRANCH   1   2
BRANCH   1  24
ATOM     24  C   UNL A   1      40.707  20.728  26.816  1.00  0.00     0.188 C 
BRANCH  24  25
ATOM     25  O   UNL A   1      41.343  19.859  25.902  1.00  0.00    -0.376 OA
BRANCH  25  26
ATOM     26  C   UNL A   1      42.722  20.069  25.649  1.00  0.00     0.202 C 
BRANCH  26  27
ATOM     27  C   UNL A   1      43.351  21.461  25.857  1.00  0.00     0.261 C 
BRANCH  27  28
ATOM     28  O   UNL A   1      42.855  22.534  25.042  1.00  0.00    -0.460 OA
BRANCH  28  29
ATOM     29  C   UNL A   1      43.605  23.658  24.971  1.00  0.00     0.338 C 
ATOM     30  O   UNL A   1      44.523  23.881  24.207  1.00  0.00    -0.246 OA
BRANCH  29  31
ATOM     31  C   UNL A   1      43.009  24.656  25.888  1.00  0.00     0.060 A 
ATOM     32  C   UNL A   1      43.587  25.929  25.980  1.00  0.00     0.016 A 
ATOM     33  C   UNL A   1      41.891  24.331  26.659  1.00  0.00     0.016 A 
ATOM     34  C   UNL A   1      43.061  26.874  26.867  1.00  0.00     0.010 A 
ATOM     35  C   UNL A   1      41.376  25.270  27.558  1.00  0.00     0.010 A 
ATOM     36  C   UNL A   1      41.975  26.537  27.689  1.00  0.00    -0.014 A 
BRANCH  36  37
ATOM     37  C   UNL A   1      41.581  27.429  28.809  1.00  0.00     0.031 A 
ATOM     38  C   UNL A   1      42.367  27.356  30.090  1.00  0.00     0.074 A 
ATOM     39  C   UNL A   1      40.553  28.288  28.699  1.00  0.00     0.049 A 
ATOM     40  N   UNL A   1      42.171  27.975  31.227  1.00  0.00    -0.248 NA
ATOM     41  C   UNL A   1      43.529  26.452  30.089  1.00  0.00     0.031 C 
ATOM     42  C   UNL A   1      39.738  28.484  27.503  1.00  0.00     0.029 A 
ATOM     43  N   UNL A   1      40.015  29.153  29.620  1.00  0.00    -0.354 N 
ATOM     44  C   UNL A   1      43.189  27.544  32.069  1.00  0.00     0.074 A 
ATOM     45  C   UNL A   1      43.972  26.577  31.331  1.00  0.00     0.031 C 
ATOM     46  C   UNL A   1      38.792  29.403  27.767  1.00  0.00     0.029 A 
ATOM     47  C   UNL A   1      38.916  29.835  29.159  1.00  0.00     0.049 A 
ATOM     48  H   UNL A   1      40.381  29.272  30.526  1.00  0.00     0.167 HD
ATOM     49  C   UNL A   1      43.455  27.930  33.339  1.00  0.00     0.037 A 
ATOM     50  C   UNL A   1      38.095  30.693  29.798  1.00  0.00     0.037 A 
ATOM     51  C   UNL A   1      42.673  28.884  34.080  1.00  0.00     0.049 A 
ATOM     52  C   UNL A   1      38.360  31.038  31.244  1.00  0.00     0.074 A 
ATOM     53  C   UNL A   1      42.855  29.330  35.376  1.00  0.00     0.029 A 
ATOM     54  N   UNL A   1      41.554  29.536  33.585  1.00  0.00    -0.354 N 
ATOM     55  N   UNL A   1      39.331  30.638  32.029  1.00  0.00    -0.248 NA
ATOM     56  C   UNL A   1      37.414  31.960  31.890  1.00  0.00     0.031 C 
ATOM     57  C   UNL A   1      41.819  30.220  35.682  1.00  0.00     0.029 A 
ATOM     58  C   UNL A   1      41.025  30.369  34.558  1.00  0.00     0.049 A 
ATOM     59  H   UNL A   1      41.189  29.425  32.677  1.00  0.00     0.167 HD
ATOM     60  C   UNL A   1      39.136  31.287  33.242  1.00  0.00     0.074 A 
ATOM     61  C   UNL A   1      37.959  32.115  33.088  1.00  0.00     0.031 C 
ATOM     62  C   UNL A   1      39.866  31.206  34.381  1.00  0.00     0.037 A 
BRANCH  49  63
ATOM     63  C   UNL A   1      44.640  27.302  34.016  1.00  0.00     0.064 A 
ATOM     64  C   UNL A   1      45.903  27.913  33.996  1.00  0.00     0.173 A 
ATOM     65  C   UNL A   1      44.503  26.096  34.717  1.00  0.00     0.173 A 
ATOM     66  F   UNL A   1      46.089  29.060  33.329  1.00  0.00    -0.203 F 
ATOM     67  C   UNL A   1      46.993  27.323  34.633  1.00  0.00     0.198 A 
ATOM     68  C   UNL A   1      45.588  25.525  35.378  1.00  0.00     0.198 A 
ATOM     69  F   UNL A   1      43.316  25.474  34.770  1.00  0.00    -0.203 F 
ATOM     70  F   UNL A   1      48.200  27.899  34.563  1.00  0.00    -0.200 F 
ATOM     71  C   UNL A   1      46.832  26.134  35.330  1.00  0.00     0.200 A 
ATOM     72  F   UNL A   1      45.428  24.384  36.063  1.00  0.00    -0.200 F 
ATOM     73  F   UNL A   1      47.879  25.573  35.949  1.00  0.00    -0.200 F 
ENDBRANCH  49  63
BRANCH  50  74
ATOM     74  C   UNL A   1      36.925  31.282  29.091  1.00  0.00     0.064 A 
ATOM     75  C   UNL A   1      36.900  32.639  28.738  1.00  0.00     0.173 A 
ATOM     76  C   UNL A   1      35.787  30.515  28.802  1.00  0.00     0.173 A 
ATOM     77  F   UNL A   1      37.951  33.424  29.019  1.00  0.00    -0.203 F 
ATOM     78  C   UNL A   1      35.772  33.212  28.153  1.00  0.00     0.198 A 
ATOM     79  C   UNL A   1      34.671  31.082  28.188  1.00  0.00     0.198 A 
ATOM     80  F   UNL A   1      35.753  29.214  29.125  1.00  0.00    -0.203 F 
ATOM     81  F   UNL A   1      35.752  34.525  27.885  1.00  0.00    -0.200 F 
ATOM     82  C   UNL A   1      34.660  32.432  27.875  1.00  0.00     0.200 A 
ATOM     83  F   UNL A   1      33.601  30.322  27.915  1.00  0.00    -0.200 F 
ATOM     84  F   UNL A   1      33.573  32.984  27.320  1.00  0.00    -0.200 F 
ENDBRANCH  50  74
BRANCH  62  85
ATOM     85  C   UNL A   1      39.451  32.075  35.535  1.00  0.00     0.064 A 
ATOM     86  C   UNL A   1      39.928  33.386  35.685  1.00  0.00     0.173 A 
ATOM     87  C   UNL A   1      38.528  31.601  36.481  1.00  0.00     0.173 A 
ATOM     88  F   UNL A   1      40.821  33.883  34.816  1.00  0.00    -0.203 F 
ATOM     89  C   UNL A   1      39.519  34.179  36.755  1.00  0.00     0.198 A 
ATOM     90  C   UNL A   1      38.097  32.407  37.531  1.00  0.00     0.198 A 
ATOM     91  F   UNL A   1      38.032  30.359  36.380  1.00  0.00    -0.203 F 
ATOM     92  F   UNL A   1      40.026  35.410  36.906  1.00  0.00    -0.200 F 
ATOM     93  C   UNL A   1      38.598  33.692  37.672  1.00  0.00     0.200 A 
ATOM     94  F   UNL A   1      37.196  31.941  38.407  1.00  0.00    -0.200 F 
ATOM     95  F   UNL A   1      38.201  34.459  38.695  1.00  0.00    -0.200 F 
ENDBRANCH  62  85
ENDBRANCH  36  37
ENDBRANCH  29  31
ENDBRANCH  28  29
ENDBRANCH  27  28
ENDBRANCH  26  27
ENDBRANCH  25  26
ENDBRANCH  24  25
ENDBRANCH   1  24
TORSDOF 20
ENDMDL
MODEL 2
REMARK VINA RESULT:     -10.9      4.942      7.048
REMARK SMILES COc1ccc(Cc2ncc(C(=O)OCCOCCOCCOC(=O)c3ccc(-c4c5nc(c(-c6c(F)c(F)c(F)c(F)c6F)c6ccc([nH]6)c(-c6c(F)c(F)c(F)c(F)c6F)c6nc(c(-c7c(F)c(F)c(F)c(F)c7F)c7ccc4[nH]7)C=C6)C=C5)cc3)c(C)n2)cn1
REMARK SMILES IDX 18 1 17 2 16 3 15 4 14 5 12 6 13 7 11 8 8 9 9 10 91 11 10 12
REMARK SMILES IDX 89 13 90 14 7 15 6 16 3 17 4 18 93 19 5 20 92 21 2 22 1 23
REMARK SMILES IDX 19 24 20 25 21 26 22 27 23 28 24 29 25 30 26 31 27 32 88 33
REMARK SMILES IDX 28 34 87 35 29 36 30 37 31 38 81 39 32 40 86 41 80 42 82 43
REMARK SMILES IDX 33 44 85 45 79 46 78 47 34 49 66 50 46 51 65 52 47 53 50 54
REMARK SMILES IDX 64 55 83 56 48 57 49 58 63 60 84 61 51 62 35 63 36 64 44 65
REMARK SMILES IDX 37 66 38 67 42 68 45 69 39 70 40 71 43 72 41 73 67 74 68 75
REMARK SMILES IDX 76 76 69 77 70 78 74 79 77 80 71 81 72 82 75 83 73 84 52 85
REMARK SMILES IDX 53 86 61 87 54 88 55 89 59 90 62 91 56 92 57 93 60 94 58 95
REMARK H PARENT 82 48 50 59
REMARK Flexibility Score: inf
ROOT
ATOM      1  C   UNL A   1      40.575  22.309  26.134  1.00  0.00     0.188 C 
ENDROOT
BRANCH   1   2
ATOM      2  O   UNL A   1      39.673  22.948  27.034  1.00  0.00    -0.376 OA
BRANCH   2   3
ATOM      3  C   UNL A   1      38.540  23.640  26.512  1.00  0.00     0.202 C 
BRANCH   3   4
ATOM      4  C   UNL A   1      37.541  22.849  25.655  1.00  0.00     0.261 C 
BRANCH   4   5
ATOM      5  O   UNL A   1      36.205  22.851  26.194  1.00  0.00    -0.460 OA
BRANCH   5   6
ATOM      6  C   UNL A   1      35.241  22.329  25.401  1.00  0.00     0.341 C 
ATOM      7  O   UNL A   1      35.251  21.229  24.874  1.00  0.00    -0.246 OA
BRANCH   6   8
ATOM      8  C   UNL A   1      34.030  23.166  25.421  1.00  0.00     0.099 A 
ATOM      9  C   UNL A   1      31.896  24.850  25.205  1.00  0.00     0.133 A 
ATOM     10  N   UNL A   1      32.771  24.818  24.184  1.00  0.00    -0.240 NA
ATOM     11  N   UNL A   1      31.995  24.070  26.305  1.00  0.00    -0.237 NA
ATOM     12  C   UNL A   1      33.822  23.982  24.324  1.00  0.00     0.130 A 
ATOM     13  C   UNL A   1      33.058  23.223  26.404  1.00  0.00     0.056 A 
ATOM     14  C   UNL A   1      33.120  22.432  27.677  1.00  0.00     0.068 C 
BRANCH   9  15
ATOM     15  C   UNL A   1      30.805  25.896  25.162  1.00  0.00     0.114 C 
BRANCH  15  16
ATOM     16  C   UNL A   1      31.193  27.258  25.677  1.00  0.00    -0.022 A 
ATOM     17  C   UNL A   1      31.976  29.756  26.528  1.00  0.00     0.212 A 
ATOM     18  C   UNL A   1      31.856  28.739  27.465  1.00  0.00     0.069 A 
ATOM     19  N   UNL A   1      31.708  29.584  25.218  1.00  0.00    -0.222 NA
ATOM     20  C   UNL A   1      31.463  27.474  27.030  1.00  0.00     0.011 A 
ATOM     21  C   UNL A   1      31.336  28.345  24.820  1.00  0.00     0.119 A 
BRANCH  17  22
ATOM     22  O   UNL A   1      32.291  31.041  26.882  1.00  0.00    -0.481 OA
ATOM     23  C   UNL A   1      33.570  31.148  27.496  1.00  0.00     0.280 C 
ENDBRANCH  17  22
ENDBRANCH  15  16
ENDBRANCH   9  15
ENDBRANCH   6   8
ENDBRANCH   5   6
ENDBRANCH   4   5
ENDBRANCH   3   4
ENDBRANCH   2   3
ENDBRANCH   1   2
BRANCH   1  24
ATOM     24  C   UNL A   1      41.493  21.183  26.654  1.00  0.00     0.188 C 
BRANCH  24  25
ATOM     25  O   UNL A   1      41.709  20.155  25.711  1.00  0.00    -0.376 OA
BRANCH  25  26
ATOM     26  C   UNL A   1      42.291  18.948  26.178  1.00  0.00     0.202 C 
BRANCH  26  27
ATOM     27  C   UNL A   1      43.567  18.391  25.516  1.00  0.00     0.261 C 
BRANCH  27  28
ATOM     28  O   UNL A   1      43.946  18.948  24.248  1.00  0.00    -0.460 OA
BRANCH  28  29
ATOM     29  C   UNL A   1      45.150  19.560  24.174  1.00  0.00     0.338 C 
ATOM     30  O   UNL A   1      46.158  19.137  23.643  1.00  0.00    -0.246 OA
BRANCH  29  31
ATOM     31  C   UNL A   1      44.993  20.929  24.715  1.00  0.00     0.060 A 
ATOM     32  C   UNL A   1      44.552  21.953  23.867  1.00  0.00     0.016 A 
ATOM     33  C   UNL A   1      45.291  21.200  26.053  1.00  0.00     0.016 A 
ATOM     34  C   UNL A   1      44.432  23.259  24.350  1.00  0.00     0.010 A 
ATOM     35  C   UNL A   1      45.189  22.510  26.531  1.00  0.00     0.010 A 
ATOM     36  C   UNL A   1      44.786  23.552  25.676  1.00  0.00    -0.014 A 
BRANCH  36  37
ATOM     37  C   UNL A   1      44.916  24.964  26.119  1.00  0.00     0.031 A 
ATOM     38  C   UNL A   1      46.272  25.614  26.045  1.00  0.00     0.074 A 
ATOM     39  C   UNL A   1      43.861  25.661  26.575  1.00  0.00     0.049 A 
ATOM     40  N   UNL A   1      46.651  26.803  26.440  1.00  0.00    -0.248 NA
ATOM     41  C   UNL A   1      47.348  24.806  25.450  1.00  0.00     0.031 C 
ATOM     42  C   UNL A   1      42.491  25.162  26.660  1.00  0.00     0.029 A 
ATOM     43  N   UNL A   1      43.785  26.943  27.063  1.00  0.00    -0.354 N 
ATOM     44  C   UNL A   1      48.003  26.887  26.133  1.00  0.00     0.074 A 
ATOM     45  C   UNL A   1      48.390  25.615  25.562  1.00  0.00     0.031 C 
ATOM     46  C   UNL A   1      41.710  26.124  27.184  1.00  0.00     0.029 A 
ATOM     47  C   UNL A   1      42.531  27.293  27.499  1.00  0.00     0.049 A 
ATOM     48  H   UNL A   1      44.557  27.552  27.099  1.00  0.00     0.167 HD
ATOM     49  C   UNL A   1      48.844  27.935  26.298  1.00  0.00     0.037 A 
ATOM     50  C   UNL A   1      42.105  28.420  28.103  1.00  0.00     0.037 A 
ATOM     51  C   UNL A   1      48.466  29.198  26.875  1.00  0.00     0.049 A 
ATOM     52  C   UNL A   1      43.084  29.541  28.359  1.00  0.00     0.074 A 
ATOM     53  C   UNL A   1      49.249  30.316  27.097  1.00  0.00     0.029 A 
ATOM     54  N   UNL A   1      47.191  29.505  27.324  1.00  0.00    -0.354 N 
ATOM     55  N   UNL A   1      44.357  29.620  28.054  1.00  0.00    -0.248 NA
ATOM     56  C   UNL A   1      42.562  30.735  29.043  1.00  0.00     0.031 C 
ATOM     57  C   UNL A   1      48.458  31.286  27.723  1.00  0.00     0.029 A 
ATOM     58  C   UNL A   1      47.170  30.792  27.840  1.00  0.00     0.049 A 
ATOM     59  H   UNL A   1      46.415  28.901  27.284  1.00  0.00     0.167 HD
ATOM     60  C   UNL A   1      44.774  30.878  28.469  1.00  0.00     0.074 A 
ATOM     61  C   UNL A   1      43.619  31.534  29.040  1.00  0.00     0.031 C 
ATOM     62  C   UNL A   1      46.005  31.441  28.384  1.00  0.00     0.037 A 
BRANCH  49  63
ATOM     63  C   UNL A   1      50.269  27.751  25.861  1.00  0.00     0.064 A 
ATOM     64  C   UNL A   1      51.290  27.483  26.785  1.00  0.00     0.173 A 
ATOM     65  C   UNL A   1      50.610  27.809  24.502  1.00  0.00     0.173 A 
ATOM     66  F   UNL A   1      51.018  27.429  28.097  1.00  0.00    -0.203 F 
ATOM     67  C   UNL A   1      52.607  27.307  26.366  1.00  0.00     0.198 A 
ATOM     68  C   UNL A   1      51.923  27.602  24.084  1.00  0.00     0.198 A 
ATOM     69  F   UNL A   1      49.671  28.057  23.578  1.00  0.00    -0.203 F 
ATOM     70  F   UNL A   1      53.574  27.098  27.270  1.00  0.00    -0.200 F 
ATOM     71  C   UNL A   1      52.920  27.359  25.016  1.00  0.00     0.200 A 
ATOM     72  F   UNL A   1      52.222  27.639  22.778  1.00  0.00    -0.200 F 
ATOM     73  F   UNL A   1      54.186  27.181  24.613  1.00  0.00    -0.200 F 
ENDBRANCH  49  63
BRANCH  50  74
ATOM     74  C   UNL A   1      40.686  28.555  28.530  1.00  0.00     0.064 A 
ATOM     75  C   UNL A   1      39.708  29.042  27.650  1.00  0.00     0.173 A 
ATOM     76  C   UNL A   1      40.288  28.252  29.841  1.00  0.00     0.173 A 
ATOM     77  F   UNL A   1      40.042  29.375  26.394  1.00  0.00    -0.203 F 
ATOM     78  C   UNL A   1      38.396  29.249  28.073  1.00  0.00     0.198 A 
ATOM     79  C   UNL A   1      38.969  28.430  30.253  1.00  0.00     0.198 A 
ATOM     80  F   UNL A   1      41.184  27.791  30.725  1.00  0.00    -0.203 F 
ATOM     81  F   UNL A   1      37.497  29.776  27.229  1.00  0.00    -0.200 F 
ATOM     82  C   UNL A   1      38.026  28.939  29.373  1.00  0.00     0.200 A 
ATOM     83  F   UNL A   1      38.615  28.122  31.509  1.00  0.00    -0.200 F 
ATOM     84  F   UNL A   1      36.767  29.145  29.781  1.00  0.00    -0.200 F 
ENDBRANCH  50  74
BRANCH  62  85
ATOM     85  C   UNL A   1      46.156  32.856  28.867  1.00  0.00     0.064 A 
ATOM     86  C   UNL A   1      45.979  33.954  28.013  1.00  0.00     0.173 A 
ATOM     87  C   UNL A   1      46.441  33.115  30.218  1.00  0.00     0.173 A 
ATOM     88  F   UNL A   1      45.717  33.762  26.712  1.00  0.00    -0.203 F 
ATOM     89  C   UNL A   1      46.111  35.258  28.486  1.00  0.00     0.198 A 
ATOM     90  C   UNL A   1      46.541  34.419  30.694  1.00  0.00     0.198 A 
ATOM     91  F   UNL A   1      46.611  32.101  31.080  1.00  0.00    -0.203 F 
ATOM     92  F   UNL A   1      45.986  36.290  27.642  1.00  0.00    -0.200 F 
ATOM     93  C   UNL A   1      46.383  35.489  29.827  1.00  0.00     0.200 A 
ATOM     94  F   UNL A   1      46.789  34.640  31.992  1.00  0.00    -0.200 F 
ATOM     95  F   UNL A   1      46.501  36.744  30.281  1.00  0.00    -0.200 F 
ENDBRANCH  62  85
ENDBRANCH  36  37
ENDBRANCH  29  31
ENDBRANCH  28  29
ENDBRANCH  27  28
ENDBRANCH  26  27
ENDBRANCH  25  26
ENDBRANCH  24  25
ENDBRANCH   1  24
TORSDOF 20
ENDMDL
MODEL 3
REMARK VINA RESULT:     -10.7      2.799      8.554
REMARK SMILES COc1ccc(Cc2ncc(C(=O)OCCOCCOCCOC(=O)c3ccc(-c4c5nc(c(-c6c(F)c(F)c(F)c(F)c6F)c6ccc([nH]6)c(-c6c(F)c(F)c(F)c(F)c6F)c6nc(c(-c7c(F)c(F)c(F)c(F)c7F)c7ccc4[nH]7)C=C6)C=C5)cc3)c(C)n2)cn1
REMARK SMILES IDX 18 1 17 2 16 3 15 4 14 5 12 6 13 7 11 8 8 9 9 10 91 11 10 12
REMARK SMILES IDX 89 13 90 14 7 15 6 16 3 17 4 18 93 19 5 20 92 21 2 22 1 23
REMARK SMILES IDX 19 24 20 25 21 26 22 27 23 28 24 29 25 30 26 31 27 32 88 33
REMARK SMILES IDX 28 34 87 35 29 36 30 37 31 38 81 39 32 40 86 41 80 42 82 43
REMARK SMILES IDX 33 44 85 45 79 46 78 47 34 49 66 50 46 51 65 52 47 53 50 54
REMARK SMILES IDX 64 55 83 56 48 57 49 58 63 60 84 61 51 62 35 63 36 64 44 65
REMARK SMILES IDX 37 66 38 67 42 68 45 69 39 70 40 71 43 72 41 73 67 74 68 75
REMARK SMILES IDX 76 76 69 77 70 78 74 79 77 80 71 81 72 82 75 83 73 84 52 85
REMARK SMILES IDX 53 86 61 87 54 88 55 89 59 90 62 91 56 92 57 93 60 94 58 95
REMARK H PARENT 82 48 50 59
REMARK Flexibility Score: inf
ROOT
ATOM      1  C   UNL A   1      31.839  25.937  25.070  1.00  0.00     0.188 C 
ENDROOT
BRANCH   1   2
ATOM      2  O   UNL A   1      30.933  24.837  25.093  1.00  0.00    -0.376 OA
BRANCH   2   3
ATOM      3  C   UNL A   1      31.224  23.678  24.314  1.00  0.00     0.202 C 
BRANCH   3   4
ATOM      4  C   UNL A   1      32.430  23.729  23.364  1.00  0.00     0.261 C 
BRANCH   4   5
ATOM      5  O   UNL A   1      32.920  22.424  22.999  1.00  0.00    -0.460 OA
BRANCH   5   6
ATOM      6  C   UNL A   1      33.397  21.662  24.009  1.00  0.00     0.341 C 
ATOM      7  O   UNL A   1      33.072  20.516  24.270  1.00  0.00    -0.246 OA
BRANCH   6   8
ATOM      8  C   UNL A   1      34.558  22.302  24.649  1.00  0.00     0.099 A 
ATOM      9  C   UNL A   1      36.858  23.443  25.571  1.00  0.00     0.133 A 
ATOM     10  N   UNL A   1      36.794  23.139  24.262  1.00  0.00    -0.240 NA
ATOM     11  N   UNL A   1      35.839  23.252  26.439  1.00  0.00    -0.237 NA
ATOM     12  C   UNL A   1      35.646  22.566  23.838  1.00  0.00     0.130 A 
ATOM     13  C   UNL A   1      34.688  22.690  25.972  1.00  0.00     0.056 A 
ATOM     14  C   UNL A   1      33.627  22.466  27.008  1.00  0.00     0.068 C 
BRANCH   9  15
ATOM     15  C   UNL A   1      38.184  23.923  26.115  1.00  0.00     0.114 C 
BRANCH  15  16
ATOM     16  C   UNL A   1      39.155  22.838  26.504  1.00  0.00    -0.022 A 
ATOM     17  C   UNL A   1      40.841  20.781  27.214  1.00  0.00     0.212 A 
ATOM     18  C   UNL A   1      40.946  21.992  27.885  1.00  0.00     0.069 A 
ATOM     19  N   UNL A   1      39.962  20.569  26.213  1.00  0.00    -0.222 NA
ATOM     20  C   UNL A   1      40.088  23.030  27.526  1.00  0.00     0.011 A 
ATOM     21  C   UNL A   1      39.136  21.590  25.890  1.00  0.00     0.119 A 
BRANCH  17  22
ATOM     22  O   UNL A   1      41.689  19.735  27.459  1.00  0.00    -0.481 OA
ATOM     23  C   UNL A   1      42.181  19.130  26.268  1.00  0.00     0.280 C 
ENDBRANCH  17  22
ENDBRANCH  15  16
ENDBRANCH   9  15
ENDBRANCH   6   8
ENDBRANCH   5   6
ENDBRANCH   4   5
ENDBRANCH   3   4
ENDBRANCH   2   3
ENDBRANCH   1   2
BRANCH   1  24
ATOM     24  C   UNL A   1      31.855  26.881  23.848  1.00  0.00     0.188 C 
BRANCH  24  25
ATOM     25  O   UNL A   1      32.189  28.213  24.172  1.00  0.00    -0.376 OA
BRANCH  25  26
ATOM     26  C   UNL A   1      31.355  28.893  25.097  1.00  0.00     0.202 C 
BRANCH  26  27
ATOM     27  C   UNL A   1      31.956  29.535  26.363  1.00  0.00     0.261 C 
BRANCH  27  28
ATOM     28  O   UNL A   1      33.210  30.219  26.221  1.00  0.00    -0.460 OA
BRANCH  28  29
ATOM     29  C   UNL A   1      33.462  31.238  27.075  1.00  0.00     0.338 C 
ATOM     30  O   UNL A   1      32.701  32.128  27.401  1.00  0.00    -0.246 OA
BRANCH  29  31
ATOM     31  C   UNL A   1      34.789  30.996  27.686  1.00  0.00     0.060 A 
ATOM     32  C   UNL A   1      35.135  29.695  28.074  1.00  0.00     0.016 A 
ATOM     33  C   UNL A   1      35.680  32.053  27.883  1.00  0.00     0.016 A 
ATOM     34  C   UNL A   1      36.369  29.453  28.685  1.00  0.00     0.010 A 
ATOM     35  C   UNL A   1      36.906  31.813  28.512  1.00  0.00     0.010 A 
ATOM     36  C   UNL A   1      37.247  30.517  28.942  1.00  0.00    -0.014 A 
BRANCH  36  37
ATOM     37  C   UNL A   1      38.428  30.316  29.819  1.00  0.00     0.031 A 
ATOM     38  C   UNL A   1      39.571  29.487  29.299  1.00  0.00     0.074 A 
ATOM     39  C   UNL A   1      38.494  30.855  31.049  1.00  0.00     0.049 A 
ATOM     40  N   UNL A   1      40.671  29.109  29.900  1.00  0.00    -0.248 NA
ATOM     41  C   UNL A   1      39.450  29.012  27.911  1.00  0.00     0.031 C 
ATOM     42  C   UNL A   1      37.474  31.707  31.655  1.00  0.00     0.029 A 
ATOM     43  N   UNL A   1      39.466  30.752  32.014  1.00  0.00    -0.354 N 
ATOM     44  C   UNL A   1      41.374  28.364  28.962  1.00  0.00     0.074 A 
ATOM     45  C   UNL A   1      40.559  28.303  27.769  1.00  0.00     0.031 C 
ATOM     46  C   UNL A   1      37.868  32.041  32.897  1.00  0.00     0.029 A 
ATOM     47  C   UNL A   1      39.152  31.399  33.184  1.00  0.00     0.049 A 
ATOM     48  H   UNL A   1      40.308  30.260  31.881  1.00  0.00     0.167 HD
ATOM     49  C   UNL A   1      42.597  27.794  29.080  1.00  0.00     0.037 A 
ATOM     50  C   UNL A   1      39.816  31.447  34.356  1.00  0.00     0.037 A 
ATOM     51  C   UNL A   1      43.407  27.845  30.269  1.00  0.00     0.049 A 
ATOM     52  C   UNL A   1      41.137  30.726  34.491  1.00  0.00     0.074 A 
ATOM     53  C   UNL A   1      44.652  27.287  30.490  1.00  0.00     0.029 A 
ATOM     54  N   UNL A   1      43.043  28.492  31.440  1.00  0.00    -0.354 N 
ATOM     55  N   UNL A   1      41.802  30.036  33.597  1.00  0.00    -0.248 NA
ATOM     56  C   UNL A   1      41.800  30.796  35.802  1.00  0.00     0.031 C 
ATOM     57  C   UNL A   1      45.025  27.558  31.811  1.00  0.00     0.029 A 
ATOM     58  C   UNL A   1      44.035  28.331  32.394  1.00  0.00     0.049 A 
ATOM     59  H   UNL A   1      42.205  28.991  31.574  1.00  0.00     0.167 HD
ATOM     60  C   UNL A   1      42.974  29.627  34.222  1.00  0.00     0.074 A 
ATOM     61  C   UNL A   1      42.934  30.153  35.569  1.00  0.00     0.031 C 
ATOM     62  C   UNL A   1      43.992  28.882  33.725  1.00  0.00     0.037 A 
BRANCH  49  63
ATOM     63  C   UNL A   1      43.127  27.049  27.889  1.00  0.00     0.064 A 
ATOM     64  C   UNL A   1      43.861  27.698  26.885  1.00  0.00     0.173 A 
ATOM     65  C   UNL A   1      42.927  25.666  27.768  1.00  0.00     0.173 A 
ATOM     66  F   UNL A   1      44.069  29.021  26.948  1.00  0.00    -0.203 F 
ATOM     67  C   UNL A   1      44.352  26.993  25.788  1.00  0.00     0.198 A 
ATOM     68  C   UNL A   1      43.446  24.959  26.685  1.00  0.00     0.198 A 
ATOM     69  F   UNL A   1      42.236  24.997  28.703  1.00  0.00    -0.203 F 
ATOM     70  F   UNL A   1      45.010  27.641  24.818  1.00  0.00    -0.200 F 
ATOM     71  C   UNL A   1      44.151  25.624  25.694  1.00  0.00     0.200 A 
ATOM     72  F   UNL A   1      43.263  23.634  26.603  1.00  0.00    -0.200 F 
ATOM     73  F   UNL A   1      44.632  24.946  24.643  1.00  0.00    -0.200 F 
ENDBRANCH  49  63
BRANCH  50  74
ATOM     74  C   UNL A   1      39.247  32.188  35.514  1.00  0.00     0.064 A 
ATOM     75  C   UNL A   1      39.538  33.545  35.719  1.00  0.00     0.173 A 
ATOM     76  C   UNL A   1      38.447  31.544  36.469  1.00  0.00     0.173 A 
ATOM     77  F   UNL A   1      40.323  34.201  34.851  1.00  0.00    -0.203 F 
ATOM     78  C   UNL A   1      39.076  34.219  36.847  1.00  0.00     0.198 A 
ATOM     79  C   UNL A   1      37.960  32.228  37.581  1.00  0.00     0.198 A 
ATOM     80  F   UNL A   1      38.145  30.245  36.327  1.00  0.00    -0.203 F 
ATOM     81  F   UNL A   1      39.422  35.499  37.050  1.00  0.00    -0.200 F 
ATOM     82  C   UNL A   1      38.284  33.562  37.776  1.00  0.00     0.200 A 
ATOM     83  F   UNL A   1      37.188  31.589  38.473  1.00  0.00    -0.200 F 
ATOM     84  F   UNL A   1      37.846  34.207  38.865  1.00  0.00    -0.200 F 
ENDBRANCH  50  74
BRANCH  62  85
ATOM     85  C   UNL A   1      45.175  28.638  34.619  1.00  0.00     0.064 A 
ATOM     86  C   UNL A   1      46.292  29.487  34.618  1.00  0.00     0.173 A 
ATOM     87  C   UNL A   1      45.169  27.562  35.521  1.00  0.00     0.173 A 
ATOM     88  F   UNL A   1      46.353  30.522  33.768  1.00  0.00    -0.203 F 
ATOM     89  C   UNL A   1      47.372  29.249  35.466  1.00  0.00     0.198 A 
ATOM     90  C   UNL A   1      46.236  27.347  36.389  1.00  0.00     0.198 A 
ATOM     91  F   UNL A   1      44.121  26.726  35.570  1.00  0.00    -0.203 F 
ATOM     92  F   UNL A   1      48.449  30.044  35.413  1.00  0.00    -0.200 F 
ATOM     93  C   UNL A   1      47.339  28.185  36.356  1.00  0.00     0.200 A 
ATOM     94  F   UNL A   1      46.196  26.328  37.258  1.00  0.00    -0.200 F 
ATOM     95  F   UNL A   1      48.375  27.964  37.176  1.00  0.00    -0.200 F 
ENDBRANCH  62  85
ENDBRANCH  36  37
ENDBRANCH  29  31
ENDBRANCH  28  29
ENDBRANCH  27  28
ENDBRANCH  26  27
ENDBRANCH  25  26
ENDBRANCH  24  25
ENDBRANCH   1  24
TORSDOF 20
ENDMDL
