MODEL 1
REMARK VINA RESULT:     -11.7      0.000      0.000
REMARK SMILES Cc1nc(-c2ccccc2Cl)sc1C(=O)NC[C@H]1CC[C@@H](C(=O)OCCOCCOCCOC(=O)c2ccc(-c3c4nc(c(-c5c(F)c(F)c(F)c(F)c5F)c5ccc([nH]5)c(-c5c(F)c(F)c(F)c(F)c5F)c5nc(c(-c6c(F)c(F)c(F)c(F)c6F)c6ccc3[nH]6)C=C5)C=C4)cc2)CC1
REMARK SMILES IDX 28 1 27 2 26 3 25 4 24 5 22 6 23 7 21 8 18 9 19 10 100 11
REMARK SMILES IDX 20 12 99 13 17 14 16 15 14 16 15 17 13 19 1 20 2 21 3 22
REMARK SMILES IDX 4 23 12 24 5 25 6 26 10 27 7 28 9 29 11 30 8 31 29 32 30 33
REMARK SMILES IDX 31 34 32 35 33 36 34 37 35 38 36 39 37 40 98 41 38 42 97 43
REMARK SMILES IDX 39 44 40 45 41 46 91 47 42 48 96 49 90 50 92 51 43 52 95 53
REMARK SMILES IDX 89 54 88 55 44 57 76 58 56 59 75 60 57 61 60 62 74 63 93 64
REMARK SMILES IDX 58 65 59 66 73 68 94 69 61 70 45 71 46 72 54 73 47 74 48 75
REMARK SMILES IDX 52 76 55 77 49 78 50 79 53 80 51 81 77 82 78 83 86 84 79 85
REMARK SMILES IDX 80 86 84 87 87 88 81 89 82 90 85 91 83 92 62 93 63 94 71 95
REMARK SMILES IDX 64 96 65 97 69 98 72 99 66 100 67 101 70 102 68 103
REMARK H PARENT 16 18 92 56 60 67
REMARK Flexibility Score: inf
ROOT
ATOM      1  C   UNL A   1      41.679  20.251  27.179  1.00  0.00     0.188 C 
ENDROOT
BRANCH   1   2
ATOM      2  O   UNL A   1      40.324  20.679  27.169  1.00  0.00    -0.376 OA
BRANCH   2   3
ATOM      3  C   UNL A   1      40.036  22.037  26.859  1.00  0.00     0.202 C 
BRANCH   3   4
ATOM      4  C   UNL A   1      38.920  22.339  25.844  1.00  0.00     0.261 C 
BRANCH   4   5
ATOM      5  O   UNL A   1      37.618  21.774  26.124  1.00  0.00    -0.463 OA
BRANCH   5   6
ATOM      6  C   UNL A   1      36.811  21.531  25.059  1.00  0.00     0.309 C 
ATOM      7  O   UNL A   1      37.159  21.682  23.892  1.00  0.00    -0.252 OA
BRANCH   6   8
ATOM      8  C   UNL A   1      35.374  21.107  25.407  1.00  0.00     0.099 C 
ATOM      9  C   UNL A   1      33.876  23.687  25.527  1.00  0.00     0.008 C 
ATOM     10  C   UNL A   1      34.293  23.021  24.194  1.00  0.00     0.006 C 
ATOM     11  C   UNL A   1      34.536  23.083  26.774  1.00  0.00     0.006 C 
ATOM     12  C   UNL A   1      34.457  21.506  24.254  1.00  0.00     0.015 C 
ATOM     13  C   UNL A   1      34.691  21.572  26.691  1.00  0.00     0.015 C 
BRANCH   9  14
ATOM     14  C   UNL A   1      34.131  25.204  25.417  1.00  0.00     0.119 C 
BRANCH  14  15
ATOM     15  N   UNL A   1      34.219  25.593  24.038  1.00  0.00    -0.351 N 
ATOM     16  C   UNL A   1      33.376  26.178  23.138  1.00  0.00     0.263 C 
ATOM     17  O   UNL A   1      33.880  26.188  22.005  1.00  0.00    -0.268 OA
ATOM     18  H   UNL A   1      35.099  25.387  23.646  1.00  0.00     0.163 HD
BRANCH  16  19
ATOM     19  C   UNL A   1      32.054  26.755  23.405  1.00  0.00     0.115 A 
ATOM     20  C   UNL A   1      30.266  25.317  24.781  1.00  0.00     0.068 C 
ATOM     21  C   UNL A   1      30.840  26.461  24.035  1.00  0.00     0.062 A 
ATOM     22  N   UNL A   1      29.883  27.467  23.958  1.00  0.00    -0.240 NA
ATOM     23  C   UNL A   1      30.295  28.494  23.265  1.00  0.00     0.125 A 
ATOM     24  S   UNL A   1      31.894  28.383  22.724  1.00  0.00    -0.108 S 
BRANCH  23  25
ATOM     25  C   UNL A   1      29.477  29.687  23.084  1.00  0.00     0.029 A 
ATOM     26  C   UNL A   1      28.625  29.711  21.963  1.00  0.00     0.013 A 
ATOM     27  C   UNL A   1      29.583  30.840  23.875  1.00  0.00     0.051 A 
ATOM     28  C   UNL A   1      27.893  30.852  21.640  1.00  0.00     0.001 A 
ATOM     29  C   UNL A   1      28.842  31.982  23.549  1.00  0.00     0.021 A 
ATOM     30  Cl  UNL A   1      30.657  30.954  25.226  1.00  0.00    -0.084 Cl
ATOM     31  C   UNL A   1      28.005  31.989  22.433  1.00  0.00     0.002 A 
ENDBRANCH  23  25
ENDBRANCH  16  19
ENDBRANCH  14  15
ENDBRANCH   9  14
ENDBRANCH   6   8
ENDBRANCH   5   6
ENDBRANCH   4   5
ENDBRANCH   3   4
ENDBRANCH   2   3
ENDBRANCH   1   2
BRANCH   1  32
ATOM     32  C   UNL A   1      42.241  19.524  25.948  1.00  0.00     0.188 C 
BRANCH  32  33
ATOM     33  O   UNL A   1      43.310  20.187  25.315  1.00  0.00    -0.376 OA
BRANCH  33  34
ATOM     34  C   UNL A   1      43.560  21.530  25.682  1.00  0.00     0.202 C 
BRANCH  34  35
ATOM     35  C   UNL A   1      43.743  22.498  24.504  1.00  0.00     0.261 C 
BRANCH  35  36
ATOM     36  O   UNL A   1      43.218  23.827  24.691  1.00  0.00    -0.460 OA
BRANCH  36  37
ATOM     37  C   UNL A   1      44.077  24.777  25.143  1.00  0.00     0.338 C 
ATOM     38  O   UNL A   1      45.116  25.124  24.626  1.00  0.00    -0.246 OA
BRANCH  37  39
ATOM     39  C   UNL A   1      43.382  25.517  26.233  1.00  0.00     0.060 A 
ATOM     40  C   UNL A   1      43.689  26.873  26.434  1.00  0.00     0.016 A 
ATOM     41  C   UNL A   1      42.406  24.900  27.014  1.00  0.00     0.016 A 
ATOM     42  C   UNL A   1      43.034  27.607  27.427  1.00  0.00     0.010 A 
ATOM     43  C   UNL A   1      41.768  25.629  28.025  1.00  0.00     0.010 A 
ATOM     44  C   UNL A   1      42.097  26.977  28.257  1.00  0.00    -0.014 A 
BRANCH  44  45
ATOM     45  C   UNL A   1      41.616  27.645  29.497  1.00  0.00     0.031 A 
ATOM     46  C   UNL A   1      40.370  28.484  29.408  1.00  0.00     0.074 A 
ATOM     47  C   UNL A   1      42.258  27.529  30.674  1.00  0.00     0.049 A 
ATOM     48  N   UNL A   1      39.817  29.260  30.304  1.00  0.00    -0.248 NA
ATOM     49  C   UNL A   1      39.655  28.443  28.122  1.00  0.00     0.031 C 
ATOM     50  C   UNL A   1      43.443  26.713  30.918  1.00  0.00     0.029 A 
ATOM     51  N   UNL A   1      42.005  28.129  31.885  1.00  0.00    -0.354 N 
ATOM     52  C   UNL A   1      38.700  29.809  29.687  1.00  0.00     0.074 A 
ATOM     53  C   UNL A   1      38.670  29.302  28.332  1.00  0.00     0.031 C 
ATOM     54  C   UNL A   1      43.832  26.881  32.196  1.00  0.00     0.029 A 
ATOM     55  C   UNL A   1      42.947  27.848  32.847  1.00  0.00     0.049 A 
ATOM     56  H   UNL A   1      41.223  28.704  32.050  1.00  0.00     0.167 HD
ATOM     57  C   UNL A   1      37.775  30.652  30.204  1.00  0.00     0.037 A 
ATOM     58  C   UNL A   1      43.097  28.344  34.092  1.00  0.00     0.037 A 
ATOM     59  C   UNL A   1      37.805  31.164  31.548  1.00  0.00     0.049 A 
ATOM     60  C   UNL A   1      42.107  29.357  34.618  1.00  0.00     0.074 A 
ATOM     61  C   UNL A   1      36.910  32.021  32.165  1.00  0.00     0.029 A 
ATOM     62  N   UNL A   1      38.789  30.875  32.482  1.00  0.00    -0.354 N 
ATOM     63  N   UNL A   1      41.044  29.860  34.037  1.00  0.00    -0.248 NA
ATOM     64  C   UNL A   1      42.339  29.873  35.976  1.00  0.00     0.031 C 
ATOM     65  C   UNL A   1      37.383  32.297  33.451  1.00  0.00     0.029 A 
ATOM     66  C   UNL A   1      38.536  31.558  33.662  1.00  0.00     0.049 A 
ATOM     67  H   UNL A   1      39.552  30.273  32.330  1.00  0.00     0.167 HD
ATOM     68  C   UNL A   1      40.465  30.717  34.967  1.00  0.00     0.074 A 
ATOM     69  C   UNL A   1      41.287  30.659  36.156  1.00  0.00     0.031 C 
ATOM     70  C   UNL A   1      39.351  31.482  34.847  1.00  0.00     0.037 A 
BRANCH  57  71
ATOM     71  C   UNL A   1      36.665  31.102  29.298  1.00  0.00     0.064 A 
ATOM     72  C   UNL A   1      35.635  30.233  28.905  1.00  0.00     0.173 A 
ATOM     73  C   UNL A   1      36.616  32.426  28.839  1.00  0.00     0.173 A 
ATOM     74  F   UNL A   1      35.642  28.952  29.302  1.00  0.00    -0.203 F 
ATOM     75  C   UNL A   1      34.615  30.667  28.063  1.00  0.00     0.198 A 
ATOM     76  C   UNL A   1      35.575  32.866  28.025  1.00  0.00     0.198 A 
ATOM     77  F   UNL A   1      37.574  33.299  29.186  1.00  0.00    -0.203 F 
ATOM     78  F   UNL A   1      33.672  29.806  27.656  1.00  0.00    -0.200 F 
ATOM     79  C   UNL A   1      34.581  31.984  27.631  1.00  0.00     0.200 A 
ATOM     80  F   UNL A   1      35.537  34.143  27.621  1.00  0.00    -0.200 F 
ATOM     81  F   UNL A   1      33.594  32.403  26.826  1.00  0.00    -0.200 F 
ENDBRANCH  57  71
BRANCH  58  82
ATOM     82  C   UNL A   1      44.250  27.919  34.934  1.00  0.00     0.064 A 
ATOM     83  C   UNL A   1      44.174  26.781  35.751  1.00  0.00     0.173 A 
ATOM     84  C   UNL A   1      45.435  28.668  34.976  1.00  0.00     0.173 A 
ATOM     85  F   UNL A   1      43.051  26.048  35.774  1.00  0.00    -0.203 F 
ATOM     86  C   UNL A   1      45.227  26.423  36.591  1.00  0.00     0.198 A 
ATOM     87  C   UNL A   1      46.500  28.291  35.791  1.00  0.00     0.198 A 
ATOM     88  F   UNL A   1      45.559  29.772  34.224  1.00  0.00    -0.203 F 
ATOM     89  F   UNL A   1      45.102  25.368  37.406  1.00  0.00    -0.200 F 
ATOM     90  C   UNL A   1      46.393  27.175  36.606  1.00  0.00     0.200 A 
ATOM     91  F   UNL A   1      47.628  29.016  35.795  1.00  0.00    -0.200 F 
ATOM     92  F   UNL A   1      47.403  26.832  37.416  1.00  0.00    -0.200 F 
ENDBRANCH  58  82
BRANCH  70  93
ATOM     93  C   UNL A   1      38.915  32.280  36.045  1.00  0.00     0.064 A 
ATOM     94  C   UNL A   1      38.156  31.713  37.080  1.00  0.00     0.173 A 
ATOM     95  C   UNL A   1      39.311  33.620  36.184  1.00  0.00     0.173 A 
ATOM     96  F   UNL A   1      37.741  30.441  36.995  1.00  0.00    -0.203 F 
ATOM     97  C   UNL A   1      37.790  32.465  38.195  1.00  0.00     0.198 A 
ATOM     98  C   UNL A   1      38.973  34.358  37.314  1.00  0.00     0.198 A 
ATOM     99  F   UNL A   1      40.047  34.210  35.228  1.00  0.00    -0.203 F 
ATOM    100  F   UNL A   1      37.024  31.917  39.149  1.00  0.00    -0.200 F 
ATOM    101  C   UNL A   1      38.206  33.784  38.315  1.00  0.00     0.200 A 
ATOM    102  F   UNL A   1      39.393  35.625  37.437  1.00  0.00    -0.200 F 
ATOM    103  F   UNL A   1      37.863  34.501  39.394  1.00  0.00    -0.200 F 
ENDBRANCH  70  93
ENDBRANCH  44  45
ENDBRANCH  37  39
ENDBRANCH  36  37
ENDBRANCH  35  36
ENDBRANCH  34  35
ENDBRANCH  33  34
ENDBRANCH  32  33
ENDBRANCH   1  32
TORSDOF 21
ENDMDL
MODEL 2
REMARK VINA RESULT:     -11.6      4.883      8.439
REMARK SMILES Cc1nc(-c2ccccc2Cl)sc1C(=O)NC[C@H]1CC[C@@H](C(=O)OCCOCCOCCOC(=O)c2ccc(-c3c4nc(c(-c5c(F)c(F)c(F)c(F)c5F)c5ccc([nH]5)c(-c5c(F)c(F)c(F)c(F)c5F)c5nc(c(-c6c(F)c(F)c(F)c(F)c6F)c6ccc3[nH]6)C=C5)C=C4)cc2)CC1
REMARK SMILES IDX 28 1 27 2 26 3 25 4 24 5 22 6 23 7 21 8 18 9 19 10 100 11
REMARK SMILES IDX 20 12 99 13 17 14 16 15 14 16 15 17 13 19 1 20 2 21 3 22
REMARK SMILES IDX 4 23 12 24 5 25 6 26 10 27 7 28 9 29 11 30 8 31 29 32 30 33
REMARK SMILES IDX 31 34 32 35 33 36 34 37 35 38 36 39 37 40 98 41 38 42 97 43
REMARK SMILES IDX 39 44 40 45 41 46 91 47 42 48 96 49 90 50 92 51 43 52 95 53
REMARK SMILES IDX 89 54 88 55 44 57 76 58 56 59 75 60 57 61 60 62 74 63 93 64
REMARK SMILES IDX 58 65 59 66 73 68 94 69 61 70 45 71 46 72 54 73 47 74 48 75
REMARK SMILES IDX 52 76 55 77 49 78 50 79 53 80 51 81 77 82 78 83 86 84 79 85
REMARK SMILES IDX 80 86 84 87 87 88 81 89 82 90 85 91 83 92 62 93 63 94 71 95
REMARK SMILES IDX 64 96 65 97 69 98 72 99 66 100 67 101 70 102 68 103
REMARK H PARENT 16 18 92 56 60 67
REMARK Flexibility Score: inf
ROOT
ATOM      1  C   UNL A   1      34.560  23.038  23.407  1.00  0.00     0.188 C 
ENDROOT
BRANCH   1   2
ATOM      2  O   UNL A   1      34.020  23.702  22.273  1.00  0.00    -0.376 OA
BRANCH   2   3
ATOM      3  C   UNL A   1      33.018  24.691  22.470  1.00  0.00     0.202 C 
BRANCH   3   4
ATOM      4  C   UNL A   1      33.048  25.954  21.593  1.00  0.00     0.261 C 
BRANCH   4   5
ATOM      5  O   UNL A   1      32.266  27.082  22.050  1.00  0.00    -0.463 OA
BRANCH   5   6
ATOM      6  C   UNL A   1      32.950  28.190  22.435  1.00  0.00     0.309 C 
ATOM      7  O   UNL A   1      34.077  28.468  22.035  1.00  0.00    -0.252 OA
BRANCH   6   8
ATOM      8  C   UNL A   1      32.241  29.070  23.479  1.00  0.00     0.099 C 
ATOM      9  C   UNL A   1      32.250  27.397  25.951  1.00  0.00     0.008 C 
ATOM     10  C   UNL A   1      33.508  28.134  25.434  1.00  0.00     0.006 C 
ATOM     11  C   UNL A   1      31.084  27.349  24.952  1.00  0.00     0.006 C 
ATOM     12  C   UNL A   1      33.227  29.380  24.602  1.00  0.00     0.015 C 
ATOM     13  C   UNL A   1      30.940  28.630  24.147  1.00  0.00     0.015 C 
BRANCH   9  14
ATOM     14  C   UNL A   1      32.667  25.987  26.418  1.00  0.00     0.119 C 
BRANCH  14  15
ATOM     15  N   UNL A   1      31.513  25.243  26.836  1.00  0.00    -0.351 N 
ATOM     16  C   UNL A   1      31.155  23.925  26.840  1.00  0.00     0.263 C 
ATOM     17  O   UNL A   1      29.974  23.792  27.193  1.00  0.00    -0.268 OA
ATOM     18  H   UNL A   1      30.809  25.822  27.210  1.00  0.00     0.163 HD
BRANCH  16  19
ATOM     19  C   UNL A   1      32.002  22.775  26.507  1.00  0.00     0.115 A 
ATOM     20  C   UNL A   1      34.411  22.562  27.651  1.00  0.00     0.068 C 
ATOM     21  C   UNL A   1      33.249  22.214  26.800  1.00  0.00     0.062 A 
ATOM     22  N   UNL A   1      33.527  21.025  26.132  1.00  0.00    -0.240 NA
ATOM     23  C   UNL A   1      32.569  20.677  25.316  1.00  0.00     0.125 A 
ATOM     24  S   UNL A   1      31.217  21.692  25.344  1.00  0.00    -0.108 S 
BRANCH  23  25
ATOM     25  C   UNL A   1      32.621  19.444  24.540  1.00  0.00     0.029 A 
ATOM     26  C   UNL A   1      33.029  18.280  25.219  1.00  0.00     0.013 A 
ATOM     27  C   UNL A   1      32.414  19.379  23.155  1.00  0.00     0.051 A 
ATOM     28  C   UNL A   1      33.223  17.080  24.538  1.00  0.00     0.001 A 
ATOM     29  C   UNL A   1      32.607  18.171  22.475  1.00  0.00     0.021 A 
ATOM     30  Cl  UNL A   1      31.992  20.761  22.204  1.00  0.00    -0.084 Cl
ATOM     31  C   UNL A   1      33.014  17.027  23.164  1.00  0.00     0.002 A 
ENDBRANCH  23  25
ENDBRANCH  16  19
ENDBRANCH  14  15
ENDBRANCH   9  14
ENDBRANCH   6   8
ENDBRANCH   5   6
ENDBRANCH   4   5
ENDBRANCH   3   4
ENDBRANCH   2   3
ENDBRANCH   1   2
BRANCH   1  32
ATOM     32  C   UNL A   1      36.075  22.794  23.477  1.00  0.00     0.188 C 
BRANCH  32  33
ATOM     33  O   UNL A   1      36.471  21.848  24.443  1.00  0.00    -0.376 OA
BRANCH  33  34
ATOM     34  C   UNL A   1      37.620  22.139  25.215  1.00  0.00     0.202 C 
BRANCH  34  35
ATOM     35  C   UNL A   1      38.391  20.909  25.717  1.00  0.00     0.261 C 
BRANCH  35  36
ATOM     36  O   UNL A   1      39.824  21.045  25.781  1.00  0.00    -0.460 OA
BRANCH  36  37
ATOM     37  C   UNL A   1      40.401  20.972  27.008  1.00  0.00     0.338 C 
ATOM     38  O   UNL A   1      40.682  19.967  27.622  1.00  0.00    -0.246 OA
BRANCH  37  39
ATOM     39  C   UNL A   1      40.888  22.339  27.347  1.00  0.00     0.060 A 
ATOM     40  C   UNL A   1      40.429  23.429  26.591  1.00  0.00     0.016 A 
ATOM     41  C   UNL A   1      41.746  22.551  28.427  1.00  0.00     0.016 A 
ATOM     42  C   UNL A   1      40.840  24.729  26.901  1.00  0.00     0.010 A 
ATOM     43  C   UNL A   1      42.177  23.850  28.721  1.00  0.00     0.010 A 
ATOM     44  C   UNL A   1      41.751  24.943  27.944  1.00  0.00    -0.014 A 
BRANCH  44  45
ATOM     45  C   UNL A   1      42.428  26.258  28.098  1.00  0.00     0.031 A 
ATOM     46  C   UNL A   1      41.687  27.354  28.816  1.00  0.00     0.074 A 
ATOM     47  C   UNL A   1      43.662  26.495  27.614  1.00  0.00     0.049 A 
ATOM     48  N   UNL A   1      42.002  28.614  28.974  1.00  0.00    -0.248 NA
ATOM     49  C   UNL A   1      40.407  26.970  29.434  1.00  0.00     0.031 C 
ATOM     50  C   UNL A   1      44.514  25.518  26.944  1.00  0.00     0.029 A 
ATOM     51  N   UNL A   1      44.400  27.655  27.596  1.00  0.00    -0.354 N 
ATOM     52  C   UNL A   1      40.956  29.174  29.697  1.00  0.00     0.074 A 
ATOM     53  C   UNL A   1      39.983  28.126  29.918  1.00  0.00     0.031 C 
ATOM     54  C   UNL A   1      45.651  26.124  26.558  1.00  0.00     0.029 A 
ATOM     55  C   UNL A   1      45.589  27.542  26.915  1.00  0.00     0.049 A 
ATOM     56  H   UNL A   1      44.106  28.489  28.030  1.00  0.00     0.167 HD
ATOM     57  C   UNL A   1      40.819  30.445  30.144  1.00  0.00     0.037 A 
ATOM     58  C   UNL A   1      46.501  28.480  26.589  1.00  0.00     0.037 A 
ATOM     59  C   UNL A   1      41.781  31.492  29.919  1.00  0.00     0.049 A 
ATOM     60  C   UNL A   1      46.285  29.914  27.017  1.00  0.00     0.074 A 
ATOM     61  C   UNL A   1      41.734  32.810  30.337  1.00  0.00     0.029 A 
ATOM     62  N   UNL A   1      42.961  31.341  29.205  1.00  0.00    -0.354 N 
ATOM     63  N   UNL A   1      45.303  30.434  27.713  1.00  0.00    -0.248 NA
ATOM     64  C   UNL A   1      47.306  30.891  26.611  1.00  0.00     0.031 C 
ATOM     65  C   UNL A   1      42.853  33.472  29.825  1.00  0.00     0.029 A 
ATOM     66  C   UNL A   1      43.635  32.550  29.147  1.00  0.00     0.049 A 
ATOM     67  H   UNL A   1      43.271  30.500  28.799  1.00  0.00     0.167 HD
ATOM     68  C   UNL A   1      45.606  31.784  27.858  1.00  0.00     0.074 A 
ATOM     69  C   UNL A   1      46.869  32.002  27.188  1.00  0.00     0.031 C 
ATOM     70  C   UNL A   1      44.902  32.755  28.492  1.00  0.00     0.037 A 
BRANCH  57  71
ATOM     71  C   UNL A   1      39.565  30.783  30.898  1.00  0.00     0.064 A 
ATOM     72  C   UNL A   1      38.400  31.207  30.240  1.00  0.00     0.173 A 
ATOM     73  C   UNL A   1      39.521  30.654  32.294  1.00  0.00     0.173 A 
ATOM     74  F   UNL A   1      38.394  31.362  28.908  1.00  0.00    -0.203 F 
ATOM     75  C   UNL A   1      37.248  31.518  30.956  1.00  0.00     0.198 A 
ATOM     76  C   UNL A   1      38.356  30.932  33.003  1.00  0.00     0.198 A 
ATOM     77  F   UNL A   1      40.606  30.250  32.972  1.00  0.00    -0.203 F 
ATOM     78  F   UNL A   1      36.163  31.973  30.313  1.00  0.00    -0.200 F 
ATOM     79  C   UNL A   1      37.223  31.372  32.335  1.00  0.00     0.200 A 
ATOM     80  F   UNL A   1      38.330  30.776  34.334  1.00  0.00    -0.200 F 
ATOM     81  F   UNL A   1      36.110  31.664  33.022  1.00  0.00    -0.200 F 
ENDBRANCH  57  71
BRANCH  58  82
ATOM     82  C   UNL A   1      47.699  28.113  25.785  1.00  0.00     0.064 A 
ATOM     83  C   UNL A   1      47.611  27.901  24.402  1.00  0.00     0.173 A 
ATOM     84  C   UNL A   1      48.951  27.920  26.391  1.00  0.00     0.173 A 
ATOM     85  F   UNL A   1      46.431  28.038  23.779  1.00  0.00    -0.203 F 
ATOM     86  C   UNL A   1      48.717  27.489  23.661  1.00  0.00     0.198 A 
ATOM     87  C   UNL A   1      50.065  27.542  25.645  1.00  0.00     0.198 A 
ATOM     88  F   UNL A   1      49.092  28.099  27.713  1.00  0.00    -0.203 F 
ATOM     89  F   UNL A   1      48.588  27.234  22.353  1.00  0.00    -0.200 F 
ATOM     90  C   UNL A   1      49.946  27.317  24.281  1.00  0.00     0.200 A 
ATOM     91  F   UNL A   1      51.251  27.385  26.247  1.00  0.00    -0.200 F 
ATOM     92  F   UNL A   1      51.008  26.918  23.570  1.00  0.00    -0.200 F 
ENDBRANCH  58  82
BRANCH  70  93
ATOM     93  C   UNL A   1      45.499  34.135  28.545  1.00  0.00     0.064 A 
ATOM     94  C   UNL A   1      45.207  35.109  27.578  1.00  0.00     0.173 A 
ATOM     95  C   UNL A   1      46.334  34.503  29.612  1.00  0.00     0.173 A 
ATOM     96  F   UNL A   1      44.425  34.808  26.532  1.00  0.00    -0.203 F 
ATOM     97  C   UNL A   1      45.748  36.390  27.666  1.00  0.00     0.198 A 
ATOM     98  C   UNL A   1      46.845  35.794  29.715  1.00  0.00     0.198 A 
ATOM     99  F   UNL A   1      46.638  33.614  30.571  1.00  0.00    -0.203 F 
ATOM    100  F   UNL A   1      45.494  37.289  26.705  1.00  0.00    -0.200 F 
ATOM    101  C   UNL A   1      46.559  36.734  28.738  1.00  0.00     0.200 A 
ATOM    102  F   UNL A   1      47.611  36.128  30.763  1.00  0.00    -0.200 F 
ATOM    103  F   UNL A   1      47.068  37.971  28.826  1.00  0.00    -0.200 F 
ENDBRANCH  70  93
ENDBRANCH  44  45
ENDBRANCH  37  39
ENDBRANCH  36  37
ENDBRANCH  35  36
ENDBRANCH  34  35
ENDBRANCH  33  34
ENDBRANCH  32  33
ENDBRANCH   1  32
TORSDOF 21
ENDMDL
MODEL 3
REMARK VINA RESULT:     -11.6      4.977      9.368
REMARK SMILES Cc1nc(-c2ccccc2Cl)sc1C(=O)NC[C@H]1CC[C@@H](C(=O)OCCOCCOCCOC(=O)c2ccc(-c3c4nc(c(-c5c(F)c(F)c(F)c(F)c5F)c5ccc([nH]5)c(-c5c(F)c(F)c(F)c(F)c5F)c5nc(c(-c6c(F)c(F)c(F)c(F)c6F)c6ccc3[nH]6)C=C5)C=C4)cc2)CC1
REMARK SMILES IDX 28 1 27 2 26 3 25 4 24 5 22 6 23 7 21 8 18 9 19 10 100 11
REMARK SMILES IDX 20 12 99 13 17 14 16 15 14 16 15 17 13 19 1 20 2 21 3 22
REMARK SMILES IDX 4 23 12 24 5 25 6 26 10 27 7 28 9 29 11 30 8 31 29 32 30 33
REMARK SMILES IDX 31 34 32 35 33 36 34 37 35 38 36 39 37 40 98 41 38 42 97 43
REMARK SMILES IDX 39 44 40 45 41 46 91 47 42 48 96 49 90 50 92 51 43 52 95 53
REMARK SMILES IDX 89 54 88 55 44 57 76 58 56 59 75 60 57 61 60 62 74 63 93 64
REMARK SMILES IDX 58 65 59 66 73 68 94 69 61 70 45 71 46 72 54 73 47 74 48 75
REMARK SMILES IDX 52 76 55 77 49 78 50 79 53 80 51 81 77 82 78 83 86 84 79 85
REMARK SMILES IDX 80 86 84 87 87 88 81 89 82 90 85 91 83 92 62 93 63 94 71 95
REMARK SMILES IDX 64 96 65 97 69 98 72 99 66 100 67 101 70 102 68 103
REMARK H PARENT 16 18 92 56 60 67
REMARK Flexibility Score: inf
ROOT
ATOM      1  C   UNL A   1      40.255  22.110  26.599  1.00  0.00     0.188 C 
ENDROOT
BRANCH   1   2
ATOM      2  O   UNL A   1      39.153  21.474  25.966  1.00  0.00    -0.376 OA
BRANCH   2   3
ATOM      3  C   UNL A   1      37.992  22.241  25.675  1.00  0.00     0.202 C 
BRANCH   3   4
ATOM      4  C   UNL A   1      37.163  21.878  24.432  1.00  0.00     0.261 C 
BRANCH   4   5
ATOM      5  O   UNL A   1      36.500  22.969  23.752  1.00  0.00    -0.463 OA
BRANCH   5   6
ATOM      6  C   UNL A   1      35.160  22.852  23.561  1.00  0.00     0.309 C 
ATOM      7  O   UNL A   1      34.560  23.358  22.618  1.00  0.00    -0.252 OA
BRANCH   6   8
ATOM      8  C   UNL A   1      34.405  22.083  24.659  1.00  0.00     0.099 C 
ATOM      9  C   UNL A   1      31.549  22.837  24.224  1.00  0.00     0.008 C 
ATOM     10  C   UNL A   1      32.296  21.828  23.320  1.00  0.00     0.006 C 
ATOM     11  C   UNL A   1      32.455  23.635  25.172  1.00  0.00     0.006 C 
ATOM     12  C   UNL A   1      33.452  21.095  23.991  1.00  0.00     0.015 C 
ATOM     13  C   UNL A   1      33.600  22.808  25.735  1.00  0.00     0.015 C 
BRANCH   9  14
ATOM     14  C   UNL A   1      30.696  23.759  23.328  1.00  0.00     0.119 C 
BRANCH  14  15
ATOM     15  N   UNL A   1      31.533  24.438  22.379  1.00  0.00    -0.351 N 
ATOM     16  C   UNL A   1      31.948  25.726  22.197  1.00  0.00     0.263 C 
ATOM     17  O   UNL A   1      32.574  25.839  21.133  1.00  0.00    -0.268 OA
ATOM     18  H   UNL A   1      31.894  23.828  21.695  1.00  0.00     0.163 HD
BRANCH  16  19
ATOM     19  C   UNL A   1      31.737  26.862  23.100  1.00  0.00     0.115 A 
ATOM     20  C   UNL A   1      29.354  28.078  23.119  1.00  0.00     0.068 C 
ATOM     21  C   UNL A   1      30.758  27.784  23.487  1.00  0.00     0.062 A 
ATOM     22  N   UNL A   1      31.164  28.693  24.459  1.00  0.00    -0.240 NA
ATOM     23  C   UNL A   1      32.414  28.534  24.799  1.00  0.00     0.125 A 
ATOM     24  S   UNL A   1      33.185  27.226  24.053  1.00  0.00    -0.108 S 
BRANCH  23  25
ATOM     25  C   UNL A   1      33.047  29.346  25.831  1.00  0.00     0.029 A 
ATOM     26  C   UNL A   1      34.212  28.825  26.427  1.00  0.00     0.013 A 
ATOM     27  C   UNL A   1      32.502  30.533  26.340  1.00  0.00     0.051 A 
ATOM     28  C   UNL A   1      34.821  29.471  27.501  1.00  0.00     0.001 A 
ATOM     29  C   UNL A   1      33.119  31.180  27.417  1.00  0.00     0.021 A 
ATOM     30  Cl  UNL A   1      31.032  31.222  25.742  1.00  0.00    -0.084 Cl
ATOM     31  C   UNL A   1      34.271  30.648  27.998  1.00  0.00     0.002 A 
ENDBRANCH  23  25
ENDBRANCH  16  19
ENDBRANCH  14  15
ENDBRANCH   9  14
ENDBRANCH   6   8
ENDBRANCH   5   6
ENDBRANCH   4   5
ENDBRANCH   3   4
ENDBRANCH   2   3
ENDBRANCH   1   2
BRANCH   1  32
ATOM     32  C   UNL A   1      41.599  21.370  26.679  1.00  0.00     0.188 C 
BRANCH  32  33
ATOM     33  O   UNL A   1      41.782  20.382  25.692  1.00  0.00    -0.376 OA
BRANCH  33  34
ATOM     34  C   UNL A   1      42.010  19.055  26.125  1.00  0.00     0.202 C 
BRANCH  34  35
ATOM     35  C   UNL A   1      43.336  18.440  25.655  1.00  0.00     0.261 C 
BRANCH  35  36
ATOM     36  O   UNL A   1      43.803  18.861  24.359  1.00  0.00    -0.460 OA
BRANCH  36  37
ATOM     37  C   UNL A   1      45.055  19.382  24.288  1.00  0.00     0.338 C 
ATOM     38  O   UNL A   1      46.018  18.890  23.744  1.00  0.00    -0.246 OA
BRANCH  37  39
ATOM     39  C   UNL A   1      44.971  20.796  24.750  1.00  0.00     0.060 A 
ATOM     40  C   UNL A   1      44.512  21.775  23.854  1.00  0.00     0.016 A 
ATOM     41  C   UNL A   1      45.291  21.146  26.061  1.00  0.00     0.016 A 
ATOM     42  C   UNL A   1      44.391  23.107  24.262  1.00  0.00     0.010 A 
ATOM     43  C   UNL A   1      45.194  22.484  26.462  1.00  0.00     0.010 A 
ATOM     44  C   UNL A   1      44.771  23.477  25.559  1.00  0.00    -0.014 A 
BRANCH  44  45
ATOM     45  C   UNL A   1      44.936  24.910  25.919  1.00  0.00     0.031 A 
ATOM     46  C   UNL A   1      46.305  25.520  25.776  1.00  0.00     0.074 A 
ATOM     47  C   UNL A   1      43.916  25.663  26.370  1.00  0.00     0.049 A 
ATOM     48  N   UNL A   1      46.737  26.702  26.135  1.00  0.00    -0.248 NA
ATOM     49  C   UNL A   1      47.328  24.670  25.147  1.00  0.00     0.031 C 
ATOM     50  C   UNL A   1      42.532  25.221  26.510  1.00  0.00     0.029 A 
ATOM     51  N   UNL A   1      43.902  26.964  26.817  1.00  0.00    -0.354 N 
ATOM     52  C   UNL A   1      48.082  26.731  25.787  1.00  0.00     0.074 A 
ATOM     53  C   UNL A   1      48.402  25.440  25.218  1.00  0.00     0.031 C 
ATOM     54  C   UNL A   1      41.805  26.226  27.033  1.00  0.00     0.029 A 
ATOM     55  C   UNL A   1      42.681  27.367  27.303  1.00  0.00     0.049 A 
ATOM     56  H   UNL A   1      44.692  27.551  26.791  1.00  0.00     0.167 HD
ATOM     57  C   UNL A   1      48.970  27.745  25.920  1.00  0.00     0.037 A 
ATOM     58  C   UNL A   1      42.323  28.509  27.925  1.00  0.00     0.037 A 
ATOM     59  C   UNL A   1      48.657  29.028  26.492  1.00  0.00     0.049 A 
ATOM     60  C   UNL A   1      43.353  29.593  28.150  1.00  0.00     0.074 A 
ATOM     61  C   UNL A   1      49.488  30.121  26.665  1.00  0.00     0.029 A 
ATOM     62  N   UNL A   1      47.414  29.388  26.994  1.00  0.00    -0.354 N 
ATOM     63  N   UNL A   1      44.618  29.622  27.804  1.00  0.00    -0.248 NA
ATOM     64  C   UNL A   1      42.903  30.804  28.852  1.00  0.00     0.031 C 
ATOM     65  C   UNL A   1      48.767  31.119  27.326  1.00  0.00     0.029 A 
ATOM     66  C   UNL A   1      47.466  30.676  27.502  1.00  0.00     0.049 A 
ATOM     67  H   UNL A   1      46.616  28.813  26.990  1.00  0.00     0.167 HD
ATOM     68  C   UNL A   1      45.101  30.860  28.213  1.00  0.00     0.074 A 
ATOM     69  C   UNL A   1      43.991  31.560  28.822  1.00  0.00     0.031 C 
ATOM     70  C   UNL A   1      46.351  31.373  28.092  1.00  0.00     0.037 A 
BRANCH  57  71
ATOM     71  C   UNL A   1      50.379  27.495  25.466  1.00  0.00     0.064 A 
ATOM     72  C   UNL A   1      51.384  27.097  26.361  1.00  0.00     0.173 A 
ATOM     73  C   UNL A   1      50.722  27.629  24.112  1.00  0.00     0.173 A 
ATOM     74  F   UNL A   1      51.113  26.969  27.668  1.00  0.00    -0.203 F 
ATOM     75  C   UNL A   1      52.685  26.871  25.922  1.00  0.00     0.198 A 
ATOM     76  C   UNL A   1      52.016  27.369  23.671  1.00  0.00     0.198 A 
ATOM     77  F   UNL A   1      49.799  28.005  23.213  1.00  0.00    -0.203 F 
ATOM     78  F   UNL A   1      53.641  26.545  26.802  1.00  0.00    -0.200 F 
ATOM     79  C   UNL A   1      52.998  26.999  24.577  1.00  0.00     0.200 A 
ATOM     80  F   UNL A   1      52.313  27.478  22.368  1.00  0.00    -0.200 F 
ATOM     81  F   UNL A   1      54.251  26.774  24.154  1.00  0.00    -0.200 F 
ENDBRANCH  57  71
BRANCH  58  82
ATOM     82  C   UNL A   1      40.929  28.689  28.417  1.00  0.00     0.064 A 
ATOM     83  C   UNL A   1      39.901  29.100  27.557  1.00  0.00     0.173 A 
ATOM     84  C   UNL A   1      40.605  28.500  29.770  1.00  0.00     0.173 A 
ATOM     85  F   UNL A   1      40.165  29.329  26.261  1.00  0.00    -0.203 F 
ATOM     86  C   UNL A   1      38.613  29.337  28.032  1.00  0.00     0.198 A 
ATOM     87  C   UNL A   1      39.309  28.704  30.237  1.00  0.00     0.198 A 
ATOM     88  F   UNL A   1      41.551  28.117  30.640  1.00  0.00    -0.203 F 
ATOM     89  F   UNL A   1      37.666  29.790  27.199  1.00  0.00    -0.200 F 
ATOM     90  C   UNL A   1      38.315  29.132  29.371  1.00  0.00     0.200 A 
ATOM     91  F   UNL A   1      39.024  28.496  31.530  1.00  0.00    -0.200 F 
ATOM     92  F   UNL A   1      37.077  29.362  29.827  1.00  0.00    -0.200 F 
ENDBRANCH  58  82
BRANCH  70  93
ATOM     93  C   UNL A   1      46.584  32.778  28.576  1.00  0.00     0.064 A 
ATOM     94  C   UNL A   1      47.029  33.051  29.878  1.00  0.00     0.173 A 
ATOM     95  C   UNL A   1      46.412  33.864  27.703  1.00  0.00     0.173 A 
ATOM     96  F   UNL A   1      47.199  32.052  30.757  1.00  0.00    -0.203 F 
ATOM     97  C   UNL A   1      47.268  34.359  30.294  1.00  0.00     0.198 A 
ATOM     98  C   UNL A   1      46.684  35.166  28.111  1.00  0.00     0.198 A 
ATOM     99  F   UNL A   1      45.998  33.659  26.442  1.00  0.00    -0.203 F 
ATOM    100  F   UNL A   1      47.646  34.600  31.557  1.00  0.00    -0.200 F 
ATOM    101  C   UNL A   1      47.104  35.415  29.408  1.00  0.00     0.200 A 
ATOM    102  F   UNL A   1      46.545  36.181  27.247  1.00  0.00    -0.200 F 
ATOM    103  F   UNL A   1      47.346  36.671  29.807  1.00  0.00    -0.200 F 
ENDBRANCH  70  93
ENDBRANCH  44  45
ENDBRANCH  37  39
ENDBRANCH  36  37
ENDBRANCH  35  36
ENDBRANCH  34  35
ENDBRANCH  33  34
ENDBRANCH  32  33
ENDBRANCH   1  32
TORSDOF 21
ENDMDL
