MODEL 1
REMARK VINA RESULT:     -14.2      0.000      0.000
REMARK SMILES Cc1ccccc1OC1(C(=O)OCCOCCOCCOC(=O)c2ccc(-c3c4nc(c(-c5c(F)c(F)c(F)c(F)c5F)c5ccc([nH]5)c(-c5c(F)c(F)c(F)c(F)c5F)c5nc(c(-c6c(F)c(F)c(F)c(F)c6F)c6ccc3[nH]6)C=C5)C=C4)cc2)CCN(C(=O)[C@H]2CCCCO2)CC1
REMARK SMILES IDX 16 1 15 2 14 3 13 4 12 5 10 6 11 7 9 8 87 9 99 10 88 11
REMARK SMILES IDX 98 12 89 13 90 14 91 15 8 16 7 17 1 18 2 19 3 20 4 21 6 22
REMARK SMILES IDX 5 23 92 24 93 25 97 26 94 27 96 28 95 29 17 30 18 31 19 32
REMARK SMILES IDX 20 33 21 34 22 35 23 36 24 37 25 38 86 39 26 40 85 41 27 42
REMARK SMILES IDX 28 43 29 44 79 45 30 46 84 47 78 48 80 49 31 50 83 51 77 52
REMARK SMILES IDX 76 53 32 55 64 56 44 57 63 58 45 59 48 60 62 61 81 62 46 63
REMARK SMILES IDX 47 64 61 66 82 67 49 68 33 69 34 70 42 71 35 72 36 73 40 74
REMARK SMILES IDX 43 75 37 76 38 77 41 78 39 79 65 80 66 81 74 82 67 83 68 84
REMARK SMILES IDX 72 85 75 86 69 87 70 88 73 89 71 90 50 91 51 92 59 93 52 94
REMARK SMILES IDX 53 95 57 96 60 97 54 98 55 99 58 100 56 101
REMARK H PARENT 80 54 48 65
REMARK Flexibility Score: inf
ROOT
ATOM      1  C   UNL A   1      33.427  31.676  27.456  1.00  0.00     0.188 C 
ENDROOT
BRANCH   1   2
ATOM      2  O   UNL A   1      32.948  30.472  26.816  1.00  0.00    -0.376 OA
BRANCH   2   3
ATOM      3  C   UNL A   1      33.276  29.131  27.207  1.00  0.00     0.202 C 
BRANCH   3   4
ATOM      4  C   UNL A   1      32.970  27.641  26.401  1.00  0.00     0.261 C 
BRANCH   4   5
ATOM      5  O   UNL A   1      31.964  26.221  26.740  1.00  0.00    -0.460 OA
BRANCH   5   6
ATOM      6  C   UNL A   1      31.188  25.147  26.086  1.00  0.00     0.350 C 
ATOM      7  O   UNL A   1      30.125  24.649  26.480  1.00  0.00    -0.247 OA
BRANCH   6   8
ATOM      8  C   UNL A   1      31.715  24.381  24.862  1.00  0.00     0.209 C 
ATOM      9  C   UNL A   1      33.195  24.600  24.772  1.00  0.00     0.082 C 
ATOM     10  C   UNL A   1      31.128  22.960  25.050  1.00  0.00     0.082 C 
ATOM     11  C   UNL A   1      34.033  23.362  24.648  1.00  0.00     0.124 C 
ATOM     12  C   UNL A   1      32.124  21.945  25.538  1.00  0.00     0.124 C 
ATOM     13  N   UNL A   1      33.447  22.067  24.950  1.00  0.00    -0.340 N 
ATOM     14  C   UNL A   1      34.317  20.991  24.763  1.00  0.00     0.251 C 
ATOM     15  O   UNL A   1      35.512  21.193  24.528  1.00  0.00    -0.272 OA
BRANCH   8  16
ATOM     16  O   UNL A   1      31.046  25.085  23.759  1.00  0.00    -0.475 OA
BRANCH  16  17
ATOM     17  C   UNL A   1      31.059  26.408  23.398  1.00  0.00     0.123 A 
ATOM     18  C   UNL A   1      33.396  26.723  22.319  1.00  0.00     0.048 C 
ATOM     19  C   UNL A   1      32.075  27.194  22.829  1.00  0.00    -0.009 A 
ATOM     20  C   UNL A   1      31.914  28.604  22.766  1.00  0.00     0.007 A 
ATOM     21  C   UNL A   1      30.760  29.239  23.208  1.00  0.00     0.001 A 
ATOM     22  C   UNL A   1      29.882  27.074  23.798  1.00  0.00     0.047 A 
ATOM     23  C   UNL A   1      29.727  28.466  23.703  1.00  0.00     0.004 A 
ENDBRANCH  16  17
ENDBRANCH   8  16
BRANCH  14  24
ATOM     24  C   UNL A   1      33.727  19.574  24.738  1.00  0.00     0.207 C 
ATOM     25  C   UNL A   1      32.817  19.491  23.501  1.00  0.00     0.042 C 
ATOM     26  O   UNL A   1      34.806  18.642  24.664  1.00  0.00    -0.368 OA
ATOM     27  C   UNL A   1      32.415  18.061  23.171  1.00  0.00     0.006 C 
ATOM     28  C   UNL A   1      34.379  17.300  24.496  1.00  0.00     0.161 C 
ATOM     29  C   UNL A   1      33.637  17.154  23.179  1.00  0.00     0.029 C 
ENDBRANCH  14  24
ENDBRANCH   6   8
ENDBRANCH   5   6
ENDBRANCH   4   5
ENDBRANCH   3   4
ENDBRANCH   2   3
ENDBRANCH   1   2
BRANCH   1  30
ATOM     30  C   UNL A   1      32.577  32.940  27.609  1.00  0.00     0.188 C 
BRANCH  30  31
ATOM     31  O   UNL A   1      33.324  33.959  28.242  1.00  0.00    -0.376 OA
BRANCH  31  32
ATOM     32  C   UNL A   1      34.718  33.962  27.984  1.00  0.00     0.202 C 
BRANCH  32  33
ATOM     33  C   UNL A   1      35.572  34.128  29.257  1.00  0.00     0.261 C 
BRANCH  33  34
ATOM     34  O   UNL A   1      36.366  32.943  29.514  1.00  0.00    -0.460 OA
BRANCH  34  35
ATOM     35  C   UNL A   1      35.763  31.891  30.163  1.00  0.00     0.338 C 
ATOM     36  O   UNL A   1      35.043  32.000  31.144  1.00  0.00    -0.246 OA
BRANCH  35  37
ATOM     37  C   UNL A   1      36.339  30.593  29.667  1.00  0.00     0.060 A 
ATOM     38  C   UNL A   1      36.706  29.488  30.452  1.00  0.00     0.016 A 
ATOM     39  C   UNL A   1      36.930  30.673  28.460  1.00  0.00     0.016 A 
ATOM     40  C   UNL A   1      37.837  28.634  30.102  1.00  0.00     0.010 A 
ATOM     41  C   UNL A   1      38.182  30.082  28.395  1.00  0.00     0.010 A 
ATOM     42  C   UNL A   1      38.744  28.970  29.089  1.00  0.00    -0.014 A 
BRANCH  42  43
ATOM     43  C   UNL A   1      40.267  28.196  28.782  1.00  0.00     0.031 A 
ATOM     44  C   UNL A   1      40.732  26.522  28.435  1.00  0.00     0.074 A 
ATOM     45  C   UNL A   1      41.350  28.962  29.043  1.00  0.00     0.049 A 
ATOM     46  N   UNL A   1      41.893  25.968  28.755  1.00  0.00    -0.248 NA
ATOM     47  C   UNL A   1      39.920  25.362  27.872  1.00  0.00     0.031 C 
ATOM     48  C   UNL A   1      42.755  28.657  28.795  1.00  0.00     0.029 A 
ATOM     49  N   UNL A   1      41.387  30.161  29.770  1.00  0.00    -0.354 N 
ATOM     50  C   UNL A   1      41.912  24.620  28.335  1.00  0.00     0.074 A 
ATOM     51  C   UNL A   1      40.600  24.258  28.062  1.00  0.00     0.031 C 
ATOM     52  C   UNL A   1      43.503  29.412  29.614  1.00  0.00     0.029 A 
ATOM     53  C   UNL A   1      42.590  30.121  30.491  1.00  0.00     0.049 A 
ATOM     54  H   UNL A   1      40.713  30.879  29.773  1.00  0.00     0.167 HD
ATOM     55  C   UNL A   1      43.015  23.860  28.115  1.00  0.00     0.037 A 
ATOM     56  C   UNL A   1      42.603  30.104  31.851  1.00  0.00     0.037 A 
ATOM     57  C   UNL A   1      44.096  24.472  28.831  1.00  0.00     0.049 A 
ATOM     58  C   UNL A   1      43.392  28.945  32.414  1.00  0.00     0.074 A 
ATOM     59  C   UNL A   1      45.068  25.379  28.467  1.00  0.00     0.029 A 
ATOM     60  N   UNL A   1      43.989  24.506  30.213  1.00  0.00    -0.354 N 
ATOM     61  N   UNL A   1      43.687  27.860  31.749  1.00  0.00    -0.248 NA
ATOM     62  C   UNL A   1      43.914  28.926  33.776  1.00  0.00     0.031 C 
ATOM     63  C   UNL A   1      45.448  26.069  29.651  1.00  0.00     0.029 A 
ATOM     64  C   UNL A   1      44.767  25.520  30.726  1.00  0.00     0.049 A 
ATOM     65  H   UNL A   1      43.438  23.893  30.750  1.00  0.00     0.167 HD
ATOM     66  C   UNL A   1      44.382  27.004  32.562  1.00  0.00     0.074 A 
ATOM     67  C   UNL A   1      44.521  27.728  33.810  1.00  0.00     0.031 C 
ATOM     68  C   UNL A   1      44.774  25.759  32.159  1.00  0.00     0.037 A 
BRANCH  55  69
ATOM     69  C   UNL A   1      43.122  22.665  27.130  1.00  0.00     0.064 A 
ATOM     70  C   UNL A   1      42.367  21.500  27.395  1.00  0.00     0.173 A 
ATOM     71  C   UNL A   1      44.004  22.505  26.021  1.00  0.00     0.173 A 
ATOM     72  F   UNL A   1      41.476  21.473  28.394  1.00  0.00    -0.203 F 
ATOM     73  C   UNL A   1      42.516  20.302  26.669  1.00  0.00     0.198 A 
ATOM     74  C   UNL A   1      44.131  21.318  25.281  1.00  0.00     0.198 A 
ATOM     75  F   UNL A   1      44.836  23.450  25.584  1.00  0.00    -0.203 F 
ATOM     76  F   UNL A   1      41.804  19.221  27.017  1.00  0.00    -0.200 F 
ATOM     77  C   UNL A   1      43.403  20.208  25.617  1.00  0.00     0.200 A 
ATOM     78  F   UNL A   1      44.999  21.268  24.257  1.00  0.00    -0.200 F 
ATOM     79  F   UNL A   1      43.565  19.062  24.941  1.00  0.00    -0.200 F 
ENDBRANCH  55  69
BRANCH  56  80
ATOM     80  C   UNL A   1      41.451  30.804  32.501  1.00  0.00     0.064 A 
ATOM     81  C   UNL A   1      41.487  32.216  32.584  1.00  0.00     0.173 A 
ATOM     82  C   UNL A   1      40.226  30.188  32.788  1.00  0.00     0.173 A 
ATOM     83  F   UNL A   1      42.632  32.874  32.343  1.00  0.00    -0.203 F 
ATOM     84  C   UNL A   1      40.338  32.973  32.813  1.00  0.00     0.198 A 
ATOM     85  C   UNL A   1      39.079  30.952  33.053  1.00  0.00     0.198 A 
ATOM     86  F   UNL A   1      40.098  28.856  32.711  1.00  0.00    -0.203 F 
ATOM     87  F   UNL A   1      40.395  34.311  32.744  1.00  0.00    -0.200 F 
ATOM     88  C   UNL A   1      39.131  32.340  33.033  1.00  0.00     0.200 A 
ATOM     89  F   UNL A   1      37.896  30.348  33.232  1.00  0.00    -0.200 F 
ATOM     90  F   UNL A   1      38.007  33.063  33.159  1.00  0.00    -0.200 F 
ENDBRANCH  56  80
BRANCH  68  91
ATOM     91  C   UNL A   1      45.233  24.646  33.077  1.00  0.00     0.064 A 
ATOM     92  C   UNL A   1      44.459  23.515  33.380  1.00  0.00     0.173 A 
ATOM     93  C   UNL A   1      46.569  24.612  33.549  1.00  0.00     0.173 A 
ATOM     94  F   UNL A   1      43.227  23.353  32.878  1.00  0.00    -0.203 F 
ATOM     95  C   UNL A   1      44.953  22.468  34.162  1.00  0.00     0.198 A 
ATOM     96  C   UNL A   1      47.083  23.529  34.262  1.00  0.00     0.198 A 
ATOM     97  F   UNL A   1      47.430  25.608  33.298  1.00  0.00    -0.203 F 
ATOM     98  F   UNL A   1      44.154  21.436  34.468  1.00  0.00    -0.200 F 
ATOM     99  C   UNL A   1      46.267  22.468  34.589  1.00  0.00     0.200 A 
ATOM    100  F   UNL A   1      48.378  23.512  34.606  1.00  0.00    -0.200 F 
ATOM    101  F   UNL A   1      46.751  21.435  35.292  1.00  0.00    -0.200 F 
ENDBRANCH  68  91
ENDBRANCH  42  43
ENDBRANCH  35  37
ENDBRANCH  34  35
ENDBRANCH  33  34
ENDBRANCH  32  33
ENDBRANCH  31  32
ENDBRANCH  30  31
ENDBRANCH   1  30
TORSDOF 20
ENDMDL
MODEL 2
REMARK VINA RESULT:     -13.9      1.183      2.114
REMARK SMILES Cc1ccccc1OC1(C(=O)OCCOCCOCCOC(=O)c2ccc(-c3c4nc(c(-c5c(F)c(F)c(F)c(F)c5F)c5ccc([nH]5)c(-c5c(F)c(F)c(F)c(F)c5F)c5nc(c(-c6c(F)c(F)c(F)c(F)c6F)c6ccc3[nH]6)C=C5)C=C4)cc2)CCN(C(=O)[C@H]2CCCCO2)CC1
REMARK SMILES IDX 16 1 15 2 14 3 13 4 12 5 10 6 11 7 9 8 87 9 99 10 88 11
REMARK SMILES IDX 98 12 89 13 90 14 91 15 8 16 7 17 1 18 2 19 3 20 4 21 6 22
REMARK SMILES IDX 5 23 92 24 93 25 97 26 94 27 96 28 95 29 17 30 18 31 19 32
REMARK SMILES IDX 20 33 21 34 22 35 23 36 24 37 25 38 86 39 26 40 85 41 27 42
REMARK SMILES IDX 28 43 29 44 79 45 30 46 84 47 78 48 80 49 31 50 83 51 77 52
REMARK SMILES IDX 76 53 32 55 64 56 44 57 63 58 45 59 48 60 62 61 81 62 46 63
REMARK SMILES IDX 47 64 61 66 82 67 49 68 33 69 34 70 42 71 35 72 36 73 40 74
REMARK SMILES IDX 43 75 37 76 38 77 41 78 39 79 65 80 66 81 74 82 67 83 68 84
REMARK SMILES IDX 72 85 75 86 69 87 70 88 73 89 71 90 50 91 51 92 59 93 52 94
REMARK SMILES IDX 53 95 57 96 60 97 54 98 55 99 58 100 56 101
REMARK H PARENT 80 54 48 65
REMARK Flexibility Score: inf
ROOT
ATOM      1  C   UNL A   1      32.713  31.373  27.222  1.00  0.00     0.188 C 
ENDROOT
BRANCH   1   2
ATOM      2  O   UNL A   1      32.586  30.217  26.366  1.00  0.00    -0.376 OA
BRANCH   2   3
ATOM      3  C   UNL A   1      31.980  28.968  26.732  1.00  0.00     0.202 C 
BRANCH   3   4
ATOM      4  C   UNL A   1      32.625  27.373  26.684  1.00  0.00     0.261 C 
BRANCH   4   5
ATOM      5  O   UNL A   1      31.937  25.744  26.797  1.00  0.00    -0.460 OA
BRANCH   5   6
ATOM      6  C   UNL A   1      31.346  24.659  25.988  1.00  0.00     0.350 C 
ATOM      7  O   UNL A   1      30.261  24.091  26.179  1.00  0.00    -0.247 OA
BRANCH   6   8
ATOM      8  C   UNL A   1      32.114  23.969  24.849  1.00  0.00     0.209 C 
ATOM      9  C   UNL A   1      33.580  24.050  25.157  1.00  0.00     0.082 C 
ATOM     10  C   UNL A   1      31.400  22.602  24.712  1.00  0.00     0.082 C 
ATOM     11  C   UNL A   1      34.332  22.753  25.095  1.00  0.00     0.124 C 
ATOM     12  C   UNL A   1      32.164  21.450  25.305  1.00  0.00     0.124 C 
ATOM     13  N   UNL A   1      33.598  21.499  25.083  1.00  0.00    -0.340 N 
ATOM     14  C   UNL A   1      34.409  20.366  24.988  1.00  0.00     0.251 C 
ATOM     15  O   UNL A   1      35.636  20.471  25.083  1.00  0.00    -0.272 OA
BRANCH   8  16
ATOM     16  O   UNL A   1      31.803  24.842  23.708  1.00  0.00    -0.475 OA
BRANCH  16  17
ATOM     17  C   UNL A   1      31.880  26.205  23.572  1.00  0.00     0.123 A 
ATOM     18  C   UNL A   1      29.425  26.987  23.858  1.00  0.00     0.048 C 
ATOM     19  C   UNL A   1      30.873  27.184  23.561  1.00  0.00    -0.009 A 
ATOM     20  C   UNL A   1      31.196  28.512  23.169  1.00  0.00     0.007 A 
ATOM     21  C   UNL A   1      32.489  28.893  22.836  1.00  0.00     0.001 A 
ATOM     22  C   UNL A   1      33.191  26.630  23.272  1.00  0.00     0.047 A 
ATOM     23  C   UNL A   1      33.498  27.952  22.912  1.00  0.00     0.004 A 
ENDBRANCH  16  17
ENDBRANCH   8  16
BRANCH  14  24
ATOM     24  C   UNL A   1      33.747  19.024  24.646  1.00  0.00     0.207 C 
ATOM     25  C   UNL A   1      34.875  18.063  24.234  1.00  0.00     0.042 C 
ATOM     26  O   UNL A   1      33.055  18.560  25.806  1.00  0.00    -0.368 OA
ATOM     27  C   UNL A   1      34.411  16.615  24.173  1.00  0.00     0.006 C 
ATOM     28  C   UNL A   1      32.516  17.256  25.654  1.00  0.00     0.161 C 
ATOM     29  C   UNL A   1      33.638  16.255  25.433  1.00  0.00     0.029 C 
ENDBRANCH  14  24
ENDBRANCH   6   8
ENDBRANCH   5   6
ENDBRANCH   4   5
ENDBRANCH   3   4
ENDBRANCH   2   3
ENDBRANCH   1   2
BRANCH   1  30
ATOM     30  C   UNL A   1      31.778  32.582  27.144  1.00  0.00     0.188 C 
BRANCH  30  31
ATOM     31  O   UNL A   1      32.432  33.741  27.622  1.00  0.00    -0.376 OA
BRANCH  31  32
ATOM     32  C   UNL A   1      33.837  33.640  27.784  1.00  0.00     0.202 C 
BRANCH  32  33
ATOM     33  C   UNL A   1      34.343  34.256  29.104  1.00  0.00     0.261 C 
BRANCH  33  34
ATOM     34  O   UNL A   1      35.422  33.472  29.670  1.00  0.00    -0.460 OA
BRANCH  34  35
ATOM     35  C   UNL A   1      35.093  32.341  30.380  1.00  0.00     0.338 C 
ATOM     36  O   UNL A   1      34.486  32.337  31.440  1.00  0.00    -0.246 OA
BRANCH  35  37
ATOM     37  C   UNL A   1      35.824  31.155  29.813  1.00  0.00     0.060 A 
ATOM     38  C   UNL A   1      36.176  29.982  30.501  1.00  0.00     0.016 A 
ATOM     39  C   UNL A   1      36.552  31.426  28.713  1.00  0.00     0.016 A 
ATOM     40  C   UNL A   1      37.404  29.252  30.204  1.00  0.00     0.010 A 
ATOM     41  C   UNL A   1      37.844  30.927  28.744  1.00  0.00     0.010 A 
ATOM     42  C   UNL A   1      38.401  29.772  29.368  1.00  0.00    -0.014 A 
BRANCH  42  43
ATOM     43  C   UNL A   1      40.006  29.138  29.174  1.00  0.00     0.031 A 
ATOM     44  C   UNL A   1      40.640  27.534  28.769  1.00  0.00     0.074 A 
ATOM     45  C   UNL A   1      40.990  29.961  29.600  1.00  0.00     0.049 A 
ATOM     46  N   UNL A   1      41.804  27.047  29.174  1.00  0.00    -0.248 NA
ATOM     47  C   UNL A   1      39.986  26.361  28.047  1.00  0.00     0.031 C 
ATOM     48  C   UNL A   1      42.433  29.783  29.483  1.00  0.00     0.029 A 
ATOM     49  N   UNL A   1      40.855  31.103  30.404  1.00  0.00    -0.354 N 
ATOM     50  C   UNL A   1      41.976  25.739  28.670  1.00  0.00     0.074 A 
ATOM     51  C   UNL A   1      40.733  25.301  28.235  1.00  0.00     0.031 C 
ATOM     52  C   UNL A   1      43.030  30.528  30.425  1.00  0.00     0.029 A 
ATOM     53  C   UNL A   1      41.978  31.100  31.245  1.00  0.00     0.049 A 
ATOM     54  H   UNL A   1      40.127  31.766  30.382  1.00  0.00     0.167 HD
ATOM     55  C   UNL A   1      43.154  25.082  28.519  1.00  0.00     0.037 A 
ATOM     56  C   UNL A   1      41.855  30.983  32.595  1.00  0.00     0.037 A 
ATOM     57  C   UNL A   1      44.104  25.719  29.386  1.00  0.00     0.049 A 
ATOM     58  C   UNL A   1      42.675  29.848  33.161  1.00  0.00     0.074 A 
ATOM     59  C   UNL A   1      45.029  26.720  29.188  1.00  0.00     0.029 A 
ATOM     60  N   UNL A   1      43.855  25.642  30.747  1.00  0.00    -0.354 N 
ATOM     61  N   UNL A   1      43.124  28.840  32.461  1.00  0.00    -0.248 NA
ATOM     62  C   UNL A   1      43.057  29.767  34.567  1.00  0.00     0.031 C 
ATOM     63  C   UNL A   1      45.229  27.347  30.449  1.00  0.00     0.029 A 
ATOM     64  C   UNL A   1      44.491  26.670  31.407  1.00  0.00     0.049 A 
ATOM     65  H   UNL A   1      43.304  24.951  31.182  1.00  0.00     0.167 HD
ATOM     66  C   UNL A   1      43.802  27.980  33.285  1.00  0.00     0.074 A 
ATOM     67  C   UNL A   1      43.754  28.619  34.586  1.00  0.00     0.031 C 
ATOM     68  C   UNL A   1      44.333  26.802  32.845  1.00  0.00     0.037 A 
BRANCH  55  69
ATOM     69  C   UNL A   1      43.458  23.975  27.474  1.00  0.00     0.064 A 
ATOM     70  C   UNL A   1      44.222  24.312  26.334  1.00  0.00     0.173 A 
ATOM     71  C   UNL A   1      42.950  22.644  27.419  1.00  0.00     0.173 A 
ATOM     72  F   UNL A   1      44.789  25.520  26.221  1.00  0.00    -0.203 F 
ATOM     73  C   UNL A   1      44.412  23.438  25.246  1.00  0.00     0.198 A 
ATOM     74  C   UNL A   1      43.165  21.764  26.346  1.00  0.00     0.198 A 
ATOM     75  F   UNL A   1      42.184  22.095  28.361  1.00  0.00    -0.203 F 
ATOM     76  F   UNL A   1      45.104  23.850  24.175  1.00  0.00    -0.200 F 
ATOM     77  C   UNL A   1      43.877  22.166  25.248  1.00  0.00     0.200 A 
ATOM     78  F   UNL A   1      42.635  20.529  26.388  1.00  0.00    -0.200 F 
ATOM     79  F   UNL A   1      44.036  21.342  24.204  1.00  0.00    -0.200 F 
ENDBRANCH  55  69
BRANCH  56  80
ATOM     80  C   UNL A   1      40.589  31.544  33.163  1.00  0.00     0.064 A 
ATOM     81  C   UNL A   1      40.520  32.938  33.394  1.00  0.00     0.173 A 
ATOM     82  C   UNL A   1      39.382  30.836  33.229  1.00  0.00     0.173 A 
ATOM     83  F   UNL A   1      41.640  33.680  33.368  1.00  0.00    -0.203 F 
ATOM     84  C   UNL A   1      39.305  33.603  33.553  1.00  0.00     0.198 A 
ATOM     85  C   UNL A   1      38.163  31.504  33.425  1.00  0.00     0.198 A 
ATOM     86  F   UNL A   1      39.353  29.516  33.000  1.00  0.00    -0.203 F 
ATOM     87  F   UNL A   1      39.279  34.942  33.629  1.00  0.00    -0.200 F 
ATOM     88  C   UNL A   1      38.124  32.886  33.554  1.00  0.00     0.200 A 
ATOM     89  F   UNL A   1      37.010  30.821  33.390  1.00  0.00    -0.200 F 
ATOM     90  F   UNL A   1      36.948  33.529  33.611  1.00  0.00    -0.200 F 
ENDBRANCH  56  80
BRANCH  68  91
ATOM     91  C   UNL A   1      44.787  25.661  33.731  1.00  0.00     0.064 A 
ATOM     92  C   UNL A   1      46.135  25.348  33.970  1.00  0.00     0.173 A 
ATOM     93  C   UNL A   1      43.849  24.945  34.515  1.00  0.00     0.173 A 
ATOM     94  F   UNL A   1      47.128  26.045  33.402  1.00  0.00    -0.203 F 
ATOM     95  C   UNL A   1      46.514  24.343  34.863  1.00  0.00     0.198 A 
ATOM     96  C   UNL A   1      44.235  23.998  35.463  1.00  0.00     0.198 A 
ATOM     97  F   UNL A   1      42.532  25.171  34.418  1.00  0.00    -0.203 F 
ATOM     98  F   UNL A   1      47.812  24.046  35.013  1.00  0.00    -0.200 F 
ATOM     99  C   UNL A   1      45.567  23.679  35.619  1.00  0.00     0.200 A 
ATOM    100  F   UNL A   1      43.310  23.416  36.239  1.00  0.00    -0.200 F 
ATOM    101  F   UNL A   1      45.940  22.755  36.514  1.00  0.00    -0.200 F 
ENDBRANCH  68  91
ENDBRANCH  42  43
ENDBRANCH  35  37
ENDBRANCH  34  35
ENDBRANCH  33  34
ENDBRANCH  32  33
ENDBRANCH  31  32
ENDBRANCH  30  31
ENDBRANCH   1  30
TORSDOF 20
ENDMDL
MODEL 3
REMARK VINA RESULT:     -13.9      3.450     10.160
REMARK SMILES Cc1ccccc1OC1(C(=O)OCCOCCOCCOC(=O)c2ccc(-c3c4nc(c(-c5c(F)c(F)c(F)c(F)c5F)c5ccc([nH]5)c(-c5c(F)c(F)c(F)c(F)c5F)c5nc(c(-c6c(F)c(F)c(F)c(F)c6F)c6ccc3[nH]6)C=C5)C=C4)cc2)CCN(C(=O)[C@H]2CCCCO2)CC1
REMARK SMILES IDX 16 1 15 2 14 3 13 4 12 5 10 6 11 7 9 8 87 9 99 10 88 11
REMARK SMILES IDX 98 12 89 13 90 14 91 15 8 16 7 17 1 18 2 19 3 20 4 21 6 22
REMARK SMILES IDX 5 23 92 24 93 25 97 26 94 27 96 28 95 29 17 30 18 31 19 32
REMARK SMILES IDX 20 33 21 34 22 35 23 36 24 37 25 38 86 39 26 40 85 41 27 42
REMARK SMILES IDX 28 43 29 44 79 45 30 46 84 47 78 48 80 49 31 50 83 51 77 52
REMARK SMILES IDX 76 53 32 55 64 56 44 57 63 58 45 59 48 60 62 61 81 62 46 63
REMARK SMILES IDX 47 64 61 66 82 67 49 68 33 69 34 70 42 71 35 72 36 73 40 74
REMARK SMILES IDX 43 75 37 76 38 77 41 78 39 79 65 80 66 81 74 82 67 83 68 84
REMARK SMILES IDX 72 85 75 86 69 87 70 88 73 89 71 90 50 91 51 92 59 93 52 94
REMARK SMILES IDX 53 95 57 96 60 97 54 98 55 99 58 100 56 101
REMARK H PARENT 80 54 48 65
REMARK Flexibility Score: inf
ROOT
ATOM      1  C   UNL A   1      35.716  21.576  25.024  1.00  0.00     0.188 C 
ENDROOT
BRANCH   1   2
ATOM      2  O   UNL A   1      34.983  22.213  23.955  1.00  0.00    -0.376 OA
BRANCH   2   3
ATOM      3  C   UNL A   1      33.561  22.159  23.767  1.00  0.00     0.202 C 
BRANCH   3   4
ATOM      4  C   UNL A   1      32.446  23.420  23.409  1.00  0.00     0.261 C 
BRANCH   4   5
ATOM      5  O   UNL A   1      32.556  24.990  22.594  1.00  0.00    -0.460 OA
BRANCH   5   6
ATOM      6  C   UNL A   1      31.738  26.106  22.077  1.00  0.00     0.350 C 
ATOM      7  O   UNL A   1      31.398  26.300  20.902  1.00  0.00    -0.247 OA
BRANCH   6   8
ATOM      8  C   UNL A   1      31.323  27.297  22.955  1.00  0.00     0.209 C 
ATOM      9  C   UNL A   1      30.724  26.761  24.221  1.00  0.00     0.082 C 
ATOM     10  C   UNL A   1      32.594  28.181  22.985  1.00  0.00     0.082 C 
ATOM     11  C   UNL A   1      31.290  27.313  25.496  1.00  0.00     0.124 C 
ATOM     12  C   UNL A   1      33.369  28.096  24.270  1.00  0.00     0.124 C 
ATOM     13  N   UNL A   1      32.548  28.037  25.467  1.00  0.00    -0.340 N 
ATOM     14  C   UNL A   1      32.950  28.530  26.710  1.00  0.00     0.251 C 
ATOM     15  O   UNL A   1      32.341  28.203  27.734  1.00  0.00    -0.272 OA
BRANCH   8  16
ATOM     16  O   UNL A   1      30.270  27.917  22.138  1.00  0.00    -0.475 OA
BRANCH  16  17
ATOM     17  C   UNL A   1      29.397  28.937  22.420  1.00  0.00     0.123 A 
ATOM     18  C   UNL A   1      27.411  27.740  23.579  1.00  0.00     0.048 C 
ATOM     19  C   UNL A   1      28.111  28.915  22.984  1.00  0.00    -0.009 A 
ATOM     20  C   UNL A   1      27.316  30.094  22.956  1.00  0.00     0.007 A 
ATOM     21  C   UNL A   1      27.783  31.290  22.427  1.00  0.00     0.001 A 
ATOM     22  C   UNL A   1      29.861  30.176  21.929  1.00  0.00     0.047 A 
ATOM     23  C   UNL A   1      29.073  31.338  21.934  1.00  0.00     0.004 A 
ENDBRANCH  16  17
ENDBRANCH   8  16
BRANCH  14  24
ATOM     24  C   UNL A   1      34.078  29.570  26.751  1.00  0.00     0.207 C 
ATOM     25  C   UNL A   1      33.502  30.828  27.423  1.00  0.00     0.042 C 
ATOM     26  O   UNL A   1      35.164  29.022  27.499  1.00  0.00    -0.368 OA
ATOM     27  C   UNL A   1      34.583  31.823  27.816  1.00  0.00     0.006 C 
ATOM     28  C   UNL A   1      36.216  29.948  27.723  1.00  0.00     0.161 C 
ATOM     29  C   UNL A   1      35.710  31.115  28.553  1.00  0.00     0.029 C 
ENDBRANCH  14  24
ENDBRANCH   6   8
ENDBRANCH   5   6
ENDBRANCH   4   5
ENDBRANCH   3   4
ENDBRANCH   2   3
ENDBRANCH   1   2
BRANCH   1  30
ATOM     30  C   UNL A   1      36.939  22.206  25.695  1.00  0.00     0.188 C 
BRANCH  30  31
ATOM     31  O   UNL A   1      38.104  21.470  25.382  1.00  0.00    -0.376 OA
BRANCH  31  32
ATOM     32  C   UNL A   1      39.277  21.829  26.093  1.00  0.00     0.202 C 
BRANCH  32  33
ATOM     33  C   UNL A   1      40.238  20.644  26.320  1.00  0.00     0.261 C 
BRANCH  33  34
ATOM     34  O   UNL A   1      41.427  21.062  27.035  1.00  0.00    -0.460 OA
BRANCH  34  35
ATOM     35  C   UNL A   1      42.364  21.801  26.351  1.00  0.00     0.338 C 
ATOM     36  O   UNL A   1      42.666  21.628  25.180  1.00  0.00    -0.246 OA
BRANCH  35  37
ATOM     37  C   UNL A   1      43.146  22.647  27.318  1.00  0.00     0.060 A 
ATOM     38  C   UNL A   1      43.075  22.596  28.720  1.00  0.00     0.016 A 
ATOM     39  C   UNL A   1      43.607  23.801  26.799  1.00  0.00     0.016 A 
ATOM     40  C   UNL A   1      43.236  23.789  29.544  1.00  0.00     0.010 A 
ATOM     41  C   UNL A   1      43.370  24.917  27.584  1.00  0.00     0.010 A 
ATOM     42  C   UNL A   1      43.268  25.079  28.997  1.00  0.00    -0.014 A 
BRANCH  42  43
ATOM     43  C   UNL A   1      43.162  26.568  29.884  1.00  0.00     0.031 A 
ATOM     44  C   UNL A   1      41.857  27.737  30.147  1.00  0.00     0.074 A 
ATOM     45  C   UNL A   1      44.350  27.056  30.307  1.00  0.00     0.049 A 
ATOM     46  N   UNL A   1      42.023  29.036  30.352  1.00  0.00    -0.248 NA
ATOM     47  C   UNL A   1      40.345  27.575  30.052  1.00  0.00     0.031 C 
ATOM     48  C   UNL A   1      44.602  28.213  31.159  1.00  0.00     0.029 A 
ATOM     49  N   UNL A   1      45.630  26.660  29.889  1.00  0.00    -0.354 N 
ATOM     50  C   UNL A   1      40.766  29.659  30.512  1.00  0.00     0.074 A 
ATOM     51  C   UNL A   1      39.807  28.770  30.049  1.00  0.00     0.031 C 
ATOM     52  C   UNL A   1      45.855  28.637  30.939  1.00  0.00     0.029 A 
ATOM     53  C   UNL A   1      46.389  27.838  29.851  1.00  0.00     0.049 A 
ATOM     54  H   UNL A   1      45.931  25.748  29.669  1.00  0.00     0.167 HD
ATOM     55  C   UNL A   1      40.528  30.849  31.120  1.00  0.00     0.037 A 
ATOM     56  C   UNL A   1      46.912  28.310  28.686  1.00  0.00     0.037 A 
ATOM     57  C   UNL A   1      41.767  31.572  31.129  1.00  0.00     0.049 A 
ATOM     58  C   UNL A   1      46.519  29.742  28.407  1.00  0.00     0.074 A 
ATOM     59  C   UNL A   1      42.779  31.688  32.057  1.00  0.00     0.029 A 
ATOM     60  N   UNL A   1      42.289  31.931  29.895  1.00  0.00    -0.354 N 
ATOM     61  N   UNL A   1      45.499  30.349  28.953  1.00  0.00    -0.248 NA
ATOM     62  C   UNL A   1      47.257  30.603  27.489  1.00  0.00     0.031 C 
ATOM     63  C   UNL A   1      43.965  31.988  31.334  1.00  0.00     0.029 A 
ATOM     64  C   UNL A   1      43.647  32.131  29.992  1.00  0.00     0.049 A 
ATOM     65  H   UNL A   1      41.763  32.029  29.068  1.00  0.00     0.167 HD
ATOM     66  C   UNL A   1      45.412  31.624  28.460  1.00  0.00     0.074 A 
ATOM     67  C   UNL A   1      46.550  31.743  27.570  1.00  0.00     0.031 C 
ATOM     68  C   UNL A   1      44.405  32.480  28.802  1.00  0.00     0.037 A 
BRANCH  55  69
ATOM     69  C   UNL A   1      39.213  31.266  31.831  1.00  0.00     0.064 A 
ATOM     70  C   UNL A   1      38.294  32.080  31.132  1.00  0.00     0.173 A 
ATOM     71  C   UNL A   1      38.833  31.056  33.190  1.00  0.00     0.173 A 
ATOM     72  F   UNL A   1      38.484  32.373  29.839  1.00  0.00    -0.203 F 
ATOM     73  C   UNL A   1      37.158  32.656  31.734  1.00  0.00     0.198 A 
ATOM     74  C   UNL A   1      37.685  31.608  33.780  1.00  0.00     0.198 A 
ATOM     75  F   UNL A   1      39.543  30.342  34.063  1.00  0.00    -0.203 F 
ATOM     76  F   UNL A   1      36.363  33.464  31.017  1.00  0.00    -0.200 F 
ATOM     77  C   UNL A   1      36.857  32.427  33.060  1.00  0.00     0.200 A 
ATOM     78  F   UNL A   1      37.420  31.354  35.073  1.00  0.00    -0.200 F 
ATOM     79  F   UNL A   1      35.791  32.993  33.641  1.00  0.00    -0.200 F 
ENDBRANCH  55  69
BRANCH  56  80
ATOM     80  C   UNL A   1      47.247  27.260  27.675  1.00  0.00     0.064 A 
ATOM     81  C   UNL A   1      46.283  26.950  26.687  1.00  0.00     0.173 A 
ATOM     82  C   UNL A   1      48.539  26.757  27.471  1.00  0.00     0.173 A 
ATOM     83  F   UNL A   1      45.018  27.380  26.824  1.00  0.00    -0.203 F 
ATOM     84  C   UNL A   1      46.620  26.289  25.506  1.00  0.00     0.198 A 
ATOM     85  C   UNL A   1      48.866  26.060  26.298  1.00  0.00     0.198 A 
ATOM     86  F   UNL A   1      49.519  27.021  28.347  1.00  0.00    -0.203 F 
ATOM     87  F   UNL A   1      45.703  26.142  24.537  1.00  0.00    -0.200 F 
ATOM     88  C   UNL A   1      47.916  25.857  25.305  1.00  0.00     0.200 A 
ATOM     89  F   UNL A   1      50.129  25.669  26.078  1.00  0.00    -0.200 F 
ATOM     90  F   UNL A   1      48.266  25.306  24.134  1.00  0.00    -0.200 F 
ENDBRANCH  56  80
BRANCH  68  91
ATOM     91  C   UNL A   1      44.049  33.753  28.065  1.00  0.00     0.064 A 
ATOM     92  C   UNL A   1      43.731  33.801  26.698  1.00  0.00     0.173 A 
ATOM     93  C   UNL A   1      43.848  34.962  28.777  1.00  0.00     0.173 A 
ATOM     94  F   UNL A   1      43.740  32.698  25.937  1.00  0.00    -0.203 F 
ATOM     95  C   UNL A   1      43.323  34.982  26.074  1.00  0.00     0.198 A 
ATOM     96  C   UNL A   1      43.366  36.118  28.166  1.00  0.00     0.198 A 
ATOM     97  F   UNL A   1      44.075  35.048  30.095  1.00  0.00    -0.203 F 
ATOM     98  F   UNL A   1      43.086  34.985  24.755  1.00  0.00    -0.200 F 
ATOM     99  C   UNL A   1      43.127  36.135  26.809  1.00  0.00     0.200 A 
ATOM    100  F   UNL A   1      43.111  37.206  28.906  1.00  0.00    -0.200 F 
ATOM    101  F   UNL A   1      42.682  37.250  26.215  1.00  0.00    -0.200 F 
ENDBRANCH  68  91
ENDBRANCH  42  43
ENDBRANCH  35  37
ENDBRANCH  34  35
ENDBRANCH  33  34
ENDBRANCH  32  33
ENDBRANCH  31  32
ENDBRANCH  30  31
ENDBRANCH   1  30
TORSDOF 20
ENDMDL
