MODEL 1
REMARK VINA RESULT:     -12.2      0.000      0.000
REMARK SMILES Cc1ccccc1-n1c(S[C@@H](C)C(=O)OCCOCCOCCOC(=O)c2ccc(-c3c4nc(c(-c5c(F)c(F)c(F)c(F)c5F)c5ccc([nH]5)c(-c5c(F)c(F)c(F)c(F)c5F)c5nc(c(-c6c(F)c(F)c(F)c(F)c6F)c6ccc3[nH]6)C=C5)C=C4)cc2)nc2sc3c(c2c1=O)C[C@@H](C(C)C)OC3
REMARK SMILES IDX 19 1 18 2 17 3 16 4 15 5 13 6 14 7 11 8 12 9 10 10 9 11 8 12
REMARK SMILES IDX 96 13 90 14 95 15 97 16 91 17 94 18 92 19 93 20 98 21 104 22
REMARK SMILES IDX 99 23 103 24 7 25 1 26 2 27 3 28 4 29 6 30 5 31 100 32
REMARK SMILES IDX 101 33 102 34 20 35 21 36 22 37 23 38 24 39 25 40 26 41
REMARK SMILES IDX 27 42 28 43 89 44 29 45 88 46 30 47 31 48 32 49 82 50 33 51
REMARK SMILES IDX 87 52 81 53 83 54 34 55 86 56 80 57 79 58 35 60 67 61 47 62
REMARK SMILES IDX 66 63 48 64 51 65 65 66 84 67 49 68 50 69 64 71 85 72 52 73
REMARK SMILES IDX 36 74 37 75 45 76 38 77 39 78 43 79 46 80 40 81 41 82 44 83
REMARK SMILES IDX 42 84 68 85 69 86 77 87 70 88 71 89 75 90 78 91 72 92 73 93
REMARK SMILES IDX 76 94 74 95 53 96 54 97 62 98 55 99 56 100 60 101 63 102
REMARK SMILES IDX 57 103 58 104 61 105 59 106
REMARK H PARENT 83 59 51 70
REMARK Flexibility Score: inf
ROOT
ATOM      1  C   UNL A   1      44.635  19.690  24.775  1.00  0.00     0.188 C 
ENDROOT
BRANCH   1   2
ATOM      2  O   UNL A   1      43.312  19.260  24.995  1.00  0.00    -0.376 OA
BRANCH   2   3
ATOM      3  C   UNL A   1      42.698  19.613  26.214  1.00  0.00     0.202 C 
BRANCH   3   4
ATOM      4  C   UNL A   1      41.209  19.292  26.379  1.00  0.00     0.261 C 
BRANCH   4   5
ATOM      5  O   UNL A   1      40.335  20.411  26.113  1.00  0.00    -0.462 OA
BRANCH   5   6
ATOM      6  C   UNL A   1      38.984  20.381  25.436  1.00  0.00     0.319 C 
ATOM      7  O   UNL A   1      38.806  19.143  25.235  1.00  0.00    -0.251 OA
BRANCH   6   8
ATOM      8  C   UNL A   1      37.844  22.185  24.994  1.00  0.00     0.161 C 
ATOM      9  C   UNL A   1      37.677  23.680  25.698  1.00  0.00     0.032 C 
BRANCH   8  10
ATOM     10  S   UNL A   1      36.008  22.436  23.640  1.00  0.00    -0.072 SA
BRANCH  10  11
ATOM     11  C   UNL A   1      34.707  23.804  23.651  1.00  0.00     0.177 A 
ATOM     12  N   UNL A   1      33.785  23.982  24.675  1.00  0.00    -0.255 N 
ATOM     13  C   UNL A   1      32.994  25.082  24.918  1.00  0.00     0.267 A 
ATOM     14  N   UNL A   1      34.752  24.733  22.702  1.00  0.00    -0.212 NA
ATOM     15  C   UNL A   1      32.874  25.905  23.811  1.00  0.00     0.081 A 
ATOM     16  O   UNL A   1      32.442  25.355  25.985  1.00  0.00    -0.268 OA
ATOM     17  C   UNL A   1      33.802  25.759  22.810  1.00  0.00     0.132 A 
ATOM     18  C   UNL A   1      31.901  26.902  23.724  1.00  0.00    -0.014 A 
ATOM     19  S   UNL A   1      33.640  27.193  21.845  1.00  0.00    -0.117 S 
ATOM     20  C   UNL A   1      32.313  27.805  22.791  1.00  0.00     0.037 A 
ATOM     21  C   UNL A   1      30.743  27.157  24.648  1.00  0.00     0.070 C 
ATOM     22  C   UNL A   1      31.738  29.186  22.738  1.00  0.00     0.207 C 
ATOM     23  C   UNL A   1      30.637  28.654  24.911  1.00  0.00     0.125 C 
ATOM     24  O   UNL A   1      30.584  29.319  23.622  1.00  0.00    -0.372 OA
BRANCH  12  25
ATOM     25  C   UNL A   1      33.548  23.155  25.694  1.00  0.00     0.054 A 
ATOM     26  C   UNL A   1      32.061  21.663  24.201  1.00  0.00     0.046 C 
ATOM     27  C   UNL A   1      32.741  22.091  25.454  1.00  0.00    -0.027 A 
ATOM     28  C   UNL A   1      32.422  21.589  26.639  1.00  0.00     0.005 A 
ATOM     29  C   UNL A   1      33.177  21.811  27.819  1.00  0.00     0.000 A 
ATOM     30  C   UNL A   1      34.397  23.395  26.832  1.00  0.00     0.027 A 
ATOM     31  C   UNL A   1      34.285  22.601  27.902  1.00  0.00     0.002 A 
ENDBRANCH  12  25
BRANCH  23  32
ATOM     32  C   UNL A   1      31.716  29.235  25.872  1.00  0.00     0.012 C 
ATOM     33  C   UNL A   1      31.491  30.741  26.032  1.00  0.00     0.010 C 
ATOM     34  C   UNL A   1      31.744  28.600  27.273  1.00  0.00     0.010 C 
ENDBRANCH  23  32
ENDBRANCH  10  11
ENDBRANCH   8  10
ENDBRANCH   6   8
ENDBRANCH   5   6
ENDBRANCH   4   5
ENDBRANCH   3   4
ENDBRANCH   2   3
ENDBRANCH   1   2
BRANCH   1  35
ATOM     35  C   UNL A   1      44.916  21.132  24.416  1.00  0.00     0.188 C 
BRANCH  35  36
ATOM     36  O   UNL A   1      43.849  22.030  24.183  1.00  0.00    -0.376 OA
BRANCH  36  37
ATOM     37  C   UNL A   1      44.239  23.423  24.263  1.00  0.00     0.202 C 
BRANCH  37  38
ATOM     38  C   UNL A   1      44.317  24.029  25.695  1.00  0.00     0.261 C 
BRANCH  38  39
ATOM     39  O   UNL A   1      43.093  24.831  25.887  1.00  0.00    -0.460 OA
BRANCH  39  40
ATOM     40  C   UNL A   1      42.149  24.555  26.841  1.00  0.00     0.338 C 
ATOM     41  O   UNL A   1      41.175  23.840  26.707  1.00  0.00    -0.246 OA
BRANCH  40  42
ATOM     42  C   UNL A   1      42.398  25.481  28.033  1.00  0.00     0.060 A 
ATOM     43  C   UNL A   1      43.766  25.378  29.219  1.00  0.00     0.016 A 
ATOM     44  C   UNL A   1      41.184  26.780  28.327  1.00  0.00     0.016 A 
ATOM     45  C   UNL A   1      43.883  26.537  30.652  1.00  0.00     0.010 A 
ATOM     46  C   UNL A   1      41.369  27.860  29.828  1.00  0.00     0.010 A 
ATOM     47  C   UNL A   1      42.660  27.801  31.066  1.00  0.00    -0.014 A 
BRANCH  47  48
ATOM     48  C   UNL A   1      42.758  28.917  32.518  1.00  0.00     0.031 A 
ATOM     49  C   UNL A   1      43.676  30.382  32.441  1.00  0.00     0.074 A 
ATOM     50  C   UNL A   1      41.917  29.362  33.608  1.00  0.00     0.049 A 
ATOM     51  N   UNL A   1      43.028  31.517  32.417  1.00  0.00    -0.248 NA
ATOM     52  C   UNL A   1      45.111  30.754  32.247  1.00  0.00     0.031 C 
ATOM     53  C   UNL A   1      42.561  29.922  34.846  1.00  0.00     0.029 A 
ATOM     54  N   UNL A   1      40.576  29.882  33.856  1.00  0.00    -0.354 N 
ATOM     55  C   UNL A   1      43.691  32.555  31.755  1.00  0.00     0.074 A 
ATOM     56  C   UNL A   1      45.064  32.061  31.813  1.00  0.00     0.031 C 
ATOM     57  C   UNL A   1      41.810  30.877  35.450  1.00  0.00     0.029 A 
ATOM     58  C   UNL A   1      40.523  31.053  34.770  1.00  0.00     0.049 A 
ATOM     59  H   UNL A   1      39.770  29.488  33.449  1.00  0.00     0.167 HD
ATOM     60  C   UNL A   1      42.943  33.536  31.057  1.00  0.00     0.037 A 
ATOM     61  C   UNL A   1      39.695  32.193  34.963  1.00  0.00     0.037 A 
ATOM     62  C   UNL A   1      41.473  33.277  31.122  1.00  0.00     0.049 A 
ATOM     63  C   UNL A   1      38.471  32.426  34.082  1.00  0.00     0.074 A 
ATOM     64  C   UNL A   1      40.883  32.544  32.107  1.00  0.00     0.029 A 
ATOM     65  N   UNL A   1      40.330  33.508  30.308  1.00  0.00    -0.354 N 
ATOM     66  N   UNL A   1      38.532  33.196  33.038  1.00  0.00    -0.248 NA
ATOM     67  C   UNL A   1      37.076  32.045  34.308  1.00  0.00     0.031 C 
ATOM     68  C   UNL A   1      40.045  31.656  31.442  1.00  0.00     0.029 A 
ATOM     69  C   UNL A   1      39.330  32.573  30.713  1.00  0.00     0.049 A 
ATOM     70  H   UNL A   1      40.245  34.184  29.598  1.00  0.00     0.167 HD
ATOM     71  C   UNL A   1      37.529  32.827  32.183  1.00  0.00     0.074 A 
ATOM     72  C   UNL A   1      36.516  32.388  33.122  1.00  0.00     0.031 C 
ATOM     73  C   UNL A   1      37.851  32.615  30.848  1.00  0.00     0.037 A 
BRANCH  60  74
ATOM     74  C   UNL A   1      43.400  34.715  30.251  1.00  0.00     0.064 A 
ATOM     75  C   UNL A   1      43.612  35.907  30.980  1.00  0.00     0.173 A 
ATOM     76  C   UNL A   1      43.506  34.819  28.856  1.00  0.00     0.173 A 
ATOM     77  F   UNL A   1      43.475  35.910  32.314  1.00  0.00    -0.203 F 
ATOM     78  C   UNL A   1      43.944  37.115  30.373  1.00  0.00     0.198 A 
ATOM     79  C   UNL A   1      43.850  36.042  28.243  1.00  0.00     0.198 A 
ATOM     80  F   UNL A   1      43.254  33.768  28.065  1.00  0.00    -0.203 F 
ATOM     81  F   UNL A   1      44.123  38.211  31.125  1.00  0.00    -0.200 F 
ATOM     82  C   UNL A   1      44.080  37.181  29.003  1.00  0.00     0.200 A 
ATOM     83  F   UNL A   1      43.960  36.125  26.908  1.00  0.00    -0.200 F 
ATOM     84  F   UNL A   1      44.427  38.338  28.420  1.00  0.00    -0.200 F 
ENDBRANCH  60  74
BRANCH  61  85
ATOM     85  C   UNL A   1      40.174  33.612  35.533  1.00  0.00     0.064 A 
ATOM     86  C   UNL A   1      41.397  34.230  35.232  1.00  0.00     0.173 A 
ATOM     87  C   UNL A   1      39.467  34.289  36.588  1.00  0.00     0.173 A 
ATOM     88  F   UNL A   1      42.241  33.655  34.364  1.00  0.00    -0.203 F 
ATOM     89  C   UNL A   1      41.824  35.432  35.869  1.00  0.00     0.198 A 
ATOM     90  C   UNL A   1      39.887  35.469  37.217  1.00  0.00     0.198 A 
ATOM     91  F   UNL A   1      38.344  33.817  37.121  1.00  0.00    -0.203 F 
ATOM     92  F   UNL A   1      43.010  35.975  35.555  1.00  0.00    -0.200 F 
ATOM     93  C   UNL A   1      41.062  36.058  36.844  1.00  0.00     0.200 A 
ATOM     94  F   UNL A   1      39.153  36.000  38.209  1.00  0.00    -0.200 F 
ATOM     95  F   UNL A   1      41.465  37.193  37.437  1.00  0.00    -0.200 F 
ENDBRANCH  61  85
BRANCH  73  96
ATOM     96  C   UNL A   1      37.024  31.853  29.828  1.00  0.00     0.064 A 
ATOM     97  C   UNL A   1      37.300  30.569  29.322  1.00  0.00     0.173 A 
ATOM     98  C   UNL A   1      35.920  32.499  29.224  1.00  0.00     0.173 A 
ATOM     99  F   UNL A   1      38.351  29.856  29.731  1.00  0.00    -0.203 F 
ATOM    100  C   UNL A   1      36.524  29.971  28.322  1.00  0.00     0.198 A 
ATOM    101  C   UNL A   1      35.167  31.916  28.202  1.00  0.00     0.198 A 
ATOM    102  F   UNL A   1      35.555  33.736  29.591  1.00  0.00    -0.203 F 
ATOM    103  F   UNL A   1      36.848  28.747  27.880  1.00  0.00    -0.200 F 
ATOM    104  C   UNL A   1      35.458  30.642  27.762  1.00  0.00     0.200 A 
ATOM    105  F   UNL A   1      34.199  32.628  27.605  1.00  0.00    -0.200 F 
ATOM    106  F   UNL A   1      34.753  30.090  26.766  1.00  0.00    -0.200 F 
ENDBRANCH  73  96
ENDBRANCH  47  48
ENDBRANCH  40  42
ENDBRANCH  39  40
ENDBRANCH  38  39
ENDBRANCH  37  38
ENDBRANCH  36  37
ENDBRANCH  35  36
ENDBRANCH   1  35
TORSDOF 21
ENDMDL
MODEL 2
REMARK VINA RESULT:     -11.8      5.522     10.719
REMARK SMILES Cc1ccccc1-n1c(S[C@@H](C)C(=O)OCCOCCOCCOC(=O)c2ccc(-c3c4nc(c(-c5c(F)c(F)c(F)c(F)c5F)c5ccc([nH]5)c(-c5c(F)c(F)c(F)c(F)c5F)c5nc(c(-c6c(F)c(F)c(F)c(F)c6F)c6ccc3[nH]6)C=C5)C=C4)cc2)nc2sc3c(c2c1=O)C[C@@H](C(C)C)OC3
REMARK SMILES IDX 19 1 18 2 17 3 16 4 15 5 13 6 14 7 11 8 12 9 10 10 9 11 8 12
REMARK SMILES IDX 96 13 90 14 95 15 97 16 91 17 94 18 92 19 93 20 98 21 104 22
REMARK SMILES IDX 99 23 103 24 7 25 1 26 2 27 3 28 4 29 6 30 5 31 100 32
REMARK SMILES IDX 101 33 102 34 20 35 21 36 22 37 23 38 24 39 25 40 26 41
REMARK SMILES IDX 27 42 28 43 89 44 29 45 88 46 30 47 31 48 32 49 82 50 33 51
REMARK SMILES IDX 87 52 81 53 83 54 34 55 86 56 80 57 79 58 35 60 67 61 47 62
REMARK SMILES IDX 66 63 48 64 51 65 65 66 84 67 49 68 50 69 64 71 85 72 52 73
REMARK SMILES IDX 36 74 37 75 45 76 38 77 39 78 43 79 46 80 40 81 41 82 44 83
REMARK SMILES IDX 42 84 68 85 69 86 77 87 70 88 71 89 75 90 78 91 72 92 73 93
REMARK SMILES IDX 76 94 74 95 53 96 54 97 62 98 55 99 56 100 60 101 63 102
REMARK SMILES IDX 57 103 58 104 61 105 59 106
REMARK H PARENT 83 59 51 70
REMARK Flexibility Score: inf
ROOT
ATOM      1  C   UNL A   1      37.593  29.585  30.012  1.00  0.00     0.188 C 
ENDROOT
BRANCH   1   2
ATOM      2  O   UNL A   1      37.883  29.077  28.730  1.00  0.00    -0.376 OA
BRANCH   2   3
ATOM      3  C   UNL A   1      37.251  29.681  27.624  1.00  0.00     0.202 C 
BRANCH   3   4
ATOM      4  C   UNL A   1      35.720  29.697  27.602  1.00  0.00     0.261 C 
BRANCH   4   5
ATOM      5  O   UNL A   1      35.142  30.987  27.896  1.00  0.00    -0.462 OA
BRANCH   5   6
ATOM      6  C   UNL A   1      33.735  31.453  27.602  1.00  0.00     0.319 C 
ATOM      7  O   UNL A   1      33.704  32.595  28.152  1.00  0.00    -0.251 OA
BRANCH   6   8
ATOM      8  C   UNL A   1      32.291  30.240  26.509  1.00  0.00     0.161 C 
ATOM      9  C   UNL A   1      31.192  30.518  25.296  1.00  0.00     0.032 C 
BRANCH   8  10
ATOM     10  S   UNL A   1      31.401  28.201  27.071  1.00  0.00    -0.072 SA
BRANCH  10  11
ATOM     11  C   UNL A   1      31.886  26.486  26.447  1.00  0.00     0.177 A 
ATOM     12  N   UNL A   1      32.522  26.260  25.232  1.00  0.00    -0.255 N 
ATOM     13  C   UNL A   1      33.156  25.113  24.812  1.00  0.00     0.267 A 
ATOM     14  N   UNL A   1      31.737  25.447  27.261  1.00  0.00    -0.212 NA
ATOM     15  C   UNL A   1      32.780  23.999  25.544  1.00  0.00     0.081 A 
ATOM     16  O   UNL A   1      33.979  25.034  23.899  1.00  0.00    -0.268 OA
ATOM     17  C   UNL A   1      32.183  24.214  26.761  1.00  0.00     0.132 A 
ATOM     18  C   UNL A   1      33.055  22.698  25.119  1.00  0.00    -0.014 A 
ATOM     19  S   UNL A   1      32.270  22.682  27.573  1.00  0.00    -0.117 S 
ATOM     20  C   UNL A   1      33.000  21.884  26.210  1.00  0.00     0.037 A 
ATOM     21  C   UNL A   1      33.599  22.247  23.792  1.00  0.00     0.070 C 
ATOM     22  C   UNL A   1      33.636  20.528  26.202  1.00  0.00     0.207 C 
ATOM     23  C   UNL A   1      34.667  21.187  24.028  1.00  0.00     0.125 C 
ATOM     24  O   UNL A   1      34.078  20.154  24.861  1.00  0.00    -0.372 OA
BRANCH  12  25
ATOM     25  C   UNL A   1      32.733  27.147  24.260  1.00  0.00     0.054 A 
ATOM     26  C   UNL A   1      30.305  26.884  23.426  1.00  0.00     0.046 C 
ATOM     27  C   UNL A   1      31.695  27.416  23.430  1.00  0.00    -0.027 A 
ATOM     28  C   UNL A   1      32.201  28.081  22.401  1.00  0.00     0.005 A 
ATOM     29  C   UNL A   1      33.434  28.779  22.443  1.00  0.00     0.000 A 
ATOM     30  C   UNL A   1      33.972  27.866  24.404  1.00  0.00     0.027 A 
ATOM     31  C   UNL A   1      34.277  28.816  23.514  1.00  0.00     0.002 A 
ENDBRANCH  12  25
BRANCH  23  32
ATOM     32  C   UNL A   1      36.027  21.723  24.565  1.00  0.00     0.012 C 
ATOM     33  C   UNL A   1      36.985  20.549  24.779  1.00  0.00     0.010 C 
ATOM     34  C   UNL A   1      36.721  22.751  23.655  1.00  0.00     0.010 C 
ENDBRANCH  23  32
ENDBRANCH  10  11
ENDBRANCH   8  10
ENDBRANCH   6   8
ENDBRANCH   5   6
ENDBRANCH   4   5
ENDBRANCH   3   4
ENDBRANCH   2   3
ENDBRANCH   1   2
BRANCH   1  35
ATOM     35  C   UNL A   1      37.679  28.684  31.224  1.00  0.00     0.188 C 
BRANCH  35  36
ATOM     36  O   UNL A   1      37.055  29.059  32.436  1.00  0.00    -0.376 OA
BRANCH  36  37
ATOM     37  C   UNL A   1      36.689  30.459  32.489  1.00  0.00     0.202 C 
BRANCH  37  38
ATOM     38  C   UNL A   1      37.543  31.352  33.436  1.00  0.00     0.261 C 
BRANCH  38  39
ATOM     39  O   UNL A   1      38.906  31.393  32.872  1.00  0.00    -0.460 OA
BRANCH  39  40
ATOM     40  C   UNL A   1      39.294  32.269  31.893  1.00  0.00     0.338 C 
ATOM     41  O   UNL A   1      38.574  33.039  31.287  1.00  0.00    -0.246 OA
BRANCH  40  42
ATOM     42  C   UNL A   1      40.746  31.955  31.526  1.00  0.00     0.060 A 
ATOM     43  C   UNL A   1      42.231  32.527  32.394  1.00  0.00     0.016 A 
ATOM     44  C   UNL A   1      41.019  30.956  30.051  1.00  0.00     0.016 A 
ATOM     45  C   UNL A   1      43.922  32.114  31.776  1.00  0.00     0.010 A 
ATOM     46  C   UNL A   1      42.761  30.641  29.489  1.00  0.00     0.010 A 
ATOM     47  C   UNL A   1      44.277  31.198  30.259  1.00  0.00    -0.014 A 
BRANCH  47  48
ATOM     48  C   UNL A   1      45.959  30.833  29.626  1.00  0.00     0.031 A 
ATOM     49  C   UNL A   1      47.135  30.072  30.643  1.00  0.00     0.074 A 
ATOM     50  C   UNL A   1      46.595  30.430  28.391  1.00  0.00     0.049 A 
ATOM     51  N   UNL A   1      47.464  28.833  30.387  1.00  0.00    -0.248 NA
ATOM     52  C   UNL A   1      47.848  30.405  31.914  1.00  0.00     0.031 C 
ATOM     53  C   UNL A   1      48.060  30.707  28.198  1.00  0.00     0.029 A 
ATOM     54  N   UNL A   1      46.460  29.442  27.325  1.00  0.00    -0.354 N 
ATOM     55  C   UNL A   1      47.878  28.096  31.501  1.00  0.00     0.074 A 
ATOM     56  C   UNL A   1      48.255  29.181  32.402  1.00  0.00     0.031 C 
ATOM     57  C   UNL A   1      48.681  29.774  27.434  1.00  0.00     0.029 A 
ATOM     58  C   UNL A   1      47.729  28.777  26.929  1.00  0.00     0.049 A 
ATOM     59  H   UNL A   1      45.596  29.231  26.902  1.00  0.00     0.167 HD
ATOM     60  C   UNL A   1      47.605  26.706  31.567  1.00  0.00     0.037 A 
ATOM     61  C   UNL A   1      48.132  27.520  26.403  1.00  0.00     0.037 A 
ATOM     62  C   UNL A   1      46.850  26.222  30.372  1.00  0.00     0.049 A 
ATOM     63  C   UNL A   1      47.101  26.441  26.084  1.00  0.00     0.074 A 
ATOM     64  C   UNL A   1      46.864  26.857  29.168  1.00  0.00     0.029 A 
ATOM     65  N   UNL A   1      45.900  25.207  30.073  1.00  0.00    -0.354 N 
ATOM     66  N   UNL A   1      46.830  25.499  26.937  1.00  0.00    -0.248 NA
ATOM     67  C   UNL A   1      46.423  26.146  24.822  1.00  0.00     0.031 C 
ATOM     68  C   UNL A   1      45.529  26.942  28.790  1.00  0.00     0.029 A 
ATOM     69  C   UNL A   1      45.214  25.610  28.888  1.00  0.00     0.049 A 
ATOM     70  H   UNL A   1      45.745  24.382  30.586  1.00  0.00     0.167 HD
ATOM     71  C   UNL A   1      45.579  25.022  26.654  1.00  0.00     0.074 A 
ATOM     72  C   UNL A   1      45.536  25.199  25.216  1.00  0.00     0.031 C 
ATOM     73  C   UNL A   1      44.671  24.902  27.700  1.00  0.00     0.037 A 
BRANCH  60  74
ATOM     74  C   UNL A   1      47.907  25.707  32.643  1.00  0.00     0.064 A 
ATOM     75  C   UNL A   1      49.203  25.146  32.610  1.00  0.00     0.173 A 
ATOM     76  C   UNL A   1      47.023  25.160  33.585  1.00  0.00     0.173 A 
ATOM     77  F   UNL A   1      50.094  25.571  31.703  1.00  0.00    -0.203 F 
ATOM     78  C   UNL A   1      49.611  24.136  33.477  1.00  0.00     0.198 A 
ATOM     79  C   UNL A   1      47.441  24.142  34.468  1.00  0.00     0.198 A 
ATOM     80  F   UNL A   1      45.749  25.568  33.654  1.00  0.00    -0.203 F 
ATOM     81  F   UNL A   1      50.855  23.642  33.385  1.00  0.00    -0.200 F 
ATOM     82  C   UNL A   1      48.735  23.643  34.419  1.00  0.00     0.200 A 
ATOM     83  F   UNL A   1      46.589  23.635  35.373  1.00  0.00    -0.200 F 
ATOM     84  F   UNL A   1      49.137  22.689  35.273  1.00  0.00    -0.200 F 
ENDBRANCH  60  74
BRANCH  61  85
ATOM     85  C   UNL A   1      49.538  26.799  26.671  1.00  0.00     0.064 A 
ATOM     86  C   UNL A   1      50.209  26.777  27.903  1.00  0.00     0.173 A 
ATOM     87  C   UNL A   1      50.348  26.282  25.600  1.00  0.00     0.173 A 
ATOM     88  F   UNL A   1      49.648  27.342  28.981  1.00  0.00    -0.203 F 
ATOM     89  C   UNL A   1      51.519  26.230  28.051  1.00  0.00     0.198 A 
ATOM     90  C   UNL A   1      51.635  25.746  25.744  1.00  0.00     0.198 A 
ATOM     91  F   UNL A   1      49.965  26.314  24.328  1.00  0.00    -0.203 F 
ATOM     92  F   UNL A   1      52.122  26.247  29.249  1.00  0.00    -0.200 F 
ATOM     93  C   UNL A   1      52.219  25.700  26.978  1.00  0.00     0.200 A 
ATOM     94  F   UNL A   1      52.308  25.313  24.665  1.00  0.00    -0.200 F 
ATOM     95  F   UNL A   1      53.448  25.181  27.124  1.00  0.00    -0.200 F 
ENDBRANCH  61  85
BRANCH  73  96
ATOM     96  C   UNL A   1      43.163  24.773  27.578  1.00  0.00     0.064 A 
ATOM     97  C   UNL A   1      42.397  23.631  27.878  1.00  0.00     0.173 A 
ATOM     98  C   UNL A   1      42.430  25.844  27.014  1.00  0.00     0.173 A 
ATOM     99  F   UNL A   1      42.948  22.510  28.345  1.00  0.00    -0.203 F 
ATOM    100  C   UNL A   1      41.015  23.574  27.662  1.00  0.00     0.198 A 
ATOM    101  C   UNL A   1      41.057  25.773  26.766  1.00  0.00     0.198 A 
ATOM    102  F   UNL A   1      43.034  26.987  26.658  1.00  0.00    -0.203 F 
ATOM    103  F   UNL A   1      40.347  22.452  27.963  1.00  0.00    -0.200 F 
ATOM    104  C   UNL A   1      40.344  24.644  27.107  1.00  0.00     0.200 A 
ATOM    105  F   UNL A   1      40.447  26.787  26.134  1.00  0.00    -0.200 F 
ATOM    106  F   UNL A   1      39.032  24.564  26.849  1.00  0.00    -0.200 F 
ENDBRANCH  73  96
ENDBRANCH  47  48
ENDBRANCH  40  42
ENDBRANCH  39  40
ENDBRANCH  38  39
ENDBRANCH  37  38
ENDBRANCH  36  37
ENDBRANCH  35  36
ENDBRANCH   1  35
TORSDOF 21
ENDMDL
MODEL 3
REMARK VINA RESULT:     -11.0      6.600     14.053
REMARK SMILES Cc1ccccc1-n1c(S[C@@H](C)C(=O)OCCOCCOCCOC(=O)c2ccc(-c3c4nc(c(-c5c(F)c(F)c(F)c(F)c5F)c5ccc([nH]5)c(-c5c(F)c(F)c(F)c(F)c5F)c5nc(c(-c6c(F)c(F)c(F)c(F)c6F)c6ccc3[nH]6)C=C5)C=C4)cc2)nc2sc3c(c2c1=O)C[C@@H](C(C)C)OC3
REMARK SMILES IDX 19 1 18 2 17 3 16 4 15 5 13 6 14 7 11 8 12 9 10 10 9 11 8 12
REMARK SMILES IDX 96 13 90 14 95 15 97 16 91 17 94 18 92 19 93 20 98 21 104 22
REMARK SMILES IDX 99 23 103 24 7 25 1 26 2 27 3 28 4 29 6 30 5 31 100 32
REMARK SMILES IDX 101 33 102 34 20 35 21 36 22 37 23 38 24 39 25 40 26 41
REMARK SMILES IDX 27 42 28 43 89 44 29 45 88 46 30 47 31 48 32 49 82 50 33 51
REMARK SMILES IDX 87 52 81 53 83 54 34 55 86 56 80 57 79 58 35 60 67 61 47 62
REMARK SMILES IDX 66 63 48 64 51 65 65 66 84 67 49 68 50 69 64 71 85 72 52 73
REMARK SMILES IDX 36 74 37 75 45 76 38 77 39 78 43 79 46 80 40 81 41 82 44 83
REMARK SMILES IDX 42 84 68 85 69 86 77 87 70 88 71 89 75 90 78 91 72 92 73 93
REMARK SMILES IDX 76 94 74 95 53 96 54 97 62 98 55 99 56 100 60 101 63 102
REMARK SMILES IDX 57 103 58 104 61 105 59 106
REMARK H PARENT 83 59 51 70
REMARK Flexibility Score: inf
ROOT
ATOM      1  C   UNL A   1      49.405  37.452  25.850  1.00  0.00     0.188 C 
ENDROOT
BRANCH   1   2
ATOM      2  O   UNL A   1      48.150  37.006  25.392  1.00  0.00    -0.376 OA
BRANCH   2   3
ATOM      3  C   UNL A   1      47.398  36.168  26.241  1.00  0.00     0.202 C 
BRANCH   3   4
ATOM      4  C   UNL A   1      47.214  34.708  25.818  1.00  0.00     0.261 C 
BRANCH   4   5
ATOM      5  O   UNL A   1      46.033  34.471  25.023  1.00  0.00    -0.462 OA
BRANCH   5   6
ATOM      6  C   UNL A   1      44.649  34.115  25.515  1.00  0.00     0.319 C 
ATOM      7  O   UNL A   1      44.427  33.012  24.931  1.00  0.00    -0.251 OA
BRANCH   6   8
ATOM      8  C   UNL A   1      43.511  35.388  26.870  1.00  0.00     0.161 C 
ATOM      9  C   UNL A   1      41.906  35.562  27.258  1.00  0.00     0.032 C 
BRANCH   8  10
ATOM     10  S   UNL A   1      44.135  37.361  27.860  1.00  0.00    -0.072 SA
BRANCH  10  11
ATOM     11  C   UNL A   1      44.536  39.018  27.047  1.00  0.00     0.177 A 
ATOM     12  N   UNL A   1      44.074  40.240  27.520  1.00  0.00    -0.255 N 
ATOM     13  C   UNL A   1      44.518  41.498  27.182  1.00  0.00     0.267 A 
ATOM     14  N   UNL A   1      45.414  39.041  26.050  1.00  0.00    -0.212 NA
ATOM     15  C   UNL A   1      45.231  41.510  25.996  1.00  0.00     0.081 A 
ATOM     16  O   UNL A   1      44.337  42.528  27.834  1.00  0.00    -0.268 OA
ATOM     17  C   UNL A   1      45.721  40.311  25.540  1.00  0.00     0.132 A 
ATOM     18  C   UNL A   1      45.518  42.691  25.309  1.00  0.00    -0.014 A 
ATOM     19  S   UNL A   1      46.901  40.743  24.342  1.00  0.00    -0.117 S 
ATOM     20  C   UNL A   1      46.579  42.446  24.489  1.00  0.00     0.037 A 
ATOM     21  C   UNL A   1      44.998  44.075  25.577  1.00  0.00     0.070 C 
ATOM     22  C   UNL A   1      47.402  43.565  23.929  1.00  0.00     0.207 C 
ATOM     23  C   UNL A   1      46.149  45.067  25.475  1.00  0.00     0.125 C 
ATOM     24  O   UNL A   1      46.786  44.864  24.187  1.00  0.00    -0.372 OA
BRANCH  12  25
ATOM     25  C   UNL A   1      43.167  40.438  28.476  1.00  0.00     0.054 A 
ATOM     26  C   UNL A   1      41.243  40.141  26.780  1.00  0.00     0.046 C 
ATOM     27  C   UNL A   1      41.861  40.396  28.110  1.00  0.00    -0.027 A 
ATOM     28  C   UNL A   1      41.171  40.893  29.127  1.00  0.00     0.005 A 
ATOM     29  C   UNL A   1      41.660  40.955  30.457  1.00  0.00     0.000 A 
ATOM     30  C   UNL A   1      43.724  40.422  29.803  1.00  0.00     0.027 A 
ATOM     31  C   UNL A   1      42.906  40.567  30.852  1.00  0.00     0.002 A 
ENDBRANCH  12  25
BRANCH  23  32
ATOM     32  C   UNL A   1      47.143  45.055  26.674  1.00  0.00     0.012 C 
ATOM     33  C   UNL A   1      48.240  46.094  26.433  1.00  0.00     0.010 C 
ATOM     34  C   UNL A   1      46.505  45.337  28.045  1.00  0.00     0.010 C 
ENDBRANCH  23  32
ENDBRANCH  10  11
ENDBRANCH   8  10
ENDBRANCH   6   8
ENDBRANCH   5   6
ENDBRANCH   4   5
ENDBRANCH   3   4
ENDBRANCH   2   3
ENDBRANCH   1   2
BRANCH   1  35
ATOM     35  C   UNL A   1      49.511  38.223  27.147  1.00  0.00     0.188 C 
BRANCH  35  36
ATOM     36  O   UNL A   1      48.669  39.333  27.388  1.00  0.00    -0.376 OA
BRANCH  36  37
ATOM     37  C   UNL A   1      47.885  39.212  28.600  1.00  0.00     0.202 C 
BRANCH  37  38
ATOM     38  C   UNL A   1      48.290  38.056  29.560  1.00  0.00     0.261 C 
BRANCH  38  39
ATOM     39  O   UNL A   1      47.166  37.100  29.576  1.00  0.00    -0.460 OA
BRANCH  39  40
ATOM     40  C   UNL A   1      46.853  36.317  30.657  1.00  0.00     0.338 C 
ATOM     41  O   UNL A   1      46.928  36.639  31.827  1.00  0.00    -0.246 OA
BRANCH  40  42
ATOM     42  C   UNL A   1      46.615  34.891  30.154  1.00  0.00     0.060 A 
ATOM     43  C   UNL A   1      47.875  33.722  29.575  1.00  0.00     0.016 A 
ATOM     44  C   UNL A   1      44.907  34.325  30.080  1.00  0.00     0.016 A 
ATOM     45  C   UNL A   1      47.411  32.055  28.931  1.00  0.00     0.010 A 
ATOM     46  C   UNL A   1      44.546  32.647  29.368  1.00  0.00     0.010 A 
ATOM     47  C   UNL A   1      45.719  31.450  28.738  1.00  0.00    -0.014 A 
BRANCH  47  48
ATOM     48  C   UNL A   1      45.264  29.812  28.053  1.00  0.00     0.031 A 
ATOM     49  C   UNL A   1      45.731  28.358  28.868  1.00  0.00     0.074 A 
ATOM     50  C   UNL A   1      44.169  29.197  27.335  1.00  0.00     0.049 A 
ATOM     51  N   UNL A   1      44.802  27.655  29.460  1.00  0.00    -0.248 NA
ATOM     52  C   UNL A   1      47.015  27.683  29.231  1.00  0.00     0.031 C 
ATOM     53  C   UNL A   1      44.421  27.937  26.555  1.00  0.00     0.029 A 
ATOM     54  N   UNL A   1      42.714  29.089  27.378  1.00  0.00    -0.354 N 
ATOM     55  C   UNL A   1      45.242  26.913  30.560  1.00  0.00     0.074 A 
ATOM     56  C   UNL A   1      46.671  26.842  30.268  1.00  0.00     0.031 C 
ATOM     57  C   UNL A   1      43.345  27.111  26.515  1.00  0.00     0.029 A 
ATOM     58  C   UNL A   1      42.186  27.713  27.184  1.00  0.00     0.049 A 
ATOM     59  H   UNL A   1      42.128  29.867  27.524  1.00  0.00     0.167 HD
ATOM     60  C   UNL A   1      44.369  26.693  31.656  1.00  0.00     0.037 A 
ATOM     61  C   UNL A   1      41.051  26.961  27.591  1.00  0.00     0.037 A 
ATOM     62  C   UNL A   1      43.042  27.349  31.460  1.00  0.00     0.049 A 
ATOM     63  C   UNL A   1      39.968  27.592  28.462  1.00  0.00     0.074 A 
ATOM     64  C   UNL A   1      42.533  27.664  30.237  1.00  0.00     0.029 A 
ATOM     65  N   UNL A   1      42.026  27.924  32.273  1.00  0.00    -0.354 N 
ATOM     66  N   UNL A   1      39.976  27.447  29.753  1.00  0.00    -0.248 NA
ATOM     67  C   UNL A   1      38.720  28.246  28.067  1.00  0.00     0.031 C 
ATOM     68  C   UNL A   1      42.097  28.979  30.355  1.00  0.00     0.029 A 
ATOM     69  C   UNL A   1      41.279  28.815  31.445  1.00  0.00     0.049 A 
ATOM     70  H   UNL A   1      41.869  27.743  33.227  1.00  0.00     0.167 HD
ATOM     71  C   UNL A   1      39.268  28.485  30.297  1.00  0.00     0.074 A 
ATOM     72  C   UNL A   1      38.283  28.720  29.260  1.00  0.00     0.031 C 
ATOM     73  C   UNL A   1      39.847  29.195  31.342  1.00  0.00     0.037 A 
BRANCH  60  74
ATOM     74  C   UNL A   1      44.598  25.972  32.950  1.00  0.00     0.064 A 
ATOM     75  C   UNL A   1      44.437  24.569  32.905  1.00  0.00     0.173 A 
ATOM     76  C   UNL A   1      44.811  26.526  34.222  1.00  0.00     0.173 A 
ATOM     77  F   UNL A   1      44.174  23.963  31.738  1.00  0.00    -0.203 F 
ATOM     78  C   UNL A   1      44.518  23.762  34.036  1.00  0.00     0.198 A 
ATOM     79  C   UNL A   1      44.902  25.706  35.366  1.00  0.00     0.198 A 
ATOM     80  F   UNL A   1      44.905  27.852  34.389  1.00  0.00    -0.203 F 
ATOM     81  F   UNL A   1      44.347  22.436  33.922  1.00  0.00    -0.200 F 
ATOM     82  C   UNL A   1      44.767  24.328  35.268  1.00  0.00     0.200 A 
ATOM     83  F   UNL A   1      45.117  26.248  36.574  1.00  0.00    -0.200 F 
ATOM     84  F   UNL A   1      44.874  23.547  36.354  1.00  0.00    -0.200 F 
ENDBRANCH  60  74
BRANCH  61  85
ATOM     85  C   UNL A   1      41.011  25.375  27.822  1.00  0.00     0.064 A 
ATOM     86  C   UNL A   1      42.025  24.627  28.440  1.00  0.00     0.173 A 
ATOM     87  C   UNL A   1      40.010  24.540  27.215  1.00  0.00     0.173 A 
ATOM     88  F   UNL A   1      43.102  25.245  28.942  1.00  0.00    -0.203 F 
ATOM     89  C   UNL A   1      41.992  23.202  28.503  1.00  0.00     0.198 A 
ATOM     90  C   UNL A   1      39.978  23.140  27.274  1.00  0.00     0.198 A 
ATOM     91  F   UNL A   1      39.020  25.026  26.473  1.00  0.00    -0.203 F 
ATOM     92  F   UNL A   1      42.994  22.532  29.094  1.00  0.00    -0.200 F 
ATOM     93  C   UNL A   1      40.963  22.465  27.938  1.00  0.00     0.200 A 
ATOM     94  F   UNL A   1      39.002  22.462  26.647  1.00  0.00    -0.200 F 
ATOM     95  F   UNL A   1      40.934  21.124  28.005  1.00  0.00    -0.200 F 
ENDBRANCH  61  85
BRANCH  73  96
ATOM     96  C   UNL A   1      39.443  30.576  31.830  1.00  0.00     0.064 A 
ATOM     97  C   UNL A   1      38.765  30.871  33.027  1.00  0.00     0.173 A 
ATOM     98  C   UNL A   1      39.655  31.688  30.981  1.00  0.00     0.173 A 
ATOM     99  F   UNL A   1      38.421  29.924  33.900  1.00  0.00    -0.203 F 
ATOM    100  C   UNL A   1      38.361  32.170  33.362  1.00  0.00     0.198 A 
ATOM    101  C   UNL A   1      39.221  32.977  31.301  1.00  0.00     0.198 A 
ATOM    102  F   UNL A   1      40.269  31.550  29.797  1.00  0.00    -0.203 F 
ATOM    103  F   UNL A   1      37.712  32.381  34.515  1.00  0.00    -0.200 F 
ATOM    104  C   UNL A   1      38.589  33.223  32.501  1.00  0.00     0.200 A 
ATOM    105  F   UNL A   1      39.365  33.964  30.403  1.00  0.00    -0.200 F 
ATOM    106  F   UNL A   1      38.150  34.452  32.799  1.00  0.00    -0.200 F 
ENDBRANCH  73  96
ENDBRANCH  47  48
ENDBRANCH  40  42
ENDBRANCH  39  40
ENDBRANCH  38  39
ENDBRANCH  37  38
ENDBRANCH  36  37
ENDBRANCH  35  36
ENDBRANCH   1  35
TORSDOF 21
ENDMDL
