MODEL 1
REMARK VINA RESULT:      -9.9      0.000      0.000
REMARK SMILES [NH3+][C@@H](Cc1ccc(OC(F)F)cc1)C(=O)OCCOCCOCCOC(=O)c1ccc(-c2c3nc(c(-c4c(F)c(F)c(F)c(F)c4F)c4ccc([nH]4)c(-c4c(F)c(F)c(F)c(F)c4F)c4nc(c(-c5c(F)c(F)c(F)c(F)c5F)c5ccc2[nH]5)C=C4)C=C3)cc1
REMARK SMILES IDX 20 1 19 2 18 3 17 4 16 5 14 6 15 7 2 8 1 9 3 13 4 14 5 15
REMARK SMILES IDX 13 16 6 17 12 18 7 19 8 20 9 21 10 22 11 23 21 24 22 25
REMARK SMILES IDX 23 26 24 27 25 28 26 29 27 30 28 31 29 32 90 33 30 34 89 35
REMARK SMILES IDX 31 36 32 37 33 38 83 39 34 40 88 41 82 42 84 43 35 44 87 45
REMARK SMILES IDX 81 46 80 47 36 49 68 50 48 51 67 52 49 53 52 54 66 55 85 56
REMARK SMILES IDX 50 57 51 58 65 60 86 61 53 62 37 63 38 64 46 65 39 66 40 67
REMARK SMILES IDX 44 68 47 69 41 70 42 71 45 72 43 73 69 74 70 75 78 76 71 77
REMARK SMILES IDX 72 78 76 79 79 80 73 81 74 82 77 83 75 84 54 85 55 86 63 87
REMARK SMILES IDX 56 88 57 89 61 90 64 91 58 92 59 93 62 94 60 95
REMARK H PARENT 1 10 1 11 1 12 84 48 52 59
REMARK Flexibility Score: inf
ROOT
ATOM      1  C   UNL A   1      40.234  21.771  26.176  1.00  0.00     0.188 C 
ENDROOT
BRANCH   1   2
ATOM      2  O   UNL A   1      38.813  21.718  26.288  1.00  0.00    -0.376 OA
BRANCH   2   3
ATOM      3  C   UNL A   1      38.064  21.141  25.227  1.00  0.00     0.202 C 
BRANCH   3   4
ATOM      4  C   UNL A   1      36.687  21.737  24.910  1.00  0.00     0.261 C 
BRANCH   4   5
ATOM      5  O   UNL A   1      35.628  21.302  25.781  1.00  0.00    -0.459 OA
BRANCH   5   6
ATOM      6  C   UNL A   1      34.778  22.263  26.233  1.00  0.00     0.365 C 
ATOM      7  O   UNL A   1      34.748  22.676  27.390  1.00  0.00    -0.245 OA
BRANCH   6   8
ATOM      8  C   UNL A   1      33.780  22.758  25.175  1.00  0.00     0.296 C 
BRANCH   8   9
ATOM      9  N   UNL A   1      33.430  21.788  24.106  1.00  0.00    -0.346 N 
ATOM     10  H   UNL A   1      33.981  20.939  24.223  1.00  0.00     0.345 HD
ATOM     11  H   UNL A   1      33.629  22.200  23.194  1.00  0.00     0.345 HD
ATOM     12  H   UNL A   1      32.437  21.560  24.166  1.00  0.00     0.345 HD
ENDBRANCH   8   9
BRANCH   8  13
ATOM     13  C   UNL A   1      32.565  23.440  25.826  1.00  0.00     0.113 C 
BRANCH  13  14
ATOM     14  C   UNL A   1      32.155  24.851  25.450  1.00  0.00    -0.041 A 
ATOM     15  C   UNL A   1      32.658  25.367  24.246  1.00  0.00     0.008 A 
ATOM     16  C   UNL A   1      31.286  25.663  26.186  1.00  0.00     0.008 A 
ATOM     17  C   UNL A   1      32.333  26.657  23.820  1.00  0.00     0.047 A 
ATOM     18  C   UNL A   1      30.963  26.960  25.761  1.00  0.00     0.047 A 
ATOM     19  C   UNL A   1      31.486  27.466  24.576  1.00  0.00     0.126 A 
BRANCH  19  20
ATOM     20  O   UNL A   1      31.259  28.705  24.053  1.00  0.00    -0.435 OA
BRANCH  20  21
ATOM     21  C   UNL A   1      29.990  28.967  23.467  1.00  0.00     0.542 C 
ATOM     22  F   UNL A   1      29.907  30.268  23.101  1.00  0.00    -0.167 F 
ATOM     23  F   UNL A   1      29.820  28.201  22.363  1.00  0.00    -0.167 F 
ENDBRANCH  20  21
ENDBRANCH  19  20
ENDBRANCH  13  14
ENDBRANCH   8  13
ENDBRANCH   6   8
ENDBRANCH   5   6
ENDBRANCH   4   5
ENDBRANCH   3   4
ENDBRANCH   2   3
ENDBRANCH   1   2
BRANCH   1  24
ATOM     24  C   UNL A   1      41.109  21.228  27.326  1.00  0.00     0.188 C 
BRANCH  24  25
ATOM     25  O   UNL A   1      42.116  20.329  26.905  1.00  0.00    -0.376 OA
BRANCH  25  26
ATOM     26  C   UNL A   1      42.844  20.677  25.745  1.00  0.00     0.202 C 
BRANCH  26  27
ATOM     27  C   UNL A   1      43.695  21.956  25.806  1.00  0.00     0.261 C 
BRANCH  27  28
ATOM     28  O   UNL A   1      43.273  23.044  24.964  1.00  0.00    -0.460 OA
BRANCH  28  29
ATOM     29  C   UNL A   1      43.962  24.205  25.061  1.00  0.00     0.338 C 
ATOM     30  O   UNL A   1      44.922  24.542  24.397  1.00  0.00    -0.246 OA
BRANCH  29  31
ATOM     31  C   UNL A   1      43.240  25.106  25.994  1.00  0.00     0.060 A 
ATOM     32  C   UNL A   1      43.795  26.361  26.271  1.00  0.00     0.016 A 
ATOM     33  C   UNL A   1      42.041  24.722  26.600  1.00  0.00     0.016 A 
ATOM     34  C   UNL A   1      43.177  27.216  27.189  1.00  0.00     0.010 A 
ATOM     35  C   UNL A   1      41.431  25.574  27.532  1.00  0.00     0.010 A 
ATOM     36  C   UNL A   1      42.014  26.811  27.860  1.00  0.00    -0.014 A 
BRANCH  36  37
ATOM     37  C   UNL A   1      41.528  27.605  29.021  1.00  0.00     0.031 A 
ATOM     38  C   UNL A   1      42.265  27.500  30.331  1.00  0.00     0.074 A 
ATOM     39  C   UNL A   1      40.489  28.454  28.912  1.00  0.00     0.049 A 
ATOM     40  N   UNL A   1      42.043  28.111  31.468  1.00  0.00    -0.248 NA
ATOM     41  C   UNL A   1      43.412  26.579  30.360  1.00  0.00     0.031 C 
ATOM     42  C   UNL A   1      39.703  28.676  27.701  1.00  0.00     0.029 A 
ATOM     43  N   UNL A   1      39.918  29.289  29.843  1.00  0.00    -0.354 N 
ATOM     44  C   UNL A   1      43.025  27.658  32.340  1.00  0.00     0.074 A 
ATOM     45  C   UNL A   1      43.815  26.685  31.617  1.00  0.00     0.031 C 
ATOM     46  C   UNL A   1      38.741  29.578  27.966  1.00  0.00     0.029 A 
ATOM     47  C   UNL A   1      38.832  29.983  29.369  1.00  0.00     0.049 A 
ATOM     48  H   UNL A   1      40.255  29.380  30.764  1.00  0.00     0.167 HD
ATOM     49  C   UNL A   1      43.262  28.031  33.622  1.00  0.00     0.037 A 
ATOM     50  C   UNL A   1      37.999  30.835  29.999  1.00  0.00     0.037 A 
ATOM     51  C   UNL A   1      42.472  28.986  34.353  1.00  0.00     0.049 A 
ATOM     52  C   UNL A   1      38.243  31.185  31.447  1.00  0.00     0.074 A 
ATOM     53  C   UNL A   1      42.632  29.422  35.658  1.00  0.00     0.029 A 
ATOM     54  N   UNL A   1      41.364  29.649  33.845  1.00  0.00    -0.354 N 
ATOM     55  N   UNL A   1      39.192  30.774  32.253  1.00  0.00    -0.248 NA
ATOM     56  C   UNL A   1      37.304  32.131  32.068  1.00  0.00     0.031 C 
ATOM     57  C   UNL A   1      41.593  30.312  35.954  1.00  0.00     0.029 A 
ATOM     58  C   UNL A   1      40.821  30.477  34.817  1.00  0.00     0.049 A 
ATOM     59  H   UNL A   1      41.015  29.547  32.930  1.00  0.00     0.167 HD
ATOM     60  C   UNL A   1      38.979  31.428  33.462  1.00  0.00     0.074 A 
ATOM     61  C   UNL A   1      37.827  32.284  33.275  1.00  0.00     0.031 C 
ATOM     62  C   UNL A   1      39.674  31.327  34.623  1.00  0.00     0.037 A 
BRANCH  49  63
ATOM     63  C   UNL A   1      44.426  27.390  34.322  1.00  0.00     0.064 A 
ATOM     64  C   UNL A   1      45.699  27.982  34.323  1.00  0.00     0.173 A 
ATOM     65  C   UNL A   1      44.260  26.192  35.032  1.00  0.00     0.173 A 
ATOM     66  F   UNL A   1      45.914  29.121  33.647  1.00  0.00    -0.203 F 
ATOM     67  C   UNL A   1      46.767  27.386  34.987  1.00  0.00     0.198 A 
ATOM     68  C   UNL A   1      45.324  25.614  35.722  1.00  0.00     0.198 A 
ATOM     69  F   UNL A   1      43.064  25.586  35.069  1.00  0.00    -0.203 F 
ATOM     70  F   UNL A   1      47.984  27.946  34.935  1.00  0.00    -0.200 F 
ATOM     71  C   UNL A   1      46.577  26.208  35.693  1.00  0.00     0.200 A 
ATOM     72  F   UNL A   1      45.135  24.483  36.416  1.00  0.00    -0.200 F 
ATOM     73  F   UNL A   1      47.603  25.639  36.341  1.00  0.00    -0.200 F 
ENDBRANCH  49  63
BRANCH  50  74
ATOM     74  C   UNL A   1      36.836  31.417  29.273  1.00  0.00     0.064 A 
ATOM     75  C   UNL A   1      36.796  32.774  28.926  1.00  0.00     0.173 A 
ATOM     76  C   UNL A   1      35.718  30.631  28.953  1.00  0.00     0.173 A 
ATOM     77  F   UNL A   1      37.825  33.576  29.239  1.00  0.00    -0.203 F 
ATOM     78  C   UNL A   1      35.673  33.329  28.312  1.00  0.00     0.198 A 
ATOM     79  C   UNL A   1      34.611  31.178  28.309  1.00  0.00     0.198 A 
ATOM     80  F   UNL A   1      35.702  29.328  29.270  1.00  0.00    -0.203 F 
ATOM     81  F   UNL A   1      35.637  34.643  28.049  1.00  0.00    -0.200 F 
ATOM     82  C   UNL A   1      34.584  32.530  27.999  1.00  0.00     0.200 A 
ATOM     83  F   UNL A   1      33.565  30.400  28.001  1.00  0.00    -0.200 F 
ATOM     84  F   UNL A   1      33.504  33.064  27.412  1.00  0.00    -0.200 F 
ENDBRANCH  50  74
BRANCH  62  85
ATOM     85  C   UNL A   1      39.226  32.187  35.772  1.00  0.00     0.064 A 
ATOM     86  C   UNL A   1      39.698  33.499  35.943  1.00  0.00     0.173 A 
ATOM     87  C   UNL A   1      38.305  31.698  36.711  1.00  0.00     0.173 A 
ATOM     88  F   UNL A   1      40.587  34.013  35.081  1.00  0.00    -0.203 F 
ATOM     89  C   UNL A   1      39.298  34.269  37.033  1.00  0.00     0.198 A 
ATOM     90  C   UNL A   1      37.880  32.483  37.780  1.00  0.00     0.198 A 
ATOM     91  F   UNL A   1      37.812  30.456  36.592  1.00  0.00    -0.203 F 
ATOM     92  F   UNL A   1      39.813  35.493  37.210  1.00  0.00    -0.200 F 
ATOM     93  C   UNL A   1      38.387  33.764  37.947  1.00  0.00     0.200 A 
ATOM     94  F   UNL A   1      36.986  31.999  38.653  1.00  0.00    -0.200 F 
ATOM     95  F   UNL A   1      38.005  34.506  38.996  1.00  0.00    -0.200 F 
ENDBRANCH  62  85
ENDBRANCH  36  37
ENDBRANCH  29  31
ENDBRANCH  28  29
ENDBRANCH  27  28
ENDBRANCH  26  27
ENDBRANCH  25  26
ENDBRANCH  24  25
ENDBRANCH   1  24
TORSDOF 22
ENDMDL
MODEL 2
REMARK VINA RESULT:      -9.8      3.724      9.118
REMARK SMILES [NH3+][C@@H](Cc1ccc(OC(F)F)cc1)C(=O)OCCOCCOCCOC(=O)c1ccc(-c2c3nc(c(-c4c(F)c(F)c(F)c(F)c4F)c4ccc([nH]4)c(-c4c(F)c(F)c(F)c(F)c4F)c4nc(c(-c5c(F)c(F)c(F)c(F)c5F)c5ccc2[nH]5)C=C4)C=C3)cc1
REMARK SMILES IDX 20 1 19 2 18 3 17 4 16 5 14 6 15 7 2 8 1 9 3 13 4 14 5 15
REMARK SMILES IDX 13 16 6 17 12 18 7 19 8 20 9 21 10 22 11 23 21 24 22 25
REMARK SMILES IDX 23 26 24 27 25 28 26 29 27 30 28 31 29 32 90 33 30 34 89 35
REMARK SMILES IDX 31 36 32 37 33 38 83 39 34 40 88 41 82 42 84 43 35 44 87 45
REMARK SMILES IDX 81 46 80 47 36 49 68 50 48 51 67 52 49 53 52 54 66 55 85 56
REMARK SMILES IDX 50 57 51 58 65 60 86 61 53 62 37 63 38 64 46 65 39 66 40 67
REMARK SMILES IDX 44 68 47 69 41 70 42 71 45 72 43 73 69 74 70 75 78 76 71 77
REMARK SMILES IDX 72 78 76 79 79 80 73 81 74 82 77 83 75 84 54 85 55 86 63 87
REMARK SMILES IDX 56 88 57 89 61 90 64 91 58 92 59 93 62 94 60 95
REMARK H PARENT 1 10 1 11 1 12 84 48 52 59
REMARK Flexibility Score: inf
ROOT
ATOM      1  C   UNL A   1      34.375  32.478  28.646  1.00  0.00     0.188 C 
ENDROOT
BRANCH   1   2
ATOM      2  O   UNL A   1      35.251  31.748  27.789  1.00  0.00    -0.376 OA
BRANCH   2   3
ATOM      3  C   UNL A   1      35.034  30.354  27.615  1.00  0.00     0.202 C 
BRANCH   3   4
ATOM      4  C   UNL A   1      33.669  29.898  27.086  1.00  0.00     0.261 C 
BRANCH   4   5
ATOM      5  O   UNL A   1      33.441  28.480  27.153  1.00  0.00    -0.459 OA
BRANCH   5   6
ATOM      6  C   UNL A   1      33.435  27.808  25.970  1.00  0.00     0.365 C 
ATOM      7  O   UNL A   1      34.105  28.121  24.989  1.00  0.00    -0.245 OA
BRANCH   6   8
ATOM      8  C   UNL A   1      32.443  26.634  25.926  1.00  0.00     0.296 C 
BRANCH   8   9
ATOM      9  N   UNL A   1      31.407  26.617  26.990  1.00  0.00    -0.346 N 
ATOM     10  H   UNL A   1      30.724  25.888  26.789  1.00  0.00     0.345 HD
ATOM     11  H   UNL A   1      30.939  27.522  27.025  1.00  0.00     0.345 HD
ATOM     12  H   UNL A   1      31.849  26.428  27.891  1.00  0.00     0.345 HD
ENDBRANCH   8   9
BRANCH   8  13
ATOM     13  C   UNL A   1      31.889  26.421  24.508  1.00  0.00     0.113 C 
BRANCH  13  14
ATOM     14  C   UNL A   1      30.671  27.177  24.013  1.00  0.00    -0.041 A 
ATOM     15  C   UNL A   1      30.878  28.471  23.512  1.00  0.00     0.008 A 
ATOM     16  C   UNL A   1      29.366  26.674  23.980  1.00  0.00     0.008 A 
ATOM     17  C   UNL A   1      29.814  29.240  23.034  1.00  0.00     0.047 A 
ATOM     18  C   UNL A   1      28.298  27.447  23.505  1.00  0.00     0.047 A 
ATOM     19  C   UNL A   1      28.514  28.737  23.031  1.00  0.00     0.126 A 
BRANCH  19  20
ATOM     20  O   UNL A   1      27.569  29.594  22.549  1.00  0.00    -0.435 OA
BRANCH  20  21
ATOM     21  C   UNL A   1      27.924  30.959  22.375  1.00  0.00     0.542 C 
ATOM     22  F   UNL A   1      27.713  31.335  21.091  1.00  0.00    -0.167 F 
ATOM     23  F   UNL A   1      27.169  31.743  23.180  1.00  0.00    -0.167 F 
ENDBRANCH  20  21
ENDBRANCH  19  20
ENDBRANCH  13  14
ENDBRANCH   8  13
ENDBRANCH   6   8
ENDBRANCH   5   6
ENDBRANCH   4   5
ENDBRANCH   3   4
ENDBRANCH   2   3
ENDBRANCH   1   2
BRANCH   1  24
ATOM     24  C   UNL A   1      33.735  33.790  28.142  1.00  0.00     0.188 C 
BRANCH  24  25
ATOM     25  O   UNL A   1      34.352  34.958  28.645  1.00  0.00    -0.376 OA
BRANCH  25  26
ATOM     26  C   UNL A   1      33.567  36.134  28.685  1.00  0.00     0.202 C 
BRANCH  26  27
ATOM     27  C   UNL A   1      32.560  36.267  29.839  1.00  0.00     0.261 C 
BRANCH  27  28
ATOM     28  O   UNL A   1      33.115  36.486  31.149  1.00  0.00    -0.460 OA
BRANCH  28  29
ATOM     29  C   UNL A   1      32.959  35.498  32.060  1.00  0.00     0.338 C 
ATOM     30  O   UNL A   1      31.945  35.220  32.670  1.00  0.00    -0.246 OA
BRANCH  29  31
ATOM     31  C   UNL A   1      34.187  34.664  32.067  1.00  0.00     0.060 A 
ATOM     32  C   UNL A   1      34.100  33.354  32.555  1.00  0.00     0.016 A 
ATOM     33  C   UNL A   1      35.411  35.162  31.613  1.00  0.00     0.016 A 
ATOM     34  C   UNL A   1      35.245  32.556  32.633  1.00  0.00     0.010 A 
ATOM     35  C   UNL A   1      36.562  34.366  31.707  1.00  0.00     0.010 A 
ATOM     36  C   UNL A   1      36.493  33.071  32.251  1.00  0.00    -0.014 A 
BRANCH  36  37
ATOM     37  C   UNL A   1      37.728  32.315  32.595  1.00  0.00     0.031 A 
ATOM     38  C   UNL A   1      38.433  32.627  33.890  1.00  0.00     0.074 A 
ATOM     39  C   UNL A   1      38.195  31.326  31.809  1.00  0.00     0.049 A 
ATOM     40  N   UNL A   1      39.507  32.086  34.410  1.00  0.00    -0.248 NA
ATOM     41  C   UNL A   1      37.842  33.695  34.711  1.00  0.00     0.031 C 
ATOM     42  C   UNL A   1      37.600  30.902  30.544  1.00  0.00     0.029 A 
ATOM     43  N   UNL A   1      39.283  30.501  31.965  1.00  0.00    -0.354 N 
ATOM     44  C   UNL A   1      39.711  32.739  35.619  1.00  0.00     0.074 A 
ATOM     45  C   UNL A   1      38.681  33.748  35.735  1.00  0.00     0.031 C 
ATOM     46  C   UNL A   1      38.339  29.901  30.031  1.00  0.00     0.029 A 
ATOM     47  C   UNL A   1      39.468  29.629  30.920  1.00  0.00     0.049 A 
ATOM     48  H   UNL A   1      39.875  30.533  32.751  1.00  0.00     0.167 HD
ATOM     49  C   UNL A   1      40.660  32.508  36.560  1.00  0.00     0.037 A 
ATOM     50  C   UNL A   1      40.444  28.726  30.701  1.00  0.00     0.037 A 
ATOM     51  C   UNL A   1      41.698  31.518  36.447  1.00  0.00     0.049 A 
ATOM     52  C   UNL A   1      41.529  28.533  31.733  1.00  0.00     0.074 A 
ATOM     53  C   UNL A   1      42.707  31.216  37.346  1.00  0.00     0.029 A 
ATOM     54  N   UNL A   1      41.867  30.671  35.361  1.00  0.00    -0.354 N 
ATOM     55  N   UNL A   1      41.696  29.134  32.886  1.00  0.00    -0.248 NA
ATOM     56  C   UNL A   1      42.554  27.521  31.435  1.00  0.00     0.031 C 
ATOM     57  C   UNL A   1      43.514  30.221  36.784  1.00  0.00     0.029 A 
ATOM     58  C   UNL A   1      42.974  29.859  35.560  1.00  0.00     0.049 A 
ATOM     59  H   UNL A   1      41.286  30.649  34.566  1.00  0.00     0.167 HD
ATOM     60  C   UNL A   1      42.825  28.559  33.459  1.00  0.00     0.074 A 
ATOM     61  C   UNL A   1      43.286  27.541  32.539  1.00  0.00     0.031 C 
ATOM     62  C   UNL A   1      43.427  28.848  34.640  1.00  0.00     0.037 A 
BRANCH  49  63
ATOM     63  C   UNL A   1      40.624  33.358  37.798  1.00  0.00     0.064 A 
ATOM     64  C   UNL A   1      39.701  33.113  38.828  1.00  0.00     0.173 A 
ATOM     65  C   UNL A   1      41.543  34.401  37.977  1.00  0.00     0.173 A 
ATOM     66  F   UNL A   1      38.790  32.136  38.701  1.00  0.00    -0.203 F 
ATOM     67  C   UNL A   1      39.685  33.899  39.978  1.00  0.00     0.198 A 
ATOM     68  C   UNL A   1      41.545  35.164  39.142  1.00  0.00     0.198 A 
ATOM     69  F   UNL A   1      42.450  34.674  37.026  1.00  0.00    -0.203 F 
ATOM     70  F   UNL A   1      38.765  33.676  40.927  1.00  0.00    -0.200 F 
ATOM     71  C   UNL A   1      40.612  34.917  40.138  1.00  0.00     0.200 A 
ATOM     72  F   UNL A   1      42.451  36.139  39.301  1.00  0.00    -0.200 F 
ATOM     73  F   UNL A   1      40.603  35.665  41.249  1.00  0.00    -0.200 F 
ENDBRANCH  49  63
BRANCH  50  74
ATOM     74  C   UNL A   1      40.459  27.934  29.440  1.00  0.00     0.064 A 
ATOM     75  C   UNL A   1      41.228  28.329  28.337  1.00  0.00     0.173 A 
ATOM     76  C   UNL A   1      39.663  26.786  29.299  1.00  0.00     0.173 A 
ATOM     77  F   UNL A   1      41.981  29.437  28.408  1.00  0.00    -0.203 F 
ATOM     78  C   UNL A   1      41.181  27.624  27.135  1.00  0.00     0.198 A 
ATOM     79  C   UNL A   1      39.643  26.063  28.109  1.00  0.00     0.198 A 
ATOM     80  F   UNL A   1      38.902  26.368  30.322  1.00  0.00    -0.203 F 
ATOM     81  F   UNL A   1      41.878  28.062  26.077  1.00  0.00    -0.200 F 
ATOM     82  C   UNL A   1      40.393  26.489  27.023  1.00  0.00     0.200 A 
ATOM     83  F   UNL A   1      38.886  24.961  28.009  1.00  0.00    -0.200 F 
ATOM     84  F   UNL A   1      40.345  25.814  25.867  1.00  0.00    -0.200 F 
ENDBRANCH  50  74
BRANCH  62  85
ATOM     85  C   UNL A   1      44.631  28.032  35.019  1.00  0.00     0.064 A 
ATOM     86  C   UNL A   1      44.515  26.822  35.722  1.00  0.00     0.173 A 
ATOM     87  C   UNL A   1      45.921  28.460  34.667  1.00  0.00     0.173 A 
ATOM     88  F   UNL A   1      43.307  26.371  36.093  1.00  0.00    -0.203 F 
ATOM     89  C   UNL A   1      45.645  26.096  36.095  1.00  0.00     0.198 A 
ATOM     90  C   UNL A   1      47.046  27.714  35.009  1.00  0.00     0.198 A 
ATOM     91  F   UNL A   1      46.092  29.602  33.985  1.00  0.00    -0.203 F 
ATOM     92  F   UNL A   1      45.511  24.979  36.822  1.00  0.00    -0.200 F 
ATOM     93  C   UNL A   1      46.907  26.539  35.734  1.00  0.00     0.200 A 
ATOM     94  F   UNL A   1      48.265  28.135  34.645  1.00  0.00    -0.200 F 
ATOM     95  F   UNL A   1      47.993  25.841  36.096  1.00  0.00    -0.200 F 
ENDBRANCH  62  85
ENDBRANCH  36  37
ENDBRANCH  29  31
ENDBRANCH  28  29
ENDBRANCH  27  28
ENDBRANCH  26  27
ENDBRANCH  25  26
ENDBRANCH  24  25
ENDBRANCH   1  24
TORSDOF 22
ENDMDL
MODEL 3
REMARK VINA RESULT:      -9.8      1.071      2.094
REMARK SMILES [NH3+][C@@H](Cc1ccc(OC(F)F)cc1)C(=O)OCCOCCOCCOC(=O)c1ccc(-c2c3nc(c(-c4c(F)c(F)c(F)c(F)c4F)c4ccc([nH]4)c(-c4c(F)c(F)c(F)c(F)c4F)c4nc(c(-c5c(F)c(F)c(F)c(F)c5F)c5ccc2[nH]5)C=C4)C=C3)cc1
REMARK SMILES IDX 20 1 19 2 18 3 17 4 16 5 14 6 15 7 2 8 1 9 3 13 4 14 5 15
REMARK SMILES IDX 13 16 6 17 12 18 7 19 8 20 9 21 10 22 11 23 21 24 22 25
REMARK SMILES IDX 23 26 24 27 25 28 26 29 27 30 28 31 29 32 90 33 30 34 89 35
REMARK SMILES IDX 31 36 32 37 33 38 83 39 34 40 88 41 82 42 84 43 35 44 87 45
REMARK SMILES IDX 81 46 80 47 36 49 68 50 48 51 67 52 49 53 52 54 66 55 85 56
REMARK SMILES IDX 50 57 51 58 65 60 86 61 53 62 37 63 38 64 46 65 39 66 40 67
REMARK SMILES IDX 44 68 47 69 41 70 42 71 45 72 43 73 69 74 70 75 78 76 71 77
REMARK SMILES IDX 72 78 76 79 79 80 73 81 74 82 77 83 75 84 54 85 55 86 63 87
REMARK SMILES IDX 56 88 57 89 61 90 64 91 58 92 59 93 62 94 60 95
REMARK H PARENT 1 10 1 11 1 12 84 48 52 59
REMARK Flexibility Score: inf
ROOT
ATOM      1  C   UNL A   1      40.784  21.457  26.321  1.00  0.00     0.188 C 
ENDROOT
BRANCH   1   2
ATOM      2  O   UNL A   1      39.476  20.899  26.428  1.00  0.00    -0.376 OA
BRANCH   2   3
ATOM      3  C   UNL A   1      39.165  19.736  25.672  1.00  0.00     0.202 C 
BRANCH   3   4
ATOM      4  C   UNL A   1      38.050  19.834  24.625  1.00  0.00     0.261 C 
BRANCH   4   5
ATOM      5  O   UNL A   1      36.726  19.987  25.167  1.00  0.00    -0.459 OA
BRANCH   5   6
ATOM      6  C   UNL A   1      36.178  21.230  25.092  1.00  0.00     0.365 C 
ATOM      7  O   UNL A   1      36.804  22.251  24.820  1.00  0.00    -0.245 OA
BRANCH   6   8
ATOM      8  C   UNL A   1      34.684  21.273  25.454  1.00  0.00     0.296 C 
BRANCH   8   9
ATOM      9  N   UNL A   1      34.024  19.958  25.653  1.00  0.00    -0.346 N 
ATOM     10  H   UNL A   1      34.464  19.470  26.433  1.00  0.00     0.345 HD
ATOM     11  H   UNL A   1      34.118  19.398  24.806  1.00  0.00     0.345 HD
ATOM     12  H   UNL A   1      33.035  20.102  25.857  1.00  0.00     0.345 HD
ENDBRANCH   8   9
BRANCH   8  13
ATOM     13  C   UNL A   1      34.408  22.290  26.574  1.00  0.00     0.113 C 
BRANCH  13  14
ATOM     14  C   UNL A   1      33.705  23.604  26.294  1.00  0.00    -0.041 A 
ATOM     15  C   UNL A   1      32.372  23.722  26.716  1.00  0.00     0.008 A 
ATOM     16  C   UNL A   1      34.289  24.719  25.685  1.00  0.00     0.008 A 
ATOM     17  C   UNL A   1      31.646  24.896  26.500  1.00  0.00     0.047 A 
ATOM     18  C   UNL A   1      33.559  25.896  25.464  1.00  0.00     0.047 A 
ATOM     19  C   UNL A   1      32.233  25.991  25.869  1.00  0.00     0.126 A 
BRANCH  19  20
ATOM     20  O   UNL A   1      31.411  27.069  25.711  1.00  0.00    -0.435 OA
BRANCH  20  21
ATOM     21  C   UNL A   1      31.404  28.064  26.727  1.00  0.00     0.542 C 
ATOM     22  F   UNL A   1      32.384  27.815  27.628  1.00  0.00    -0.167 F 
ATOM     23  F   UNL A   1      31.622  29.285  26.184  1.00  0.00    -0.167 F 
ENDBRANCH  20  21
ENDBRANCH  19  20
ENDBRANCH  13  14
ENDBRANCH   8  13
ENDBRANCH   6   8
ENDBRANCH   5   6
ENDBRANCH   4   5
ENDBRANCH   3   4
ENDBRANCH   2   3
ENDBRANCH   1   2
BRANCH   1  24
ATOM     24  C   UNL A   1      41.909  20.945  27.246  1.00  0.00     0.188 C 
BRANCH  24  25
ATOM     25  O   UNL A   1      42.893  20.177  26.581  1.00  0.00    -0.376 OA
BRANCH  25  26
ATOM     26  C   UNL A   1      43.410  20.701  25.374  1.00  0.00     0.202 C 
BRANCH  26  27
ATOM     27  C   UNL A   1      44.253  21.982  25.469  1.00  0.00     0.261 C 
BRANCH  27  28
ATOM     28  O   UNL A   1      43.615  23.200  25.043  1.00  0.00    -0.460 OA
BRANCH  28  29
ATOM     29  C   UNL A   1      44.295  24.354  25.232  1.00  0.00     0.338 C 
ATOM     30  O   UNL A   1      45.281  24.728  24.627  1.00  0.00    -0.246 OA
BRANCH  29  31
ATOM     31  C   UNL A   1      43.531  25.202  26.181  1.00  0.00     0.060 A 
ATOM     32  C   UNL A   1      43.951  26.524  26.379  1.00  0.00     0.016 A 
ATOM     33  C   UNL A   1      42.426  24.707  26.878  1.00  0.00     0.016 A 
ATOM     34  C   UNL A   1      43.295  27.337  27.308  1.00  0.00     0.010 A 
ATOM     35  C   UNL A   1      41.779  25.519  27.821  1.00  0.00     0.010 A 
ATOM     36  C   UNL A   1      42.232  26.827  28.068  1.00  0.00    -0.014 A 
BRANCH  36  37
ATOM     37  C   UNL A   1      41.730  27.606  29.233  1.00  0.00     0.031 A 
ATOM     38  C   UNL A   1      42.456  27.492  30.549  1.00  0.00     0.074 A 
ATOM     39  C   UNL A   1      40.686  28.449  29.123  1.00  0.00     0.049 A 
ATOM     40  N   UNL A   1      42.218  28.090  31.690  1.00  0.00    -0.248 NA
ATOM     41  C   UNL A   1      43.609  26.580  30.579  1.00  0.00     0.031 C 
ATOM     42  C   UNL A   1      39.909  28.677  27.907  1.00  0.00     0.029 A 
ATOM     43  N   UNL A   1      40.099  29.269  30.057  1.00  0.00    -0.354 N 
ATOM     44  C   UNL A   1      43.195  27.636  32.566  1.00  0.00     0.074 A 
ATOM     45  C   UNL A   1      43.999  26.676  31.841  1.00  0.00     0.031 C 
ATOM     46  C   UNL A   1      38.938  29.569  28.172  1.00  0.00     0.029 A 
ATOM     47  C   UNL A   1      39.013  29.960  29.581  1.00  0.00     0.049 A 
ATOM     48  H   UNL A   1      40.427  29.353  30.982  1.00  0.00     0.167 HD
ATOM     49  C   UNL A   1      43.417  27.997  33.854  1.00  0.00     0.037 A 
ATOM     50  C   UNL A   1      38.167  30.800  30.212  1.00  0.00     0.037 A 
ATOM     51  C   UNL A   1      42.613  28.938  34.588  1.00  0.00     0.049 A 
ATOM     52  C   UNL A   1      38.396  31.136  31.665  1.00  0.00     0.074 A 
ATOM     53  C   UNL A   1      42.758  29.362  35.898  1.00  0.00     0.029 A 
ATOM     54  N   UNL A   1      41.505  29.598  34.077  1.00  0.00    -0.354 N 
ATOM     55  N   UNL A   1      39.340  30.723  32.476  1.00  0.00    -0.248 NA
ATOM     56  C   UNL A   1      37.444  32.069  32.287  1.00  0.00     0.031 C 
ATOM     57  C   UNL A   1      41.710  30.241  36.194  1.00  0.00     0.029 A 
ATOM     58  C   UNL A   1      40.947  30.412  35.051  1.00  0.00     0.049 A 
ATOM     59  H   UNL A   1      41.166  29.503  33.157  1.00  0.00     0.167 HD
ATOM     60  C   UNL A   1      39.111  31.363  33.690  1.00  0.00     0.074 A 
ATOM     61  C   UNL A   1      37.955  32.213  33.500  1.00  0.00     0.031 C 
ATOM     62  C   UNL A   1      39.796  31.255  34.855  1.00  0.00     0.037 A 
BRANCH  49  63
ATOM     63  C   UNL A   1      44.579  27.357  34.559  1.00  0.00     0.064 A 
ATOM     64  C   UNL A   1      45.852  27.951  34.565  1.00  0.00     0.173 A 
ATOM     65  C   UNL A   1      44.413  26.158  35.267  1.00  0.00     0.173 A 
ATOM     66  F   UNL A   1      46.067  29.091  33.891  1.00  0.00    -0.203 F 
ATOM     67  C   UNL A   1      46.918  27.356  35.233  1.00  0.00     0.198 A 
ATOM     68  C   UNL A   1      45.474  25.581  35.960  1.00  0.00     0.198 A 
ATOM     69  F   UNL A   1      43.217  25.550  35.298  1.00  0.00    -0.203 F 
ATOM     70  F   UNL A   1      48.134  27.918  35.187  1.00  0.00    -0.200 F 
ATOM     71  C   UNL A   1      46.727  26.177  35.937  1.00  0.00     0.200 A 
ATOM     72  F   UNL A   1      45.285  24.449  36.652  1.00  0.00    -0.200 F 
ATOM     73  F   UNL A   1      47.751  25.610  36.589  1.00  0.00    -0.200 F 
ENDBRANCH  49  63
BRANCH  50  74
ATOM     74  C   UNL A   1      37.008  31.381  29.481  1.00  0.00     0.064 A 
ATOM     75  C   UNL A   1      35.902  30.597  29.124  1.00  0.00     0.173 A 
ATOM     76  C   UNL A   1      37.006  32.727  29.083  1.00  0.00     0.173 A 
ATOM     77  F   UNL A   1      35.869  29.297  29.451  1.00  0.00    -0.203 F 
ATOM     78  C   UNL A   1      34.852  31.129  28.375  1.00  0.00     0.198 A 
ATOM     79  C   UNL A   1      35.941  33.266  28.365  1.00  0.00     0.198 A 
ATOM     80  F   UNL A   1      38.043  33.519  29.392  1.00  0.00    -0.203 F 
ATOM     81  F   UNL A   1      33.837  30.340  27.994  1.00  0.00    -0.200 F 
ATOM     82  C   UNL A   1      34.870  32.464  28.001  1.00  0.00     0.200 A 
ATOM     83  F   UNL A   1      35.959  34.559  28.013  1.00  0.00    -0.200 F 
ATOM     84  F   UNL A   1      33.863  32.974  27.279  1.00  0.00    -0.200 F 
ENDBRANCH  50  74
BRANCH  62  85
ATOM     85  C   UNL A   1      39.331  32.101  36.009  1.00  0.00     0.064 A 
ATOM     86  C   UNL A   1      38.348  31.653  36.906  1.00  0.00     0.173 A 
ATOM     87  C   UNL A   1      39.885  33.372  36.228  1.00  0.00     0.173 A 
ATOM     88  F   UNL A   1      37.778  30.451  36.738  1.00  0.00    -0.203 F 
ATOM     89  C   UNL A   1      37.906  32.465  37.950  1.00  0.00     0.198 A 
ATOM     90  C   UNL A   1      39.466  34.165  37.293  1.00  0.00     0.198 A 
ATOM     91  F   UNL A   1      40.836  33.846  35.410  1.00  0.00    -0.203 F 
ATOM     92  F   UNL A   1      36.920  32.042  38.752  1.00  0.00    -0.200 F 
ATOM     93  C   UNL A   1      38.468  33.716  38.146  1.00  0.00     0.200 A 
ATOM     94  F   UNL A   1      40.023  35.369  37.492  1.00  0.00    -0.200 F 
ATOM     95  F   UNL A   1      38.040  34.495  39.149  1.00  0.00    -0.200 F 
ENDBRANCH  62  85
ENDBRANCH  36  37
ENDBRANCH  29  31
ENDBRANCH  28  29
ENDBRANCH  27  28
ENDBRANCH  26  27
ENDBRANCH  25  26
ENDBRANCH  24  25
ENDBRANCH   1  24
TORSDOF 22
ENDMDL
