MODEL 1
REMARK VINA RESULT:     -11.3      0.000      0.000
REMARK SMILES O=C(OCCOCCOCCOC(=O)C1CC[NH+]([C@H]2CC(=O)N(c3ccc4c(c3)OCCO4)C2=O)CC1)c1ccc(-c2c3nc(c(-c4c(F)c(F)c(F)c(F)c4F)c4ccc([nH]4)c(-c4c(F)c(F)c(F)c(F)c4F)c4nc(c(-c5c(F)c(F)c(F)c(F)c5F)c5ccc2[nH]5)C=C4)C=C3)cc1
REMARK SMILES IDX 7 1 6 2 5 3 4 4 3 5 2 6 1 7 38 8 39 9 100 10 40 11 99 12
REMARK SMILES IDX 41 13 42 14 43 15 93 16 44 17 98 18 92 19 94 20 45 21 97 22
REMARK SMILES IDX 91 23 90 24 46 26 78 27 58 28 77 29 59 30 62 31 76 32 95 33
REMARK SMILES IDX 60 34 61 35 75 37 96 38 63 39 47 40 48 41 56 42 49 43 50 44
REMARK SMILES IDX 54 45 57 46 51 47 52 48 55 49 53 50 79 51 80 52 88 53 81 54
REMARK SMILES IDX 82 55 86 56 89 57 83 58 84 59 87 60 85 61 64 62 65 63 73 64
REMARK SMILES IDX 66 65 67 66 71 67 74 68 68 69 69 70 72 71 70 72 8 73 9 74
REMARK SMILES IDX 10 75 11 76 12 77 13 78 14 79 15 80 16 81 37 82 17 83 36 84
REMARK SMILES IDX 18 85 19 87 20 88 34 89 21 90 23 91 35 92 22 93 24 94 25 95
REMARK SMILES IDX 29 96 26 97 28 98 27 99 30 100 33 101 31 102 32 103
REMARK H PARENT 94 25 62 36 18 86
REMARK Flexibility Score: inf
ROOT
ATOM      1  C   UNL A   1      41.449  20.955  27.019  1.00  0.00     0.188 C 
ENDROOT
BRANCH   1   2
ATOM      2  O   UNL A   1      41.519  19.764  26.220  1.00  0.00    -0.376 OA
BRANCH   2   3
ATOM      3  C   UNL A   1      42.409  18.781  26.759  1.00  0.00     0.202 C 
BRANCH   3   4
ATOM      4  C   UNL A   1      43.356  18.120  25.750  1.00  0.00     0.261 C 
BRANCH   4   5
ATOM      5  O   UNL A   1      43.663  18.935  24.615  1.00  0.00    -0.460 OA
BRANCH   5   6
ATOM      6  C   UNL A   1      44.723  19.748  24.408  1.00  0.00     0.338 C 
ATOM      7  O   UNL A   1      45.685  19.272  23.802  1.00  0.00    -0.246 OA
BRANCH   6   8
ATOM      8  C   UNL A   1      44.815  21.183  24.848  1.00  0.00     0.060 A 
ATOM      9  C   UNL A   1      44.665  22.339  24.066  1.00  0.00     0.016 A 
ATOM     10  C   UNL A   1      45.063  21.371  26.212  1.00  0.00     0.016 A 
ATOM     11  C   UNL A   1      44.750  23.637  24.605  1.00  0.00     0.010 A 
ATOM     12  C   UNL A   1      45.146  22.656  26.752  1.00  0.00     0.010 A 
ATOM     13  C   UNL A   1      44.981  23.812  25.960  1.00  0.00    -0.014 A 
BRANCH  13  14
ATOM     14  C   UNL A   1      45.340  25.126  26.559  1.00  0.00     0.031 A 
ATOM     15  C   UNL A   1      44.176  25.986  26.927  1.00  0.00     0.074 A 
ATOM     16  C   UNL A   1      46.591  25.601  26.737  1.00  0.00     0.049 A 
ATOM     17  N   UNL A   1      44.151  27.236  27.290  1.00  0.00    -0.248 NA
ATOM     18  C   UNL A   1      42.861  25.319  26.944  1.00  0.00     0.031 C 
ATOM     19  C   UNL A   1      47.831  24.845  26.737  1.00  0.00     0.029 A 
ATOM     20  N   UNL A   1      47.034  26.899  26.850  1.00  0.00    -0.354 N 
ATOM     21  C   UNL A   1      42.832  27.485  27.620  1.00  0.00     0.074 A 
ATOM     22  C   UNL A   1      42.063  26.308  27.296  1.00  0.00     0.031 C 
ATOM     23  C   UNL A   1      48.875  25.667  26.541  1.00  0.00     0.029 A 
ATOM     24  C   UNL A   1      48.377  27.032  26.561  1.00  0.00     0.049 A 
ATOM     25  H   UNL A   1      46.456  27.653  27.110  1.00  0.00     0.167 HD
ATOM     26  C   UNL A   1      42.328  28.584  28.219  1.00  0.00     0.037 A 
ATOM     27  C   UNL A   1      49.127  28.131  26.360  1.00  0.00     0.037 A 
ATOM     28  C   UNL A   1      43.121  29.747  28.493  1.00  0.00     0.049 A 
ATOM     29  C   UNL A   1      48.525  29.432  26.793  1.00  0.00     0.074 A 
ATOM     30  C   UNL A   1      42.747  30.929  29.093  1.00  0.00     0.029 A 
ATOM     31  N   UNL A   1      44.463  29.872  28.142  1.00  0.00    -0.354 N 
ATOM     32  N   UNL A   1      47.291  29.666  27.169  1.00  0.00    -0.248 NA
ATOM     33  C   UNL A   1      49.425  30.583  26.912  1.00  0.00     0.031 C 
ATOM     34  C   UNL A   1      43.841  31.800  29.037  1.00  0.00     0.029 A 
ATOM     35  C   UNL A   1      44.921  31.134  28.471  1.00  0.00     0.049 A 
ATOM     36  H   UNL A   1      45.006  29.167  27.722  1.00  0.00     0.167 HD
ATOM     37  C   UNL A   1      47.281  30.956  27.664  1.00  0.00     0.074 A 
ATOM     38  C   UNL A   1      48.626  31.474  27.488  1.00  0.00     0.031 C 
ATOM     39  C   UNL A   1      46.265  31.622  28.265  1.00  0.00     0.037 A 
BRANCH  26  40
ATOM     40  C   UNL A   1      40.868  28.540  28.547  1.00  0.00     0.064 A 
ATOM     41  C   UNL A   1      39.891  28.966  27.628  1.00  0.00     0.173 A 
ATOM     42  C   UNL A   1      40.449  28.197  29.838  1.00  0.00     0.173 A 
ATOM     43  F   UNL A   1      40.246  29.344  26.389  1.00  0.00    -0.203 F 
ATOM     44  C   UNL A   1      38.562  29.114  28.013  1.00  0.00     0.198 A 
ATOM     45  C   UNL A   1      39.112  28.309  30.207  1.00  0.00     0.198 A 
ATOM     46  F   UNL A   1      41.342  27.796  30.755  1.00  0.00    -0.203 F 
ATOM     47  F   UNL A   1      37.670  29.627  27.155  1.00  0.00    -0.200 F 
ATOM     48  C   UNL A   1      38.174  28.785  29.302  1.00  0.00     0.200 A 
ATOM     49  F   UNL A   1      38.736  27.990  31.453  1.00  0.00    -0.200 F 
ATOM     50  F   UNL A   1      36.900  28.955  29.682  1.00  0.00    -0.200 F 
ENDBRANCH  26  40
BRANCH  27  51
ATOM     51  C   UNL A   1      50.524  28.009  25.862  1.00  0.00     0.064 A 
ATOM     52  C   UNL A   1      51.623  27.996  26.730  1.00  0.00     0.173 A 
ATOM     53  C   UNL A   1      50.779  27.830  24.492  1.00  0.00     0.173 A 
ATOM     54  F   UNL A   1      51.435  28.157  28.047  1.00  0.00    -0.203 F 
ATOM     55  C   UNL A   1      52.921  27.816  26.250  1.00  0.00     0.198 A 
ATOM     56  C   UNL A   1      52.078  27.644  24.014  1.00  0.00     0.198 A 
ATOM     57  F   UNL A   1      49.763  27.809  23.616  1.00  0.00    -0.203 F 
ATOM     58  F   UNL A   1      53.954  27.806  27.105  1.00  0.00    -0.200 F 
ATOM     59  C   UNL A   1      53.148  27.637  24.893  1.00  0.00     0.200 A 
ATOM     60  F   UNL A   1      52.287  27.456  22.703  1.00  0.00    -0.200 F 
ATOM     61  F   UNL A   1      54.394  27.446  24.438  1.00  0.00    -0.200 F 
ENDBRANCH  27  51
BRANCH  39  62
ATOM     62  C   UNL A   1      46.575  32.977  28.815  1.00  0.00     0.064 A 
ATOM     63  C   UNL A   1      46.390  34.138  28.055  1.00  0.00     0.173 A 
ATOM     64  C   UNL A   1      46.972  33.112  30.154  1.00  0.00     0.173 A 
ATOM     65  F   UNL A   1      46.028  34.053  26.766  1.00  0.00    -0.203 F 
ATOM     66  C   UNL A   1      46.597  35.392  28.618  1.00  0.00     0.198 A 
ATOM     67  C   UNL A   1      47.145  34.367  30.721  1.00  0.00     0.198 A 
ATOM     68  F   UNL A   1      47.160  32.024  30.917  1.00  0.00    -0.203 F 
ATOM     69  F   UNL A   1      46.446  36.492  27.867  1.00  0.00    -0.200 F 
ATOM     70  C   UNL A   1      46.959  35.507  29.952  1.00  0.00     0.200 A 
ATOM     71  F   UNL A   1      47.478  34.475  32.015  1.00  0.00    -0.200 F 
ATOM     72  F   UNL A   1      47.131  36.717  30.499  1.00  0.00    -0.200 F 
ENDBRANCH  39  62
ENDBRANCH  13  14
ENDBRANCH   6   8
ENDBRANCH   5   6
ENDBRANCH   4   5
ENDBRANCH   3   4
ENDBRANCH   2   3
ENDBRANCH   1   2
BRANCH   1  73
ATOM     73  C   UNL A   1      41.347  22.220  26.167  1.00  0.00     0.188 C 
BRANCH  73  74
ATOM     74  O   UNL A   1      40.102  22.913  26.181  1.00  0.00    -0.376 OA
BRANCH  74  75
ATOM     75  C   UNL A   1      38.924  22.146  26.389  1.00  0.00     0.202 C 
BRANCH  75  76
ATOM     76  C   UNL A   1      38.008  21.882  25.188  1.00  0.00     0.261 C 
BRANCH  76  77
ATOM     77  O   UNL A   1      36.896  21.011  25.435  1.00  0.00    -0.463 OA
BRANCH  77  78
ATOM     78  C   UNL A   1      35.714  21.630  25.710  1.00  0.00     0.309 C 
ATOM     79  O   UNL A   1      34.918  21.274  26.569  1.00  0.00    -0.252 OA
BRANCH  78  80
ATOM     80  C   UNL A   1      35.454  22.827  24.804  1.00  0.00     0.110 C 
ATOM     81  C   UNL A   1      35.115  24.068  25.629  1.00  0.00     0.077 C 
ATOM     82  C   UNL A   1      34.488  22.521  23.631  1.00  0.00     0.077 C 
ATOM     83  C   UNL A   1      33.614  24.243  25.692  1.00  0.00     0.263 C 
ATOM     84  C   UNL A   1      33.082  23.145  23.692  1.00  0.00     0.263 C 
ATOM     85  N   UNL A   1      33.014  24.430  24.374  1.00  0.00    -0.324 N 
ATOM     86  H   UNL A   1      32.022  24.665  24.424  1.00  0.00     0.348 HD
BRANCH  85  87
ATOM     87  C   UNL A   1      33.424  25.677  23.673  1.00  0.00     0.284 C 
ATOM     88  C   UNL A   1      33.387  25.729  22.157  1.00  0.00     0.176 C 
ATOM     89  C   UNL A   1      32.515  26.865  23.987  1.00  0.00     0.292 C 
ATOM     90  C   UNL A   1      32.003  26.230  21.877  1.00  0.00     0.240 C 
ATOM     91  N   UNL A   1      31.602  26.964  22.969  1.00  0.00    -0.245 N 
ATOM     92  O   UNL A   1      32.634  27.609  24.953  1.00  0.00    -0.267 OA
ATOM     93  O   UNL A   1      31.447  26.078  20.803  1.00  0.00    -0.274 OA
BRANCH  91  94
ATOM     94  C   UNL A   1      30.472  27.807  22.969  1.00  0.00     0.056 A 
ATOM     95  C   UNL A   1      29.230  27.360  23.443  1.00  0.00     0.031 A 
ATOM     96  C   UNL A   1      30.590  29.121  22.502  1.00  0.00     0.077 A 
ATOM     97  C   UNL A   1      28.139  28.233  23.500  1.00  0.00     0.052 A 
ATOM     98  C   UNL A   1      29.490  29.974  22.516  1.00  0.00     0.163 A 
ATOM     99  C   UNL A   1      28.266  29.534  23.025  1.00  0.00     0.161 A 
ATOM    100  O   UNL A   1      29.686  31.227  21.997  1.00  0.00    -0.486 OA
ATOM    101  O   UNL A   1      27.153  30.330  23.097  1.00  0.00    -0.486 OA
ATOM    102  C   UNL A   1      28.647  32.125  22.396  1.00  0.00     0.271 C 
ATOM    103  C   UNL A   1      27.278  31.480  22.253  1.00  0.00     0.271 C 
ENDBRANCH  91  94
ENDBRANCH  85  87
ENDBRANCH  78  80
ENDBRANCH  77  78
ENDBRANCH  76  77
ENDBRANCH  75  76
ENDBRANCH  74  75
ENDBRANCH  73  74
ENDBRANCH   1  73
TORSDOF 19
ENDMDL
MODEL 2
REMARK VINA RESULT:     -11.2      0.603      7.022
REMARK SMILES O=C(OCCOCCOCCOC(=O)C1CC[NH+]([C@H]2CC(=O)N(c3ccc4c(c3)OCCO4)C2=O)CC1)c1ccc(-c2c3nc(c(-c4c(F)c(F)c(F)c(F)c4F)c4ccc([nH]4)c(-c4c(F)c(F)c(F)c(F)c4F)c4nc(c(-c5c(F)c(F)c(F)c(F)c5F)c5ccc2[nH]5)C=C4)C=C3)cc1
REMARK SMILES IDX 7 1 6 2 5 3 4 4 3 5 2 6 1 7 38 8 39 9 100 10 40 11 99 12
REMARK SMILES IDX 41 13 42 14 43 15 93 16 44 17 98 18 92 19 94 20 45 21 97 22
REMARK SMILES IDX 91 23 90 24 46 26 78 27 58 28 77 29 59 30 62 31 76 32 95 33
REMARK SMILES IDX 60 34 61 35 75 37 96 38 63 39 47 40 48 41 56 42 49 43 50 44
REMARK SMILES IDX 54 45 57 46 51 47 52 48 55 49 53 50 79 51 80 52 88 53 81 54
REMARK SMILES IDX 82 55 86 56 89 57 83 58 84 59 87 60 85 61 64 62 65 63 73 64
REMARK SMILES IDX 66 65 67 66 71 67 74 68 68 69 69 70 72 71 70 72 8 73 9 74
REMARK SMILES IDX 10 75 11 76 12 77 13 78 14 79 15 80 16 81 37 82 17 83 36 84
REMARK SMILES IDX 18 85 19 87 20 88 34 89 21 90 23 91 35 92 22 93 24 94 25 95
REMARK SMILES IDX 29 96 26 97 28 98 27 99 30 100 33 101 31 102 32 103
REMARK H PARENT 94 25 62 36 18 86
REMARK Flexibility Score: inf
ROOT
ATOM      1  C   UNL A   1      41.421  21.004  27.277  1.00  0.00     0.188 C 
ENDROOT
BRANCH   1   2
ATOM      2  O   UNL A   1      41.415  19.815  26.472  1.00  0.00    -0.376 OA
BRANCH   2   3
ATOM      3  C   UNL A   1      42.255  18.782  26.995  1.00  0.00     0.202 C 
BRANCH   3   4
ATOM      4  C   UNL A   1      43.258  18.177  26.004  1.00  0.00     0.261 C 
BRANCH   4   5
ATOM      5  O   UNL A   1      43.432  18.944  24.808  1.00  0.00    -0.460 OA
BRANCH   5   6
ATOM      6  C   UNL A   1      44.493  19.682  24.412  1.00  0.00     0.338 C 
ATOM      7  O   UNL A   1      45.244  19.179  23.574  1.00  0.00    -0.246 OA
BRANCH   6   8
ATOM      8  C   UNL A   1      44.821  21.064  24.904  1.00  0.00     0.060 A 
ATOM      9  C   UNL A   1      45.048  21.480  26.225  1.00  0.00     0.016 A 
ATOM     10  C   UNL A   1      44.926  22.040  23.908  1.00  0.00     0.016 A 
ATOM     11  C   UNL A   1      45.374  22.809  26.558  1.00  0.00     0.010 A 
ATOM     12  C   UNL A   1      45.251  23.359  24.231  1.00  0.00     0.010 A 
ATOM     13  C   UNL A   1      45.490  23.765  25.561  1.00  0.00    -0.014 A 
BRANCH  13  14
ATOM     14  C   UNL A   1      45.572  25.224  25.842  1.00  0.00     0.031 A 
ATOM     15  C   UNL A   1      46.960  25.768  25.934  1.00  0.00     0.074 A 
ATOM     16  C   UNL A   1      44.527  26.049  26.064  1.00  0.00     0.049 A 
ATOM     17  N   UNL A   1      47.368  26.936  26.342  1.00  0.00    -0.248 NA
ATOM     18  C   UNL A   1      48.033  24.886  25.438  1.00  0.00     0.031 C 
ATOM     19  C   UNL A   1      43.131  25.815  25.734  1.00  0.00     0.029 A 
ATOM     20  N   UNL A   1      44.476  27.246  26.741  1.00  0.00    -0.354 N 
ATOM     21  C   UNL A   1      48.730  26.939  26.107  1.00  0.00     0.074 A 
ATOM     22  C   UNL A   1      49.105  25.625  25.646  1.00  0.00     0.031 C 
ATOM     23  C   UNL A   1      42.343  26.640  26.443  1.00  0.00     0.029 A 
ATOM     24  C   UNL A   1      43.200  27.568  27.159  1.00  0.00     0.049 A 
ATOM     25  H   UNL A   1      45.263  27.813  26.908  1.00  0.00     0.167 HD
ATOM     26  C   UNL A   1      49.576  27.986  26.198  1.00  0.00     0.037 A 
ATOM     27  C   UNL A   1      42.769  28.522  28.005  1.00  0.00     0.037 A 
ATOM     28  C   UNL A   1      49.169  29.268  26.694  1.00  0.00     0.049 A 
ATOM     29  C   UNL A   1      43.749  29.604  28.339  1.00  0.00     0.074 A 
ATOM     30  C   UNL A   1      49.915  30.417  26.840  1.00  0.00     0.029 A 
ATOM     31  N   UNL A   1      47.887  29.550  27.159  1.00  0.00    -0.354 N 
ATOM     32  N   UNL A   1      45.031  29.646  28.065  1.00  0.00    -0.248 NA
ATOM     33  C   UNL A   1      43.222  30.820  28.964  1.00  0.00     0.031 C 
ATOM     34  C   UNL A   1      49.106  31.373  27.466  1.00  0.00     0.029 A 
ATOM     35  C   UNL A   1      47.833  30.845  27.639  1.00  0.00     0.049 A 
ATOM     36  H   UNL A   1      47.130  28.920  27.147  1.00  0.00     0.167 HD
ATOM     37  C   UNL A   1      45.448  30.924  28.387  1.00  0.00     0.074 A 
ATOM     38  C   UNL A   1      44.289  31.609  28.932  1.00  0.00     0.031 C 
ATOM     39  C   UNL A   1      46.663  31.490  28.191  1.00  0.00     0.037 A 
BRANCH  26  40
ATOM     40  C   UNL A   1      50.991  27.721  25.788  1.00  0.00     0.064 A 
ATOM     41  C   UNL A   1      51.398  27.803  24.443  1.00  0.00     0.173 A 
ATOM     42  C   UNL A   1      51.918  27.252  26.725  1.00  0.00     0.173 A 
ATOM     43  F   UNL A   1      50.535  28.210  23.498  1.00  0.00    -0.203 F 
ATOM     44  C   UNL A   1      52.656  27.359  24.047  1.00  0.00     0.198 A 
ATOM     45  C   UNL A   1      53.189  26.845  26.330  1.00  0.00     0.198 A 
ATOM     46  F   UNL A   1      51.577  27.144  28.018  1.00  0.00    -0.203 F 
ATOM     47  F   UNL A   1      52.980  27.341  22.747  1.00  0.00    -0.200 F 
ATOM     48  C   UNL A   1      53.550  26.880  24.991  1.00  0.00     0.200 A 
ATOM     49  F   UNL A   1      54.055  26.384  27.243  1.00  0.00    -0.200 F 
ATOM     50  F   UNL A   1      54.750  26.426  24.607  1.00  0.00    -0.200 F 
ENDBRANCH  26  40
BRANCH  27  51
ATOM     51  C   UNL A   1      41.352  28.544  28.456  1.00  0.00     0.064 A 
ATOM     52  C   UNL A   1      40.314  28.973  27.619  1.00  0.00     0.173 A 
ATOM     53  C   UNL A   1      41.000  28.062  29.728  1.00  0.00     0.173 A 
ATOM     54  F   UNL A   1      40.593  29.437  26.394  1.00  0.00    -0.203 F 
ATOM     55  C   UNL A   1      38.982  28.926  28.036  1.00  0.00     0.198 A 
ATOM     56  C   UNL A   1      39.667  28.010  30.142  1.00  0.00     0.198 A 
ATOM     57  F   UNL A   1      41.950  27.615  30.563  1.00  0.00    -0.203 F 
ATOM     58  F   UNL A   1      38.009  29.342  27.212  1.00  0.00    -0.200 F 
ATOM     59  C   UNL A   1      38.659  28.442  29.295  1.00  0.00     0.200 A 
ATOM     60  F   UNL A   1      39.362  27.526  31.354  1.00  0.00    -0.200 F 
ATOM     61  F   UNL A   1      37.378  28.381  29.686  1.00  0.00    -0.200 F 
ENDBRANCH  27  51
BRANCH  39  62
ATOM     62  C   UNL A   1      46.799  32.939  28.531  1.00  0.00     0.064 A 
ATOM     63  C   UNL A   1      47.294  33.359  29.771  1.00  0.00     0.173 A 
ATOM     64  C   UNL A   1      46.515  33.912  27.561  1.00  0.00     0.173 A 
ATOM     65  F   UNL A   1      47.560  32.463  30.733  1.00  0.00    -0.203 F 
ATOM     66  C   UNL A   1      47.497  34.710  30.031  1.00  0.00     0.198 A 
ATOM     67  C   UNL A   1      46.752  35.257  27.812  1.00  0.00     0.198 A 
ATOM     68  F   UNL A   1      46.040  33.552  26.359  1.00  0.00    -0.203 F 
ATOM     69  F   UNL A   1      47.942  35.097  31.234  1.00  0.00    -0.200 F 
ATOM     70  C   UNL A   1      47.241  35.655  29.048  1.00  0.00     0.200 A 
ATOM     71  F   UNL A   1      46.520  36.166  26.855  1.00  0.00    -0.200 F 
ATOM     72  F   UNL A   1      47.464  36.953  29.292  1.00  0.00    -0.200 F 
ENDBRANCH  39  62
ENDBRANCH  13  14
ENDBRANCH   6   8
ENDBRANCH   5   6
ENDBRANCH   4   5
ENDBRANCH   3   4
ENDBRANCH   2   3
ENDBRANCH   1   2
BRANCH   1  73
ATOM     73  C   UNL A   1      41.520  22.275  26.433  1.00  0.00     0.188 C 
BRANCH  73  74
ATOM     74  O   UNL A   1      40.304  22.960  26.148  1.00  0.00    -0.376 OA
BRANCH  74  75
ATOM     75  C   UNL A   1      39.086  22.293  26.447  1.00  0.00     0.202 C 
BRANCH  75  76
ATOM     76  C   UNL A   1      38.108  22.016  25.299  1.00  0.00     0.261 C 
BRANCH  76  77
ATOM     77  O   UNL A   1      37.006  21.154  25.615  1.00  0.00    -0.463 OA
BRANCH  77  78
ATOM     78  C   UNL A   1      35.821  21.781  25.861  1.00  0.00     0.309 C 
ATOM     79  O   UNL A   1      35.025  21.459  26.733  1.00  0.00    -0.252 OA
BRANCH  78  80
ATOM     80  C   UNL A   1      35.559  22.937  24.905  1.00  0.00     0.110 C 
ATOM     81  C   UNL A   1      35.183  24.203  25.673  1.00  0.00     0.077 C 
ATOM     82  C   UNL A   1      34.622  22.569  23.726  1.00  0.00     0.077 C 
ATOM     83  C   UNL A   1      33.679  24.353  25.701  1.00  0.00     0.263 C 
ATOM     84  C   UNL A   1      33.205  23.170  23.736  1.00  0.00     0.263 C 
ATOM     85  N   UNL A   1      33.101  24.479  24.366  1.00  0.00    -0.324 N 
ATOM     86  H   UNL A   1      32.105  24.698  24.388  1.00  0.00     0.348 HD
BRANCH  85  87
ATOM     87  C   UNL A   1      33.505  25.705  23.624  1.00  0.00     0.284 C 
ATOM     88  C   UNL A   1      33.458  25.710  22.109  1.00  0.00     0.176 C 
ATOM     89  C   UNL A   1      32.594  26.900  23.909  1.00  0.00     0.292 C 
ATOM     90  C   UNL A   1      32.071  26.200  21.822  1.00  0.00     0.240 C 
ATOM     91  N   UNL A   1      31.675  26.966  22.894  1.00  0.00    -0.245 N 
ATOM     92  O   UNL A   1      32.719  27.673  24.851  1.00  0.00    -0.267 OA
ATOM     93  O   UNL A   1      31.508  26.015  20.757  1.00  0.00    -0.274 OA
BRANCH  91  94
ATOM     94  C   UNL A   1      30.543  27.807  22.876  1.00  0.00     0.056 A 
ATOM     95  C   UNL A   1      29.297  27.360  23.338  1.00  0.00     0.031 A 
ATOM     96  C   UNL A   1      30.663  29.118  22.403  1.00  0.00     0.077 A 
ATOM     97  C   UNL A   1      28.203  28.230  23.377  1.00  0.00     0.052 A 
ATOM     98  C   UNL A   1      29.562  29.969  22.399  1.00  0.00     0.163 A 
ATOM     99  C   UNL A   1      28.333  29.529  22.896  1.00  0.00     0.161 A 
ATOM    100  O   UNL A   1      29.761  31.219  21.875  1.00  0.00    -0.486 OA
ATOM    101  O   UNL A   1      27.218  30.323  22.951  1.00  0.00    -0.486 OA
ATOM    102  C   UNL A   1      28.715  32.117  22.257  1.00  0.00     0.271 C 
ATOM    103  C   UNL A   1      27.350  31.468  22.102  1.00  0.00     0.271 C 
ENDBRANCH  91  94
ENDBRANCH  85  87
ENDBRANCH  78  80
ENDBRANCH  77  78
ENDBRANCH  76  77
ENDBRANCH  75  76
ENDBRANCH  74  75
ENDBRANCH  73  74
ENDBRANCH   1  73
TORSDOF 19
ENDMDL
MODEL 3
REMARK VINA RESULT:     -10.9      3.521      9.218
REMARK SMILES O=C(OCCOCCOCCOC(=O)C1CC[NH+]([C@H]2CC(=O)N(c3ccc4c(c3)OCCO4)C2=O)CC1)c1ccc(-c2c3nc(c(-c4c(F)c(F)c(F)c(F)c4F)c4ccc([nH]4)c(-c4c(F)c(F)c(F)c(F)c4F)c4nc(c(-c5c(F)c(F)c(F)c(F)c5F)c5ccc2[nH]5)C=C4)C=C3)cc1
REMARK SMILES IDX 7 1 6 2 5 3 4 4 3 5 2 6 1 7 38 8 39 9 100 10 40 11 99 12
REMARK SMILES IDX 41 13 42 14 43 15 93 16 44 17 98 18 92 19 94 20 45 21 97 22
REMARK SMILES IDX 91 23 90 24 46 26 78 27 58 28 77 29 59 30 62 31 76 32 95 33
REMARK SMILES IDX 60 34 61 35 75 37 96 38 63 39 47 40 48 41 56 42 49 43 50 44
REMARK SMILES IDX 54 45 57 46 51 47 52 48 55 49 53 50 79 51 80 52 88 53 81 54
REMARK SMILES IDX 82 55 86 56 89 57 83 58 84 59 87 60 85 61 64 62 65 63 73 64
REMARK SMILES IDX 66 65 67 66 71 67 74 68 68 69 69 70 72 71 70 72 8 73 9 74
REMARK SMILES IDX 10 75 11 76 12 77 13 78 14 79 15 80 16 81 37 82 17 83 36 84
REMARK SMILES IDX 18 85 19 87 20 88 34 89 21 90 23 91 35 92 22 93 24 94 25 95
REMARK SMILES IDX 29 96 26 97 28 98 27 99 30 100 33 101 31 102 32 103
REMARK H PARENT 94 25 62 36 18 86
REMARK Flexibility Score: inf
ROOT
ATOM      1  C   UNL A   1      34.406  32.980  30.665  1.00  0.00     0.188 C 
ENDROOT
BRANCH   1   2
ATOM      2  O   UNL A   1      34.559  32.429  31.983  1.00  0.00    -0.376 OA
BRANCH   2   3
ATOM      3  C   UNL A   1      34.351  33.393  33.019  1.00  0.00     0.202 C 
BRANCH   3   4
ATOM      4  C   UNL A   1      35.358  33.351  34.176  1.00  0.00     0.261 C 
BRANCH   4   5
ATOM      5  O   UNL A   1      36.597  32.715  33.849  1.00  0.00    -0.460 OA
BRANCH   5   6
ATOM      6  C   UNL A   1      37.738  33.260  33.370  1.00  0.00     0.338 C 
ATOM      7  O   UNL A   1      37.946  34.446  33.633  1.00  0.00    -0.246 OA
BRANCH   6   8
ATOM      8  C   UNL A   1      38.771  32.533  32.555  1.00  0.00     0.060 A 
ATOM      9  C   UNL A   1      39.766  31.652  33.007  1.00  0.00     0.016 A 
ATOM     10  C   UNL A   1      38.706  32.758  31.176  1.00  0.00     0.016 A 
ATOM     11  C   UNL A   1      40.665  31.010  32.135  1.00  0.00     0.010 A 
ATOM     12  C   UNL A   1      39.594  32.122  30.306  1.00  0.00     0.010 A 
ATOM     13  C   UNL A   1      40.583  31.229  30.769  1.00  0.00    -0.014 A 
BRANCH  13  14
ATOM     14  C   UNL A   1      41.641  30.803  29.814  1.00  0.00     0.031 A 
ATOM     15  C   UNL A   1      41.568  29.371  29.395  1.00  0.00     0.074 A 
ATOM     16  C   UNL A   1      42.654  31.570  29.358  1.00  0.00     0.049 A 
ATOM     17  N   UNL A   1      42.431  28.656  28.732  1.00  0.00    -0.248 NA
ATOM     18  C   UNL A   1      40.314  28.667  29.721  1.00  0.00     0.031 C 
ATOM     19  C   UNL A   1      42.746  33.020  29.387  1.00  0.00     0.029 A 
ATOM     20  N   UNL A   1      43.884  31.204  28.861  1.00  0.00    -0.354 N 
ATOM     21  C   UNL A   1      41.804  27.441  28.526  1.00  0.00     0.074 A 
ATOM     22  C   UNL A   1      40.549  27.462  29.236  1.00  0.00     0.031 C 
ATOM     23  C   UNL A   1      44.022  33.406  29.228  1.00  0.00     0.029 A 
ATOM     24  C   UNL A   1      44.812  32.224  28.928  1.00  0.00     0.049 A 
ATOM     25  H   UNL A   1      44.082  30.311  28.495  1.00  0.00     0.167 HD
ATOM     26  C   UNL A   1      42.218  26.427  27.739  1.00  0.00     0.037 A 
ATOM     27  C   UNL A   1      46.144  32.211  28.742  1.00  0.00     0.037 A 
ATOM     28  C   UNL A   1      43.490  26.432  27.076  1.00  0.00     0.049 A 
ATOM     29  C   UNL A   1      46.709  30.995  28.075  1.00  0.00     0.074 A 
ATOM     30  C   UNL A   1      44.039  25.477  26.249  1.00  0.00     0.029 A 
ATOM     31  N   UNL A   1      44.428  27.452  27.204  1.00  0.00    -0.354 N 
ATOM     32  N   UNL A   1      46.104  29.861  27.817  1.00  0.00    -0.248 NA
ATOM     33  C   UNL A   1      48.074  31.088  27.550  1.00  0.00     0.031 C 
ATOM     34  C   UNL A   1      45.341  25.882  25.937  1.00  0.00     0.029 A 
ATOM     35  C   UNL A   1      45.577  27.127  26.507  1.00  0.00     0.049 A 
ATOM     36  H   UNL A   1      44.294  28.283  27.714  1.00  0.00     0.167 HD
ATOM     37  C   UNL A   1      46.969  29.140  27.015  1.00  0.00     0.074 A 
ATOM     38  C   UNL A   1      48.168  29.948  26.876  1.00  0.00     0.031 C 
ATOM     39  C   UNL A   1      46.760  27.950  26.404  1.00  0.00     0.037 A 
BRANCH  26  40
ATOM     40  C   UNL A   1      41.284  25.262  27.627  1.00  0.00     0.064 A 
ATOM     41  C   UNL A   1      41.572  24.024  28.231  1.00  0.00     0.173 A 
ATOM     42  C   UNL A   1      40.158  25.341  26.799  1.00  0.00     0.173 A 
ATOM     43  F   UNL A   1      42.661  23.885  29.004  1.00  0.00    -0.203 F 
ATOM     44  C   UNL A   1      40.805  22.896  27.953  1.00  0.00     0.198 A 
ATOM     45  C   UNL A   1      39.372  24.219  26.554  1.00  0.00     0.198 A 
ATOM     46  F   UNL A   1      39.847  26.495  26.189  1.00  0.00    -0.203 F 
ATOM     47  F   UNL A   1      41.163  21.705  28.451  1.00  0.00    -0.200 F 
ATOM     48  C   UNL A   1      39.706  22.995  27.114  1.00  0.00     0.200 A 
ATOM     49  F   UNL A   1      38.309  24.315  25.744  1.00  0.00    -0.200 F 
ATOM     50  F   UNL A   1      38.985  21.904  26.824  1.00  0.00    -0.200 F 
ENDBRANCH  26  40
BRANCH  27  51
ATOM     51  C   UNL A   1      46.961  33.411  29.066  1.00  0.00     0.064 A 
ATOM     52  C   UNL A   1      47.616  33.553  30.296  1.00  0.00     0.173 A 
ATOM     53  C   UNL A   1      47.160  34.419  28.107  1.00  0.00     0.173 A 
ATOM     54  F   UNL A   1      47.465  32.619  31.244  1.00  0.00    -0.203 F 
ATOM     55  C   UNL A   1      48.431  34.656  30.559  1.00  0.00     0.198 A 
ATOM     56  C   UNL A   1      47.980  35.519  28.369  1.00  0.00     0.198 A 
ATOM     57  F   UNL A   1      46.578  34.324  26.902  1.00  0.00    -0.203 F 
ATOM     58  F   UNL A   1      49.046  34.764  31.745  1.00  0.00    -0.200 F 
ATOM     59  C   UNL A   1      48.615  35.636  29.594  1.00  0.00     0.200 A 
ATOM     60  F   UNL A   1      48.167  36.453  27.426  1.00  0.00    -0.200 F 
ATOM     61  F   UNL A   1      49.413  36.685  29.843  1.00  0.00    -0.200 F 
ENDBRANCH  27  51
BRANCH  39  62
ATOM     62  C   UNL A   1      47.837  27.457  25.492  1.00  0.00     0.064 A 
ATOM     63  C   UNL A   1      47.825  27.738  24.121  1.00  0.00     0.173 A 
ATOM     64  C   UNL A   1      48.942  26.775  26.024  1.00  0.00     0.173 A 
ATOM     65  F   UNL A   1      46.779  28.371  23.569  1.00  0.00    -0.203 F 
ATOM     66  C   UNL A   1      48.884  27.347  23.309  1.00  0.00     0.198 A 
ATOM     67  C   UNL A   1      50.013  26.417  25.216  1.00  0.00     0.198 A 
ATOM     68  F   UNL A   1      48.994  26.486  27.333  1.00  0.00    -0.203 F 
ATOM     69  F   UNL A   1      48.841  27.597  21.993  1.00  0.00    -0.200 F 
ATOM     70  C   UNL A   1      49.982  26.702  23.858  1.00  0.00     0.200 A 
ATOM     71  F   UNL A   1      51.080  25.809  25.752  1.00  0.00    -0.200 F 
ATOM     72  F   UNL A   1      51.013  26.352  23.078  1.00  0.00    -0.200 F 
ENDBRANCH  39  62
ENDBRANCH  13  14
ENDBRANCH   6   8
ENDBRANCH   5   6
ENDBRANCH   4   5
ENDBRANCH   3   4
ENDBRANCH   2   3
ENDBRANCH   1   2
BRANCH   1  73
ATOM     73  C   UNL A   1      35.689  32.877  29.840  1.00  0.00     0.188 C 
BRANCH  73  74
ATOM     74  O   UNL A   1      35.963  31.623  29.221  1.00  0.00    -0.376 OA
BRANCH  74  75
ATOM     75  C   UNL A   1      35.449  31.408  27.914  1.00  0.00     0.202 C 
BRANCH  75  76
ATOM     76  C   UNL A   1      33.978  31.001  27.770  1.00  0.00     0.261 C 
BRANCH  76  77
ATOM     77  O   UNL A   1      33.622  30.390  26.522  1.00  0.00    -0.463 OA
BRANCH  77  78
ATOM     78  C   UNL A   1      32.298  30.430  26.204  1.00  0.00     0.309 C 
ATOM     79  O   UNL A   1      31.519  31.307  26.553  1.00  0.00    -0.252 OA
BRANCH  78  80
ATOM     80  C   UNL A   1      31.857  29.233  25.372  1.00  0.00     0.110 C 
ATOM     81  C   UNL A   1      31.622  28.012  26.259  1.00  0.00     0.077 C 
ATOM     82  C   UNL A   1      32.737  28.989  24.119  1.00  0.00     0.077 C 
ATOM     83  C   UNL A   1      32.845  27.124  26.237  1.00  0.00     0.263 C 
ATOM     84  C   UNL A   1      33.659  27.756  24.134  1.00  0.00     0.263 C 
ATOM     85  N   UNL A   1      33.155  26.625  24.901  1.00  0.00    -0.324 N 
ATOM     86  H   UNL A   1      33.906  25.935  24.903  1.00  0.00     0.348 HD
BRANCH  85  87
ATOM     87  C   UNL A   1      32.126  25.721  24.318  1.00  0.00     0.284 C 
ATOM     88  C   UNL A   1      32.145  25.427  22.831  1.00  0.00     0.176 C 
ATOM     89  C   UNL A   1      32.215  24.292  24.858  1.00  0.00     0.292 C 
ATOM     90  C   UNL A   1      33.017  24.211  22.744  1.00  0.00     0.240 C 
ATOM     91  N   UNL A   1      32.928  23.554  23.949  1.00  0.00    -0.245 N 
ATOM     92  O   UNL A   1      31.690  23.895  25.890  1.00  0.00    -0.267 OA
ATOM     93  O   UNL A   1      33.575  23.867  21.717  1.00  0.00    -0.274 OA
BRANCH  91  94
ATOM     94  C   UNL A   1      33.395  22.240  24.157  1.00  0.00     0.056 A 
ATOM     95  C   UNL A   1      34.657  21.996  24.718  1.00  0.00     0.031 A 
ATOM     96  C   UNL A   1      32.583  21.155  23.811  1.00  0.00     0.077 A 
ATOM     97  C   UNL A   1      35.074  20.688  24.981  1.00  0.00     0.052 A 
ATOM     98  C   UNL A   1      33.018  19.851  24.031  1.00  0.00     0.163 A 
ATOM     99  C   UNL A   1      34.260  19.616  24.625  1.00  0.00     0.161 A 
ATOM    100  O   UNL A   1      32.177  18.851  23.619  1.00  0.00    -0.486 OA
ATOM    101  O   UNL A   1      34.737  18.361  24.898  1.00  0.00    -0.486 OA
ATOM    102  C   UNL A   1      32.523  17.599  24.217  1.00  0.00     0.271 C 
ATOM    103  C   UNL A   1      34.023  17.360  24.163  1.00  0.00     0.271 C 
ENDBRANCH  91  94
ENDBRANCH  85  87
ENDBRANCH  78  80
ENDBRANCH  77  78
ENDBRANCH  76  77
ENDBRANCH  75  76
ENDBRANCH  74  75
ENDBRANCH  73  74
ENDBRANCH   1  73
TORSDOF 19
ENDMDL
