MODEL 1
REMARK VINA RESULT:     -11.8      0.000      0.000
REMARK SMILES Cc1ccc(F)cc1NC(=O)c1nn(C)cc1C(=O)OCCOCCOCCOC(=O)c1ccc(-c2c3nc(c(-c4c(F)c(F)c(F)c(F)c4F)c4ccc([nH]4)c(-c4c(F)c(F)c(F)c(F)c4F)c4nc(c(-c5c(F)c(F)c(F)c(F)c5F)c5ccc2[nH]5)C=C4)C=C3)cc1
REMARK SMILES IDX 24 1 23 2 22 3 21 4 20 5 18 6 19 7 17 8 12 9 13 10 14 11
REMARK SMILES IDX 16 12 15 13 10 14 9 15 11 17 8 18 1 19 2 20 3 21 4 22 7 23
REMARK SMILES IDX 5 24 6 25 25 26 26 27 27 28 28 29 29 30 30 31 31 32 32 33
REMARK SMILES IDX 33 34 94 35 34 36 93 37 35 38 36 39 37 40 87 41 38 42 92 43
REMARK SMILES IDX 86 44 88 45 39 46 91 47 85 48 84 49 40 51 72 52 52 53 71 54
REMARK SMILES IDX 53 55 56 56 70 57 89 58 54 59 55 60 69 62 90 63 57 64 41 65
REMARK SMILES IDX 42 66 50 67 43 68 44 69 48 70 51 71 45 72 46 73 49 74 47 75
REMARK SMILES IDX 73 76 74 77 82 78 75 79 76 80 80 81 83 82 77 83 78 84 81 85
REMARK SMILES IDX 79 86 58 87 59 88 67 89 60 90 61 91 65 92 68 93 62 94 63 95
REMARK SMILES IDX 66 96 64 97
REMARK H PARENT 9 16 88 50 56 61
REMARK Flexibility Score: inf
ROOT
ATOM      1  C   UNL A   1      34.323  32.535  28.263  1.00  0.00     0.188 C 
ENDROOT
BRANCH   1   2
ATOM      2  O   UNL A   1      34.587  31.166  28.025  1.00  0.00    -0.376 OA
BRANCH   2   3
ATOM      3  C   UNL A   1      33.606  30.411  27.333  1.00  0.00     0.202 C 
BRANCH   3   4
ATOM      4  C   UNL A   1      34.086  29.148  26.614  1.00  0.00     0.261 C 
BRANCH   4   5
ATOM      5  O   UNL A   1      33.525  27.904  27.081  1.00  0.00    -0.460 OA
BRANCH   5   6
ATOM      6  C   UNL A   1      32.852  27.164  26.141  1.00  0.00     0.342 C 
ATOM      7  O   UNL A   1      31.827  27.534  25.585  1.00  0.00    -0.246 OA
BRANCH   6   8
ATOM      8  C   UNL A   1      33.452  25.867  25.883  1.00  0.00     0.111 A 
ATOM      9  C   UNL A   1      32.864  24.573  26.064  1.00  0.00     0.165 A 
ATOM     10  N   UNL A   1      33.772  23.599  25.857  1.00  0.00    -0.167 NA
ATOM     11  N   UNL A   1      34.851  24.243  25.391  1.00  0.00    -0.274 N 
ATOM     12  C   UNL A   1      34.726  25.600  25.409  1.00  0.00     0.125 A 
ATOM     13  C   UNL A   1      35.947  23.462  24.865  1.00  0.00     0.173 C 
BRANCH   9  14
ATOM     14  C   UNL A   1      31.447  24.236  26.301  1.00  0.00     0.277 C 
ATOM     15  N   UNL A   1      30.584  24.153  25.203  1.00  0.00    -0.320 N 
ATOM     16  H   UNL A   1      29.656  23.883  25.388  1.00  0.00     0.170 HD
ATOM     17  O   UNL A   1      30.981  24.091  27.432  1.00  0.00    -0.267 OA
BRANCH  15  18
ATOM     18  C   UNL A   1      30.914  24.416  23.863  1.00  0.00     0.047 A 
ATOM     19  C   UNL A   1      29.393  26.501  23.749  1.00  0.00     0.046 C 
ATOM     20  C   UNL A   1      30.521  25.623  23.292  1.00  0.00    -0.027 A 
ATOM     21  C   UNL A   1      31.309  26.098  22.249  1.00  0.00     0.008 A 
ATOM     22  C   UNL A   1      32.387  25.368  21.735  1.00  0.00     0.039 A 
ATOM     23  C   UNL A   1      31.781  23.572  23.159  1.00  0.00     0.065 A 
ATOM     24  C   UNL A   1      32.550  24.065  22.127  1.00  0.00     0.125 A 
ATOM     25  F   UNL A   1      33.498  23.311  21.560  1.00  0.00    -0.207 F 
ENDBRANCH  15  18
ENDBRANCH   9  14
ENDBRANCH   6   8
ENDBRANCH   5   6
ENDBRANCH   4   5
ENDBRANCH   3   4
ENDBRANCH   2   3
ENDBRANCH   1   2
BRANCH   1  26
ATOM     26  C   UNL A   1      34.425  33.078  29.694  1.00  0.00     0.188 C 
BRANCH  26  27
ATOM     27  O   UNL A   1      34.647  32.136  30.732  1.00  0.00    -0.376 OA
BRANCH  27  28
ATOM     28  C   UNL A   1      35.522  32.650  31.751  1.00  0.00     0.202 C 
BRANCH  28  29
ATOM     29  C   UNL A   1      36.980  32.480  31.336  1.00  0.00     0.261 C 
BRANCH  29  30
ATOM     30  O   UNL A   1      37.184  31.254  30.628  1.00  0.00    -0.460 OA
BRANCH  30  31
ATOM     31  C   UNL A   1      37.742  31.370  29.397  1.00  0.00     0.338 C 
ATOM     32  O   UNL A   1      37.910  32.355  28.738  1.00  0.00    -0.246 OA
BRANCH  31  33
ATOM     33  C   UNL A   1      38.233  30.028  29.040  1.00  0.00     0.060 A 
ATOM     34  C   UNL A   1      38.098  29.001  29.986  1.00  0.00     0.016 A 
ATOM     35  C   UNL A   1      38.776  29.794  27.776  1.00  0.00     0.016 A 
ATOM     36  C   UNL A   1      38.555  27.731  29.708  1.00  0.00     0.010 A 
ATOM     37  C   UNL A   1      39.310  28.556  27.516  1.00  0.00     0.010 A 
ATOM     38  C   UNL A   1      39.314  27.607  28.551  1.00  0.00    -0.014 A 
BRANCH  38  39
ATOM     39  C   UNL A   1      40.616  26.981  28.703  1.00  0.00     0.031 A 
ATOM     40  C   UNL A   1      40.779  25.558  28.440  1.00  0.00     0.074 A 
ATOM     41  C   UNL A   1      41.614  27.870  28.934  1.00  0.00     0.049 A 
ATOM     42  N   UNL A   1      41.696  24.845  28.989  1.00  0.00    -0.248 NA
ATOM     43  C   UNL A   1      39.871  24.791  27.588  1.00  0.00     0.031 C 
ATOM     44  C   UNL A   1      43.046  27.740  28.763  1.00  0.00     0.029 A 
ATOM     45  N   UNL A   1      41.458  29.155  29.502  1.00  0.00    -0.354 N 
ATOM     46  C   UNL A   1      41.753  23.690  28.252  1.00  0.00     0.074 A 
ATOM     47  C   UNL A   1      40.493  23.607  27.551  1.00  0.00     0.031 C 
ATOM     48  C   UNL A   1      43.646  28.746  29.432  1.00  0.00     0.029 A 
ATOM     49  C   UNL A   1      42.631  29.459  30.199  1.00  0.00     0.049 A 
ATOM     50  H   UNL A   1      40.665  29.733  29.421  1.00  0.00     0.167 HD
ATOM     51  C   UNL A   1      42.959  23.078  28.089  1.00  0.00     0.037 A 
ATOM     52  C   UNL A   1      42.569  29.523  31.564  1.00  0.00     0.037 A 
ATOM     53  C   UNL A   1      44.013  23.804  28.802  1.00  0.00     0.049 A 
ATOM     54  C   UNL A   1      43.216  28.326  32.241  1.00  0.00     0.074 A 
ATOM     55  C   UNL A   1      44.981  24.722  28.426  1.00  0.00     0.029 A 
ATOM     56  N   UNL A   1      43.888  23.955  30.172  1.00  0.00    -0.354 N 
ATOM     57  N   UNL A   1      43.735  27.309  31.607  1.00  0.00    -0.248 NA
ATOM     58  C   UNL A   1      43.257  28.148  33.691  1.00  0.00     0.031 C 
ATOM     59  C   UNL A   1      45.442  25.403  29.595  1.00  0.00     0.029 A 
ATOM     60  C   UNL A   1      44.755  24.900  30.683  1.00  0.00     0.049 A 
ATOM     61  H   UNL A   1      43.252  23.444  30.723  1.00  0.00     0.167 HD
ATOM     62  C   UNL A   1      44.144  26.358  32.500  1.00  0.00     0.074 A 
ATOM     63  C   UNL A   1      43.803  26.924  33.795  1.00  0.00     0.031 C 
ATOM     64  C   UNL A   1      44.705  25.172  32.112  1.00  0.00     0.037 A 
BRANCH  51  65
ATOM     65  C   UNL A   1      43.172  22.064  27.001  1.00  0.00     0.064 A 
ATOM     66  C   UNL A   1      42.555  20.800  27.053  1.00  0.00     0.173 A 
ATOM     67  C   UNL A   1      44.025  22.276  25.901  1.00  0.00     0.173 A 
ATOM     68  F   UNL A   1      41.678  20.488  28.013  1.00  0.00    -0.203 F 
ATOM     69  C   UNL A   1      42.838  19.795  26.128  1.00  0.00     0.198 A 
ATOM     70  C   UNL A   1      44.344  21.255  25.000  1.00  0.00     0.198 A 
ATOM     71  F   UNL A   1      44.568  23.482  25.675  1.00  0.00    -0.203 F 
ATOM     72  F   UNL A   1      42.229  18.605  26.237  1.00  0.00    -0.200 F 
ATOM     73  C   UNL A   1      43.753  20.011  25.119  1.00  0.00     0.200 A 
ATOM     74  F   UNL A   1      45.237  21.477  24.026  1.00  0.00    -0.200 F 
ATOM     75  F   UNL A   1      44.057  19.028  24.261  1.00  0.00    -0.200 F 
ENDBRANCH  51  65
BRANCH  52  76
ATOM     76  C   UNL A   1      41.401  30.289  32.105  1.00  0.00     0.064 A 
ATOM     77  C   UNL A   1      40.287  29.581  32.606  1.00  0.00     0.173 A 
ATOM     78  C   UNL A   1      41.434  31.667  32.358  1.00  0.00     0.173 A 
ATOM     79  F   UNL A   1      40.179  28.262  32.384  1.00  0.00    -0.203 F 
ATOM     80  C   UNL A   1      39.303  30.201  33.382  1.00  0.00     0.198 A 
ATOM     81  C   UNL A   1      40.440  32.289  33.128  1.00  0.00     0.198 A 
ATOM     82  F   UNL A   1      42.469  32.410  31.943  1.00  0.00    -0.203 F 
ATOM     83  F   UNL A   1      38.294  29.477  33.891  1.00  0.00    -0.200 F 
ATOM     84  C   UNL A   1      39.393  31.553  33.662  1.00  0.00     0.200 A 
ATOM     85  F   UNL A   1      40.557  33.589  33.439  1.00  0.00    -0.200 F 
ATOM     86  F   UNL A   1      38.508  32.136  34.484  1.00  0.00    -0.200 F 
ENDBRANCH  52  76
BRANCH  64  87
ATOM     87  C   UNL A   1      45.219  24.130  33.074  1.00  0.00     0.064 A 
ATOM     88  C   UNL A   1      44.431  23.052  33.507  1.00  0.00     0.173 A 
ATOM     89  C   UNL A   1      46.494  24.229  33.682  1.00  0.00     0.173 A 
ATOM     90  F   UNL A   1      43.152  22.933  33.125  1.00  0.00    -0.203 F 
ATOM     91  C   UNL A   1      44.928  22.081  34.379  1.00  0.00     0.198 A 
ATOM     92  C   UNL A   1      46.964  23.293  34.595  1.00  0.00     0.198 A 
ATOM     93  F   UNL A   1      47.346  25.224  33.407  1.00  0.00    -0.203 F 
ATOM     94  F   UNL A   1      44.167  21.027  34.698  1.00  0.00    -0.200 F 
ATOM     95  C   UNL A   1      46.194  22.200  34.921  1.00  0.00     0.200 A 
ATOM     96  F   UNL A   1      48.175  23.458  35.146  1.00  0.00    -0.200 F 
ATOM     97  F   UNL A   1      46.669  21.271  35.760  1.00  0.00    -0.200 F 
ENDBRANCH  64  87
ENDBRANCH  38  39
ENDBRANCH  31  33
ENDBRANCH  30  31
ENDBRANCH  29  30
ENDBRANCH  28  29
ENDBRANCH  27  28
ENDBRANCH  26  27
ENDBRANCH   1  26
TORSDOF 19
ENDMDL
MODEL 2
REMARK VINA RESULT:     -11.6      1.348      2.794
REMARK SMILES Cc1ccc(F)cc1NC(=O)c1nn(C)cc1C(=O)OCCOCCOCCOC(=O)c1ccc(-c2c3nc(c(-c4c(F)c(F)c(F)c(F)c4F)c4ccc([nH]4)c(-c4c(F)c(F)c(F)c(F)c4F)c4nc(c(-c5c(F)c(F)c(F)c(F)c5F)c5ccc2[nH]5)C=C4)C=C3)cc1
REMARK SMILES IDX 24 1 23 2 22 3 21 4 20 5 18 6 19 7 17 8 12 9 13 10 14 11
REMARK SMILES IDX 16 12 15 13 10 14 9 15 11 17 8 18 1 19 2 20 3 21 4 22 7 23
REMARK SMILES IDX 5 24 6 25 25 26 26 27 27 28 28 29 29 30 30 31 31 32 32 33
REMARK SMILES IDX 33 34 94 35 34 36 93 37 35 38 36 39 37 40 87 41 38 42 92 43
REMARK SMILES IDX 86 44 88 45 39 46 91 47 85 48 84 49 40 51 72 52 52 53 71 54
REMARK SMILES IDX 53 55 56 56 70 57 89 58 54 59 55 60 69 62 90 63 57 64 41 65
REMARK SMILES IDX 42 66 50 67 43 68 44 69 48 70 51 71 45 72 46 73 49 74 47 75
REMARK SMILES IDX 73 76 74 77 82 78 75 79 76 80 80 81 83 82 77 83 78 84 81 85
REMARK SMILES IDX 79 86 58 87 59 88 67 89 60 90 61 91 65 92 68 93 62 94 63 95
REMARK SMILES IDX 66 96 64 97
REMARK H PARENT 9 16 88 50 56 61
REMARK Flexibility Score: inf
ROOT
ATOM      1  C   UNL A   1      33.980  30.851  27.485  1.00  0.00     0.188 C 
ENDROOT
BRANCH   1   2
ATOM      2  O   UNL A   1      33.587  29.889  26.525  1.00  0.00    -0.376 OA
BRANCH   2   3
ATOM      3  C   UNL A   1      32.290  30.003  25.964  1.00  0.00     0.202 C 
BRANCH   3   4
ATOM      4  C   UNL A   1      31.526  28.699  25.719  1.00  0.00     0.261 C 
BRANCH   4   5
ATOM      5  O   UNL A   1      32.091  27.813  24.731  1.00  0.00    -0.460 OA
BRANCH   5   6
ATOM      6  C   UNL A   1      32.835  26.770  25.222  1.00  0.00     0.342 C 
ATOM      7  O   UNL A   1      34.020  26.851  25.511  1.00  0.00    -0.246 OA
BRANCH   6   8
ATOM      8  C   UNL A   1      32.090  25.529  25.339  1.00  0.00     0.111 A 
ATOM      9  C   UNL A   1      31.906  24.514  24.344  1.00  0.00     0.165 A 
ATOM     10  N   UNL A   1      31.034  23.577  24.768  1.00  0.00    -0.167 NA
ATOM     11  N   UNL A   1      30.807  23.889  26.051  1.00  0.00    -0.274 N 
ATOM     12  C   UNL A   1      31.391  25.058  26.439  1.00  0.00     0.125 A 
ATOM     13  C   UNL A   1      30.073  22.953  26.870  1.00  0.00     0.173 C 
BRANCH   9  14
ATOM     14  C   UNL A   1      32.622  24.345  23.065  1.00  0.00     0.277 C 
ATOM     15  N   UNL A   1      33.798  23.588  23.051  1.00  0.00    -0.320 N 
ATOM     16  H   UNL A   1      34.230  23.456  22.177  1.00  0.00     0.170 HD
ATOM     17  O   UNL A   1      32.262  24.899  22.026  1.00  0.00    -0.267 OA
BRANCH  15  18
ATOM     18  C   UNL A   1      34.423  22.997  24.162  1.00  0.00     0.047 A 
ATOM     19  C   UNL A   1      33.044  20.822  23.959  1.00  0.00     0.046 C 
ATOM     20  C   UNL A   1      34.210  21.646  24.420  1.00  0.00    -0.027 A 
ATOM     21  C   UNL A   1      35.225  20.981  25.101  1.00  0.00     0.008 A 
ATOM     22  C   UNL A   1      36.361  21.642  25.581  1.00  0.00     0.039 A 
ATOM     23  C   UNL A   1      35.391  23.694  24.896  1.00  0.00     0.065 A 
ATOM     24  C   UNL A   1      36.385  23.012  25.564  1.00  0.00     0.125 A 
ATOM     25  F   UNL A   1      37.405  23.669  26.127  1.00  0.00    -0.207 F 
ENDBRANCH  15  18
ENDBRANCH   9  14
ENDBRANCH   6   8
ENDBRANCH   5   6
ENDBRANCH   4   5
ENDBRANCH   3   4
ENDBRANCH   2   3
ENDBRANCH   1   2
BRANCH   1  26
ATOM     26  C   UNL A   1      33.165  32.142  27.625  1.00  0.00     0.188 C 
BRANCH  26  27
ATOM     27  O   UNL A   1      33.677  33.143  28.494  1.00  0.00    -0.376 OA
BRANCH  27  28
ATOM     28  C   UNL A   1      35.060  32.920  28.819  1.00  0.00     0.202 C 
BRANCH  28  29
ATOM     29  C   UNL A   1      35.191  32.360  30.232  1.00  0.00     0.261 C 
BRANCH  29  30
ATOM     30  O   UNL A   1      36.083  31.244  30.272  1.00  0.00    -0.460 OA
BRANCH  30  31
ATOM     31  C   UNL A   1      37.366  31.502  29.916  1.00  0.00     0.338 C 
ATOM     32  O   UNL A   1      37.976  32.528  29.996  1.00  0.00    -0.246 OA
BRANCH  31  33
ATOM     33  C   UNL A   1      37.944  30.214  29.497  1.00  0.00     0.060 A 
ATOM     34  C   UNL A   1      37.868  29.133  30.389  1.00  0.00     0.016 A 
ATOM     35  C   UNL A   1      38.509  30.079  28.227  1.00  0.00     0.016 A 
ATOM     36  C   UNL A   1      38.407  27.910  30.052  1.00  0.00     0.010 A 
ATOM     37  C   UNL A   1      39.122  28.891  27.911  1.00  0.00     0.010 A 
ATOM     38  C   UNL A   1      39.180  27.893  28.897  1.00  0.00    -0.014 A 
BRANCH  38  39
ATOM     39  C   UNL A   1      40.518  27.344  29.030  1.00  0.00     0.031 A 
ATOM     40  C   UNL A   1      40.796  25.982  28.599  1.00  0.00     0.074 A 
ATOM     41  C   UNL A   1      41.438  28.263  29.416  1.00  0.00     0.049 A 
ATOM     42  N   UNL A   1      41.742  25.269  29.096  1.00  0.00    -0.248 NA
ATOM     43  C   UNL A   1      39.979  25.269  27.616  1.00  0.00     0.031 C 
ATOM     44  C   UNL A   1      42.881  28.255  29.297  1.00  0.00     0.029 A 
ATOM     45  N   UNL A   1      41.167  29.451  30.132  1.00  0.00    -0.354 N 
ATOM     46  C   UNL A   1      41.912  24.224  28.224  1.00  0.00     0.074 A 
ATOM     47  C   UNL A   1      40.688  24.146  27.460  1.00  0.00     0.031 C 
ATOM     48  C   UNL A   1      43.379  29.206  30.113  1.00  0.00     0.029 A 
ATOM     49  C   UNL A   1      42.286  29.743  30.916  1.00  0.00     0.049 A 
ATOM     50  H   UNL A   1      40.337  29.979  30.087  1.00  0.00     0.167 HD
ATOM     51  C   UNL A   1      43.165  23.723  28.042  1.00  0.00     0.037 A 
ATOM     52  C   UNL A   1      42.169  29.627  32.273  1.00  0.00     0.037 A 
ATOM     53  C   UNL A   1      44.135  24.423  28.888  1.00  0.00     0.049 A 
ATOM     54  C   UNL A   1      42.877  28.401  32.824  1.00  0.00     0.074 A 
ATOM     55  C   UNL A   1      45.046  25.445  28.675  1.00  0.00     0.029 A 
ATOM     56  N   UNL A   1      43.949  24.388  30.259  1.00  0.00    -0.354 N 
ATOM     57  N   UNL A   1      43.494  27.512  32.093  1.00  0.00    -0.248 NA
ATOM     58  C   UNL A   1      42.877  28.042  34.241  1.00  0.00     0.031 C 
ATOM     59  C   UNL A   1      45.411  26.001  29.940  1.00  0.00     0.029 A 
ATOM     60  C   UNL A   1      44.723  25.317  30.923  1.00  0.00     0.049 A 
ATOM     61  H   UNL A   1      43.332  23.767  30.711  1.00  0.00     0.167 HD
ATOM     62  C   UNL A   1      43.938  26.485  32.878  1.00  0.00     0.074 A 
ATOM     63  C   UNL A   1      43.509  26.856  34.217  1.00  0.00     0.031 C 
ATOM     64  C   UNL A   1      44.600  25.399  32.372  1.00  0.00     0.037 A 
BRANCH  51  65
ATOM     65  C   UNL A   1      43.493  22.873  26.847  1.00  0.00     0.064 A 
ATOM     66  C   UNL A   1      43.114  21.519  26.790  1.00  0.00     0.173 A 
ATOM     67  C   UNL A   1      44.232  23.342  25.743  1.00  0.00     0.173 A 
ATOM     68  F   UNL A   1      42.362  20.962  27.745  1.00  0.00    -0.203 F 
ATOM     69  C   UNL A   1      43.518  20.676  25.755  1.00  0.00     0.198 A 
ATOM     70  C   UNL A   1      44.675  22.487  24.729  1.00  0.00     0.198 A 
ATOM     71  F   UNL A   1      44.538  24.643  25.623  1.00  0.00    -0.203 F 
ATOM     72  F   UNL A   1      43.137  19.390  25.762  1.00  0.00    -0.200 F 
ATOM     73  C   UNL A   1      44.322  21.150  24.740  1.00  0.00     0.200 A 
ATOM     74  F   UNL A   1      45.458  22.960  23.750  1.00  0.00    -0.200 F 
ATOM     75  F   UNL A   1      44.747  20.327  23.773  1.00  0.00    -0.200 F 
ENDBRANCH  51  65
BRANCH  52  76
ATOM     76  C   UNL A   1      40.928  30.236  32.851  1.00  0.00     0.064 A 
ATOM     77  C   UNL A   1      40.801  31.642  32.879  1.00  0.00     0.173 A 
ATOM     78  C   UNL A   1      39.779  29.496  33.161  1.00  0.00     0.173 A 
ATOM     79  F   UNL A   1      41.866  32.414  32.612  1.00  0.00    -0.203 F 
ATOM     80  C   UNL A   1      39.577  32.270  33.127  1.00  0.00     0.198 A 
ATOM     81  C   UNL A   1      38.554  30.128  33.419  1.00  0.00     0.198 A 
ATOM     82  F   UNL A   1      39.805  28.157  33.130  1.00  0.00    -0.203 F 
ATOM     83  F   UNL A   1      39.488  33.608  33.081  1.00  0.00    -0.200 F 
ATOM     84  C   UNL A   1      38.448  31.511  33.374  1.00  0.00     0.200 A 
ATOM     85  F   UNL A   1      37.452  29.389  33.609  1.00  0.00    -0.200 F 
ATOM     86  F   UNL A   1      37.251  32.100  33.516  1.00  0.00    -0.200 F 
ENDBRANCH  52  76
BRANCH  64  87
ATOM     87  C   UNL A   1      45.153  24.281  33.219  1.00  0.00     0.064 A 
ATOM     88  C   UNL A   1      46.478  24.273  33.681  1.00  0.00     0.173 A 
ATOM     89  C   UNL A   1      44.402  23.118  33.516  1.00  0.00     0.173 A 
ATOM     90  F   UNL A   1      47.337  25.243  33.336  1.00  0.00    -0.203 F 
ATOM     91  C   UNL A   1      46.971  23.242  34.485  1.00  0.00     0.198 A 
ATOM     92  C   UNL A   1      44.914  22.066  34.267  1.00  0.00     0.198 A 
ATOM     93  F   UNL A   1      43.138  22.954  33.109  1.00  0.00    -0.203 F 
ATOM     94  F   UNL A   1      48.217  23.321  34.970  1.00  0.00    -0.200 F 
ATOM     95  C   UNL A   1      46.189  22.142  34.780  1.00  0.00     0.200 A 
ATOM     96  F   UNL A   1      44.153  20.986  34.495  1.00  0.00    -0.200 F 
ATOM     97  F   UNL A   1      46.663  21.152  35.547  1.00  0.00    -0.200 F 
ENDBRANCH  64  87
ENDBRANCH  38  39
ENDBRANCH  31  33
ENDBRANCH  30  31
ENDBRANCH  29  30
ENDBRANCH  28  29
ENDBRANCH  27  28
ENDBRANCH  26  27
ENDBRANCH   1  26
TORSDOF 19
ENDMDL
MODEL 3
REMARK VINA RESULT:     -11.6      1.395      2.757
REMARK SMILES Cc1ccc(F)cc1NC(=O)c1nn(C)cc1C(=O)OCCOCCOCCOC(=O)c1ccc(-c2c3nc(c(-c4c(F)c(F)c(F)c(F)c4F)c4ccc([nH]4)c(-c4c(F)c(F)c(F)c(F)c4F)c4nc(c(-c5c(F)c(F)c(F)c(F)c5F)c5ccc2[nH]5)C=C4)C=C3)cc1
REMARK SMILES IDX 24 1 23 2 22 3 21 4 20 5 18 6 19 7 17 8 12 9 13 10 14 11
REMARK SMILES IDX 16 12 15 13 10 14 9 15 11 17 8 18 1 19 2 20 3 21 4 22 7 23
REMARK SMILES IDX 5 24 6 25 25 26 26 27 27 28 28 29 29 30 30 31 31 32 32 33
REMARK SMILES IDX 33 34 94 35 34 36 93 37 35 38 36 39 37 40 87 41 38 42 92 43
REMARK SMILES IDX 86 44 88 45 39 46 91 47 85 48 84 49 40 51 72 52 52 53 71 54
REMARK SMILES IDX 53 55 56 56 70 57 89 58 54 59 55 60 69 62 90 63 57 64 41 65
REMARK SMILES IDX 42 66 50 67 43 68 44 69 48 70 51 71 45 72 46 73 49 74 47 75
REMARK SMILES IDX 73 76 74 77 82 78 75 79 76 80 80 81 83 82 77 83 78 84 81 85
REMARK SMILES IDX 79 86 58 87 59 88 67 89 60 90 61 91 65 92 68 93 62 94 63 95
REMARK SMILES IDX 66 96 64 97
REMARK H PARENT 9 16 88 50 56 61
REMARK Flexibility Score: inf
ROOT
ATOM      1  C   UNL A   1      31.727  30.337  26.791  1.00  0.00     0.188 C 
ENDROOT
BRANCH   1   2
ATOM      2  O   UNL A   1      31.738  29.026  26.258  1.00  0.00    -0.376 OA
BRANCH   2   3
ATOM      3  C   UNL A   1      31.777  27.940  27.170  1.00  0.00     0.202 C 
BRANCH   3   4
ATOM      4  C   UNL A   1      32.237  26.590  26.617  1.00  0.00     0.261 C 
BRANCH   4   5
ATOM      5  O   UNL A   1      31.456  26.054  25.529  1.00  0.00    -0.460 OA
BRANCH   5   6
ATOM      6  C   UNL A   1      30.817  24.866  25.784  1.00  0.00     0.342 C 
ATOM      7  O   UNL A   1      29.879  24.747  26.560  1.00  0.00    -0.246 OA
BRANCH   6   8
ATOM      8  C   UNL A   1      31.383  23.737  25.068  1.00  0.00     0.111 A 
ATOM      9  C   UNL A   1      32.380  22.814  25.524  1.00  0.00     0.165 A 
ATOM     10  N   UNL A   1      32.758  21.985  24.531  1.00  0.00    -0.167 NA
ATOM     11  N   UNL A   1      31.909  22.255  23.530  1.00  0.00    -0.274 N 
ATOM     12  C   UNL A   1      31.083  23.308  23.785  1.00  0.00     0.125 A 
ATOM     13  C   UNL A   1      31.904  21.386  22.376  1.00  0.00     0.173 C 
BRANCH   9  14
ATOM     14  C   UNL A   1      32.886  22.617  26.896  1.00  0.00     0.277 C 
ATOM     15  N   UNL A   1      34.258  22.416  27.082  1.00  0.00    -0.320 N 
ATOM     16  H   UNL A   1      34.572  22.332  28.011  1.00  0.00     0.170 HD
ATOM     17  O   UNL A   1      32.141  22.556  27.874  1.00  0.00    -0.267 OA
BRANCH  15  18
ATOM     18  C   UNL A   1      35.231  22.324  26.073  1.00  0.00     0.047 A 
ATOM     19  C   UNL A   1      35.284  24.878  25.694  1.00  0.00     0.046 C 
ATOM     20  C   UNL A   1      35.839  23.486  25.609  1.00  0.00    -0.027 A 
ATOM     21  C   UNL A   1      37.124  23.348  25.094  1.00  0.00     0.008 A 
ATOM     22  C   UNL A   1      37.746  22.102  24.963  1.00  0.00     0.039 A 
ATOM     23  C   UNL A   1      35.725  21.079  25.665  1.00  0.00     0.065 A 
ATOM     24  C   UNL A   1      37.001  20.968  25.155  1.00  0.00     0.125 A 
ATOM     25  F   UNL A   1      37.541  19.766  24.918  1.00  0.00    -0.207 F 
ENDBRANCH  15  18
ENDBRANCH   9  14
ENDBRANCH   6   8
ENDBRANCH   5   6
ENDBRANCH   4   5
ENDBRANCH   3   4
ENDBRANCH   2   3
ENDBRANCH   1   2
BRANCH   1  26
ATOM     26  C   UNL A   1      33.049  31.105  26.914  1.00  0.00     0.188 C 
BRANCH  26  27
ATOM     27  O   UNL A   1      34.248  30.369  26.722  1.00  0.00    -0.376 OA
BRANCH  27  28
ATOM     28  C   UNL A   1      34.896  30.056  27.967  1.00  0.00     0.202 C 
BRANCH  28  29
ATOM     29  C   UNL A   1      35.273  31.336  28.706  1.00  0.00     0.261 C 
BRANCH  29  30
ATOM     30  O   UNL A   1      36.183  31.074  29.777  1.00  0.00    -0.460 OA
BRANCH  30  31
ATOM     31  C   UNL A   1      37.493  31.297  29.505  1.00  0.00     0.338 C 
ATOM     32  O   UNL A   1      38.120  32.311  29.609  1.00  0.00    -0.246 OA
BRANCH  31  33
ATOM     33  C   UNL A   1      38.068  29.989  29.149  1.00  0.00     0.060 A 
ATOM     34  C   UNL A   1      37.983  28.951  30.090  1.00  0.00     0.016 A 
ATOM     35  C   UNL A   1      38.640  29.794  27.891  1.00  0.00     0.016 A 
ATOM     36  C   UNL A   1      38.519  27.712  29.813  1.00  0.00     0.010 A 
ATOM     37  C   UNL A   1      39.251  28.590  27.634  1.00  0.00     0.010 A 
ATOM     38  C   UNL A   1      39.298  27.639  28.665  1.00  0.00    -0.014 A 
BRANCH  38  39
ATOM     39  C   UNL A   1      40.634  27.091  28.831  1.00  0.00     0.031 A 
ATOM     40  C   UNL A   1      40.919  25.722  28.429  1.00  0.00     0.074 A 
ATOM     41  C   UNL A   1      41.547  28.017  29.219  1.00  0.00     0.049 A 
ATOM     42  N   UNL A   1      41.855  25.017  28.955  1.00  0.00    -0.248 NA
ATOM     43  C   UNL A   1      40.120  24.994  27.443  1.00  0.00     0.031 C 
ATOM     44  C   UNL A   1      42.992  28.006  29.127  1.00  0.00     0.029 A 
ATOM     45  N   UNL A   1      41.263  29.216  29.911  1.00  0.00    -0.354 N 
ATOM     46  C   UNL A   1      42.041  23.958  28.103  1.00  0.00     0.074 A 
ATOM     47  C   UNL A   1      40.831  23.867  27.319  1.00  0.00     0.031 C 
ATOM     48  C   UNL A   1      43.476  28.970  29.936  1.00  0.00     0.029 A 
ATOM     49  C   UNL A   1      42.369  29.521  30.710  1.00  0.00     0.049 A 
ATOM     50  H   UNL A   1      40.435  29.744  29.842  1.00  0.00     0.167 HD
ATOM     51  C   UNL A   1      43.297  23.454  27.953  1.00  0.00     0.037 A 
ATOM     52  C   UNL A   1      42.226  29.428  32.067  1.00  0.00     0.037 A 
ATOM     53  C   UNL A   1      44.250  24.167  28.805  1.00  0.00     0.049 A 
ATOM     54  C   UNL A   1      42.924  28.210  32.651  1.00  0.00     0.074 A 
ATOM     55  C   UNL A   1      45.166  25.185  28.592  1.00  0.00     0.029 A 
ATOM     56  N   UNL A   1      44.039  24.155  30.172  1.00  0.00    -0.354 N 
ATOM     57  N   UNL A   1      43.553  27.309  31.946  1.00  0.00    -0.248 NA
ATOM     58  C   UNL A   1      42.897  27.875  34.073  1.00  0.00     0.031 C 
ATOM     59  C   UNL A   1      45.509  25.762  29.854  1.00  0.00     0.029 A 
ATOM     60  C   UNL A   1      44.802  25.095  30.836  1.00  0.00     0.049 A 
ATOM     61  H   UNL A   1      43.414  23.542  30.623  1.00  0.00     0.167 HD
ATOM     62  C   UNL A   1      43.982  26.295  32.756  1.00  0.00     0.074 A 
ATOM     63  C   UNL A   1      43.528  26.688  34.080  1.00  0.00     0.031 C 
ATOM     64  C   UNL A   1      44.652  25.201  32.280  1.00  0.00     0.037 A 
BRANCH  51  65
ATOM     65  C   UNL A   1      43.645  22.584  26.778  1.00  0.00     0.064 A 
ATOM     66  C   UNL A   1      43.228  21.241  26.716  1.00  0.00     0.173 A 
ATOM     67  C   UNL A   1      44.442  23.020  25.702  1.00  0.00     0.173 A 
ATOM     68  F   UNL A   1      42.420  20.716  27.644  1.00  0.00    -0.203 F 
ATOM     69  C   UNL A   1      43.646  20.377  25.705  1.00  0.00     0.198 A 
ATOM     70  C   UNL A   1      44.899  22.143  24.713  1.00  0.00     0.198 A 
ATOM     71  F   UNL A   1      44.793  24.310  25.585  1.00  0.00    -0.203 F 
ATOM     72  F   UNL A   1      43.226  19.104  25.706  1.00  0.00    -0.200 F 
ATOM     73  C   UNL A   1      44.505  20.818  24.719  1.00  0.00     0.200 A 
ATOM     74  F   UNL A   1      45.736  22.584  23.763  1.00  0.00    -0.200 F 
ATOM     75  F   UNL A   1      44.943  19.974  23.776  1.00  0.00    -0.200 F 
ENDBRANCH  51  65
BRANCH  52  76
ATOM     76  C   UNL A   1      40.976  30.046  32.612  1.00  0.00     0.064 A 
ATOM     77  C   UNL A   1      40.853  31.452  32.624  1.00  0.00     0.173 A 
ATOM     78  C   UNL A   1      39.817  29.313  32.904  1.00  0.00     0.173 A 
ATOM     79  F   UNL A   1      41.927  32.218  32.373  1.00  0.00    -0.203 F 
ATOM     80  C   UNL A   1      39.627  32.088  32.838  1.00  0.00     0.198 A 
ATOM     81  C   UNL A   1      38.589  29.952  33.129  1.00  0.00     0.198 A 
ATOM     82  F   UNL A   1      39.838  27.974  32.886  1.00  0.00    -0.203 F 
ATOM     83  F   UNL A   1      39.543  33.426  32.778  1.00  0.00    -0.200 F 
ATOM     84  C   UNL A   1      38.489  31.335  33.068  1.00  0.00     0.200 A 
ATOM     85  F   UNL A   1      37.480  29.219  33.301  1.00  0.00    -0.200 F 
ATOM     86  F   UNL A   1      37.292  31.930  33.178  1.00  0.00    -0.200 F 
ENDBRANCH  52  76
BRANCH  64  87
ATOM     87  C   UNL A   1      45.189  24.096  33.155  1.00  0.00     0.064 A 
ATOM     88  C   UNL A   1      44.398  23.016  33.574  1.00  0.00     0.173 A 
ATOM     89  C   UNL A   1      46.497  24.132  33.696  1.00  0.00     0.173 A 
ATOM     90  F   UNL A   1      43.097  22.948  33.257  1.00  0.00    -0.203 F 
ATOM     91  C   UNL A   1      44.915  21.987  34.364  1.00  0.00     0.198 A 
ATOM     92  C   UNL A   1      46.992  23.137  34.531  1.00  0.00     0.198 A 
ATOM     93  F   UNL A   1      47.360  25.120  33.428  1.00  0.00    -0.203 F 
ATOM     94  F   UNL A   1      44.144  20.935  34.668  1.00  0.00    -0.200 F 
ATOM     95  C   UNL A   1      46.212  22.046  34.840  1.00  0.00     0.200 A 
ATOM     96  F   UNL A   1      48.234  23.243  35.022  1.00  0.00    -0.200 F 
ATOM     97  F   UNL A   1      46.706  21.062  35.601  1.00  0.00    -0.200 F 
ENDBRANCH  64  87
ENDBRANCH  38  39
ENDBRANCH  31  33
ENDBRANCH  30  31
ENDBRANCH  29  30
ENDBRANCH  28  29
ENDBRANCH  27  28
ENDBRANCH  26  27
ENDBRANCH   1  26
TORSDOF 19
ENDMDL
