MODEL 1
REMARK VINA RESULT:     -11.7      0.000      0.000
REMARK SMILES O=C(OCCOCCOCCOC(=O)[C@@H]1CC=CC[C@H]1C(=O)N1CC[NH+](Cc2ccc3c(c2)OCO3)CC1)c1ccc(-c2c3nc(c(-c4c(F)c(F)c(F)c(F)c4F)c4ccc([nH]4)c(-c4c(F)c(F)c(F)c(F)c4F)c4nc(c(-c5c(F)c(F)c(F)c(F)c5F)c5ccc2[nH]5)C=C4)C=C3)cc1
REMARK SMILES IDX 8 1 7 2 6 3 5 4 4 5 3 6 2 7 1 8 39 9 40 10 101 11 41 12
REMARK SMILES IDX 100 13 42 14 43 15 44 16 94 17 45 18 99 19 93 20 95 21 46 22
REMARK SMILES IDX 98 23 92 24 91 25 47 27 79 28 59 29 78 30 60 31 63 32 77 33
REMARK SMILES IDX 96 34 61 35 62 36 76 38 97 39 64 40 48 41 49 42 57 43 50 44
REMARK SMILES IDX 51 45 55 46 58 47 52 48 53 49 56 50 54 51 80 52 81 53 89 54
REMARK SMILES IDX 82 55 83 56 87 57 90 58 84 59 85 60 88 61 86 62 65 63 66 64
REMARK SMILES IDX 74 65 67 66 68 67 72 68 75 69 69 70 70 71 73 72 71 73 9 74
REMARK SMILES IDX 10 75 11 76 12 77 13 78 14 79 15 80 16 81 20 82 17 83 19 84
REMARK SMILES IDX 18 85 21 86 22 87 23 88 24 89 38 90 25 91 37 92 26 93 27 95
REMARK SMILES IDX 28 96 29 97 33 98 30 99 32 100 31 101 34 102 36 103 35 104
REMARK H PARENT 95 26 63 37 26 94
REMARK Flexibility Score: inf
ROOT
ATOM      1  C   UNL A   1      38.174  23.605  25.776  1.00  0.00     0.188 C 
ENDROOT
BRANCH   1   2
ATOM      2  C   UNL A   1      38.520  22.114  25.781  1.00  0.00     0.188 C 
BRANCH   2   3
ATOM      3  O   UNL A   1      37.859  21.323  24.790  1.00  0.00    -0.376 OA
BRANCH   3   4
ATOM      4  C   UNL A   1      38.082  19.916  24.888  1.00  0.00     0.202 C 
BRANCH   4   5
ATOM      5  C   UNL A   1      39.058  19.373  25.949  1.00  0.00     0.261 C 
BRANCH   5   6
ATOM      6  O   UNL A   1      40.339  18.890  25.500  1.00  0.00    -0.460 OA
BRANCH   6   7
ATOM      7  C   UNL A   1      41.611  19.144  25.878  1.00  0.00     0.338 C 
ATOM      8  O   UNL A   1      42.404  18.204  25.900  1.00  0.00    -0.246 OA
BRANCH   7   9
ATOM      9  C   UNL A   1      42.110  20.476  26.338  1.00  0.00     0.060 A 
ATOM     10  C   UNL A   1      42.348  20.814  27.658  1.00  0.00     0.016 A 
ATOM     11  C   UNL A   1      42.334  21.475  25.360  1.00  0.00     0.016 A 
ATOM     12  C   UNL A   1      42.814  22.083  27.981  1.00  0.00     0.010 A 
ATOM     13  C   UNL A   1      42.810  22.759  25.691  1.00  0.00     0.010 A 
ATOM     14  C   UNL A   1      43.071  23.070  27.019  1.00  0.00    -0.014 A 
BRANCH  14  15
ATOM     15  C   UNL A   1      43.432  24.420  27.540  1.00  0.00     0.031 A 
ATOM     16  C   UNL A   1      44.771  24.960  27.123  1.00  0.00     0.074 A 
ATOM     17  C   UNL A   1      42.536  25.232  28.139  1.00  0.00     0.049 A 
ATOM     18  N   UNL A   1      45.223  26.185  27.133  1.00  0.00    -0.248 NA
ATOM     19  C   UNL A   1      45.706  23.975  26.548  1.00  0.00     0.031 C 
ATOM     20  C   UNL A   1      41.170  24.859  28.487  1.00  0.00     0.029 A 
ATOM     21  N   UNL A   1      42.596  26.581  28.433  1.00  0.00    -0.354 N 
ATOM     22  C   UNL A   1      46.508  26.105  26.616  1.00  0.00     0.074 A 
ATOM     23  C   UNL A   1      46.708  24.746  26.168  1.00  0.00     0.031 C 
ATOM     24  C   UNL A   1      40.476  25.974  28.782  1.00  0.00     0.029 A 
ATOM     25  C   UNL A   1      41.360  27.135  28.710  1.00  0.00     0.049 A 
ATOM     26  H   UNL A   1      43.436  27.095  28.444  1.00  0.00     0.167 HD
ATOM     27  C   UNL A   1      47.478  27.046  26.625  1.00  0.00     0.037 A 
ATOM     28  C   UNL A   1      40.991  28.432  28.835  1.00  0.00     0.037 A 
ATOM     29  C   UNL A   1      47.309  28.354  27.186  1.00  0.00     0.049 A 
ATOM     30  C   UNL A   1      42.080  29.483  28.827  1.00  0.00     0.074 A 
ATOM     31  C   UNL A   1      48.270  29.308  27.463  1.00  0.00     0.029 A 
ATOM     32  N   UNL A   1      46.090  28.875  27.592  1.00  0.00    -0.354 N 
ATOM     33  N   UNL A   1      43.333  29.381  28.455  1.00  0.00    -0.248 NA
ATOM     34  C   UNL A   1      41.718  30.820  29.332  1.00  0.00     0.031 C 
ATOM     35  C   UNL A   1      47.639  30.381  28.100  1.00  0.00     0.029 A 
ATOM     36  C   UNL A   1      46.276  30.130  28.142  1.00  0.00     0.049 A 
ATOM     37  H   UNL A   1      45.221  28.420  27.502  1.00  0.00     0.167 HD
ATOM     38  C   UNL A   1      43.916  30.614  28.726  1.00  0.00     0.074 A 
ATOM     39  C   UNL A   1      42.863  31.479  29.212  1.00  0.00     0.031 C 
ATOM     40  C   UNL A   1      45.218  30.978  28.630  1.00  0.00     0.037 A 
BRANCH  27  41
ATOM     41  C   UNL A   1      48.847  26.566  26.250  1.00  0.00     0.064 A 
ATOM     42  C   UNL A   1      49.723  25.981  27.175  1.00  0.00     0.173 A 
ATOM     43  C   UNL A   1      49.332  26.841  24.960  1.00  0.00     0.173 A 
ATOM     44  F   UNL A   1      49.322  25.753  28.434  1.00  0.00    -0.203 F 
ATOM     45  C   UNL A   1      51.052  25.736  26.835  1.00  0.00     0.198 A 
ATOM     46  C   UNL A   1      50.650  26.566  24.617  1.00  0.00     0.198 A 
ATOM     47  F   UNL A   1      48.537  27.422  24.050  1.00  0.00    -0.203 F 
ATOM     48  F   UNL A   1      51.902  25.271  27.759  1.00  0.00    -0.200 F 
ATOM     49  C   UNL A   1      51.513  26.031  25.558  1.00  0.00     0.200 A 
ATOM     50  F   UNL A   1      51.092  26.860  23.387  1.00  0.00    -0.200 F 
ATOM     51  F   UNL A   1      52.801  25.829  25.247  1.00  0.00    -0.200 F 
ENDBRANCH  27  41
BRANCH  28  52
ATOM     52  C   UNL A   1      39.556  28.853  28.973  1.00  0.00     0.064 A 
ATOM     53  C   UNL A   1      38.901  28.767  30.217  1.00  0.00     0.173 A 
ATOM     54  C   UNL A   1      38.787  29.304  27.891  1.00  0.00     0.173 A 
ATOM     55  F   UNL A   1      39.564  28.319  31.295  1.00  0.00    -0.203 F 
ATOM     56  C   UNL A   1      37.553  29.104  30.365  1.00  0.00     0.198 A 
ATOM     57  C   UNL A   1      37.453  29.687  28.048  1.00  0.00     0.198 A 
ATOM     58  F   UNL A   1      39.325  29.374  26.665  1.00  0.00    -0.203 F 
ATOM     59  F   UNL A   1      36.953  28.951  31.554  1.00  0.00    -0.200 F 
ATOM     60  C   UNL A   1      36.833  29.576  29.283  1.00  0.00     0.200 A 
ATOM     61  F   UNL A   1      36.766  30.154  26.998  1.00  0.00    -0.200 F 
ATOM     62  F   UNL A   1      35.542  29.909  29.423  1.00  0.00    -0.200 F 
ENDBRANCH  28  52
BRANCH  40  63
ATOM     63  C   UNL A   1      45.614  32.346  29.106  1.00  0.00     0.064 A 
ATOM     64  C   UNL A   1      46.058  32.555  30.420  1.00  0.00     0.173 A 
ATOM     65  C   UNL A   1      45.695  33.418  28.204  1.00  0.00     0.173 A 
ATOM     66  F   UNL A   1      46.001  31.562  31.320  1.00  0.00    -0.203 F 
ATOM     67  C   UNL A   1      46.572  33.788  30.814  1.00  0.00     0.198 A 
ATOM     68  C   UNL A   1      46.234  34.641  28.595  1.00  0.00     0.198 A 
ATOM     69  F   UNL A   1      45.295  33.264  26.934  1.00  0.00    -0.203 F 
ATOM     70  F   UNL A   1      46.982  33.969  32.077  1.00  0.00    -0.200 F 
ATOM     71  C   UNL A   1      46.673  34.825  29.898  1.00  0.00     0.200 A 
ATOM     72  F   UNL A   1      46.352  35.635  27.703  1.00  0.00    -0.200 F 
ATOM     73  F   UNL A   1      47.200  35.999  30.268  1.00  0.00    -0.200 F 
ENDBRANCH  40  63
ENDBRANCH  14  15
ENDBRANCH   7   9
ENDBRANCH   6   7
ENDBRANCH   5   6
ENDBRANCH   4   5
ENDBRANCH   3   4
ENDBRANCH   2   3
ENDBRANCH   1   2
BRANCH   1  74
ATOM     74  O   UNL A   1      36.954  24.003  26.392  1.00  0.00    -0.376 OA
BRANCH  74  75
ATOM     75  C   UNL A   1      35.732  23.607  25.785  1.00  0.00     0.202 C 
BRANCH  75  76
ATOM     76  C   UNL A   1      35.124  24.526  24.721  1.00  0.00     0.261 C 
BRANCH  76  77
ATOM     77  O   UNL A   1      34.428  25.656  25.266  1.00  0.00    -0.463 OA
BRANCH  77  78
ATOM     78  C   UNL A   1      33.795  26.446  24.357  1.00  0.00     0.310 C 
ATOM     79  O   UNL A   1      33.784  26.258  23.144  1.00  0.00    -0.252 OA
BRANCH  78  80
ATOM     80  C   UNL A   1      33.064  27.585  25.040  1.00  0.00     0.115 C 
ATOM     81  C   UNL A   1      34.087  28.438  25.822  1.00  0.00     0.043 C 
ATOM     82  C   UNL A   1      31.981  26.978  25.932  1.00  0.00     0.097 C 
ATOM     83  C   UNL A   1      33.498  29.231  26.947  1.00  0.00    -0.030 C 
ATOM     84  C   UNL A   1      31.324  28.009  26.867  1.00  0.00     0.041 C 
ATOM     85  C   UNL A   1      32.258  29.042  27.413  1.00  0.00    -0.030 C 
BRANCH  82  86
ATOM     86  C   UNL A   1      30.852  26.167  25.269  1.00  0.00     0.227 C 
ATOM     87  O   UNL A   1      30.046  26.753  24.540  1.00  0.00    -0.275 OA
ATOM     88  N   UNL A   1      30.911  24.793  25.271  1.00  0.00    -0.331 N 
ATOM     89  C   UNL A   1      30.667  24.048  24.039  1.00  0.00     0.181 C 
ATOM     90  C   UNL A   1      31.071  23.929  26.423  1.00  0.00     0.181 C 
ATOM     91  C   UNL A   1      31.760  22.963  23.811  1.00  0.00     0.284 C 
ATOM     92  C   UNL A   1      32.272  23.024  26.196  1.00  0.00     0.284 C 
ATOM     93  N   UNL A   1      32.229  22.206  24.981  1.00  0.00    -0.328 N 
ATOM     94  H   UNL A   1      33.203  21.992  24.763  1.00  0.00     0.348 HD
BRANCH  93  95
ATOM     95  C   UNL A   1      31.734  20.831  25.139  1.00  0.00     0.299 C 
BRANCH  95  96
ATOM     96  C   UNL A   1      32.539  19.791  24.392  1.00  0.00     0.010 A 
ATOM     97  C   UNL A   1      32.135  19.405  23.097  1.00  0.00     0.013 A 
ATOM     98  C   UNL A   1      33.570  19.084  25.033  1.00  0.00     0.060 A 
ATOM     99  C   UNL A   1      32.605  18.223  22.524  1.00  0.00     0.051 A 
ATOM    100  C   UNL A   1      34.012  17.919  24.448  1.00  0.00     0.166 A 
ATOM    101  C   UNL A   1      33.515  17.484  23.243  1.00  0.00     0.165 A 
ATOM    102  O   UNL A   1      34.888  17.037  25.000  1.00  0.00    -0.454 OA
ATOM    103  O   UNL A   1      33.994  16.261  22.896  1.00  0.00    -0.454 OA
ATOM    104  C   UNL A   1      34.812  15.957  24.042  1.00  0.00     0.468 C 
ENDBRANCH  95  96
ENDBRANCH  93  95
ENDBRANCH  82  86
ENDBRANCH  78  80
ENDBRANCH  77  78
ENDBRANCH  76  77
ENDBRANCH  75  76
ENDBRANCH  74  75
ENDBRANCH   1  74
TORSDOF 20
ENDMDL
MODEL 2
REMARK VINA RESULT:     -11.2      1.264      2.261
REMARK SMILES O=C(OCCOCCOCCOC(=O)[C@@H]1CC=CC[C@H]1C(=O)N1CC[NH+](Cc2ccc3c(c2)OCO3)CC1)c1ccc(-c2c3nc(c(-c4c(F)c(F)c(F)c(F)c4F)c4ccc([nH]4)c(-c4c(F)c(F)c(F)c(F)c4F)c4nc(c(-c5c(F)c(F)c(F)c(F)c5F)c5ccc2[nH]5)C=C4)C=C3)cc1
REMARK SMILES IDX 8 1 7 2 6 3 5 4 4 5 3 6 2 7 1 8 39 9 40 10 101 11 41 12
REMARK SMILES IDX 100 13 42 14 43 15 44 16 94 17 45 18 99 19 93 20 95 21 46 22
REMARK SMILES IDX 98 23 92 24 91 25 47 27 79 28 59 29 78 30 60 31 63 32 77 33
REMARK SMILES IDX 96 34 61 35 62 36 76 38 97 39 64 40 48 41 49 42 57 43 50 44
REMARK SMILES IDX 51 45 55 46 58 47 52 48 53 49 56 50 54 51 80 52 81 53 89 54
REMARK SMILES IDX 82 55 83 56 87 57 90 58 84 59 85 60 88 61 86 62 65 63 66 64
REMARK SMILES IDX 74 65 67 66 68 67 72 68 75 69 69 70 70 71 73 72 71 73 9 74
REMARK SMILES IDX 10 75 11 76 12 77 13 78 14 79 15 80 16 81 20 82 17 83 19 84
REMARK SMILES IDX 18 85 21 86 22 87 23 88 24 89 38 90 25 91 37 92 26 93 27 95
REMARK SMILES IDX 28 96 29 97 33 98 30 99 32 100 31 101 34 102 36 103 35 104
REMARK H PARENT 95 26 63 37 26 94
REMARK Flexibility Score: inf
ROOT
ATOM      1  C   UNL A   1      35.257  21.546  25.925  1.00  0.00     0.188 C 
ENDROOT
BRANCH   1   2
ATOM      2  C   UNL A   1      36.648  22.120  25.647  1.00  0.00     0.188 C 
BRANCH   2   3
ATOM      3  O   UNL A   1      37.525  21.276  24.896  1.00  0.00    -0.376 OA
BRANCH   3   4
ATOM      4  C   UNL A   1      38.708  20.865  25.583  1.00  0.00     0.202 C 
BRANCH   4   5
ATOM      5  C   UNL A   1      39.193  19.409  25.458  1.00  0.00     0.261 C 
BRANCH   5   6
ATOM      6  O   UNL A   1      40.558  19.122  25.817  1.00  0.00    -0.460 OA
BRANCH   6   7
ATOM      7  C   UNL A   1      41.709  19.823  25.724  1.00  0.00     0.338 C 
ATOM      8  O   UNL A   1      42.662  19.294  25.152  1.00  0.00    -0.246 OA
BRANCH   7   9
ATOM      9  C   UNL A   1      41.931  21.173  26.327  1.00  0.00     0.060 A 
ATOM     10  C   UNL A   1      42.162  22.329  25.604  1.00  0.00     0.016 A 
ATOM     11  C   UNL A   1      41.928  21.278  27.739  1.00  0.00     0.016 A 
ATOM     12  C   UNL A   1      42.356  23.538  26.263  1.00  0.00     0.010 A 
ATOM     13  C   UNL A   1      42.122  22.505  28.403  1.00  0.00     0.010 A 
ATOM     14  C   UNL A   1      42.324  23.660  27.659  1.00  0.00    -0.014 A 
BRANCH  14  15
ATOM     15  C   UNL A   1      42.688  24.996  28.212  1.00  0.00     0.031 A 
ATOM     16  C   UNL A   1      44.077  25.487  27.912  1.00  0.00     0.074 A 
ATOM     17  C   UNL A   1      41.775  25.841  28.735  1.00  0.00     0.049 A 
ATOM     18  N   UNL A   1      44.570  26.695  27.964  1.00  0.00    -0.248 NA
ATOM     19  C   UNL A   1      45.020  24.469  27.416  1.00  0.00     0.031 C 
ATOM     20  C   UNL A   1      40.371  25.517  28.965  1.00  0.00     0.029 A 
ATOM     21  N   UNL A   1      41.859  27.186  29.037  1.00  0.00    -0.354 N 
ATOM     22  C   UNL A   1      45.890  26.568  27.557  1.00  0.00     0.074 A 
ATOM     23  C   UNL A   1      46.078  25.202  27.124  1.00  0.00     0.031 C 
ATOM     24  C   UNL A   1      39.696  26.657  29.204  1.00  0.00     0.029 A 
ATOM     25  C   UNL A   1      40.624  27.786  29.210  1.00  0.00     0.049 A 
ATOM     26  H   UNL A   1      42.712  27.669  29.121  1.00  0.00     0.167 HD
ATOM     27  C   UNL A   1      46.890  27.474  27.650  1.00  0.00     0.037 A 
ATOM     28  C   UNL A   1      40.293  29.095  29.307  1.00  0.00     0.037 A 
ATOM     29  C   UNL A   1      46.722  28.787  28.200  1.00  0.00     0.049 A 
ATOM     30  C   UNL A   1      41.417  30.106  29.394  1.00  0.00     0.074 A 
ATOM     31  C   UNL A   1      47.689  29.705  28.560  1.00  0.00     0.029 A 
ATOM     32  N   UNL A   1      45.491  29.352  28.502  1.00  0.00    -0.354 N 
ATOM     33  N   UNL A   1      42.692  29.958  29.129  1.00  0.00    -0.248 NA
ATOM     34  C   UNL A   1      41.062  31.455  29.870  1.00  0.00     0.031 C 
ATOM     35  C   UNL A   1      47.045  30.801  29.144  1.00  0.00     0.029 A 
ATOM     36  C   UNL A   1      45.676  30.600  29.069  1.00  0.00     0.049 A 
ATOM     37  H   UNL A   1      44.618  28.929  28.338  1.00  0.00     0.167 HD
ATOM     38  C   UNL A   1      43.294  31.169  29.452  1.00  0.00     0.074 A 
ATOM     39  C   UNL A   1      42.235  32.072  29.849  1.00  0.00     0.031 C 
ATOM     40  C   UNL A   1      44.612  31.486  29.468  1.00  0.00     0.037 A 
BRANCH  27  41
ATOM     41  C   UNL A   1      48.267  26.944  27.392  1.00  0.00     0.064 A 
ATOM     42  C   UNL A   1      48.890  27.035  26.140  1.00  0.00     0.173 A 
ATOM     43  C   UNL A   1      48.906  26.198  28.397  1.00  0.00     0.173 A 
ATOM     44  F   UNL A   1      48.292  27.688  25.133  1.00  0.00    -0.203 F 
ATOM     45  C   UNL A   1      50.080  26.354  25.889  1.00  0.00     0.198 A 
ATOM     46  C   UNL A   1      50.108  25.546  28.151  1.00  0.00     0.198 A 
ATOM     47  F   UNL A   1      48.335  26.064  29.603  1.00  0.00    -0.203 F 
ATOM     48  F   UNL A   1      50.610  26.368  24.659  1.00  0.00    -0.200 F 
ATOM     49  C   UNL A   1      50.685  25.610  26.894  1.00  0.00     0.200 A 
ATOM     50  F   UNL A   1      50.683  24.822  29.121  1.00  0.00    -0.200 F 
ATOM     51  F   UNL A   1      51.808  24.925  26.638  1.00  0.00    -0.200 F 
ENDBRANCH  27  41
BRANCH  28  52
ATOM     52  C   UNL A   1      38.868  29.567  29.324  1.00  0.00     0.064 A 
ATOM     53  C   UNL A   1      38.181  29.813  28.119  1.00  0.00     0.173 A 
ATOM     54  C   UNL A   1      38.165  29.828  30.510  1.00  0.00     0.173 A 
ATOM     55  F   UNL A   1      38.795  29.611  26.943  1.00  0.00    -0.203 F 
ATOM     56  C   UNL A   1      36.871  30.299  28.104  1.00  0.00     0.198 A 
ATOM     57  C   UNL A   1      36.840  30.269  30.495  1.00  0.00     0.198 A 
ATOM     58  F   UNL A   1      38.763  29.660  31.697  1.00  0.00    -0.203 F 
ATOM     59  F   UNL A   1      36.274  30.575  26.935  1.00  0.00    -0.200 F 
ATOM     60  C   UNL A   1      36.196  30.515  29.292  1.00  0.00     0.200 A 
ATOM     61  F   UNL A   1      36.191  30.464  31.650  1.00  0.00    -0.200 F 
ATOM     62  F   UNL A   1      34.937  30.973  29.281  1.00  0.00    -0.200 F 
ENDBRANCH  28  52
BRANCH  40  63
ATOM     63  C   UNL A   1      45.015  32.838  29.979  1.00  0.00     0.064 A 
ATOM     64  C   UNL A   1      45.354  33.032  31.327  1.00  0.00     0.173 A 
ATOM     65  C   UNL A   1      45.211  33.907  29.091  1.00  0.00     0.173 A 
ATOM     66  F   UNL A   1      45.186  32.041  32.216  1.00  0.00    -0.203 F 
ATOM     67  C   UNL A   1      45.877  34.245  31.766  1.00  0.00     0.198 A 
ATOM     68  C   UNL A   1      45.758  35.109  29.529  1.00  0.00     0.198 A 
ATOM     69  F   UNL A   1      44.913  33.767  27.791  1.00  0.00    -0.203 F 
ATOM     70  F   UNL A   1      46.186  34.411  33.060  1.00  0.00    -0.200 F 
ATOM     71  C   UNL A   1      46.092  35.277  30.865  1.00  0.00     0.200 A 
ATOM     72  F   UNL A   1      45.986  36.098  28.653  1.00  0.00    -0.200 F 
ATOM     73  F   UNL A   1      46.628  36.432  31.282  1.00  0.00    -0.200 F 
ENDBRANCH  40  63
ENDBRANCH  14  15
ENDBRANCH   7   9
ENDBRANCH   6   7
ENDBRANCH   5   6
ENDBRANCH   4   5
ENDBRANCH   3   4
ENDBRANCH   2   3
ENDBRANCH   1   2
BRANCH   1  74
ATOM     74  O   UNL A   1      34.703  21.753  27.220  1.00  0.00    -0.376 OA
BRANCH  74  75
ATOM     75  C   UNL A   1      34.025  22.976  27.476  1.00  0.00     0.202 C 
BRANCH  75  76
ATOM     76  C   UNL A   1      33.282  23.645  26.316  1.00  0.00     0.261 C 
BRANCH  76  77
ATOM     77  O   UNL A   1      33.264  25.077  26.394  1.00  0.00    -0.463 OA
BRANCH  77  78
ATOM     78  C   UNL A   1      33.996  25.723  25.446  1.00  0.00     0.310 C 
ATOM     79  O   UNL A   1      34.896  25.217  24.783  1.00  0.00    -0.252 OA
BRANCH  78  80
ATOM     80  C   UNL A   1      33.532  27.157  25.283  1.00  0.00     0.115 C 
ATOM     81  C   UNL A   1      33.335  27.781  26.682  1.00  0.00     0.043 C 
ATOM     82  C   UNL A   1      32.254  27.144  24.445  1.00  0.00     0.097 C 
ATOM     83  C   UNL A   1      32.395  28.947  26.711  1.00  0.00    -0.030 C 
ATOM     84  C   UNL A   1      31.545  28.509  24.407  1.00  0.00     0.041 C 
ATOM     85  C   UNL A   1      31.596  29.276  25.689  1.00  0.00    -0.030 C 
BRANCH  82  86
ATOM     86  C   UNL A   1      32.328  26.618  22.999  1.00  0.00     0.227 C 
ATOM     87  O   UNL A   1      32.798  27.350  22.122  1.00  0.00    -0.275 OA
ATOM     88  N   UNL A   1      32.132  25.280  22.751  1.00  0.00    -0.331 N 
ATOM     89  C   UNL A   1      33.061  24.551  21.890  1.00  0.00     0.181 C 
ATOM     90  C   UNL A   1      30.996  24.476  23.153  1.00  0.00     0.181 C 
ATOM     91  C   UNL A   1      33.496  23.207  22.541  1.00  0.00     0.284 C 
ATOM     92  C   UNL A   1      31.498  23.275  23.941  1.00  0.00     0.284 C 
ATOM     93  N   UNL A   1      32.471  22.425  23.250  1.00  0.00    -0.328 N 
ATOM     94  H   UNL A   1      32.990  21.951  23.989  1.00  0.00     0.348 HD
BRANCH  93  95
ATOM     95  C   UNL A   1      31.933  21.241  22.567  1.00  0.00     0.299 C 
BRANCH  95  96
ATOM     96  C   UNL A   1      32.173  19.939  23.298  1.00  0.00     0.010 A 
ATOM     97  C   UNL A   1      32.207  19.936  24.708  1.00  0.00     0.013 A 
ATOM     98  C   UNL A   1      32.534  18.776  22.596  1.00  0.00     0.060 A 
ATOM     99  C   UNL A   1      32.773  18.870  25.408  1.00  0.00     0.051 A 
ATOM    100  C   UNL A   1      33.094  17.741  23.311  1.00  0.00     0.166 A 
ATOM    101  C   UNL A   1      33.241  17.804  24.675  1.00  0.00     0.165 A 
ATOM    102  O   UNL A   1      33.636  16.613  22.778  1.00  0.00    -0.454 OA
ATOM    103  O   UNL A   1      33.917  16.736  25.172  1.00  0.00    -0.454 OA
ATOM    104  C   UNL A   1      34.219  16.019  23.960  1.00  0.00     0.468 C 
ENDBRANCH  95  96
ENDBRANCH  93  95
ENDBRANCH  82  86
ENDBRANCH  78  80
ENDBRANCH  77  78
ENDBRANCH  76  77
ENDBRANCH  75  76
ENDBRANCH  74  75
ENDBRANCH   1  74
TORSDOF 20
ENDMDL
MODEL 3
REMARK VINA RESULT:     -11.2      0.964      6.954
REMARK SMILES O=C(OCCOCCOCCOC(=O)[C@@H]1CC=CC[C@H]1C(=O)N1CC[NH+](Cc2ccc3c(c2)OCO3)CC1)c1ccc(-c2c3nc(c(-c4c(F)c(F)c(F)c(F)c4F)c4ccc([nH]4)c(-c4c(F)c(F)c(F)c(F)c4F)c4nc(c(-c5c(F)c(F)c(F)c(F)c5F)c5ccc2[nH]5)C=C4)C=C3)cc1
REMARK SMILES IDX 8 1 7 2 6 3 5 4 4 5 3 6 2 7 1 8 39 9 40 10 101 11 41 12
REMARK SMILES IDX 100 13 42 14 43 15 44 16 94 17 45 18 99 19 93 20 95 21 46 22
REMARK SMILES IDX 98 23 92 24 91 25 47 27 79 28 59 29 78 30 60 31 63 32 77 33
REMARK SMILES IDX 96 34 61 35 62 36 76 38 97 39 64 40 48 41 49 42 57 43 50 44
REMARK SMILES IDX 51 45 55 46 58 47 52 48 53 49 56 50 54 51 80 52 81 53 89 54
REMARK SMILES IDX 82 55 83 56 87 57 90 58 84 59 85 60 88 61 86 62 65 63 66 64
REMARK SMILES IDX 74 65 67 66 68 67 72 68 75 69 69 70 70 71 73 72 71 73 9 74
REMARK SMILES IDX 10 75 11 76 12 77 13 78 14 79 15 80 16 81 20 82 17 83 19 84
REMARK SMILES IDX 18 85 21 86 22 87 23 88 24 89 38 90 25 91 37 92 26 93 27 95
REMARK SMILES IDX 28 96 29 97 33 98 30 99 32 100 31 101 34 102 36 103 35 104
REMARK H PARENT 95 26 63 37 26 94
REMARK Flexibility Score: inf
ROOT
ATOM      1  C   UNL A   1      37.510  22.651  24.744  1.00  0.00     0.188 C 
ENDROOT
BRANCH   1   2
ATOM      2  C   UNL A   1      36.860  21.353  24.259  1.00  0.00     0.188 C 
BRANCH   2   3
ATOM      3  O   UNL A   1      37.043  20.216  25.107  1.00  0.00    -0.376 OA
BRANCH   3   4
ATOM      4  C   UNL A   1      38.308  19.565  24.985  1.00  0.00     0.202 C 
BRANCH   4   5
ATOM      5  C   UNL A   1      39.450  19.934  25.952  1.00  0.00     0.261 C 
BRANCH   5   6
ATOM      6  O   UNL A   1      40.708  19.251  25.798  1.00  0.00    -0.460 OA
BRANCH   6   7
ATOM      7  C   UNL A   1      41.969  19.528  26.197  1.00  0.00     0.338 C 
ATOM      8  O   UNL A   1      42.715  18.581  26.446  1.00  0.00    -0.246 OA
BRANCH   7   9
ATOM      9  C   UNL A   1      42.504  20.905  26.427  1.00  0.00     0.060 A 
ATOM     10  C   UNL A   1      42.678  21.484  27.671  1.00  0.00     0.016 A 
ATOM     11  C   UNL A   1      42.837  21.684  25.293  1.00  0.00     0.016 A 
ATOM     12  C   UNL A   1      43.186  22.774  27.774  1.00  0.00     0.010 A 
ATOM     13  C   UNL A   1      43.355  22.990  25.403  1.00  0.00     0.010 A 
ATOM     14  C   UNL A   1      43.549  23.544  26.661  1.00  0.00    -0.014 A 
BRANCH  14  15
ATOM     15  C   UNL A   1      43.944  24.956  26.937  1.00  0.00     0.031 A 
ATOM     16  C   UNL A   1      42.897  25.832  27.562  1.00  0.00     0.074 A 
ATOM     17  C   UNL A   1      45.225  25.378  26.874  1.00  0.00     0.049 A 
ATOM     18  N   UNL A   1      43.021  26.964  28.202  1.00  0.00    -0.248 NA
ATOM     19  C   UNL A   1      41.518  25.314  27.513  1.00  0.00     0.031 C 
ATOM     20  C   UNL A   1      46.347  24.578  26.395  1.00  0.00     0.029 A 
ATOM     21  N   UNL A   1      45.818  26.534  27.343  1.00  0.00    -0.354 N 
ATOM     22  C   UNL A   1      41.733  27.312  28.583  1.00  0.00     0.074 A 
ATOM     23  C   UNL A   1      40.868  26.208  28.235  1.00  0.00     0.031 C 
ATOM     24  C   UNL A   1      47.495  25.186  26.748  1.00  0.00     0.029 A 
ATOM     25  C   UNL A   1      47.196  26.450  27.418  1.00  0.00     0.049 A 
ATOM     26  H   UNL A   1      45.309  27.337  27.598  1.00  0.00     0.167 HD
ATOM     27  C   UNL A   1      41.289  28.494  29.067  1.00  0.00     0.037 A 
ATOM     28  C   UNL A   1      48.093  27.275  28.008  1.00  0.00     0.037 A 
ATOM     29  C   UNL A   1      42.137  29.628  29.291  1.00  0.00     0.049 A 
ATOM     30  C   UNL A   1      47.587  28.590  28.563  1.00  0.00     0.074 A 
ATOM     31  C   UNL A   1      41.781  30.936  29.554  1.00  0.00     0.029 A 
ATOM     32  N   UNL A   1      43.523  29.586  29.239  1.00  0.00    -0.354 N 
ATOM     33  N   UNL A   1      46.358  28.972  28.809  1.00  0.00    -0.248 NA
ATOM     34  C   UNL A   1      48.598  29.622  28.853  1.00  0.00     0.031 C 
ATOM     35  C   UNL A   1      42.952  31.701  29.595  1.00  0.00     0.029 A 
ATOM     36  C   UNL A   1      44.037  30.853  29.441  1.00  0.00     0.049 A 
ATOM     37  H   UNL A   1      44.059  28.776  29.082  1.00  0.00     0.167 HD
ATOM     38  C   UNL A   1      46.443  30.294  29.231  1.00  0.00     0.074 A 
ATOM     39  C   UNL A   1      47.850  30.625  29.293  1.00  0.00     0.031 C 
ATOM     40  C   UNL A   1      45.442  31.170  29.492  1.00  0.00     0.037 A 
BRANCH  27  41
ATOM     41  C   UNL A   1      39.800  28.655  29.112  1.00  0.00     0.064 A 
ATOM     42  C   UNL A   1      39.054  29.104  28.014  1.00  0.00     0.173 A 
ATOM     43  C   UNL A   1      39.138  28.491  30.341  1.00  0.00     0.173 A 
ATOM     44  F   UNL A   1      39.654  29.329  26.836  1.00  0.00    -0.203 F 
ATOM     45  C   UNL A   1      37.708  29.432  28.160  1.00  0.00     0.198 A 
ATOM     46  C   UNL A   1      37.788  28.790  30.473  1.00  0.00     0.198 A 
ATOM     47  F   UNL A   1      39.817  28.086  31.424  1.00  0.00    -0.203 F 
ATOM     48  F   UNL A   1      37.033  29.955  27.127  1.00  0.00    -0.200 F 
ATOM     49  C   UNL A   1      37.078  29.277  29.388  1.00  0.00     0.200 A 
ATOM     50  F   UNL A   1      37.187  28.647  31.662  1.00  0.00    -0.200 F 
ATOM     51  F   UNL A   1      35.793  29.629  29.533  1.00  0.00    -0.200 F 
ENDBRANCH  27  41
BRANCH  28  52
ATOM     52  C   UNL A   1      49.549  26.929  28.131  1.00  0.00     0.064 A 
ATOM     53  C   UNL A   1      50.071  26.458  29.351  1.00  0.00     0.173 A 
ATOM     54  C   UNL A   1      50.462  27.090  27.079  1.00  0.00     0.173 A 
ATOM     55  F   UNL A   1      49.264  26.302  30.412  1.00  0.00    -0.203 F 
ATOM     56  C   UNL A   1      51.431  26.175  29.511  1.00  0.00     0.198 A 
ATOM     57  C   UNL A   1      51.812  26.762  27.224  1.00  0.00     0.198 A 
ATOM     58  F   UNL A   1      50.051  27.575  25.899  1.00  0.00    -0.203 F 
ATOM     59  F   UNL A   1      51.896  25.784  30.705  1.00  0.00    -0.200 F 
ATOM     60  C   UNL A   1      52.298  26.314  28.442  1.00  0.00     0.200 A 
ATOM     61  F   UNL A   1      52.643  26.890  26.181  1.00  0.00    -0.200 F 
ATOM     62  F   UNL A   1      53.601  26.035  28.588  1.00  0.00    -0.200 F 
ENDBRANCH  28  52
BRANCH  40  63
ATOM     63  C   UNL A   1      45.803  32.591  29.814  1.00  0.00     0.064 A 
ATOM     64  C   UNL A   1      45.893  33.562  28.806  1.00  0.00     0.173 A 
ATOM     65  C   UNL A   1      45.907  33.014  31.148  1.00  0.00     0.173 A 
ATOM     66  F   UNL A   1      45.800  33.208  27.515  1.00  0.00    -0.203 F 
ATOM     67  C   UNL A   1      46.072  34.906  29.121  1.00  0.00     0.198 A 
ATOM     68  C   UNL A   1      46.060  34.362  31.460  1.00  0.00     0.198 A 
ATOM     69  F   UNL A   1      45.815  32.126  32.148  1.00  0.00    -0.203 F 
ATOM     70  F   UNL A   1      46.165  35.816  28.141  1.00  0.00    -0.200 F 
ATOM     71  C   UNL A   1      46.141  35.307  30.447  1.00  0.00     0.200 A 
ATOM     72  F   UNL A   1      46.103  34.751  32.742  1.00  0.00    -0.200 F 
ATOM     73  F   UNL A   1      46.277  36.605  30.750  1.00  0.00    -0.200 F 
ENDBRANCH  40  63
ENDBRANCH  14  15
ENDBRANCH   7   9
ENDBRANCH   6   7
ENDBRANCH   5   6
ENDBRANCH   4   5
ENDBRANCH   3   4
ENDBRANCH   2   3
ENDBRANCH   1   2
BRANCH   1  74
ATOM     74  O   UNL A   1      37.139  23.137  26.029  1.00  0.00    -0.376 OA
BRANCH  74  75
ATOM     75  C   UNL A   1      35.809  23.602  26.215  1.00  0.00     0.202 C 
BRANCH  75  76
ATOM     76  C   UNL A   1      35.174  24.440  25.101  1.00  0.00     0.261 C 
BRANCH  76  77
ATOM     77  O   UNL A   1      34.480  25.600  25.578  1.00  0.00    -0.463 OA
BRANCH  77  78
ATOM     78  C   UNL A   1      33.865  26.348  24.621  1.00  0.00     0.310 C 
ATOM     79  O   UNL A   1      33.875  26.102  23.419  1.00  0.00    -0.252 OA
BRANCH  78  80
ATOM     80  C   UNL A   1      33.128  27.521  25.236  1.00  0.00     0.115 C 
ATOM     81  C   UNL A   1      34.125  28.358  26.067  1.00  0.00     0.043 C 
ATOM     82  C   UNL A   1      31.972  26.964  26.067  1.00  0.00     0.097 C 
ATOM     83  C   UNL A   1      33.491  29.191  27.138  1.00  0.00    -0.030 C 
ATOM     84  C   UNL A   1      31.290  28.032  26.940  1.00  0.00     0.041 C 
ATOM     85  C   UNL A   1      32.218  29.047  27.526  1.00  0.00    -0.030 C 
BRANCH  82  86
ATOM     86  C   UNL A   1      30.864  26.174  25.347  1.00  0.00     0.227 C 
ATOM     87  O   UNL A   1      30.091  26.779  24.598  1.00  0.00    -0.275 OA
ATOM     88  N   UNL A   1      30.911  24.800  25.328  1.00  0.00    -0.331 N 
ATOM     89  C   UNL A   1      30.709  24.077  24.075  1.00  0.00     0.181 C 
ATOM     90  C   UNL A   1      31.018  23.915  26.471  1.00  0.00     0.181 C 
ATOM     91  C   UNL A   1      31.800  22.987  23.871  1.00  0.00     0.284 C 
ATOM     92  C   UNL A   1      32.220  23.003  26.275  1.00  0.00     0.284 C 
ATOM     93  N   UNL A   1      32.218  22.206  25.046  1.00  0.00    -0.328 N 
ATOM     94  H   UNL A   1      33.197  21.988  24.862  1.00  0.00     0.348 HD
BRANCH  93  95
ATOM     95  C   UNL A   1      31.705  20.834  25.160  1.00  0.00     0.299 C 
BRANCH  95  96
ATOM     96  C   UNL A   1      32.519  19.802  24.412  1.00  0.00     0.010 A 
ATOM     97  C   UNL A   1      32.113  19.409  23.119  1.00  0.00     0.013 A 
ATOM     98  C   UNL A   1      33.562  19.108  25.048  1.00  0.00     0.060 A 
ATOM     99  C   UNL A   1      32.593  18.232  22.545  1.00  0.00     0.051 A 
ATOM    100  C   UNL A   1      34.015  17.947  24.462  1.00  0.00     0.166 A 
ATOM    101  C   UNL A   1      33.516  17.505  23.261  1.00  0.00     0.165 A 
ATOM    102  O   UNL A   1      34.904  17.077  25.011  1.00  0.00    -0.454 OA
ATOM    103  O   UNL A   1      34.008  16.287  22.914  1.00  0.00    -0.454 OA
ATOM    104  C   UNL A   1      34.835  15.995  24.056  1.00  0.00     0.468 C 
ENDBRANCH  95  96
ENDBRANCH  93  95
ENDBRANCH  82  86
ENDBRANCH  78  80
ENDBRANCH  77  78
ENDBRANCH  76  77
ENDBRANCH  75  76
ENDBRANCH  74  75
ENDBRANCH   1  74
TORSDOF 20
ENDMDL
