MODEL 1
REMARK VINA RESULT:     -11.0      0.000      0.000
REMARK SMILES C[C@@H]1[NH2+]CC[C@@H]1C(=O)Nc1ccccc1CC(=O)OCCOCCOCCOC(=O)c1ccc(-c2c3nc(c(-c4c(F)c(F)c(F)c(F)c4F)c4ccc([nH]4)c(-c4c(F)c(F)c(F)c(F)c4F)c4nc(c(-c5c(F)c(F)c(F)c(F)c5F)c5ccc2[nH]5)C=C4)C=C3)cc1
REMARK SMILES IDX 23 1 22 2 21 3 20 4 19 5 17 6 18 7 16 8 15 9 10 10 11 11
REMARK SMILES IDX 12 12 14 13 13 14 9 15 7 16 8 17 6 19 1 20 2 21 3 22 4 23
REMARK SMILES IDX 5 26 24 27 25 28 26 29 27 30 28 31 29 32 30 33 31 34 32 35
REMARK SMILES IDX 93 36 33 37 92 38 34 39 35 40 36 41 86 42 37 43 91 44 85 45
REMARK SMILES IDX 87 46 38 47 90 48 84 49 83 50 39 52 71 53 51 54 70 55 52 56
REMARK SMILES IDX 55 57 69 58 88 59 53 60 54 61 68 63 89 64 56 65 40 66 41 67
REMARK SMILES IDX 49 68 42 69 43 70 47 71 50 72 44 73 45 74 48 75 46 76 72 77
REMARK SMILES IDX 73 78 81 79 74 80 75 81 79 82 82 83 76 84 77 85 80 86 78 87
REMARK SMILES IDX 57 88 58 89 66 90 59 91 60 92 64 93 67 94 61 95 62 96 65 97
REMARK SMILES IDX 63 98
REMARK H PARENT 9 18 3 24 3 25 87 51 55 62
REMARK Flexibility Score: inf
ROOT
ATOM      1  C   UNL A   1      34.662  32.412  29.078  1.00  0.00     0.188 C 
ENDROOT
BRANCH   1   2
ATOM      2  O   UNL A   1      33.752  31.597  28.344  1.00  0.00    -0.376 OA
BRANCH   2   3
ATOM      3  C   UNL A   1      34.255  30.823  27.265  1.00  0.00     0.202 C 
BRANCH   3   4
ATOM      4  C   UNL A   1      34.697  29.393  27.632  1.00  0.00     0.261 C 
BRANCH   4   5
ATOM      5  O   UNL A   1      34.061  28.339  26.863  1.00  0.00    -0.463 OA
BRANCH   5   6
ATOM      6  C   UNL A   1      32.728  28.493  26.650  1.00  0.00     0.310 C 
ATOM      7  O   UNL A   1      31.894  28.485  27.554  1.00  0.00    -0.252 OA
BRANCH   6   8
ATOM      8  C   UNL A   1      32.326  28.905  25.252  1.00  0.00     0.160 C 
BRANCH   8   9
ATOM      9  C   UNL A   1      32.040  27.980  24.061  1.00  0.00    -0.013 A 
ATOM     10  C   UNL A   1      30.902  27.651  23.266  1.00  0.00     0.044 A 
ATOM     11  C   UNL A   1      31.098  26.614  22.290  1.00  0.00     0.026 A 
ATOM     12  C   UNL A   1      32.323  26.022  21.982  1.00  0.00     0.002 A 
ATOM     13  C   UNL A   1      33.285  27.361  23.675  1.00  0.00     0.006 A 
ATOM     14  C   UNL A   1      33.438  26.427  22.661  1.00  0.00     0.000 A 
BRANCH  10  15
ATOM     15  N   UNL A   1      29.536  28.069  23.144  1.00  0.00    -0.325 N 
ATOM     16  C   UNL A   1      28.669  29.004  22.658  1.00  0.00     0.233 C 
ATOM     17  O   UNL A   1      27.470  28.715  22.790  1.00  0.00    -0.274 OA
ATOM     18  H   UNL A   1      28.991  27.393  23.610  1.00  0.00     0.169 HD
BRANCH  16  19
ATOM     19  C   UNL A   1      29.035  30.256  21.904  1.00  0.00     0.142 C 
ATOM     20  C   UNL A   1      27.857  31.395  23.807  1.00  0.00     0.076 C 
ATOM     21  C   UNL A   1      29.082  31.387  22.873  1.00  0.00     0.192 C 
ATOM     22  N   UNL A   1      29.151  32.562  22.018  1.00  0.00    -0.343 N 
ATOM     23  C   UNL A   1      28.064  32.350  21.071  1.00  0.00     0.261 C 
ATOM     24  H   UNL A   1      30.050  32.612  21.538  1.00  0.00     0.346 HD
ATOM     25  H   UNL A   1      29.067  33.438  22.534  1.00  0.00     0.346 HD
ATOM     26  C   UNL A   1      28.028  30.820  20.875  1.00  0.00     0.081 C 
ENDBRANCH  16  19
ENDBRANCH  10  15
ENDBRANCH   8   9
ENDBRANCH   6   8
ENDBRANCH   5   6
ENDBRANCH   4   5
ENDBRANCH   3   4
ENDBRANCH   2   3
ENDBRANCH   1   2
BRANCH   1  27
ATOM     27  C   UNL A   1      35.149  33.725  28.461  1.00  0.00     0.188 C 
BRANCH  27  28
ATOM     28  O   UNL A   1      34.045  34.495  27.998  1.00  0.00    -0.376 OA
BRANCH  28  29
ATOM     29  C   UNL A   1      34.133  35.857  28.398  1.00  0.00     0.202 C 
BRANCH  29  30
ATOM     30  C   UNL A   1      32.901  36.233  29.227  1.00  0.00     0.261 C 
BRANCH  30  31
ATOM     31  O   UNL A   1      32.544  35.283  30.257  1.00  0.00    -0.460 OA
BRANCH  31  32
ATOM     32  C   UNL A   1      32.588  35.708  31.541  1.00  0.00     0.338 C 
ATOM     33  O   UNL A   1      31.784  36.435  32.095  1.00  0.00    -0.246 OA
BRANCH  32  34
ATOM     34  C   UNL A   1      33.687  35.002  32.250  1.00  0.00     0.060 A 
ATOM     35  C   UNL A   1      34.975  35.555  32.240  1.00  0.00     0.016 A 
ATOM     36  C   UNL A   1      33.465  33.775  32.876  1.00  0.00     0.016 A 
ATOM     37  C   UNL A   1      36.050  34.872  32.822  1.00  0.00     0.010 A 
ATOM     38  C   UNL A   1      34.543  33.083  33.441  1.00  0.00     0.010 A 
ATOM     39  C   UNL A   1      35.848  33.610  33.390  1.00  0.00    -0.014 A 
BRANCH  39  40
ATOM     40  C   UNL A   1      36.991  32.736  33.771  1.00  0.00     0.031 A 
ATOM     41  C   UNL A   1      37.680  32.996  35.082  1.00  0.00     0.074 A 
ATOM     42  C   UNL A   1      37.449  31.764  32.964  1.00  0.00     0.049 A 
ATOM     43  N   UNL A   1      38.828  32.553  35.528  1.00  0.00    -0.248 NA
ATOM     44  C   UNL A   1      36.976  33.891  36.014  1.00  0.00     0.031 C 
ATOM     45  C   UNL A   1      36.837  31.346  31.707  1.00  0.00     0.029 A 
ATOM     46  N   UNL A   1      38.570  30.974  33.076  1.00  0.00    -0.354 N 
ATOM     47  C   UNL A   1      39.004  33.146  36.771  1.00  0.00     0.074 A 
ATOM     48  C   UNL A   1      37.846  33.980  37.010  1.00  0.00     0.031 C 
ATOM     49  C   UNL A   1      37.609  30.401  31.142  1.00  0.00     0.029 A 
ATOM     50  C   UNL A   1      38.797  30.191  31.970  1.00  0.00     0.049 A 
ATOM     51  H   UNL A   1      39.150  30.970  33.871  1.00  0.00     0.167 HD
ATOM     52  C   UNL A   1      40.042  33.014  37.630  1.00  0.00     0.037 A 
ATOM     53  C   UNL A   1      39.865  29.437  31.640  1.00  0.00     0.037 A 
ATOM     54  C   UNL A   1      41.186  32.171  37.400  1.00  0.00     0.049 A 
ATOM     55  C   UNL A   1      41.050  29.363  32.574  1.00  0.00     0.074 A 
ATOM     56  C   UNL A   1      42.281  31.958  38.219  1.00  0.00     0.029 A 
ATOM     57  N   UNL A   1      41.383  31.403  36.261  1.00  0.00    -0.354 N 
ATOM     58  N   UNL A   1      41.226  29.941  33.738  1.00  0.00    -0.248 NA
ATOM     59  C   UNL A   1      42.188  28.538  32.142  1.00  0.00     0.031 C 
ATOM     60  C   UNL A   1      43.167  31.104  37.554  1.00  0.00     0.029 A 
ATOM     61  C   UNL A   1      42.595  30.735  36.347  1.00  0.00     0.049 A 
ATOM     62  H   UNL A   1      40.755  31.340  35.506  1.00  0.00     0.167 HD
ATOM     63  C   UNL A   1      42.474  29.525  34.189  1.00  0.00     0.074 A 
ATOM     64  C   UNL A   1      43.011  28.642  33.176  1.00  0.00     0.031 C 
ATOM     65  C   UNL A   1      43.114  29.845  35.340  1.00  0.00     0.037 A 
BRANCH  52  66
ATOM     66  C   UNL A   1      40.015  33.843  38.881  1.00  0.00     0.064 A 
ATOM     67  C   UNL A   1      39.341  33.425  40.038  1.00  0.00     0.173 A 
ATOM     68  C   UNL A   1      40.697  35.068  38.926  1.00  0.00     0.173 A 
ATOM     69  F   UNL A   1      38.659  32.269  40.042  1.00  0.00    -0.203 F 
ATOM     70  C   UNL A   1      39.326  34.217  41.183  1.00  0.00     0.198 A 
ATOM     71  C   UNL A   1      40.707  35.842  40.083  1.00  0.00     0.198 A 
ATOM     72  F   UNL A   1      41.362  35.513  37.849  1.00  0.00    -0.203 F 
ATOM     73  F   UNL A   1      38.631  33.823  42.259  1.00  0.00    -0.200 F 
ATOM     74  C   UNL A   1      40.015  35.421  41.207  1.00  0.00     0.200 A 
ATOM     75  F   UNL A   1      41.384  36.999  40.107  1.00  0.00    -0.200 F 
ATOM     76  F   UNL A   1      40.003  36.180  42.312  1.00  0.00    -0.200 F 
ENDBRANCH  52  66
BRANCH  53  77
ATOM     77  C   UNL A   1      39.892  28.722  30.336  1.00  0.00     0.064 A 
ATOM     78  C   UNL A   1      39.332  27.444  30.199  1.00  0.00     0.173 A 
ATOM     79  C   UNL A   1      40.500  29.292  29.207  1.00  0.00     0.173 A 
ATOM     80  F   UNL A   1      38.774  26.841  31.259  1.00  0.00    -0.203 F 
ATOM     81  C   UNL A   1      39.390  26.760  28.986  1.00  0.00     0.198 A 
ATOM     82  C   UNL A   1      40.529  28.620  27.988  1.00  0.00     0.198 A 
ATOM     83  F   UNL A   1      41.062  30.507  29.288  1.00  0.00    -0.203 F 
ATOM     84  F   UNL A   1      38.891  25.519  28.895  1.00  0.00    -0.200 F 
ATOM     85  C   UNL A   1      39.980  27.351  27.879  1.00  0.00     0.200 A 
ATOM     86  F   UNL A   1      41.095  29.197  26.919  1.00  0.00    -0.200 F 
ATOM     87  F   UNL A   1      40.032  26.693  26.713  1.00  0.00    -0.200 F 
ENDBRANCH  53  77
BRANCH  65  88
ATOM     88  C   UNL A   1      44.445  29.197  35.605  1.00  0.00     0.064 A 
ATOM     89  C   UNL A   1      44.553  27.968  36.271  1.00  0.00     0.173 A 
ATOM     90  C   UNL A   1      45.625  29.791  35.129  1.00  0.00     0.173 A 
ATOM     91  F   UNL A   1      43.457  27.365  36.756  1.00  0.00    -0.203 F 
ATOM     92  C   UNL A   1      45.795  27.366  36.468  1.00  0.00     0.198 A 
ATOM     93  C   UNL A   1      46.861  29.172  35.301  1.00  0.00     0.198 A 
ATOM     94  F   UNL A   1      45.579  30.962  34.477  1.00  0.00    -0.203 F 
ATOM     95  F   UNL A   1      45.878  26.211  37.140  1.00  0.00    -0.200 F 
ATOM     96  C   UNL A   1      46.945  27.964  35.975  1.00  0.00     0.200 A 
ATOM     97  F   UNL A   1      47.969  29.744  34.810  1.00  0.00    -0.200 F 
ATOM     98  F   UNL A   1      48.137  27.377  36.154  1.00  0.00    -0.200 F 
ENDBRANCH  65  88
ENDBRANCH  39  40
ENDBRANCH  32  34
ENDBRANCH  31  32
ENDBRANCH  30  31
ENDBRANCH  29  30
ENDBRANCH  28  29
ENDBRANCH  27  28
ENDBRANCH   1  27
TORSDOF 20
ENDMDL
MODEL 2
REMARK VINA RESULT:     -10.7      2.197      3.546
REMARK SMILES C[C@@H]1[NH2+]CC[C@@H]1C(=O)Nc1ccccc1CC(=O)OCCOCCOCCOC(=O)c1ccc(-c2c3nc(c(-c4c(F)c(F)c(F)c(F)c4F)c4ccc([nH]4)c(-c4c(F)c(F)c(F)c(F)c4F)c4nc(c(-c5c(F)c(F)c(F)c(F)c5F)c5ccc2[nH]5)C=C4)C=C3)cc1
REMARK SMILES IDX 23 1 22 2 21 3 20 4 19 5 17 6 18 7 16 8 15 9 10 10 11 11
REMARK SMILES IDX 12 12 14 13 13 14 9 15 7 16 8 17 6 19 1 20 2 21 3 22 4 23
REMARK SMILES IDX 5 26 24 27 25 28 26 29 27 30 28 31 29 32 30 33 31 34 32 35
REMARK SMILES IDX 93 36 33 37 92 38 34 39 35 40 36 41 86 42 37 43 91 44 85 45
REMARK SMILES IDX 87 46 38 47 90 48 84 49 83 50 39 52 71 53 51 54 70 55 52 56
REMARK SMILES IDX 55 57 69 58 88 59 53 60 54 61 68 63 89 64 56 65 40 66 41 67
REMARK SMILES IDX 49 68 42 69 43 70 47 71 50 72 44 73 45 74 48 75 46 76 72 77
REMARK SMILES IDX 73 78 81 79 74 80 75 81 79 82 82 83 76 84 77 85 80 86 78 87
REMARK SMILES IDX 57 88 58 89 66 90 59 91 60 92 64 93 67 94 61 95 62 96 65 97
REMARK SMILES IDX 63 98
REMARK H PARENT 9 18 3 24 3 25 87 51 55 62
REMARK Flexibility Score: inf
ROOT
ATOM      1  C   UNL A   1      35.334  32.812  28.968  1.00  0.00     0.188 C 
ENDROOT
BRANCH   1   2
ATOM      2  O   UNL A   1      34.232  31.918  28.837  1.00  0.00    -0.376 OA
BRANCH   2   3
ATOM      3  C   UNL A   1      34.065  31.224  27.609  1.00  0.00     0.202 C 
BRANCH   3   4
ATOM      4  C   UNL A   1      34.615  29.785  27.585  1.00  0.00     0.261 C 
BRANCH   4   5
ATOM      5  O   UNL A   1      33.615  28.750  27.400  1.00  0.00    -0.463 OA
BRANCH   5   6
ATOM      6  C   UNL A   1      33.555  28.210  26.156  1.00  0.00     0.310 C 
ATOM      7  O   UNL A   1      33.783  28.849  25.129  1.00  0.00    -0.252 OA
BRANCH   6   8
ATOM      8  C   UNL A   1      33.412  26.706  26.095  1.00  0.00     0.160 C 
BRANCH   8   9
ATOM      9  C   UNL A   1      32.625  25.892  25.058  1.00  0.00    -0.013 A 
ATOM     10  C   UNL A   1      32.946  24.984  24.006  1.00  0.00     0.044 A 
ATOM     11  C   UNL A   1      31.840  24.536  23.206  1.00  0.00     0.026 A 
ATOM     12  C   UNL A   1      30.498  24.811  23.465  1.00  0.00     0.002 A 
ATOM     13  C   UNL A   1      31.220  26.114  25.300  1.00  0.00     0.006 A 
ATOM     14  C   UNL A   1      30.182  25.583  24.548  1.00  0.00     0.000 A 
BRANCH  10  15
ATOM     15  N   UNL A   1      34.116  24.347  23.474  1.00  0.00    -0.325 N 
ATOM     16  C   UNL A   1      35.125  23.454  23.688  1.00  0.00     0.233 C 
ATOM     17  O   UNL A   1      35.832  23.225  22.695  1.00  0.00    -0.274 OA
ATOM     18  H   UNL A   1      34.246  24.709  22.566  1.00  0.00     0.169 HD
BRANCH  16  19
ATOM     19  C   UNL A   1      35.371  22.670  24.951  1.00  0.00     0.142 C 
ATOM     20  C   UNL A   1      33.448  21.286  24.118  1.00  0.00     0.076 C 
ATOM     21  C   UNL A   1      34.854  21.288  24.749  1.00  0.00     0.192 C 
ATOM     22  N   UNL A   1      34.874  20.720  26.089  1.00  0.00    -0.343 N 
ATOM     23  C   UNL A   1      34.196  21.731  26.890  1.00  0.00     0.261 C 
ATOM     24  H   UNL A   1      35.832  20.580  26.411  1.00  0.00     0.346 HD
ATOM     25  H   UNL A   1      34.429  19.804  26.142  1.00  0.00     0.346 HD
ATOM     26  C   UNL A   1      34.599  23.067  26.230  1.00  0.00     0.081 C 
ENDBRANCH  16  19
ENDBRANCH  10  15
ENDBRANCH   8   9
ENDBRANCH   6   8
ENDBRANCH   5   6
ENDBRANCH   4   5
ENDBRANCH   3   4
ENDBRANCH   2   3
ENDBRANCH   1   2
BRANCH   1  27
ATOM     27  C   UNL A   1      35.342  34.106  28.149  1.00  0.00     0.188 C 
BRANCH  27  28
ATOM     28  O   UNL A   1      34.034  34.661  28.086  1.00  0.00    -0.376 OA
BRANCH  28  29
ATOM     29  C   UNL A   1      34.022  36.050  28.396  1.00  0.00     0.202 C 
BRANCH  29  30
ATOM     30  C   UNL A   1      32.882  36.352  29.374  1.00  0.00     0.261 C 
BRANCH  30  31
ATOM     31  O   UNL A   1      32.620  35.315  30.347  1.00  0.00    -0.460 OA
BRANCH  31  32
ATOM     32  C   UNL A   1      32.629  35.667  31.653  1.00  0.00     0.338 C 
ATOM     33  O   UNL A   1      31.786  36.323  32.235  1.00  0.00    -0.246 OA
BRANCH  32  34
ATOM     34  C   UNL A   1      33.751  34.972  32.336  1.00  0.00     0.060 A 
ATOM     35  C   UNL A   1      35.043  35.513  32.254  1.00  0.00     0.016 A 
ATOM     36  C   UNL A   1      33.547  33.768  33.010  1.00  0.00     0.016 A 
ATOM     37  C   UNL A   1      36.136  34.837  32.810  1.00  0.00     0.010 A 
ATOM     38  C   UNL A   1      34.642  33.083  33.549  1.00  0.00     0.010 A 
ATOM     39  C   UNL A   1      35.948  33.596  33.426  1.00  0.00    -0.014 A 
BRANCH  39  40
ATOM     40  C   UNL A   1      37.099  32.724  33.786  1.00  0.00     0.031 A 
ATOM     41  C   UNL A   1      37.814  32.986  35.082  1.00  0.00     0.074 A 
ATOM     42  C   UNL A   1      37.541  31.751  32.970  1.00  0.00     0.049 A 
ATOM     43  N   UNL A   1      38.971  32.544  35.505  1.00  0.00    -0.248 NA
ATOM     44  C   UNL A   1      37.129  33.881  36.026  1.00  0.00     0.031 C 
ATOM     45  C   UNL A   1      36.905  31.331  31.726  1.00  0.00     0.029 A 
ATOM     46  N   UNL A   1      38.665  30.961  33.061  1.00  0.00    -0.354 N 
ATOM     47  C   UNL A   1      39.171  33.139  36.743  1.00  0.00     0.074 A 
ATOM     48  C   UNL A   1      38.018  33.972  37.005  1.00  0.00     0.031 C 
ATOM     49  C   UNL A   1      37.666  30.385  31.147  1.00  0.00     0.029 A 
ATOM     50  C   UNL A   1      38.871  30.177  31.952  1.00  0.00     0.049 A 
ATOM     51  H   UNL A   1      39.260  30.959  33.844  1.00  0.00     0.167 HD
ATOM     52  C   UNL A   1      40.227  33.008  37.582  1.00  0.00     0.037 A 
ATOM     53  C   UNL A   1      39.932  29.423  31.602  1.00  0.00     0.037 A 
ATOM     54  C   UNL A   1      41.366  32.166  37.330  1.00  0.00     0.049 A 
ATOM     55  C   UNL A   1      41.135  29.351  32.512  1.00  0.00     0.074 A 
ATOM     56  C   UNL A   1      42.478  31.954  38.127  1.00  0.00     0.029 A 
ATOM     57  N   UNL A   1      41.541  31.396  36.189  1.00  0.00    -0.354 N 
ATOM     58  N   UNL A   1      41.335  29.931  33.671  1.00  0.00    -0.248 NA
ATOM     59  C   UNL A   1      42.265  28.526  32.057  1.00  0.00     0.031 C 
ATOM     60  C   UNL A   1      43.351  31.101  37.446  1.00  0.00     0.029 A 
ATOM     61  C   UNL A   1      42.755  30.730  36.251  1.00  0.00     0.049 A 
ATOM     62  H   UNL A   1      40.898  31.332  35.446  1.00  0.00     0.167 HD
ATOM     63  C   UNL A   1      42.592  29.516  34.097  1.00  0.00     0.074 A 
ATOM     64  C   UNL A   1      43.109  28.632  33.075  1.00  0.00     0.031 C 
ATOM     65  C   UNL A   1      43.255  29.838  35.235  1.00  0.00     0.037 A 
BRANCH  52  66
ATOM     66  C   UNL A   1      40.224  33.839  38.832  1.00  0.00     0.064 A 
ATOM     67  C   UNL A   1      39.573  33.423  40.002  1.00  0.00     0.173 A 
ATOM     68  C   UNL A   1      40.908  35.063  38.863  1.00  0.00     0.173 A 
ATOM     69  F   UNL A   1      38.890  32.267  40.021  1.00  0.00    -0.203 F 
ATOM     70  C   UNL A   1      39.580  34.216  41.147  1.00  0.00     0.198 A 
ATOM     71  C   UNL A   1      40.941  35.839  40.018  1.00  0.00     0.198 A 
ATOM     72  F   UNL A   1      41.552  35.507  37.772  1.00  0.00    -0.203 F 
ATOM     73  F   UNL A   1      38.905  33.824  42.236  1.00  0.00    -0.200 F 
ATOM     74  C   UNL A   1      40.269  35.420  41.156  1.00  0.00     0.200 A 
ATOM     75  F   UNL A   1      41.618  36.996  40.028  1.00  0.00    -0.200 F 
ATOM     76  F   UNL A   1      40.280  36.180  42.259  1.00  0.00    -0.200 F 
ENDBRANCH  52  66
BRANCH  53  77
ATOM     77  C   UNL A   1      39.933  28.707  30.298  1.00  0.00     0.064 A 
ATOM     78  C   UNL A   1      39.374  27.428  30.175  1.00  0.00     0.173 A 
ATOM     79  C   UNL A   1      40.516  29.277  29.155  1.00  0.00     0.173 A 
ATOM     80  F   UNL A   1      38.839  26.825  31.246  1.00  0.00    -0.203 F 
ATOM     81  C   UNL A   1      39.407  26.742  28.961  1.00  0.00     0.198 A 
ATOM     82  C   UNL A   1      40.521  28.603  27.937  1.00  0.00     0.198 A 
ATOM     83  F   UNL A   1      41.077  30.493  29.223  1.00  0.00    -0.203 F 
ATOM     84  F   UNL A   1      38.909  25.500  28.883  1.00  0.00    -0.200 F 
ATOM     85  C   UNL A   1      39.973  27.332  27.841  1.00  0.00     0.200 A 
ATOM     86  F   UNL A   1      41.064  29.180  26.856  1.00  0.00    -0.200 F 
ATOM     87  F   UNL A   1      40.002  26.673  26.675  1.00  0.00    -0.200 F 
ENDBRANCH  53  77
BRANCH  65  88
ATOM     88  C   UNL A   1      44.590  29.192  35.474  1.00  0.00     0.064 A 
ATOM     89  C   UNL A   1      44.712  27.959  36.131  1.00  0.00     0.173 A 
ATOM     90  C   UNL A   1      45.762  29.790  34.981  1.00  0.00     0.173 A 
ATOM     91  F   UNL A   1      43.626  27.352  36.631  1.00  0.00    -0.203 F 
ATOM     92  C   UNL A   1      45.958  27.359  36.304  1.00  0.00     0.198 A 
ATOM     93  C   UNL A   1      47.001  29.174  35.129  1.00  0.00     0.198 A 
ATOM     94  F   UNL A   1      45.702  30.965  34.337  1.00  0.00    -0.203 F 
ATOM     95  F   UNL A   1      46.055  26.200  36.969  1.00  0.00    -0.200 F 
ATOM     96  C   UNL A   1      47.099  27.962  35.795  1.00  0.00     0.200 A 
ATOM     97  F   UNL A   1      48.100  29.750  34.622  1.00  0.00    -0.200 F 
ATOM     98  F   UNL A   1      48.295  27.376  35.951  1.00  0.00    -0.200 F 
ENDBRANCH  65  88
ENDBRANCH  39  40
ENDBRANCH  32  34
ENDBRANCH  31  32
ENDBRANCH  30  31
ENDBRANCH  29  30
ENDBRANCH  28  29
ENDBRANCH  27  28
ENDBRANCH   1  27
TORSDOF 20
ENDMDL
MODEL 3
REMARK VINA RESULT:     -10.5      6.256     10.800
REMARK SMILES C[C@@H]1[NH2+]CC[C@@H]1C(=O)Nc1ccccc1CC(=O)OCCOCCOCCOC(=O)c1ccc(-c2c3nc(c(-c4c(F)c(F)c(F)c(F)c4F)c4ccc([nH]4)c(-c4c(F)c(F)c(F)c(F)c4F)c4nc(c(-c5c(F)c(F)c(F)c(F)c5F)c5ccc2[nH]5)C=C4)C=C3)cc1
REMARK SMILES IDX 23 1 22 2 21 3 20 4 19 5 17 6 18 7 16 8 15 9 10 10 11 11
REMARK SMILES IDX 12 12 14 13 13 14 9 15 7 16 8 17 6 19 1 20 2 21 3 22 4 23
REMARK SMILES IDX 5 26 24 27 25 28 26 29 27 30 28 31 29 32 30 33 31 34 32 35
REMARK SMILES IDX 93 36 33 37 92 38 34 39 35 40 36 41 86 42 37 43 91 44 85 45
REMARK SMILES IDX 87 46 38 47 90 48 84 49 83 50 39 52 71 53 51 54 70 55 52 56
REMARK SMILES IDX 55 57 69 58 88 59 53 60 54 61 68 63 89 64 56 65 40 66 41 67
REMARK SMILES IDX 49 68 42 69 43 70 47 71 50 72 44 73 45 74 48 75 46 76 72 77
REMARK SMILES IDX 73 78 81 79 74 80 75 81 79 82 82 83 76 84 77 85 80 86 78 87
REMARK SMILES IDX 57 88 58 89 66 90 59 91 60 92 64 93 67 94 61 95 62 96 65 97
REMARK SMILES IDX 63 98
REMARK H PARENT 9 18 3 24 3 25 87 51 55 62
REMARK Flexibility Score: inf
ROOT
ATOM      1  C   UNL A   1      35.374  21.728  25.452  1.00  0.00     0.188 C 
ENDROOT
BRANCH   1   2
ATOM      2  O   UNL A   1      34.398  21.455  26.454  1.00  0.00    -0.376 OA
BRANCH   2   3
ATOM      3  C   UNL A   1      33.032  21.394  26.069  1.00  0.00     0.202 C 
BRANCH   3   4
ATOM      4  C   UNL A   1      32.332  22.757  25.908  1.00  0.00     0.261 C 
BRANCH   4   5
ATOM      5  O   UNL A   1      33.061  23.888  26.453  1.00  0.00    -0.463 OA
BRANCH   5   6
ATOM      6  C   UNL A   1      32.383  25.064  26.477  1.00  0.00     0.310 C 
ATOM      7  O   UNL A   1      31.219  25.166  26.864  1.00  0.00    -0.252 OA
BRANCH   6   8
ATOM      8  C   UNL A   1      33.205  26.306  26.214  1.00  0.00     0.160 C 
BRANCH   8   9
ATOM      9  C   UNL A   1      32.703  27.755  26.168  1.00  0.00    -0.013 A 
ATOM     10  C   UNL A   1      31.677  28.465  25.476  1.00  0.00     0.044 A 
ATOM     11  C   UNL A   1      31.650  29.887  25.683  1.00  0.00     0.026 A 
ATOM     12  C   UNL A   1      32.447  30.582  26.592  1.00  0.00     0.002 A 
ATOM     13  C   UNL A   1      33.474  28.519  27.118  1.00  0.00     0.006 A 
ATOM     14  C   UNL A   1      33.349  29.881  27.345  1.00  0.00     0.000 A 
BRANCH  10  15
ATOM     15  N   UNL A   1      30.598  28.166  24.579  1.00  0.00    -0.325 N 
ATOM     16  C   UNL A   1      30.236  27.770  23.324  1.00  0.00     0.233 C 
ATOM     17  O   UNL A   1      29.022  27.558  23.180  1.00  0.00    -0.274 OA
ATOM     18  H   UNL A   1      29.763  28.306  25.083  1.00  0.00     0.169 HD
BRANCH  16  19
ATOM     19  C   UNL A   1      31.167  27.471  22.177  1.00  0.00     0.142 C 
ATOM     20  C   UNL A   1      31.085  25.138  23.103  1.00  0.00     0.076 C 
ATOM     21  C   UNL A   1      31.045  26.025  21.843  1.00  0.00     0.192 C 
ATOM     22  N   UNL A   1      32.167  25.789  20.948  1.00  0.00    -0.343 N 
ATOM     23  C   UNL A   1      33.296  26.363  21.670  1.00  0.00     0.261 C 
ATOM     24  H   UNL A   1      32.027  26.261  20.054  1.00  0.00     0.346 HD
ATOM     25  H   UNL A   1      32.299  24.803  20.721  1.00  0.00     0.346 HD
ATOM     26  C   UNL A   1      32.691  27.569  22.418  1.00  0.00     0.081 C 
ENDBRANCH  16  19
ENDBRANCH  10  15
ENDBRANCH   8   9
ENDBRANCH   6   8
ENDBRANCH   5   6
ENDBRANCH   4   5
ENDBRANCH   3   4
ENDBRANCH   2   3
ENDBRANCH   1   2
BRANCH   1  27
ATOM     27  C   UNL A   1      36.309  20.604  24.999  1.00  0.00     0.188 C 
BRANCH  27  28
ATOM     28  O   UNL A   1      37.651  20.894  25.373  1.00  0.00    -0.376 OA
BRANCH  28  29
ATOM     29  C   UNL A   1      38.517  19.783  25.172  1.00  0.00     0.202 C 
BRANCH  29  30
ATOM     30  C   UNL A   1      39.892  20.084  25.778  1.00  0.00     0.261 C 
BRANCH  30  31
ATOM     31  O   UNL A   1      40.817  18.972  25.775  1.00  0.00    -0.460 OA
BRANCH  31  32
ATOM     32  C   UNL A   1      42.138  19.259  25.835  1.00  0.00     0.338 C 
ATOM     33  O   UNL A   1      43.051  18.575  25.413  1.00  0.00    -0.246 OA
BRANCH  32  34
ATOM     34  C   UNL A   1      42.312  20.645  26.343  1.00  0.00     0.060 A 
ATOM     35  C   UNL A   1      42.579  21.679  25.434  1.00  0.00     0.016 A 
ATOM     36  C   UNL A   1      42.265  20.921  27.710  1.00  0.00     0.016 A 
ATOM     37  C   UNL A   1      42.836  22.979  25.886  1.00  0.00     0.010 A 
ATOM     38  C   UNL A   1      42.540  22.216  28.163  1.00  0.00     0.010 A 
ATOM     39  C   UNL A   1      42.859  23.248  27.258  1.00  0.00    -0.014 A 
BRANCH  39  40
ATOM     40  C   UNL A   1      43.388  24.532  27.791  1.00  0.00     0.031 A 
ATOM     41  C   UNL A   1      42.404  25.598  28.188  1.00  0.00     0.074 A 
ATOM     42  C   UNL A   1      44.706  24.781  27.880  1.00  0.00     0.049 A 
ATOM     43  N   UNL A   1      42.600  26.867  28.441  1.00  0.00    -0.248 NA
ATOM     44  C   UNL A   1      41.002  25.169  28.304  1.00  0.00     0.031 C 
ATOM     45  C   UNL A   1      45.771  23.823  27.609  1.00  0.00     0.029 A 
ATOM     46  N   UNL A   1      45.368  25.946  28.195  1.00  0.00    -0.354 N 
ATOM     47  C   UNL A   1      41.343  27.396  28.705  1.00  0.00     0.074 A 
ATOM     48  C   UNL A   1      40.393  26.313  28.582  1.00  0.00     0.031 C 
ATOM     49  C   UNL A   1      46.957  24.446  27.732  1.00  0.00     0.029 A 
ATOM     50  C   UNL A   1      46.729  25.860  28.033  1.00  0.00     0.049 A 
ATOM     51  H   UNL A   1      44.910  26.760  28.507  1.00  0.00     0.167 HD
ATOM     52  C   UNL A   1      41.013  28.674  29.013  1.00  0.00     0.037 A 
ATOM     53  C   UNL A   1      47.675  26.820  28.069  1.00  0.00     0.037 A 
ATOM     54  C   UNL A   1      41.961  29.747  29.152  1.00  0.00     0.049 A 
ATOM     55  C   UNL A   1      47.279  28.254  28.335  1.00  0.00     0.074 A 
ATOM     56  C   UNL A   1      41.724  31.072  29.477  1.00  0.00     0.029 A 
ATOM     57  N   UNL A   1      43.330  29.620  28.968  1.00  0.00    -0.354 N 
ATOM     58  N   UNL A   1      46.091  28.758  28.562  1.00  0.00    -0.248 NA
ATOM     59  C   UNL A   1      48.360  29.252  28.340  1.00  0.00     0.031 C 
ATOM     60  C   UNL A   1      42.942  31.758  29.438  1.00  0.00     0.029 A 
ATOM     61  C   UNL A   1      43.946  30.848  29.149  1.00  0.00     0.049 A 
ATOM     62  H   UNL A   1      43.795  28.781  28.744  1.00  0.00     0.167 HD
ATOM     63  C   UNL A   1      46.283  30.120  28.769  1.00  0.00     0.074 A 
ATOM     64  C   UNL A   1      47.704  30.364  28.644  1.00  0.00     0.031 C 
ATOM     65  C   UNL A   1      45.365  31.079  29.039  1.00  0.00     0.037 A 
BRANCH  52  66
ATOM     66  C   UNL A   1      39.554  28.992  29.168  1.00  0.00     0.064 A 
ATOM     67  C   UNL A   1      38.757  29.386  28.084  1.00  0.00     0.173 A 
ATOM     68  C   UNL A   1      38.941  28.876  30.425  1.00  0.00     0.173 A 
ATOM     69  F   UNL A   1      39.299  29.528  26.864  1.00  0.00    -0.203 F 
ATOM     70  C   UNL A   1      37.408  29.682  28.257  1.00  0.00     0.198 A 
ATOM     71  C   UNL A   1      37.584  29.141  30.589  1.00  0.00     0.198 A 
ATOM     72  F   UNL A   1      39.656  28.499  31.496  1.00  0.00    -0.203 F 
ATOM     73  F   UNL A   1      36.678  30.109  27.218  1.00  0.00    -0.200 F 
ATOM     74  C   UNL A   1      36.821  29.553  29.508  1.00  0.00     0.200 A 
ATOM     75  F   UNL A   1      37.017  29.004  31.796  1.00  0.00    -0.200 F 
ATOM     76  F   UNL A   1      35.521  29.833  29.672  1.00  0.00    -0.200 F 
ENDBRANCH  52  66
BRANCH  53  77
ATOM     77  C   UNL A   1      49.095  26.471  27.797  1.00  0.00     0.064 A 
ATOM     78  C   UNL A   1      50.003  26.266  28.844  1.00  0.00     0.173 A 
ATOM     79  C   UNL A   1      49.578  26.361  26.483  1.00  0.00     0.173 A 
ATOM     80  F   UNL A   1      49.599  26.397  30.116  1.00  0.00    -0.203 F 
ATOM     81  C   UNL A   1      51.342  25.975  28.588  1.00  0.00     0.198 A 
ATOM     82  C   UNL A   1      50.909  26.040  26.230  1.00  0.00     0.198 A 
ATOM     83  F   UNL A   1      48.752  26.562  25.445  1.00  0.00    -0.203 F 
ATOM     84  F   UNL A   1      52.201  25.832  29.608  1.00  0.00    -0.200 F 
ATOM     85  C   UNL A   1      51.793  25.853  27.282  1.00  0.00     0.200 A 
ATOM     86  F   UNL A   1      51.338  25.918  24.967  1.00  0.00    -0.200 F 
ATOM     87  F   UNL A   1      53.079  25.571  27.037  1.00  0.00    -0.200 F 
ENDBRANCH  53  77
BRANCH  65  88
ATOM     88  C   UNL A   1      45.861  32.477  29.279  1.00  0.00     0.064 A 
ATOM     89  C   UNL A   1      45.941  33.424  28.247  1.00  0.00     0.173 A 
ATOM     90  C   UNL A   1      46.205  32.891  30.576  1.00  0.00     0.173 A 
ATOM     91  F   UNL A   1      45.636  33.076  26.988  1.00  0.00    -0.203 F 
ATOM     92  C   UNL A   1      46.365  34.727  28.501  1.00  0.00     0.198 A 
ATOM     93  C   UNL A   1      46.600  34.202  30.831  1.00  0.00     0.198 A 
ATOM     94  F   UNL A   1      46.138  32.029  31.602  1.00  0.00    -0.203 F 
ATOM     95  F   UNL A   1      46.471  35.603  27.493  1.00  0.00    -0.200 F 
ATOM     96  C   UNL A   1      46.685  35.116  29.794  1.00  0.00     0.200 A 
ATOM     97  F   UNL A   1      46.892  34.581  32.084  1.00  0.00    -0.200 F 
ATOM     98  F   UNL A   1      47.079  36.374  30.037  1.00  0.00    -0.200 F 
ENDBRANCH  65  88
ENDBRANCH  39  40
ENDBRANCH  32  34
ENDBRANCH  31  32
ENDBRANCH  30  31
ENDBRANCH  29  30
ENDBRANCH  28  29
ENDBRANCH  27  28
ENDBRANCH   1  27
TORSDOF 20
ENDMDL
