MODEL 1
REMARK VINA RESULT:     -11.9      0.000      0.000
REMARK SMILES CCC[C@H]1CCc2c(sc(NC(=O)[C@H]3[C@@H](C(=O)OCCOCCOCCOC(=O)c4ccc(-c5c6nc(c(-c7c(F)c(F)c(F)c(F)c7F)c7ccc([nH]7)c(-c7c(F)c(F)c(F)c(F)c7F)c7nc(c(-c8c(F)c(F)c(F)c(F)c8F)c8ccc5[nH]8)C=C7)C=C6)cc4)[C@H]4CC[C@@H]3O4)c2C(N)=O)C1
REMARK SMILES IDX 22 1 21 2 20 3 19 4 18 5 16 6 17 7 15 8 14 9 96 10 93 11
REMARK SMILES IDX 95 12 97 13 94 14 12 15 11 16 13 18 10 19 4 20 5 21 102 22
REMARK SMILES IDX 6 23 8 24 7 25 9 26 98 27 3 28 2 29 1 30 99 31 100 32 101 33
REMARK SMILES IDX 23 36 24 37 25 38 26 39 27 40 28 41 29 42 30 43 31 44 92 45
REMARK SMILES IDX 32 46 91 47 33 48 34 49 35 50 85 51 36 52 90 53 84 54 86 55
REMARK SMILES IDX 37 56 89 57 83 58 82 59 38 61 70 62 50 63 69 64 51 65 54 66
REMARK SMILES IDX 68 67 87 68 52 69 53 70 67 72 88 73 55 74 39 75 40 76 48 77
REMARK SMILES IDX 41 78 42 79 46 80 49 81 43 82 44 83 47 84 45 85 71 86 72 87
REMARK SMILES IDX 80 88 73 89 74 90 78 91 81 92 75 93 76 94 79 95 77 96 56 97
REMARK SMILES IDX 57 98 65 99 58 100 59 101 63 102 66 103 60 104 61 105 64 106
REMARK SMILES IDX 62 107
REMARK H PARENT 11 17 100 34 100 35 86 60 54 71
REMARK Flexibility Score: inf
ROOT
ATOM      1  C   UNL A   1      38.184  20.424  24.648  1.00  0.00     0.188 C 
ENDROOT
BRANCH   1   2
ATOM      2  O   UNL A   1      37.132  21.380  24.686  1.00  0.00    -0.376 OA
BRANCH   2   3
ATOM      3  C   UNL A   1      36.179  21.266  25.722  1.00  0.00     0.202 C 
BRANCH   3   4
ATOM      4  C   UNL A   1      34.794  20.680  25.392  1.00  0.00     0.261 C 
BRANCH   4   5
ATOM      5  O   UNL A   1      33.740  20.799  26.372  1.00  0.00    -0.463 OA
BRANCH   5   6
ATOM      6  C   UNL A   1      33.321  22.080  26.564  1.00  0.00     0.312 C 
ATOM      7  O   UNL A   1      33.329  22.610  27.668  1.00  0.00    -0.252 OA
BRANCH   6   8
ATOM      8  C   UNL A   1      32.646  22.681  25.339  1.00  0.00     0.143 C 
ATOM      9  C   UNL A   1      32.801  24.150  24.827  1.00  0.00     0.124 C 
ATOM     10  C   UNL A   1      31.401  24.683  25.113  1.00  0.00     0.132 C 
ATOM     11  C   UNL A   1      31.099  22.579  25.519  1.00  0.00     0.133 C 
ATOM     12  C   UNL A   1      31.033  24.670  26.597  1.00  0.00     0.035 C 
ATOM     13  O   UNL A   1      30.636  23.574  24.572  1.00  0.00    -0.373 OA
ATOM     14  C   UNL A   1      30.521  23.248  26.766  1.00  0.00     0.036 C 
BRANCH   9  15
ATOM     15  C   UNL A   1      33.982  25.031  25.206  1.00  0.00     0.231 C 
ATOM     16  N   UNL A   1      34.021  26.395  25.045  1.00  0.00    -0.317 N 
ATOM     17  H   UNL A   1      34.808  26.842  25.430  1.00  0.00     0.170 HD
ATOM     18  O   UNL A   1      35.012  24.510  25.637  1.00  0.00    -0.274 OA
BRANCH  16  19
ATOM     19  C   UNL A   1      33.119  27.224  24.425  1.00  0.00     0.108 A 
ATOM     20  C   UNL A   1      29.241  30.050  23.523  1.00  0.00    -0.006 C 
ATOM     21  C   UNL A   1      29.385  29.089  22.325  1.00  0.00     0.009 C 
ATOM     22  C   UNL A   1      30.472  30.108  24.485  1.00  0.00     0.050 C 
ATOM     23  C   UNL A   1      29.901  27.721  22.728  1.00  0.00     0.038 C 
ATOM     24  C   UNL A   1      31.382  28.920  24.333  1.00  0.00     0.011 A 
ATOM     25  C   UNL A   1      31.199  27.884  23.439  1.00  0.00    -0.019 A 
ATOM     26  S   UNL A   1      32.811  28.697  25.240  1.00  0.00    -0.122 S 
ATOM     27  C   UNL A   1      32.428  27.172  23.233  1.00  0.00     0.077 A 
BRANCH  20  28
ATOM     28  C   UNL A   1      28.799  31.455  23.048  1.00  0.00     0.004 C 
BRANCH  28  29
ATOM     29  C   UNL A   1      28.946  31.771  21.548  1.00  0.00    -0.003 C 
ATOM     30  C   UNL A   1      27.879  32.701  20.970  1.00  0.00     0.004 C 
ENDBRANCH  28  29
ENDBRANCH  20  28
BRANCH  27  31
ATOM     31  C   UNL A   1      32.817  26.413  22.051  1.00  0.00     0.251 C 
ATOM     32  N   UNL A   1      31.801  25.715  21.458  1.00  0.00    -0.365 N 
ATOM     33  O   UNL A   1      33.959  26.331  21.624  1.00  0.00    -0.269 OA
ATOM     34  H   UNL A   1      30.883  25.788  21.807  1.00  0.00     0.159 HD
ATOM     35  H   UNL A   1      31.987  25.139  20.680  1.00  0.00     0.159 HD
ENDBRANCH  27  31
ENDBRANCH  16  19
ENDBRANCH   9  15
ENDBRANCH   6   8
ENDBRANCH   5   6
ENDBRANCH   4   5
ENDBRANCH   3   4
ENDBRANCH   2   3
ENDBRANCH   1   2
BRANCH   1  36
ATOM     36  C   UNL A   1      39.208  20.385  25.799  1.00  0.00     0.188 C 
BRANCH  36  37
ATOM     37  O   UNL A   1      40.168  19.332  25.752  1.00  0.00    -0.376 OA
BRANCH  37  38
ATOM     38  C   UNL A   1      41.397  19.572  26.434  1.00  0.00     0.202 C 
BRANCH  38  39
ATOM     39  C   UNL A   1      42.312  20.596  25.751  1.00  0.00     0.261 C 
BRANCH  39  40
ATOM     40  O   UNL A   1      42.252  21.856  26.458  1.00  0.00    -0.460 OA
BRANCH  40  41
ATOM     41  C   UNL A   1      42.467  22.952  25.700  1.00  0.00     0.338 C 
ATOM     42  O   UNL A   1      43.061  23.005  24.636  1.00  0.00    -0.246 OA
BRANCH  41  43
ATOM     43  C   UNL A   1      41.848  24.147  26.305  1.00  0.00     0.060 A 
ATOM     44  C   UNL A   1      42.379  25.409  26.042  1.00  0.00     0.016 A 
ATOM     45  C   UNL A   1      40.900  23.994  27.315  1.00  0.00     0.016 A 
ATOM     46  C   UNL A   1      42.058  26.495  26.869  1.00  0.00     0.010 A 
ATOM     47  C   UNL A   1      40.535  25.097  28.100  1.00  0.00     0.010 A 
ATOM     48  C   UNL A   1      41.160  26.349  27.937  1.00  0.00    -0.014 A 
BRANCH  48  49
ATOM     49  C   UNL A   1      40.961  27.426  28.964  1.00  0.00     0.031 A 
ATOM     50  C   UNL A   1      41.898  27.511  30.152  1.00  0.00     0.074 A 
ATOM     51  C   UNL A   1      39.989  28.355  28.868  1.00  0.00     0.049 A 
ATOM     52  N   UNL A   1      41.768  28.167  31.279  1.00  0.00    -0.248 NA
ATOM     53  C   UNL A   1      43.148  26.742  30.052  1.00  0.00     0.031 C 
ATOM     54  C   UNL A   1      39.060  28.507  27.751  1.00  0.00     0.029 A 
ATOM     55  N   UNL A   1      39.622  29.356  29.742  1.00  0.00    -0.354 N 
ATOM     56  C   UNL A   1      42.876  27.830  32.050  1.00  0.00     0.074 A 
ATOM     57  C   UNL A   1      43.676  26.923  31.255  1.00  0.00     0.031 C 
ATOM     58  C   UNL A   1      38.249  29.550  27.993  1.00  0.00     0.029 A 
ATOM     59  C   UNL A   1      38.532  30.082  29.324  1.00  0.00     0.049 A 
ATOM     60  H   UNL A   1      40.096  29.534  30.587  1.00  0.00     0.167 HD
ATOM     61  C   UNL A   1      43.195  28.229  33.307  1.00  0.00     0.037 A 
ATOM     62  C   UNL A   1      37.804  31.026  29.955  1.00  0.00     0.037 A 
ATOM     63  C   UNL A   1      42.445  29.185  34.081  1.00  0.00     0.049 A 
ATOM     64  C   UNL A   1      38.131  31.409  31.375  1.00  0.00     0.074 A 
ATOM     65  C   UNL A   1      42.693  29.644  35.364  1.00  0.00     0.029 A 
ATOM     66  N   UNL A   1      41.314  29.850  33.635  1.00  0.00    -0.354 N 
ATOM     67  N   UNL A   1      39.114  31.002  32.140  1.00  0.00    -0.248 NA
ATOM     68  C   UNL A   1      37.222  32.364  32.029  1.00  0.00     0.031 C 
ATOM     69  C   UNL A   1      41.693  30.561  35.707  1.00  0.00     0.029 A 
ATOM     70  C   UNL A   1      40.848  30.708  34.620  1.00  0.00     0.049 A 
ATOM     71  H   UNL A   1      40.901  29.730  32.749  1.00  0.00     0.167 HD
ATOM     72  C   UNL A   1      38.950  31.658  33.354  1.00  0.00     0.074 A 
ATOM     73  C   UNL A   1      37.786  32.508  33.221  1.00  0.00     0.031 C 
ATOM     74  C   UNL A   1      39.695  31.558  34.482  1.00  0.00     0.037 A 
BRANCH  61  75
ATOM     75  C   UNL A   1      44.391  27.593  33.955  1.00  0.00     0.064 A 
ATOM     76  C   UNL A   1      45.684  28.116  33.814  1.00  0.00     0.173 A 
ATOM     77  C   UNL A   1      44.228  26.456  34.764  1.00  0.00     0.173 A 
ATOM     78  F   UNL A   1      45.895  29.193  33.044  1.00  0.00    -0.203 F 
ATOM     79  C   UNL A   1      46.774  27.507  34.434  1.00  0.00     0.198 A 
ATOM     80  C   UNL A   1      45.314  25.869  35.407  1.00  0.00     0.198 A 
ATOM     81  F   UNL A   1      43.010  25.923  34.942  1.00  0.00    -0.203 F 
ATOM     82  F   UNL A   1      48.008  27.995  34.246  1.00  0.00    -0.200 F 
ATOM     83  C   UNL A   1      46.588  26.389  35.234  1.00  0.00     0.200 A 
ATOM     84  F   UNL A   1      45.128  24.798  36.191  1.00  0.00    -0.200 F 
ATOM     85  F   UNL A   1      47.636  25.808  35.833  1.00  0.00    -0.200 F 
ENDBRANCH  61  75
BRANCH  62  86
ATOM     86  C   UNL A   1      36.637  31.644  29.269  1.00  0.00     0.064 A 
ATOM     87  C   UNL A   1      36.636  33.006  28.935  1.00  0.00     0.173 A 
ATOM     88  C   UNL A   1      35.492  30.895  28.955  1.00  0.00     0.173 A 
ATOM     89  F   UNL A   1      37.691  33.772  29.250  1.00  0.00    -0.203 F 
ATOM     90  C   UNL A   1      35.534  33.596  28.320  1.00  0.00     0.198 A 
ATOM     91  C   UNL A   1      34.404  31.479  28.311  1.00  0.00     0.198 A 
ATOM     92  F   UNL A   1      35.435  29.593  29.267  1.00  0.00    -0.203 F 
ATOM     93  F   UNL A   1      35.540  34.910  28.056  1.00  0.00    -0.200 F 
ATOM     94  C   UNL A   1      34.423  32.830  27.999  1.00  0.00     0.200 A 
ATOM     95  F   UNL A   1      33.336  30.734  27.996  1.00  0.00    -0.200 F 
ATOM     96  F   UNL A   1      33.365  33.397  27.403  1.00  0.00    -0.200 F 
ENDBRANCH  62  86
BRANCH  74  97
ATOM     97  C   UNL A   1      39.303  32.415  35.651  1.00  0.00     0.064 A 
ATOM     98  C   UNL A   1      39.775  33.728  35.792  1.00  0.00     0.173 A 
ATOM     99  C   UNL A   1      38.421  31.928  36.628  1.00  0.00     0.173 A 
ATOM    100  F   UNL A   1      40.633  34.238  34.894  1.00  0.00    -0.203 F 
ATOM    101  C   UNL A   1      39.399  34.513  36.880  1.00  0.00     0.198 A 
ATOM    102  C   UNL A   1      38.027  32.723  37.701  1.00  0.00     0.198 A 
ATOM    103  F   UNL A   1      37.935  30.681  36.537  1.00  0.00    -0.203 F 
ATOM    104  F   UNL A   1      39.899  35.749  37.019  1.00  0.00    -0.200 F 
ATOM    105  C   UNL A   1      38.522  34.012  37.830  1.00  0.00     0.200 A 
ATOM    106  F   UNL A   1      37.170  32.241  38.612  1.00  0.00    -0.200 F 
ATOM    107  F   UNL A   1      38.159  34.768  38.876  1.00  0.00    -0.200 F 
ENDBRANCH  74  97
ENDBRANCH  48  49
ENDBRANCH  41  43
ENDBRANCH  40  41
ENDBRANCH  39  40
ENDBRANCH  38  39
ENDBRANCH  37  38
ENDBRANCH  36  37
ENDBRANCH   1  36
TORSDOF 22
ENDMDL
MODEL 2
REMARK VINA RESULT:     -10.7      4.543      8.251
REMARK SMILES CCC[C@H]1CCc2c(sc(NC(=O)[C@H]3[C@@H](C(=O)OCCOCCOCCOC(=O)c4ccc(-c5c6nc(c(-c7c(F)c(F)c(F)c(F)c7F)c7ccc([nH]7)c(-c7c(F)c(F)c(F)c(F)c7F)c7nc(c(-c8c(F)c(F)c(F)c(F)c8F)c8ccc5[nH]8)C=C7)C=C6)cc4)[C@H]4CC[C@@H]3O4)c2C(N)=O)C1
REMARK SMILES IDX 22 1 21 2 20 3 19 4 18 5 16 6 17 7 15 8 14 9 96 10 93 11
REMARK SMILES IDX 95 12 97 13 94 14 12 15 11 16 13 18 10 19 4 20 5 21 102 22
REMARK SMILES IDX 6 23 8 24 7 25 9 26 98 27 3 28 2 29 1 30 99 31 100 32 101 33
REMARK SMILES IDX 23 36 24 37 25 38 26 39 27 40 28 41 29 42 30 43 31 44 92 45
REMARK SMILES IDX 32 46 91 47 33 48 34 49 35 50 85 51 36 52 90 53 84 54 86 55
REMARK SMILES IDX 37 56 89 57 83 58 82 59 38 61 70 62 50 63 69 64 51 65 54 66
REMARK SMILES IDX 68 67 87 68 52 69 53 70 67 72 88 73 55 74 39 75 40 76 48 77
REMARK SMILES IDX 41 78 42 79 46 80 49 81 43 82 44 83 47 84 45 85 71 86 72 87
REMARK SMILES IDX 80 88 73 89 74 90 78 91 81 92 75 93 76 94 79 95 77 96 56 97
REMARK SMILES IDX 57 98 65 99 58 100 59 101 63 102 66 103 60 104 61 105 64 106
REMARK SMILES IDX 62 107
REMARK H PARENT 11 17 100 34 100 35 86 60 54 71
REMARK Flexibility Score: inf
ROOT
ATOM      1  C   UNL A   1      34.407  22.872  27.215  1.00  0.00     0.188 C 
ENDROOT
BRANCH   1   2
ATOM      2  O   UNL A   1      34.064  21.543  27.586  1.00  0.00    -0.376 OA
BRANCH   2   3
ATOM      3  C   UNL A   1      33.319  20.776  26.665  1.00  0.00     0.202 C 
BRANCH   3   4
ATOM      4  C   UNL A   1      32.355  21.500  25.706  1.00  0.00     0.261 C 
BRANCH   4   5
ATOM      5  O   UNL A   1      32.252  21.031  24.344  1.00  0.00    -0.463 OA
BRANCH   5   6
ATOM      6  C   UNL A   1      32.146  22.035  23.431  1.00  0.00     0.312 C 
ATOM      7  O   UNL A   1      31.528  21.902  22.383  1.00  0.00    -0.252 OA
BRANCH   6   8
ATOM      8  C   UNL A   1      33.044  23.225  23.741  1.00  0.00     0.143 C 
ATOM      9  C   UNL A   1      32.571  24.682  24.057  1.00  0.00     0.124 C 
ATOM     10  C   UNL A   1      33.068  25.401  22.807  1.00  0.00     0.132 C 
ATOM     11  C   UNL A   1      33.994  23.466  22.526  1.00  0.00     0.133 C 
ATOM     12  C   UNL A   1      32.424  24.898  21.514  1.00  0.00     0.035 C 
ATOM     13  O   UNL A   1      34.405  24.837  22.753  1.00  0.00    -0.373 OA
ATOM     14  C   UNL A   1      33.315  23.712  21.179  1.00  0.00     0.036 C 
BRANCH   9  15
ATOM     15  C   UNL A   1      31.166  25.001  24.543  1.00  0.00     0.231 C 
ATOM     16  N   UNL A   1      30.774  26.215  25.055  1.00  0.00    -0.317 N 
ATOM     17  H   UNL A   1      29.811  26.306  25.231  1.00  0.00     0.170 HD
ATOM     18  O   UNL A   1      30.309  24.115  24.542  1.00  0.00    -0.274 OA
BRANCH  16  19
ATOM     19  C   UNL A   1      31.534  27.318  25.355  1.00  0.00     0.108 A 
ATOM     20  C   UNL A   1      33.977  30.774  27.791  1.00  0.00    -0.006 C 
ATOM     21  C   UNL A   1      33.102  31.494  26.744  1.00  0.00     0.009 C 
ATOM     22  C   UNL A   1      34.114  29.228  27.597  1.00  0.00     0.050 C 
ATOM     23  C   UNL A   1      31.777  30.797  26.505  1.00  0.00     0.038 C 
ATOM     24  C   UNL A   1      33.039  28.658  26.713  1.00  0.00     0.011 A 
ATOM     25  C   UNL A   1      32.039  29.388  26.101  1.00  0.00    -0.019 A 
ATOM     26  S   UNL A   1      32.921  27.004  26.309  1.00  0.00    -0.122 S 
ATOM     27  C   UNL A   1      31.473  28.650  25.007  1.00  0.00     0.077 A 
BRANCH  20  28
ATOM     28  C   UNL A   1      35.351  31.473  27.932  1.00  0.00     0.004 C 
BRANCH  28  29
ATOM     29  C   UNL A   1      35.374  33.009  27.826  1.00  0.00    -0.003 C 
ATOM     30  C   UNL A   1      36.332  33.714  28.786  1.00  0.00     0.004 C 
ENDBRANCH  28  29
ENDBRANCH  20  28
BRANCH  27  31
ATOM     31  C   UNL A   1      30.825  29.196  23.822  1.00  0.00     0.251 C 
ATOM     32  N   UNL A   1      30.177  30.385  24.018  1.00  0.00    -0.365 N 
ATOM     33  O   UNL A   1      30.786  28.640  22.734  1.00  0.00    -0.269 OA
ATOM     34  H   UNL A   1      30.214  30.827  24.897  1.00  0.00     0.159 HD
ATOM     35  H   UNL A   1      29.674  30.799  23.279  1.00  0.00     0.159 HD
ENDBRANCH  27  31
ENDBRANCH  16  19
ENDBRANCH   9  15
ENDBRANCH   6   8
ENDBRANCH   5   6
ENDBRANCH   4   5
ENDBRANCH   3   4
ENDBRANCH   2   3
ENDBRANCH   1   2
BRANCH   1  36
ATOM     36  C   UNL A   1      35.559  23.100  26.216  1.00  0.00     0.188 C 
BRANCH  36  37
ATOM     37  O   UNL A   1      35.888  21.999  25.373  1.00  0.00    -0.376 OA
BRANCH  37  38
ATOM     38  C   UNL A   1      37.223  21.968  24.872  1.00  0.00     0.202 C 
BRANCH  38  39
ATOM     39  C   UNL A   1      38.061  20.787  25.372  1.00  0.00     0.261 C 
BRANCH  39  40
ATOM     40  O   UNL A   1      39.457  21.162  25.424  1.00  0.00    -0.460 OA
BRANCH  40  41
ATOM     41  C   UNL A   1      40.053  20.995  26.623  1.00  0.00     0.338 C 
ATOM     42  O   UNL A   1      40.354  19.940  27.156  1.00  0.00    -0.246 OA
BRANCH  41  43
ATOM     43  C   UNL A   1      40.354  22.297  27.253  1.00  0.00     0.060 A 
ATOM     44  C   UNL A   1      39.765  23.458  26.754  1.00  0.00     0.016 A 
ATOM     45  C   UNL A   1      41.396  22.391  28.173  1.00  0.00     0.016 A 
ATOM     46  C   UNL A   1      40.299  24.714  27.077  1.00  0.00     0.010 A 
ATOM     47  C   UNL A   1      41.886  23.653  28.542  1.00  0.00     0.010 A 
ATOM     48  C   UNL A   1      41.395  24.830  27.946  1.00  0.00    -0.014 A 
BRANCH  48  49
ATOM     49  C   UNL A   1      42.121  26.130  28.143  1.00  0.00     0.031 A 
ATOM     50  C   UNL A   1      41.501  27.212  29.003  1.00  0.00     0.074 A 
ATOM     51  C   UNL A   1      43.332  26.378  27.604  1.00  0.00     0.049 A 
ATOM     52  N   UNL A   1      41.801  28.484  29.099  1.00  0.00    -0.248 NA
ATOM     53  C   UNL A   1      40.384  26.798  29.866  1.00  0.00     0.031 C 
ATOM     54  C   UNL A   1      44.137  25.430  26.838  1.00  0.00     0.029 A 
ATOM     55  N   UNL A   1      44.097  27.524  27.621  1.00  0.00    -0.354 N 
ATOM     56  C   UNL A   1      40.866  29.035  29.969  1.00  0.00     0.074 A 
ATOM     57  C   UNL A   1      39.997  27.954  30.385  1.00  0.00     0.031 C 
ATOM     58  C   UNL A   1      45.290  26.019  26.482  1.00  0.00     0.029 A 
ATOM     59  C   UNL A   1      45.267  27.418  26.905  1.00  0.00     0.049 A 
ATOM     60  H   UNL A   1      43.832  28.343  28.100  1.00  0.00     0.167 HD
ATOM     61  C   UNL A   1      40.733  30.322  30.377  1.00  0.00     0.037 A 
ATOM     62  C   UNL A   1      46.188  28.345  26.574  1.00  0.00     0.037 A 
ATOM     63  C   UNL A   1      41.633  31.392  30.026  1.00  0.00     0.049 A 
ATOM     64  C   UNL A   1      45.992  29.784  26.979  1.00  0.00     0.074 A 
ATOM     65  C   UNL A   1      41.572  32.727  30.391  1.00  0.00     0.029 A 
ATOM     66  N   UNL A   1      42.771  31.245  29.250  1.00  0.00    -0.354 N 
ATOM     67  N   UNL A   1      45.043  30.321  27.706  1.00  0.00    -0.248 NA
ATOM     68  C   UNL A   1      46.984  30.752  26.485  1.00  0.00     0.031 C 
ATOM     69  C   UNL A   1      42.656  33.394  29.808  1.00  0.00     0.029 A 
ATOM     70  C   UNL A   1      43.416  32.466  29.118  1.00  0.00     0.049 A 
ATOM     71  H   UNL A   1      43.077  30.399  28.851  1.00  0.00     0.167 HD
ATOM     72  C   UNL A   1      45.331  31.678  27.769  1.00  0.00     0.074 A 
ATOM     73  C   UNL A   1      46.554  31.885  27.024  1.00  0.00     0.031 C 
ATOM     74  C   UNL A   1      44.637  32.667  28.383  1.00  0.00     0.037 A 
BRANCH  61  75
ATOM     75  C   UNL A   1      39.537  30.665  31.218  1.00  0.00     0.064 A 
ATOM     76  C   UNL A   1      38.267  30.873  30.663  1.00  0.00     0.173 A 
ATOM     77  C   UNL A   1      39.664  30.748  32.615  1.00  0.00     0.173 A 
ATOM     78  F   UNL A   1      38.094  30.815  29.334  1.00  0.00    -0.203 F 
ATOM     79  C   UNL A   1      37.175  31.183  31.471  1.00  0.00     0.198 A 
ATOM     80  C   UNL A   1      38.565  31.027  33.422  1.00  0.00     0.198 A 
ATOM     81  F   UNL A   1      40.855  30.545  33.198  1.00  0.00    -0.203 F 
ATOM     82  F   UNL A   1      35.980  31.427  30.915  1.00  0.00    -0.200 F 
ATOM     83  C   UNL A   1      37.322  31.253  32.849  1.00  0.00     0.200 A 
ATOM     84  F   UNL A   1      38.708  31.079  34.754  1.00  0.00    -0.200 F 
ATOM     85  F   UNL A   1      36.270  31.546  33.625  1.00  0.00    -0.200 F 
ENDBRANCH  61  75
BRANCH  62  86
ATOM     86  C   UNL A   1      47.369  27.959  25.755  1.00  0.00     0.064 A 
ATOM     87  C   UNL A   1      48.619  27.739  26.351  1.00  0.00     0.173 A 
ATOM     88  C   UNL A   1      47.279  27.826  24.361  1.00  0.00     0.173 A 
ATOM     89  F   UNL A   1      48.764  27.895  27.676  1.00  0.00    -0.203 F 
ATOM     90  C   UNL A   1      49.733  27.407  25.585  1.00  0.00     0.198 A 
ATOM     91  C   UNL A   1      48.387  27.461  23.599  1.00  0.00     0.198 A 
ATOM     92  F   UNL A   1      46.111  28.040  23.740  1.00  0.00    -0.203 F 
ATOM     93  F   UNL A   1      50.927  27.251  26.174  1.00  0.00    -0.200 F 
ATOM     94  C   UNL A   1      49.615  27.259  24.211  1.00  0.00     0.200 A 
ATOM     95  F   UNL A   1      48.265  27.311  22.274  1.00  0.00    -0.200 F 
ATOM     96  F   UNL A   1      50.686  26.934  23.475  1.00  0.00    -0.200 F 
ENDBRANCH  62  86
BRANCH  74  97
ATOM     97  C   UNL A   1      45.200  34.057  28.313  1.00  0.00     0.064 A 
ATOM     98  C   UNL A   1      44.683  35.018  27.431  1.00  0.00     0.173 A 
ATOM     99  C   UNL A   1      46.252  34.444  29.159  1.00  0.00     0.173 A 
ATOM    100  F   UNL A   1      43.688  34.696  26.591  1.00  0.00    -0.203 F 
ATOM    101  C   UNL A   1      45.214  36.305  27.381  1.00  0.00     0.198 A 
ATOM    102  C   UNL A   1      46.764  35.738  29.124  1.00  0.00     0.198 A 
ATOM    103  F   UNL A   1      46.779  33.565  30.025  1.00  0.00    -0.203 F 
ATOM    104  F   UNL A   1      44.735  37.192  26.499  1.00  0.00    -0.200 F 
ATOM    105  C   UNL A   1      46.250  36.665  28.230  1.00  0.00     0.200 A 
ATOM    106  F   UNL A   1      47.758  36.087  29.953  1.00  0.00    -0.200 F 
ATOM    107  F   UNL A   1      46.758  37.904  28.183  1.00  0.00    -0.200 F 
ENDBRANCH  74  97
ENDBRANCH  48  49
ENDBRANCH  41  43
ENDBRANCH  40  41
ENDBRANCH  39  40
ENDBRANCH  38  39
ENDBRANCH  37  38
ENDBRANCH  36  37
ENDBRANCH   1  36
TORSDOF 22
ENDMDL
MODEL 3
REMARK VINA RESULT:     -10.6      4.360      6.492
REMARK SMILES CCC[C@H]1CCc2c(sc(NC(=O)[C@H]3[C@@H](C(=O)OCCOCCOCCOC(=O)c4ccc(-c5c6nc(c(-c7c(F)c(F)c(F)c(F)c7F)c7ccc([nH]7)c(-c7c(F)c(F)c(F)c(F)c7F)c7nc(c(-c8c(F)c(F)c(F)c(F)c8F)c8ccc5[nH]8)C=C7)C=C6)cc4)[C@H]4CC[C@@H]3O4)c2C(N)=O)C1
REMARK SMILES IDX 22 1 21 2 20 3 19 4 18 5 16 6 17 7 15 8 14 9 96 10 93 11
REMARK SMILES IDX 95 12 97 13 94 14 12 15 11 16 13 18 10 19 4 20 5 21 102 22
REMARK SMILES IDX 6 23 8 24 7 25 9 26 98 27 3 28 2 29 1 30 99 31 100 32 101 33
REMARK SMILES IDX 23 36 24 37 25 38 26 39 27 40 28 41 29 42 30 43 31 44 92 45
REMARK SMILES IDX 32 46 91 47 33 48 34 49 35 50 85 51 36 52 90 53 84 54 86 55
REMARK SMILES IDX 37 56 89 57 83 58 82 59 38 61 70 62 50 63 69 64 51 65 54 66
REMARK SMILES IDX 68 67 87 68 52 69 53 70 67 72 88 73 55 74 39 75 40 76 48 77
REMARK SMILES IDX 41 78 42 79 46 80 49 81 43 82 44 83 47 84 45 85 71 86 72 87
REMARK SMILES IDX 80 88 73 89 74 90 78 91 81 92 75 93 76 94 79 95 77 96 56 97
REMARK SMILES IDX 57 98 65 99 58 100 59 101 63 102 66 103 60 104 61 105 64 106
REMARK SMILES IDX 62 107
REMARK H PARENT 11 17 100 34 100 35 86 60 54 71
REMARK Flexibility Score: inf
ROOT
ATOM      1  C   UNL A   1      34.636  22.561  26.654  1.00  0.00     0.188 C 
ENDROOT
BRANCH   1   2
ATOM      2  O   UNL A   1      34.067  21.420  27.282  1.00  0.00    -0.376 OA
BRANCH   2   3
ATOM      3  C   UNL A   1      33.262  20.570  26.493  1.00  0.00     0.202 C 
BRANCH   3   4
ATOM      4  C   UNL A   1      32.299  21.201  25.471  1.00  0.00     0.261 C 
BRANCH   4   5
ATOM      5  O   UNL A   1      32.304  20.703  24.115  1.00  0.00    -0.463 OA
BRANCH   5   6
ATOM      6  C   UNL A   1      32.246  21.686  23.175  1.00  0.00     0.312 C 
ATOM      7  O   UNL A   1      31.721  21.515  22.083  1.00  0.00    -0.252 OA
BRANCH   6   8
ATOM      8  C   UNL A   1      33.084  22.906  23.532  1.00  0.00     0.143 C 
ATOM      9  C   UNL A   1      32.544  24.346  23.816  1.00  0.00     0.124 C 
ATOM     10  C   UNL A   1      33.085  25.081  22.594  1.00  0.00     0.132 C 
ATOM     11  C   UNL A   1      34.092  23.179  22.372  1.00  0.00     0.133 C 
ATOM     12  C   UNL A   1      32.532  24.555  21.269  1.00  0.00     0.035 C 
ATOM     13  O   UNL A   1      34.441  24.564  22.617  1.00  0.00    -0.373 OA
ATOM     14  C   UNL A   1      33.481  23.400  20.988  1.00  0.00     0.036 C 
BRANCH   9  15
ATOM     15  C   UNL A   1      31.103  24.616  24.222  1.00  0.00     0.231 C 
ATOM     16  N   UNL A   1      30.642  25.815  24.712  1.00  0.00    -0.317 N 
ATOM     17  H   UNL A   1      29.667  25.873  24.833  1.00  0.00     0.170 HD
ATOM     18  O   UNL A   1      30.278  23.702  24.172  1.00  0.00    -0.274 OA
BRANCH  16  19
ATOM     19  C   UNL A   1      31.346  26.942  25.055  1.00  0.00     0.108 A 
ATOM     20  C   UNL A   1      33.489  30.498  27.626  1.00  0.00    -0.006 C 
ATOM     21  C   UNL A   1      32.685  31.179  26.500  1.00  0.00     0.009 C 
ATOM     22  C   UNL A   1      33.681  28.954  27.470  1.00  0.00     0.050 C 
ATOM     23  C   UNL A   1      31.403  30.442  26.164  1.00  0.00     0.038 C 
ATOM     24  C   UNL A   1      32.699  28.342  26.510  1.00  0.00     0.011 A 
ATOM     25  C   UNL A   1      31.733  29.035  25.806  1.00  0.00    -0.019 A 
ATOM     26  S   UNL A   1      32.657  26.680  26.124  1.00  0.00    -0.122 S 
ATOM     27  C   UNL A   1      31.279  28.268  24.681  1.00  0.00     0.077 A 
BRANCH  20  28
ATOM     28  C   UNL A   1      34.828  31.235  27.868  1.00  0.00     0.004 C 
BRANCH  28  29
ATOM     29  C   UNL A   1      35.988  30.414  28.462  1.00  0.00    -0.003 C 
ATOM     30  C   UNL A   1      37.115  30.078  27.485  1.00  0.00     0.004 C 
ENDBRANCH  28  29
ENDBRANCH  20  28
BRANCH  27  31
ATOM     31  C   UNL A   1      30.717  28.779  23.438  1.00  0.00     0.251 C 
ATOM     32  N   UNL A   1      30.299  30.081  23.489  1.00  0.00    -0.365 N 
ATOM     33  O   UNL A   1      30.556  28.115  22.425  1.00  0.00    -0.269 OA
ATOM     34  H   UNL A   1      30.434  30.609  24.309  1.00  0.00     0.159 HD
ATOM     35  H   UNL A   1      29.865  30.489  22.706  1.00  0.00     0.159 HD
ENDBRANCH  27  31
ENDBRANCH  16  19
ENDBRANCH   9  15
ENDBRANCH   6   8
ENDBRANCH   5   6
ENDBRANCH   4   5
ENDBRANCH   3   4
ENDBRANCH   2   3
ENDBRANCH   1   2
BRANCH   1  36
ATOM     36  C   UNL A   1      36.049  22.460  26.047  1.00  0.00     0.188 C 
BRANCH  36  37
ATOM     37  O   UNL A   1      36.510  21.145  25.742  1.00  0.00    -0.376 OA
BRANCH  37  38
ATOM     38  C   UNL A   1      37.690  21.063  24.944  1.00  0.00     0.202 C 
BRANCH  38  39
ATOM     39  C   UNL A   1      38.776  20.143  25.513  1.00  0.00     0.261 C 
BRANCH  39  40
ATOM     40  O   UNL A   1      39.992  20.896  25.733  1.00  0.00    -0.460 OA
BRANCH  40  41
ATOM     41  C   UNL A   1      40.454  20.884  27.001  1.00  0.00     0.338 C 
ATOM     42  O   UNL A   1      40.778  19.908  27.657  1.00  0.00    -0.246 OA
BRANCH  41  43
ATOM     43  C   UNL A   1      40.567  22.254  27.539  1.00  0.00     0.060 A 
ATOM     44  C   UNL A   1      39.761  23.268  27.022  1.00  0.00     0.016 A 
ATOM     45  C   UNL A   1      41.632  22.578  28.377  1.00  0.00     0.016 A 
ATOM     46  C   UNL A   1      40.093  24.613  27.241  1.00  0.00     0.010 A 
ATOM     47  C   UNL A   1      41.923  23.924  28.645  1.00  0.00     0.010 A 
ATOM     48  C   UNL A   1      41.204  24.964  28.024  1.00  0.00    -0.014 A 
BRANCH  48  49
ATOM     49  C   UNL A   1      41.709  26.375  28.101  1.00  0.00     0.031 A 
ATOM     50  C   UNL A   1      43.024  26.737  27.442  1.00  0.00     0.074 A 
ATOM     51  C   UNL A   1      41.027  27.363  28.716  1.00  0.00     0.049 A 
ATOM     52  N   UNL A   1      43.780  27.797  27.598  1.00  0.00    -0.248 NA
ATOM     53  C   UNL A   1      43.561  25.762  26.479  1.00  0.00     0.031 C 
ATOM     54  C   UNL A   1      39.700  27.240  29.313  1.00  0.00     0.029 A 
ATOM     55  N   UNL A   1      41.372  28.678  28.941  1.00  0.00    -0.354 N 
ATOM     56  C   UNL A   1      44.911  27.581  26.818  1.00  0.00     0.074 A 
ATOM     57  C   UNL A   1      44.736  26.295  26.177  1.00  0.00     0.031 C 
ATOM     58  C   UNL A   1      39.331  28.431  29.812  1.00  0.00     0.029 A 
ATOM     59  C   UNL A   1      40.433  29.379  29.661  1.00  0.00     0.049 A 
ATOM     60  H   UNL A   1      42.211  29.079  28.618  1.00  0.00     0.167 HD
ATOM     61  C   UNL A   1      46.001  28.373  26.658  1.00  0.00     0.037 A 
ATOM     62  C   UNL A   1      40.470  30.618  30.192  1.00  0.00     0.037 A 
ATOM     63  C   UNL A   1      46.156  29.685  27.234  1.00  0.00     0.049 A 
ATOM     64  C   UNL A   1      41.714  31.460  30.061  1.00  0.00     0.074 A 
ATOM     65  C   UNL A   1      47.229  30.555  27.127  1.00  0.00     0.029 A 
ATOM     66  N   UNL A   1      45.201  30.327  28.004  1.00  0.00    -0.354 N 
ATOM     67  N   UNL A   1      42.826  31.204  29.418  1.00  0.00    -0.248 NA
ATOM     68  C   UNL A   1      41.715  32.754  30.761  1.00  0.00     0.031 C 
ATOM     69  C   UNL A   1      46.936  31.710  27.861  1.00  0.00     0.029 A 
ATOM     70  C   UNL A   1      45.662  31.578  28.387  1.00  0.00     0.049 A 
ATOM     71  H   UNL A   1      44.323  29.951  28.245  1.00  0.00     0.167 HD
ATOM     72  C   UNL A   1      43.649  32.304  29.624  1.00  0.00     0.074 A 
ATOM     73  C   UNL A   1      42.903  33.243  30.433  1.00  0.00     0.031 C 
ATOM     74  C   UNL A   1      44.914  32.514  29.185  1.00  0.00     0.037 A 
BRANCH  61  75
ATOM     75  C   UNL A   1      47.147  27.823  25.858  1.00  0.00     0.064 A 
ATOM     76  C   UNL A   1      47.195  27.911  24.460  1.00  0.00     0.173 A 
ATOM     77  C   UNL A   1      48.238  27.229  26.515  1.00  0.00     0.173 A 
ATOM     78  F   UNL A   1      46.174  28.460  23.785  1.00  0.00    -0.203 F 
ATOM     79  C   UNL A   1      48.276  27.398  23.747  1.00  0.00     0.198 A 
ATOM     80  C   UNL A   1      49.331  26.745  25.802  1.00  0.00     0.198 A 
ATOM     81  F   UNL A   1      48.249  27.130  27.853  1.00  0.00    -0.203 F 
ATOM     82  F   UNL A   1      48.278  27.448  22.408  1.00  0.00    -0.200 F 
ATOM     83  C   UNL A   1      49.346  26.821  24.417  1.00  0.00     0.200 A 
ATOM     84  F   UNL A   1      50.369  26.202  26.454  1.00  0.00    -0.200 F 
ATOM     85  F   UNL A   1      50.386  26.333  23.730  1.00  0.00    -0.200 F 
ENDBRANCH  61  75
BRANCH  62  86
ATOM     86  C   UNL A   1      39.304  31.132  30.960  1.00  0.00     0.064 A 
ATOM     87  C   UNL A   1      38.402  32.037  30.383  1.00  0.00     0.173 A 
ATOM     88  C   UNL A   1      39.081  30.749  32.292  1.00  0.00     0.173 A 
ATOM     89  F   UNL A   1      38.596  32.465  29.127  1.00  0.00    -0.203 F 
ATOM     90  C   UNL A   1      37.327  32.544  31.109  1.00  0.00     0.198 A 
ATOM     91  C   UNL A   1      37.986  31.230  33.006  1.00  0.00     0.198 A 
ATOM     92  F   UNL A   1      39.922  29.898  32.896  1.00  0.00    -0.203 F 
ATOM     93  F   UNL A   1      36.508  33.446  30.549  1.00  0.00    -0.200 F 
ATOM     94  C   UNL A   1      37.114  32.133  32.416  1.00  0.00     0.200 A 
ATOM     95  F   UNL A   1      37.780  30.824  34.266  1.00  0.00    -0.200 F 
ATOM     96  F   UNL A   1      36.075  32.616  33.113  1.00  0.00    -0.200 F 
ENDBRANCH  62  86
BRANCH  74  97
ATOM     97  C   UNL A   1      45.562  33.822  29.536  1.00  0.00     0.064 A 
ATOM     98  C   UNL A   1      45.424  34.954  28.720  1.00  0.00     0.173 A 
ATOM     99  C   UNL A   1      46.308  33.954  30.718  1.00  0.00     0.173 A 
ATOM    100  F   UNL A   1      44.734  34.879  27.572  1.00  0.00    -0.203 F 
ATOM    101  C   UNL A   1      46.028  36.163  29.061  1.00  0.00     0.198 A 
ATOM    102  C   UNL A   1      46.890  35.169  31.069  1.00  0.00     0.198 A 
ATOM    103  F   UNL A   1      46.467  32.903  31.536  1.00  0.00    -0.203 F 
ATOM    104  F   UNL A   1      45.919  37.219  28.244  1.00  0.00    -0.200 F 
ATOM    105  C   UNL A   1      46.755  36.270  30.237  1.00  0.00     0.200 A 
ATOM    106  F   UNL A   1      47.584  35.274  32.211  1.00  0.00    -0.200 F 
ATOM    107  F   UNL A   1      47.334  37.434  30.565  1.00  0.00    -0.200 F 
ENDBRANCH  74  97
ENDBRANCH  48  49
ENDBRANCH  41  43
ENDBRANCH  40  41
ENDBRANCH  39  40
ENDBRANCH  38  39
ENDBRANCH  37  38
ENDBRANCH  36  37
ENDBRANCH   1  36
TORSDOF 22
ENDMDL
