MODEL 1
REMARK VINA RESULT:     -12.3      0.000      0.000
REMARK SMILES CCn1ncc(NC(=O)[C@@H]2CCCC[C@@H]2C(=O)OCCOCCOCCOC(=O)c2ccc(-c3c4nc(c(-c5c(F)c(F)c(F)c(F)c5F)c5ccc([nH]5)c(-c5c(F)c(F)c(F)c(F)c5F)c5nc(c(-c6c(F)c(F)c(F)c(F)c6F)c6ccc3[nH]6)C=C5)C=C4)cc2)c1C(=O)Nc1cnn(C)c1C
REMARK SMILES IDX 22 1 21 2 20 3 19 4 18 5 16 6 17 7 15 8 10 9 11 10 12 11
REMARK SMILES IDX 14 12 13 13 8 14 7 15 9 17 6 18 3 19 4 20 93 21 5 22 2 23
REMARK SMILES IDX 1 24 94 25 95 26 96 27 97 29 98 30 102 31 99 32 100 33
REMARK SMILES IDX 103 34 101 35 23 36 24 37 25 38 26 39 27 40 28 41 29 42
REMARK SMILES IDX 30 43 31 44 92 45 32 46 91 47 33 48 34 49 35 50 85 51 36 52
REMARK SMILES IDX 90 53 84 54 86 55 37 56 89 57 83 58 82 59 38 61 70 62 50 63
REMARK SMILES IDX 69 64 51 65 54 66 68 67 87 68 52 69 53 70 67 72 88 73 55 74
REMARK SMILES IDX 39 75 40 76 48 77 41 78 42 79 46 80 49 81 43 82 44 83 47 84
REMARK SMILES IDX 45 85 71 86 72 87 80 88 73 89 74 90 78 91 81 92 75 93 76 94
REMARK SMILES IDX 79 95 77 96 56 97 57 98 65 99 58 100 59 101 63 102 66 103
REMARK SMILES IDX 60 104 61 105 64 106 62 107
REMARK H PARENT 7 16 96 28 86 60 54 71
REMARK Flexibility Score: inf
ROOT
ATOM      1  C   UNL A   1      33.966  33.284  28.242  1.00  0.00     0.188 C 
ENDROOT
BRANCH   1   2
ATOM      2  O   UNL A   1      34.813  32.174  27.959  1.00  0.00    -0.376 OA
BRANCH   2   3
ATOM      3  C   UNL A   1      34.175  30.900  28.097  1.00  0.00     0.202 C 
BRANCH   3   4
ATOM      4  C   UNL A   1      33.473  30.424  26.819  1.00  0.00     0.261 C 
BRANCH   4   5
ATOM      5  O   UNL A   1      32.534  29.370  27.063  1.00  0.00    -0.463 OA
BRANCH   5   6
ATOM      6  C   UNL A   1      32.696  28.237  26.333  1.00  0.00     0.309 C 
ATOM      7  O   UNL A   1      33.673  27.506  26.419  1.00  0.00    -0.252 OA
BRANCH   6   8
ATOM      8  C   UNL A   1      31.460  27.988  25.458  1.00  0.00     0.111 C 
ATOM      9  C   UNL A   1      31.432  26.572  24.868  1.00  0.00     0.093 C 
ATOM     10  C   UNL A   1      32.723  26.340  24.080  1.00  0.00     0.014 C 
ATOM     11  C   UNL A   1      32.932  27.433  23.022  1.00  0.00     0.001 C 
ATOM     12  C   UNL A   1      31.377  28.991  24.305  1.00  0.00     0.016 C 
ATOM     13  C   UNL A   1      32.609  28.874  23.417  1.00  0.00     0.001 C 
BRANCH   9  14
ATOM     14  C   UNL A   1      31.043  25.563  25.944  1.00  0.00     0.228 C 
ATOM     15  N   UNL A   1      31.770  24.448  26.211  1.00  0.00    -0.322 N 
ATOM     16  H   UNL A   1      31.398  23.914  26.950  1.00  0.00     0.170 HD
ATOM     17  O   UNL A   1      30.016  25.715  26.618  1.00  0.00    -0.274 OA
BRANCH  15  18
ATOM     18  C   UNL A   1      32.916  23.901  25.670  1.00  0.00     0.092 A 
ATOM     19  N   UNL A   1      34.575  23.183  24.459  1.00  0.00    -0.258 N 
ATOM     20  N   UNL A   1      35.159  23.553  25.619  1.00  0.00    -0.178 NA
ATOM     21  C   UNL A   1      33.192  23.152  24.521  1.00  0.00     0.150 A 
ATOM     22  C   UNL A   1      34.149  23.994  26.350  1.00  0.00     0.162 A 
BRANCH  19  23
ATOM     23  C   UNL A   1      35.494  22.959  23.363  1.00  0.00     0.142 C 
ATOM     24  C   UNL A   1      36.788  22.304  23.804  1.00  0.00     0.029 C 
ENDBRANCH  19  23
BRANCH  21  25
ATOM     25  C   UNL A   1      32.246  22.397  23.701  1.00  0.00     0.276 C 
ATOM     26  O   UNL A   1      31.266  22.935  23.185  1.00  0.00    -0.267 OA
ATOM     27  N   UNL A   1      32.616  21.153  23.230  1.00  0.00    -0.318 N 
ATOM     28  H   UNL A   1      32.978  21.105  22.315  1.00  0.00     0.170 HD
BRANCH  27  29
ATOM     29  C   UNL A   1      32.521  19.974  23.938  1.00  0.00     0.082 A 
ATOM     30  C   UNL A   1      32.507  19.757  25.327  1.00  0.00     0.161 A 
ATOM     31  C   UNL A   1      32.422  18.714  23.375  1.00  0.00     0.059 A 
ATOM     32  N   UNL A   1      32.613  18.463  25.627  1.00  0.00    -0.179 NA
ATOM     33  N   UNL A   1      32.669  17.858  24.424  1.00  0.00    -0.271 N 
ATOM     34  C   UNL A   1      32.285  18.256  21.971  1.00  0.00     0.068 C 
ATOM     35  C   UNL A   1      33.210  16.518  24.356  1.00  0.00     0.174 C 
ENDBRANCH  27  29
ENDBRANCH  21  25
ENDBRANCH  15  18
ENDBRANCH   9  14
ENDBRANCH   6   8
ENDBRANCH   5   6
ENDBRANCH   4   5
ENDBRANCH   3   4
ENDBRANCH   2   3
ENDBRANCH   1   2
BRANCH   1  36
ATOM     36  C   UNL A   1      34.621  34.680  28.144  1.00  0.00     0.188 C 
BRANCH  36  37
ATOM     37  O   UNL A   1      34.234  35.763  28.979  1.00  0.00    -0.376 OA
BRANCH  37  38
ATOM     38  C   UNL A   1      32.925  35.829  29.528  1.00  0.00     0.202 C 
BRANCH  38  39
ATOM     39  C   UNL A   1      32.752  36.227  30.990  1.00  0.00     0.261 C 
BRANCH  39  40
ATOM     40  O   UNL A   1      33.010  35.144  31.872  1.00  0.00    -0.460 OA
BRANCH  40  41
ATOM     41  C   UNL A   1      34.041  35.348  32.717  1.00  0.00     0.338 C 
ATOM     42  O   UNL A   1      34.399  36.405  33.206  1.00  0.00    -0.246 OA
BRANCH  41  43
ATOM     43  C   UNL A   1      34.695  34.061  33.003  1.00  0.00     0.060 A 
ATOM     44  C   UNL A   1      35.570  34.040  34.091  1.00  0.00     0.016 A 
ATOM     45  C   UNL A   1      34.597  32.981  32.112  1.00  0.00     0.016 A 
ATOM     46  C   UNL A   1      36.556  33.082  34.112  1.00  0.00     0.010 A 
ATOM     47  C   UNL A   1      35.578  32.014  32.138  1.00  0.00     0.010 A 
ATOM     48  C   UNL A   1      36.619  32.173  33.052  1.00  0.00    -0.014 A 
BRANCH  48  49
ATOM     49  C   UNL A   1      37.929  31.624  32.764  1.00  0.00     0.031 A 
ATOM     50  C   UNL A   1      38.878  31.512  33.882  1.00  0.00     0.074 A 
ATOM     51  C   UNL A   1      38.232  31.236  31.508  1.00  0.00     0.049 A 
ATOM     52  N   UNL A   1      40.061  32.027  33.973  1.00  0.00    -0.248 NA
ATOM     53  C   UNL A   1      38.442  30.761  35.064  1.00  0.00     0.031 C 
ATOM     54  C   UNL A   1      37.312  31.062  30.377  1.00  0.00     0.029 A 
ATOM     55  N   UNL A   1      39.427  30.819  31.005  1.00  0.00    -0.354 N 
ATOM     56  C   UNL A   1      40.591  31.532  35.156  1.00  0.00     0.074 A 
ATOM     57  C   UNL A   1      39.525  30.841  35.837  1.00  0.00     0.031 C 
ATOM     58  C   UNL A   1      37.940  30.380  29.397  1.00  0.00     0.029 A 
ATOM     59  C   UNL A   1      39.327  30.180  29.781  1.00  0.00     0.049 A 
ATOM     60  H   UNL A   1      40.284  30.959  31.469  1.00  0.00     0.167 HD
ATOM     61  C   UNL A   1      41.929  31.543  35.393  1.00  0.00     0.037 A 
ATOM     62  C   UNL A   1      40.293  29.463  29.164  1.00  0.00     0.037 A 
ATOM     63  C   UNL A   1      42.615  32.534  34.611  1.00  0.00     0.049 A 
ATOM     64  C   UNL A   1      41.599  29.864  29.741  1.00  0.00     0.074 A 
ATOM     65  C   UNL A   1      42.528  33.909  34.499  1.00  0.00     0.029 A 
ATOM     66  N   UNL A   1      43.380  32.128  33.547  1.00  0.00    -0.354 N 
ATOM     67  N   UNL A   1      42.179  31.013  29.535  1.00  0.00    -0.248 NA
ATOM     68  C   UNL A   1      42.114  29.099  30.867  1.00  0.00     0.031 C 
ATOM     69  C   UNL A   1      42.861  34.204  33.145  1.00  0.00     0.029 A 
ATOM     70  C   UNL A   1      43.129  32.991  32.511  1.00  0.00     0.049 A 
ATOM     71  H   UNL A   1      43.994  31.358  33.531  1.00  0.00     0.167 HD
ATOM     72  C   UNL A   1      42.832  31.295  30.725  1.00  0.00     0.074 A 
ATOM     73  C   UNL A   1      42.867  30.033  31.450  1.00  0.00     0.031 C 
ATOM     74  C   UNL A   1      43.029  32.583  31.130  1.00  0.00     0.037 A 
BRANCH  61  75
ATOM     75  C   UNL A   1      42.637  30.429  36.113  1.00  0.00     0.064 A 
ATOM     76  C   UNL A   1      43.530  30.728  37.156  1.00  0.00     0.173 A 
ATOM     77  C   UNL A   1      42.678  29.102  35.628  1.00  0.00     0.173 A 
ATOM     78  F   UNL A   1      43.602  31.971  37.658  1.00  0.00    -0.203 F 
ATOM     79  C   UNL A   1      44.429  29.779  37.648  1.00  0.00     0.198 A 
ATOM     80  C   UNL A   1      43.535  28.143  36.160  1.00  0.00     0.198 A 
ATOM     81  F   UNL A   1      41.972  28.717  34.557  1.00  0.00    -0.203 F 
ATOM     82  F   UNL A   1      45.340  30.137  38.563  1.00  0.00    -0.200 F 
ATOM     83  C   UNL A   1      44.430  28.487  37.151  1.00  0.00     0.200 A 
ATOM     84  F   UNL A   1      43.538  26.904  35.648  1.00  0.00    -0.200 F 
ATOM     85  F   UNL A   1      45.325  27.592  37.587  1.00  0.00    -0.200 F 
ENDBRANCH  61  75
BRANCH  62  86
ATOM     86  C   UNL A   1      40.126  28.278  28.294  1.00  0.00     0.064 A 
ATOM     87  C   UNL A   1      40.796  28.180  27.066  1.00  0.00     0.173 A 
ATOM     88  C   UNL A   1      39.497  27.106  28.760  1.00  0.00     0.173 A 
ATOM     89  F   UNL A   1      41.466  29.233  26.577  1.00  0.00    -0.203 F 
ATOM     90  C   UNL A   1      40.843  26.978  26.352  1.00  0.00     0.198 A 
ATOM     91  C   UNL A   1      39.529  25.913  28.040  1.00  0.00     0.198 A 
ATOM     92  F   UNL A   1      38.916  27.065  29.968  1.00  0.00    -0.203 F 
ATOM     93  F   UNL A   1      41.544  26.906  25.213  1.00  0.00    -0.200 F 
ATOM     94  C   UNL A   1      40.213  25.845  26.842  1.00  0.00     0.200 A 
ATOM     95  F   UNL A   1      38.944  24.817  28.542  1.00  0.00    -0.200 F 
ATOM     96  F   UNL A   1      40.299  24.682  26.181  1.00  0.00    -0.200 F 
ENDBRANCH  62  86
BRANCH  74  97
ATOM     97  C   UNL A   1      42.831  33.666  30.111  1.00  0.00     0.064 A 
ATOM     98  C   UNL A   1      43.851  34.125  29.261  1.00  0.00     0.173 A 
ATOM     99  C   UNL A   1      41.539  34.170  29.904  1.00  0.00     0.173 A 
ATOM    100  F   UNL A   1      45.087  33.611  29.330  1.00  0.00    -0.203 F 
ATOM    101  C   UNL A   1      43.598  35.088  28.286  1.00  0.00     0.198 A 
ATOM    102  C   UNL A   1      41.282  35.105  28.906  1.00  0.00     0.198 A 
ATOM    103  F   UNL A   1      40.515  33.719  30.646  1.00  0.00    -0.203 F 
ATOM    104  F   UNL A   1      44.592  35.525  27.498  1.00  0.00    -0.200 F 
ATOM    105  C   UNL A   1      42.313  35.574  28.106  1.00  0.00     0.200 A 
ATOM    106  F   UNL A   1      40.029  35.537  28.703  1.00  0.00    -0.200 F 
ATOM    107  F   UNL A   1      42.062  36.475  27.146  1.00  0.00    -0.200 F 
ENDBRANCH  74  97
ENDBRANCH  48  49
ENDBRANCH  41  43
ENDBRANCH  40  41
ENDBRANCH  39  40
ENDBRANCH  38  39
ENDBRANCH  37  38
ENDBRANCH  36  37
ENDBRANCH   1  36
TORSDOF 22
ENDMDL
MODEL 2
REMARK VINA RESULT:     -12.2      2.820      4.083
REMARK SMILES CCn1ncc(NC(=O)[C@@H]2CCCC[C@@H]2C(=O)OCCOCCOCCOC(=O)c2ccc(-c3c4nc(c(-c5c(F)c(F)c(F)c(F)c5F)c5ccc([nH]5)c(-c5c(F)c(F)c(F)c(F)c5F)c5nc(c(-c6c(F)c(F)c(F)c(F)c6F)c6ccc3[nH]6)C=C5)C=C4)cc2)c1C(=O)Nc1cnn(C)c1C
REMARK SMILES IDX 22 1 21 2 20 3 19 4 18 5 16 6 17 7 15 8 10 9 11 10 12 11
REMARK SMILES IDX 14 12 13 13 8 14 7 15 9 17 6 18 3 19 4 20 93 21 5 22 2 23
REMARK SMILES IDX 1 24 94 25 95 26 96 27 97 29 98 30 102 31 99 32 100 33
REMARK SMILES IDX 103 34 101 35 23 36 24 37 25 38 26 39 27 40 28 41 29 42
REMARK SMILES IDX 30 43 31 44 92 45 32 46 91 47 33 48 34 49 35 50 85 51 36 52
REMARK SMILES IDX 90 53 84 54 86 55 37 56 89 57 83 58 82 59 38 61 70 62 50 63
REMARK SMILES IDX 69 64 51 65 54 66 68 67 87 68 52 69 53 70 67 72 88 73 55 74
REMARK SMILES IDX 39 75 40 76 48 77 41 78 42 79 46 80 49 81 43 82 44 83 47 84
REMARK SMILES IDX 45 85 71 86 72 87 80 88 73 89 74 90 78 91 81 92 75 93 76 94
REMARK SMILES IDX 79 95 77 96 56 97 57 98 65 99 58 100 59 101 63 102 66 103
REMARK SMILES IDX 60 104 61 105 64 106 62 107
REMARK H PARENT 7 16 96 28 86 60 54 71
REMARK Flexibility Score: inf
ROOT
ATOM      1  C   UNL A   1      34.978  31.971  27.947  1.00  0.00     0.188 C 
ENDROOT
BRANCH   1   2
ATOM      2  O   UNL A   1      35.733  30.779  27.759  1.00  0.00    -0.376 OA
BRANCH   2   3
ATOM      3  C   UNL A   1      34.936  29.598  27.614  1.00  0.00     0.202 C 
BRANCH   3   4
ATOM      4  C   UNL A   1      33.675  29.808  26.767  1.00  0.00     0.261 C 
BRANCH   4   5
ATOM      5  O   UNL A   1      32.651  28.846  27.050  1.00  0.00    -0.463 OA
BRANCH   5   6
ATOM      6  C   UNL A   1      32.630  27.740  26.262  1.00  0.00     0.309 C 
ATOM      7  O   UNL A   1      33.551  26.939  26.189  1.00  0.00    -0.252 OA
BRANCH   6   8
ATOM      8  C   UNL A   1      31.275  27.621  25.553  1.00  0.00     0.111 C 
ATOM      9  C   UNL A   1      31.072  26.248  24.897  1.00  0.00     0.093 C 
ATOM     10  C   UNL A   1      32.229  25.988  23.928  1.00  0.00     0.014 C 
ATOM     11  C   UNL A   1      32.369  27.131  22.912  1.00  0.00     0.001 C 
ATOM     12  C   UNL A   1      31.107  28.697  24.477  1.00  0.00     0.016 C 
ATOM     13  C   UNL A   1      32.199  28.561  23.424  1.00  0.00     0.001 C 
BRANCH   9  14
ATOM     14  C   UNL A   1      30.762  25.199  25.960  1.00  0.00     0.228 C 
ATOM     15  N   UNL A   1      31.586  24.155  26.233  1.00  0.00    -0.322 N 
ATOM     16  H   UNL A   1      31.255  23.584  26.963  1.00  0.00     0.170 HD
ATOM     17  O   UNL A   1      29.715  25.250  26.618  1.00  0.00    -0.274 OA
BRANCH  15  18
ATOM     18  C   UNL A   1      32.787  23.722  25.708  1.00  0.00     0.092 A 
ATOM     19  N   UNL A   1      34.532  23.186  24.523  1.00  0.00    -0.258 N 
ATOM     20  N   UNL A   1      35.051  23.553  25.714  1.00  0.00    -0.178 NA
ATOM     21  C   UNL A   1      33.154  23.044  24.541  1.00  0.00     0.150 A 
ATOM     22  C   UNL A   1      33.989  23.883  26.430  1.00  0.00     0.162 A 
BRANCH  19  23
ATOM     23  C   UNL A   1      35.497  23.079  23.449  1.00  0.00     0.142 C 
ATOM     24  C   UNL A   1      36.698  22.231  23.819  1.00  0.00     0.029 C 
ENDBRANCH  19  23
BRANCH  21  25
ATOM     25  C   UNL A   1      32.295  22.252  23.663  1.00  0.00     0.276 C 
ATOM     26  O   UNL A   1      31.354  22.759  23.050  1.00  0.00    -0.267 OA
ATOM     27  N   UNL A   1      32.724  21.003  23.258  1.00  0.00    -0.318 N 
ATOM     28  H   UNL A   1      33.164  20.939  22.380  1.00  0.00     0.170 HD
BRANCH  27  29
ATOM     29  C   UNL A   1      32.587  19.841  23.987  1.00  0.00     0.082 A 
ATOM     30  C   UNL A   1      32.544  19.651  25.379  1.00  0.00     0.161 A 
ATOM     31  C   UNL A   1      32.465  18.574  23.446  1.00  0.00     0.059 A 
ATOM     32  N   UNL A   1      32.612  18.360  25.704  1.00  0.00    -0.179 NA
ATOM     33  N   UNL A   1      32.673  17.732  24.514  1.00  0.00    -0.271 N 
ATOM     34  C   UNL A   1      32.339  18.092  22.048  1.00  0.00     0.068 C 
ATOM     35  C   UNL A   1      33.180  16.377  24.480  1.00  0.00     0.174 C 
ENDBRANCH  27  29
ENDBRANCH  21  25
ENDBRANCH  15  18
ENDBRANCH   9  14
ENDBRANCH   6   8
ENDBRANCH   5   6
ENDBRANCH   4   5
ENDBRANCH   3   4
ENDBRANCH   2   3
ENDBRANCH   1   2
BRANCH   1  36
ATOM     36  C   UNL A   1      35.795  33.272  28.120  1.00  0.00     0.188 C 
BRANCH  36  37
ATOM     37  O   UNL A   1      35.849  33.980  29.351  1.00  0.00    -0.376 OA
BRANCH  37  38
ATOM     38  C   UNL A   1      34.695  34.106  30.171  1.00  0.00     0.202 C 
BRANCH  38  39
ATOM     39  C   UNL A   1      34.627  33.330  31.482  1.00  0.00     0.261 C 
BRANCH  39  40
ATOM     40  O   UNL A   1      34.968  31.962  31.310  1.00  0.00    -0.460 OA
BRANCH  40  41
ATOM     41  C   UNL A   1      36.077  31.578  31.975  1.00  0.00     0.338 C 
ATOM     42  O   UNL A   1      36.325  31.740  33.156  1.00  0.00    -0.246 OA
BRANCH  41  43
ATOM     43  C   UNL A   1      36.981  30.881  31.045  1.00  0.00     0.060 A 
ATOM     44  C   UNL A   1      36.747  29.517  30.859  1.00  0.00     0.016 A 
ATOM     45  C   UNL A   1      38.130  31.509  30.539  1.00  0.00     0.016 A 
ATOM     46  C   UNL A   1      37.793  28.729  30.441  1.00  0.00     0.010 A 
ATOM     47  C   UNL A   1      39.176  30.722  30.110  1.00  0.00     0.010 A 
ATOM     48  C   UNL A   1      39.029  29.340  30.211  1.00  0.00    -0.014 A 
BRANCH  48  49
ATOM     49  C   UNL A   1      40.195  28.495  30.384  1.00  0.00     0.031 A 
ATOM     50  C   UNL A   1      40.758  28.387  31.738  1.00  0.00     0.074 A 
ATOM     51  C   UNL A   1      40.715  27.845  29.323  1.00  0.00     0.049 A 
ATOM     52  N   UNL A   1      41.963  28.660  32.120  1.00  0.00    -0.248 NA
ATOM     53  C   UNL A   1      39.857  27.953  32.811  1.00  0.00     0.031 C 
ATOM     54  C   UNL A   1      40.112  27.669  27.995  1.00  0.00     0.029 A 
ATOM     55  N   UNL A   1      41.862  27.115  29.244  1.00  0.00    -0.354 N 
ATOM     56  C   UNL A   1      42.026  28.278  33.452  1.00  0.00     0.074 A 
ATOM     57  C   UNL A   1      40.683  27.944  33.857  1.00  0.00     0.031 C 
ATOM     58  C   UNL A   1      40.792  26.717  27.324  1.00  0.00     0.029 A 
ATOM     59  C   UNL A   1      41.937  26.309  28.120  1.00  0.00     0.049 A 
ATOM     60  H   UNL A   1      42.574  27.156  29.923  1.00  0.00     0.167 HD
ATOM     61  C   UNL A   1      43.215  28.059  34.072  1.00  0.00     0.037 A 
ATOM     62  C   UNL A   1      42.828  25.317  27.897  1.00  0.00     0.037 A 
ATOM     63  C   UNL A   1      44.302  28.741  33.427  1.00  0.00     0.049 A 
ATOM     64  C   UNL A   1      43.991  25.538  28.789  1.00  0.00     0.074 A 
ATOM     65  C   UNL A   1      44.585  30.065  33.149  1.00  0.00     0.029 A 
ATOM     66  N   UNL A   1      45.199  28.012  32.687  1.00  0.00    -0.354 N 
ATOM     67  N   UNL A   1      44.866  26.494  28.642  1.00  0.00    -0.248 NA
ATOM     68  C   UNL A   1      43.989  24.890  30.091  1.00  0.00     0.031 C 
ATOM     69  C   UNL A   1      45.325  30.051  31.931  1.00  0.00     0.029 A 
ATOM     70  C   UNL A   1      45.448  28.718  31.538  1.00  0.00     0.049 A 
ATOM     71  H   UNL A   1      45.589  27.143  32.936  1.00  0.00     0.167 HD
ATOM     72  C   UNL A   1      45.230  26.837  29.935  1.00  0.00     0.074 A 
ATOM     73  C   UNL A   1      44.765  25.737  30.768  1.00  0.00     0.031 C 
ATOM     74  C   UNL A   1      45.620  28.108  30.241  1.00  0.00     0.037 A 
BRANCH  61  75
ATOM     75  C   UNL A   1      43.416  26.965  35.084  1.00  0.00     0.064 A 
ATOM     76  C   UNL A   1      43.817  27.287  36.392  1.00  0.00     0.173 A 
ATOM     77  C   UNL A   1      43.497  25.597  34.735  1.00  0.00     0.173 A 
ATOM     78  F   UNL A   1      43.820  28.563  36.809  1.00  0.00    -0.203 F 
ATOM     79  C   UNL A   1      44.305  26.317  37.271  1.00  0.00     0.198 A 
ATOM     80  C   UNL A   1      43.929  24.625  35.632  1.00  0.00     0.198 A 
ATOM     81  F   UNL A   1      43.265  25.171  33.487  1.00  0.00    -0.203 F 
ATOM     82  F   UNL A   1      44.783  26.685  38.467  1.00  0.00    -0.200 F 
ATOM     83  C   UNL A   1      44.359  24.988  36.891  1.00  0.00     0.200 A 
ATOM     84  F   UNL A   1      43.997  23.346  35.237  1.00  0.00    -0.200 F 
ATOM     85  F   UNL A   1      44.873  24.066  37.715  1.00  0.00    -0.200 F 
ENDBRANCH  61  75
BRANCH  62  86
ATOM     86  C   UNL A   1      42.614  24.059  27.148  1.00  0.00     0.064 A 
ATOM     87  C   UNL A   1      43.415  23.726  26.047  1.00  0.00     0.173 A 
ATOM     88  C   UNL A   1      41.777  23.039  27.646  1.00  0.00     0.173 A 
ATOM     89  F   UNL A   1      44.278  24.621  25.545  1.00  0.00    -0.203 F 
ATOM     90  C   UNL A   1      43.389  22.446  25.484  1.00  0.00     0.198 A 
ATOM     91  C   UNL A   1      41.738  21.769  27.073  1.00  0.00     0.198 A 
ATOM     92  F   UNL A   1      41.046  23.222  28.755  1.00  0.00    -0.203 F 
ATOM     93  F   UNL A   1      44.214  22.146  24.471  1.00  0.00    -0.200 F 
ATOM     94  C   UNL A   1      42.554  21.468  26.000  1.00  0.00     0.200 A 
ATOM     95  F   UNL A   1      40.951  20.824  27.605  1.00  0.00    -0.200 F 
ATOM     96  F   UNL A   1      42.565  20.228  25.490  1.00  0.00    -0.200 F 
ENDBRANCH  62  86
BRANCH  74  97
ATOM     97  C   UNL A   1      45.966  29.018  29.099  1.00  0.00     0.064 A 
ATOM     98  C   UNL A   1      45.014  29.781  28.402  1.00  0.00     0.173 A 
ATOM     99  C   UNL A   1      47.316  29.218  28.780  1.00  0.00     0.173 A 
ATOM    100  F   UNL A   1      43.715  29.722  28.725  1.00  0.00    -0.203 F 
ATOM    101  C   UNL A   1      45.397  30.660  27.391  1.00  0.00     0.198 A 
ATOM    102  C   UNL A   1      47.698  30.123  27.795  1.00  0.00     0.198 A 
ATOM    103  F   UNL A   1      48.271  28.561  29.459  1.00  0.00    -0.203 F 
ATOM    104  F   UNL A   1      44.469  31.364  26.725  1.00  0.00    -0.200 F 
ATOM    105  C   UNL A   1      46.738  30.834  27.091  1.00  0.00     0.200 A 
ATOM    106  F   UNL A   1      48.999  30.325  27.541  1.00  0.00    -0.200 F 
ATOM    107  F   UNL A   1      47.108  31.705  26.142  1.00  0.00    -0.200 F 
ENDBRANCH  74  97
ENDBRANCH  48  49
ENDBRANCH  41  43
ENDBRANCH  40  41
ENDBRANCH  39  40
ENDBRANCH  38  39
ENDBRANCH  37  38
ENDBRANCH  36  37
ENDBRANCH   1  36
TORSDOF 22
ENDMDL
MODEL 3
REMARK VINA RESULT:     -12.2      2.921      4.664
REMARK SMILES CCn1ncc(NC(=O)[C@@H]2CCCC[C@@H]2C(=O)OCCOCCOCCOC(=O)c2ccc(-c3c4nc(c(-c5c(F)c(F)c(F)c(F)c5F)c5ccc([nH]5)c(-c5c(F)c(F)c(F)c(F)c5F)c5nc(c(-c6c(F)c(F)c(F)c(F)c6F)c6ccc3[nH]6)C=C5)C=C4)cc2)c1C(=O)Nc1cnn(C)c1C
REMARK SMILES IDX 22 1 21 2 20 3 19 4 18 5 16 6 17 7 15 8 10 9 11 10 12 11
REMARK SMILES IDX 14 12 13 13 8 14 7 15 9 17 6 18 3 19 4 20 93 21 5 22 2 23
REMARK SMILES IDX 1 24 94 25 95 26 96 27 97 29 98 30 102 31 99 32 100 33
REMARK SMILES IDX 103 34 101 35 23 36 24 37 25 38 26 39 27 40 28 41 29 42
REMARK SMILES IDX 30 43 31 44 92 45 32 46 91 47 33 48 34 49 35 50 85 51 36 52
REMARK SMILES IDX 90 53 84 54 86 55 37 56 89 57 83 58 82 59 38 61 70 62 50 63
REMARK SMILES IDX 69 64 51 65 54 66 68 67 87 68 52 69 53 70 67 72 88 73 55 74
REMARK SMILES IDX 39 75 40 76 48 77 41 78 42 79 46 80 49 81 43 82 44 83 47 84
REMARK SMILES IDX 45 85 71 86 72 87 80 88 73 89 74 90 78 91 81 92 75 93 76 94
REMARK SMILES IDX 79 95 77 96 56 97 57 98 65 99 58 100 59 101 63 102 66 103
REMARK SMILES IDX 60 104 61 105 64 106 62 107
REMARK H PARENT 7 16 96 28 86 60 54 71
REMARK Flexibility Score: inf
ROOT
ATOM      1  C   UNL A   1      34.804  31.202  28.069  1.00  0.00     0.188 C 
ENDROOT
BRANCH   1   2
ATOM      2  O   UNL A   1      34.437  30.360  26.981  1.00  0.00    -0.376 OA
BRANCH   2   3
ATOM      3  C   UNL A   1      33.897  29.094  27.375  1.00  0.00     0.202 C 
BRANCH   3   4
ATOM      4  C   UNL A   1      32.405  28.938  27.057  1.00  0.00     0.261 C 
BRANCH   4   5
ATOM      5  O   UNL A   1      32.134  27.811  26.214  1.00  0.00    -0.463 OA
BRANCH   5   6
ATOM      6  C   UNL A   1      32.172  28.036  24.876  1.00  0.00     0.309 C 
ATOM      7  O   UNL A   1      32.678  29.026  24.367  1.00  0.00    -0.252 OA
BRANCH   6   8
ATOM      8  C   UNL A   1      31.559  26.849  24.121  1.00  0.00     0.111 C 
ATOM      9  C   UNL A   1      31.750  26.956  22.602  1.00  0.00     0.093 C 
ATOM     10  C   UNL A   1      31.156  28.283  22.122  1.00  0.00     0.014 C 
ATOM     11  C   UNL A   1      29.692  28.428  22.561  1.00  0.00     0.001 C 
ATOM     12  C   UNL A   1      30.062  26.713  24.409  1.00  0.00     0.016 C 
ATOM     13  C   UNL A   1      29.326  27.973  23.974  1.00  0.00     0.001 C 
BRANCH   9  14
ATOM     14  C   UNL A   1      33.191  26.625  22.229  1.00  0.00     0.228 C 
ATOM     15  N   UNL A   1      33.756  25.413  22.462  1.00  0.00    -0.322 N 
ATOM     16  H   UNL A   1      34.684  25.352  22.139  1.00  0.00     0.170 HD
ATOM     17  O   UNL A   1      33.924  27.473  21.705  1.00  0.00    -0.274 OA
BRANCH  15  18
ATOM     18  C   UNL A   1      33.311  24.247  23.051  1.00  0.00     0.092 A 
ATOM     19  N   UNL A   1      32.512  22.655  24.302  1.00  0.00    -0.258 N 
ATOM     20  N   UNL A   1      32.138  22.302  23.053  1.00  0.00    -0.178 NA
ATOM     21  C   UNL A   1      33.424  23.697  24.333  1.00  0.00     0.150 A 
ATOM     22  C   UNL A   1      32.620  23.275  22.297  1.00  0.00     0.162 A 
BRANCH  19  23
ATOM     23  C   UNL A   1      31.842  21.930  25.361  1.00  0.00     0.142 C 
ATOM     24  C   UNL A   1      31.068  22.836  26.297  1.00  0.00     0.029 C 
ENDBRANCH  19  23
BRANCH  21  25
ATOM     25  C   UNL A   1      34.389  24.050  25.372  1.00  0.00     0.276 C 
ATOM     26  O   UNL A   1      34.467  25.195  25.820  1.00  0.00    -0.267 OA
ATOM     27  N   UNL A   1      34.996  23.039  26.090  1.00  0.00    -0.318 N 
ATOM     28  H   UNL A   1      34.604  22.805  26.963  1.00  0.00     0.170 HD
BRANCH  27  29
ATOM     29  C   UNL A   1      36.107  22.330  25.683  1.00  0.00     0.082 A 
ATOM     30  C   UNL A   1      36.195  21.054  25.099  1.00  0.00     0.161 A 
ATOM     31  C   UNL A   1      37.413  22.772  25.787  1.00  0.00     0.059 A 
ATOM     32  N   UNL A   1      37.456  20.625  25.039  1.00  0.00    -0.179 NA
ATOM     33  N   UNL A   1      38.167  21.643  25.562  1.00  0.00    -0.271 N 
ATOM     34  C   UNL A   1      38.000  24.064  26.219  1.00  0.00     0.068 C 
ATOM     35  C   UNL A   1      39.502  21.367  26.047  1.00  0.00     0.174 C 
ENDBRANCH  27  29
ENDBRANCH  21  25
ENDBRANCH  15  18
ENDBRANCH   9  14
ENDBRANCH   6   8
ENDBRANCH   5   6
ENDBRANCH   4   5
ENDBRANCH   3   4
ENDBRANCH   2   3
ENDBRANCH   1   2
BRANCH   1  36
ATOM     36  C   UNL A   1      34.340  32.673  27.977  1.00  0.00     0.188 C 
BRANCH  36  37
ATOM     37  O   UNL A   1      33.812  33.377  29.094  1.00  0.00    -0.376 OA
BRANCH  37  38
ATOM     38  C   UNL A   1      34.674  33.980  30.050  1.00  0.00     0.202 C 
BRANCH  38  39
ATOM     39  C   UNL A   1      34.741  33.401  31.459  1.00  0.00     0.261 C 
BRANCH  39  40
ATOM     40  O   UNL A   1      34.944  31.994  31.447  1.00  0.00    -0.460 OA
BRANCH  40  41
ATOM     41  C   UNL A   1      36.063  31.589  32.082  1.00  0.00     0.338 C 
ATOM     42  O   UNL A   1      36.343  31.738  33.257  1.00  0.00    -0.246 OA
BRANCH  41  43
ATOM     43  C   UNL A   1      36.934  30.888  31.125  1.00  0.00     0.060 A 
ATOM     44  C   UNL A   1      36.813  29.497  31.082  1.00  0.00     0.016 A 
ATOM     45  C   UNL A   1      37.963  31.561  30.447  1.00  0.00     0.016 A 
ATOM     46  C   UNL A   1      37.884  28.766  30.624  1.00  0.00     0.010 A 
ATOM     47  C   UNL A   1      39.032  30.830  29.978  1.00  0.00     0.010 A 
ATOM     48  C   UNL A   1      39.028  29.456  30.212  1.00  0.00    -0.014 A 
BRANCH  48  49
ATOM     49  C   UNL A   1      40.280  28.735  30.332  1.00  0.00     0.031 A 
ATOM     50  C   UNL A   1      40.917  28.699  31.657  1.00  0.00     0.074 A 
ATOM     51  C   UNL A   1      40.811  28.130  29.250  1.00  0.00     0.049 A 
ATOM     52  N   UNL A   1      42.106  29.095  31.977  1.00  0.00    -0.248 NA
ATOM     53  C   UNL A   1      40.117  28.187  32.776  1.00  0.00     0.031 C 
ATOM     54  C   UNL A   1      40.165  27.880  27.954  1.00  0.00     0.029 A 
ATOM     55  N   UNL A   1      42.021  27.518  29.118  1.00  0.00    -0.354 N 
ATOM     56  C   UNL A   1      42.271  28.736  33.307  1.00  0.00     0.074 A 
ATOM     57  C   UNL A   1      40.991  28.272  33.779  1.00  0.00     0.031 C 
ATOM     58  C   UNL A   1      40.904  26.994  27.256  1.00  0.00     0.029 A 
ATOM     59  C   UNL A   1      42.122  26.712  27.996  1.00  0.00     0.049 A 
ATOM     60  H   UNL A   1      42.757  27.638  29.761  1.00  0.00     0.167 HD
ATOM     61  C   UNL A   1      43.506  28.644  33.868  1.00  0.00     0.037 A 
ATOM     62  C   UNL A   1      43.097  25.812  27.735  1.00  0.00     0.037 A 
ATOM     63  C   UNL A   1      44.485  29.426  33.166  1.00  0.00     0.049 A 
ATOM     64  C   UNL A   1      44.274  26.159  28.567  1.00  0.00     0.074 A 
ATOM     65  C   UNL A   1      44.618  30.769  32.867  1.00  0.00     0.029 A 
ATOM     66  N   UNL A   1      45.413  28.784  32.386  1.00  0.00    -0.354 N 
ATOM     67  N   UNL A   1      45.039  27.197  28.372  1.00  0.00    -0.248 NA
ATOM     68  C   UNL A   1      44.401  25.528  29.871  1.00  0.00     0.031 C 
ATOM     69  C   UNL A   1      45.295  30.817  31.613  1.00  0.00     0.029 A 
ATOM     70  C   UNL A   1      45.533  29.499  31.223  1.00  0.00     0.049 A 
ATOM     71  H   UNL A   1      45.902  27.961  32.620  1.00  0.00     0.167 HD
ATOM     72  C   UNL A   1      45.430  27.589  29.643  1.00  0.00     0.074 A 
ATOM     73  C   UNL A   1      45.119  26.456  30.504  1.00  0.00     0.031 C 
ATOM     74  C   UNL A   1      45.703  28.896  29.922  1.00  0.00     0.037 A 
BRANCH  61  75
ATOM     75  C   UNL A   1      43.865  27.587  34.875  1.00  0.00     0.064 A 
ATOM     76  C   UNL A   1      43.781  26.229  34.522  1.00  0.00     0.173 A 
ATOM     77  C   UNL A   1      44.021  27.857  36.253  1.00  0.00     0.173 A 
ATOM     78  F   UNL A   1      43.588  25.867  33.245  1.00  0.00    -0.203 F 
ATOM     79  C   UNL A   1      43.807  25.217  35.485  1.00  0.00     0.198 A 
ATOM     80  C   UNL A   1      44.104  26.845  37.204  1.00  0.00     0.198 A 
ATOM     81  F   UNL A   1      43.990  29.105  36.738  1.00  0.00    -0.203 F 
ATOM     82  F   UNL A   1      43.609  23.945  35.118  1.00  0.00    -0.200 F 
ATOM     83  C   UNL A   1      43.970  25.526  36.825  1.00  0.00     0.200 A 
ATOM     84  F   UNL A   1      44.239  27.165  38.499  1.00  0.00    -0.200 F 
ATOM     85  F   UNL A   1      43.944  24.561  37.753  1.00  0.00    -0.200 F 
ENDBRANCH  61  75
BRANCH  62  86
ATOM     86  C   UNL A   1      42.975  24.532  27.005  1.00  0.00     0.064 A 
ATOM     87  C   UNL A   1      43.431  24.403  25.685  1.00  0.00     0.173 A 
ATOM     88  C   UNL A   1      42.631  23.336  27.668  1.00  0.00     0.173 A 
ATOM     89  F   UNL A   1      43.828  25.485  25.001  1.00  0.00    -0.203 F 
ATOM     90  C   UNL A   1      43.546  23.153  25.069  1.00  0.00     0.198 A 
ATOM     91  C   UNL A   1      42.729  22.092  27.047  1.00  0.00     0.198 A 
ATOM     92  F   UNL A   1      42.280  23.338  28.962  1.00  0.00    -0.203 F 
ATOM     93  F   UNL A   1      44.043  23.065  23.828  1.00  0.00    -0.200 F 
ATOM     94  C   UNL A   1      43.199  21.998  25.752  1.00  0.00     0.200 A 
ATOM     95  F   UNL A   1      42.423  20.981  27.733  1.00  0.00    -0.200 F 
ATOM     96  F   UNL A   1      43.356  20.798  25.178  1.00  0.00    -0.200 F 
ENDBRANCH  62  86
BRANCH  74  97
ATOM     97  C   UNL A   1      45.899  29.824  28.759  1.00  0.00     0.064 A 
ATOM     98  C   UNL A   1      44.840  30.456  28.087  1.00  0.00     0.173 A 
ATOM     99  C   UNL A   1      47.204  30.180  28.392  1.00  0.00     0.173 A 
ATOM    100  F   UNL A   1      43.568  30.246  28.455  1.00  0.00    -0.203 F 
ATOM    101  C   UNL A   1      45.080  31.360  27.054  1.00  0.00     0.198 A 
ATOM    102  C   UNL A   1      47.441  31.110  27.384  1.00  0.00     0.198 A 
ATOM    103  F   UNL A   1      48.253  29.653  29.044  1.00  0.00    -0.203 F 
ATOM    104  F   UNL A   1      44.052  31.938  26.413  1.00  0.00    -0.200 F 
ATOM    105  C   UNL A   1      46.380  31.690  26.707  1.00  0.00     0.200 A 
ATOM    106  F   UNL A   1      48.699  31.463  27.084  1.00  0.00    -0.200 F 
ATOM    107  F   UNL A   1      46.611  32.585  25.737  1.00  0.00    -0.200 F 
ENDBRANCH  74  97
ENDBRANCH  48  49
ENDBRANCH  41  43
ENDBRANCH  40  41
ENDBRANCH  39  40
ENDBRANCH  38  39
ENDBRANCH  37  38
ENDBRANCH  36  37
ENDBRANCH   1  36
TORSDOF 22
ENDMDL
