MODEL 1
REMARK VINA RESULT:     -11.4      0.000      0.000
REMARK SMILES O=C(OCCOCCOCCOC(=O)c1cc(=O)[nH]c2c(Br)cccc12)c1ccc(-c2c3nc(c(-c4c(F)c(F)c(F)c(F)c4F)c4ccc([nH]4)c(-c4c(F)c(F)c(F)c(F)c4F)c4nc(c(-c5c(F)c(F)c(F)c(F)c5F)c5ccc2[nH]5)C=C4)C=C3)cc1
REMARK SMILES IDX 7 1 6 2 5 3 4 4 3 5 2 6 1 7 27 8 28 9 89 10 29 11 88 12
REMARK SMILES IDX 30 13 31 14 32 15 82 16 33 17 87 18 81 19 83 20 34 21 86 22
REMARK SMILES IDX 80 23 79 24 35 26 67 27 47 28 66 29 48 30 51 31 65 32 84 33
REMARK SMILES IDX 49 34 50 35 64 37 85 38 52 39 36 40 37 41 45 42 38 43 39 44
REMARK SMILES IDX 43 45 46 46 40 47 41 48 44 49 42 50 68 51 69 52 77 53 70 54
REMARK SMILES IDX 71 55 75 56 78 57 72 58 73 59 76 60 74 61 53 62 54 63 62 64
REMARK SMILES IDX 55 65 56 66 60 67 63 68 57 69 58 70 61 71 59 72 8 73 9 74
REMARK SMILES IDX 10 75 11 76 12 77 13 78 14 79 15 80 16 81 26 82 17 83 20 84
REMARK SMILES IDX 25 85 18 86 19 87 21 88 24 89 22 91 23 92
REMARK H PARENT 83 25 51 36 19 90
REMARK Flexibility Score: inf
ROOT
ATOM      1  C   UNL A   1      40.822  21.807  27.125  1.00  0.00     0.188 C 
ENDROOT
BRANCH   1   2
ATOM      2  O   UNL A   1      41.620  21.254  26.096  1.00  0.00    -0.376 OA
BRANCH   2   3
ATOM      3  C   UNL A   1      43.029  21.324  26.189  1.00  0.00     0.202 C 
BRANCH   3   4
ATOM      4  C   UNL A   1      43.802  22.323  25.320  1.00  0.00     0.261 C 
BRANCH   4   5
ATOM      5  O   UNL A   1      43.091  23.499  24.907  1.00  0.00    -0.460 OA
BRANCH   5   6
ATOM      6  C   UNL A   1      43.625  24.745  25.028  1.00  0.00     0.338 C 
ATOM      7  O   UNL A   1      44.746  25.010  24.611  1.00  0.00    -0.246 OA
BRANCH   6   8
ATOM      8  C   UNL A   1      42.980  25.625  26.036  1.00  0.00     0.060 A 
ATOM      9  C   UNL A   1      41.887  25.109  26.754  1.00  0.00     0.016 A 
ATOM     10  C   UNL A   1      43.394  26.936  26.266  1.00  0.00     0.016 A 
ATOM     11  C   UNL A   1      41.193  25.914  27.664  1.00  0.00     0.010 A 
ATOM     12  C   UNL A   1      42.668  27.759  27.124  1.00  0.00     0.010 A 
ATOM     13  C   UNL A   1      41.583  27.247  27.851  1.00  0.00    -0.014 A 
BRANCH  13  14
ATOM     14  C   UNL A   1      41.100  28.030  29.008  1.00  0.00     0.031 A 
ATOM     15  C   UNL A   1      39.980  29.017  28.920  1.00  0.00     0.074 A 
ATOM     16  C   UNL A   1      41.806  27.893  30.145  1.00  0.00     0.049 A 
ATOM     17  N   UNL A   1      39.440  29.713  29.888  1.00  0.00    -0.248 NA
ATOM     18  C   UNL A   1      39.398  29.270  27.596  1.00  0.00     0.031 C 
ATOM     19  C   UNL A   1      42.963  27.006  30.306  1.00  0.00     0.029 A 
ATOM     20  N   UNL A   1      41.694  28.519  31.357  1.00  0.00    -0.354 N 
ATOM     21  C   UNL A   1      38.414  30.442  29.306  1.00  0.00     0.074 A 
ATOM     22  C   UNL A   1      38.455  30.162  27.887  1.00  0.00     0.031 C 
ATOM     23  C   UNL A   1      43.479  27.177  31.529  1.00  0.00     0.029 A 
ATOM     24  C   UNL A   1      42.678  28.163  32.244  1.00  0.00     0.049 A 
ATOM     25  H   UNL A   1      40.979  29.161  31.571  1.00  0.00     0.167 HD
ATOM     26  C   UNL A   1      37.516  31.248  29.920  1.00  0.00     0.037 A 
ATOM     27  C   UNL A   1      42.906  28.576  33.503  1.00  0.00     0.037 A 
ATOM     28  C   UNL A   1      37.548  31.579  31.320  1.00  0.00     0.049 A 
ATOM     29  C   UNL A   1      41.931  29.520  34.140  1.00  0.00     0.074 A 
ATOM     30  C   UNL A   1      36.659  32.358  32.040  1.00  0.00     0.029 A 
ATOM     31  N   UNL A   1      38.542  31.183  32.201  1.00  0.00    -0.354 N 
ATOM     32  N   UNL A   1      40.860  30.066  33.621  1.00  0.00    -0.248 NA
ATOM     33  C   UNL A   1      42.175  29.882  35.542  1.00  0.00     0.031 C 
ATOM     34  C   UNL A   1      37.146  32.481  33.344  1.00  0.00     0.029 A 
ATOM     35  C   UNL A   1      38.309  31.734  33.450  1.00  0.00     0.049 A 
ATOM     36  H   UNL A   1      39.300  30.597  31.974  1.00  0.00     0.167 HD
ATOM     37  C   UNL A   1      40.277  30.804  34.640  1.00  0.00     0.074 A 
ATOM     38  C   UNL A   1      41.116  30.635  35.809  1.00  0.00     0.031 C 
ATOM     39  C   UNL A   1      39.147  31.547  34.607  1.00  0.00     0.037 A 
BRANCH  26  40
ATOM     40  C   UNL A   1      36.380  31.811  29.118  1.00  0.00     0.064 A 
ATOM     41  C   UNL A   1      35.302  30.990  28.752  1.00  0.00     0.173 A 
ATOM     42  C   UNL A   1      36.272  33.188  28.883  1.00  0.00     0.173 A 
ATOM     43  F   UNL A   1      35.347  29.671  28.999  1.00  0.00    -0.203 F 
ATOM     44  C   UNL A   1      34.160  31.530  28.164  1.00  0.00     0.198 A 
ATOM     45  C   UNL A   1      35.120  33.726  28.312  1.00  0.00     0.198 A 
ATOM     46  F   UNL A   1      37.255  34.019  29.263  1.00  0.00    -0.203 F 
ATOM     47  F   UNL A   1      33.134  30.732  27.835  1.00  0.00    -0.200 F 
ATOM     48  C   UNL A   1      34.068  32.897  27.950  1.00  0.00     0.200 A 
ATOM     49  F   UNL A   1      35.012  35.052  28.148  1.00  0.00    -0.200 F 
ATOM     50  F   UNL A   1      32.954  33.422  27.421  1.00  0.00    -0.200 F 
ENDBRANCH  26  40
BRANCH  27  51
ATOM     51  C   UNL A   1      44.055  28.009  34.246  1.00  0.00     0.064 A 
ATOM     52  C   UNL A   1      45.251  28.729  34.366  1.00  0.00     0.173 A 
ATOM     53  C   UNL A   1      43.958  26.781  34.917  1.00  0.00     0.173 A 
ATOM     54  F   UNL A   1      45.385  29.908  33.743  1.00  0.00    -0.203 F 
ATOM     55  C   UNL A   1      46.312  28.237  35.120  1.00  0.00     0.198 A 
ATOM     56  C   UNL A   1      45.012  26.302  35.692  1.00  0.00     0.198 A 
ATOM     57  F   UNL A   1      42.824  26.067  34.853  1.00  0.00    -0.203 F 
ATOM     58  F   UNL A   1      47.452  28.936  35.200  1.00  0.00    -0.200 F 
ATOM     59  C   UNL A   1      46.189  27.028  35.789  1.00  0.00     0.200 A 
ATOM     60  F   UNL A   1      44.880  25.146  36.358  1.00  0.00    -0.200 F 
ATOM     61  F   UNL A   1      47.205  26.564  36.530  1.00  0.00    -0.200 F 
ENDBRANCH  27  51
BRANCH  39  62
ATOM     62  C   UNL A   1      38.724  32.234  35.869  1.00  0.00     0.064 A 
ATOM     63  C   UNL A   1      38.068  31.536  36.892  1.00  0.00     0.173 A 
ATOM     64  C   UNL A   1      39.082  33.570  36.102  1.00  0.00     0.173 A 
ATOM     65  F   UNL A   1      37.696  30.260  36.708  1.00  0.00    -0.203 F 
ATOM     66  C   UNL A   1      37.788  32.152  38.108  1.00  0.00     0.198 A 
ATOM     67  C   UNL A   1      38.825  34.175  37.329  1.00  0.00     0.198 A 
ATOM     68  F   UNL A   1      39.718  34.276  35.155  1.00  0.00    -0.203 F 
ATOM     69  F   UNL A   1      37.143  31.473  39.067  1.00  0.00    -0.200 F 
ATOM     70  C   UNL A   1      38.179  33.465  38.330  1.00  0.00     0.200 A 
ATOM     71  F   UNL A   1      39.219  35.436  37.549  1.00  0.00    -0.200 F 
ATOM     72  F   UNL A   1      37.934  34.046  39.512  1.00  0.00    -0.200 F 
ENDBRANCH  39  62
ENDBRANCH  13  14
ENDBRANCH   6   8
ENDBRANCH   5   6
ENDBRANCH   4   5
ENDBRANCH   3   4
ENDBRANCH   2   3
ENDBRANCH   1   2
BRANCH   1  73
ATOM     73  C   UNL A   1      39.449  22.407  26.812  1.00  0.00     0.188 C 
BRANCH  73  74
ATOM     74  O   UNL A   1      38.513  21.708  26.019  1.00  0.00    -0.376 OA
BRANCH  74  75
ATOM     75  C   UNL A   1      37.676  22.398  25.112  1.00  0.00     0.202 C 
BRANCH  75  76
ATOM     76  C   UNL A   1      36.178  22.566  25.391  1.00  0.00     0.261 C 
BRANCH  76  77
ATOM     77  O   UNL A   1      35.612  23.851  25.098  1.00  0.00    -0.460 OA
BRANCH  77  78
ATOM     78  C   UNL A   1      34.281  23.988  25.311  1.00  0.00     0.339 C 
ATOM     79  O   UNL A   1      33.602  23.350  26.123  1.00  0.00    -0.246 OA
BRANCH  78  80
ATOM     80  C   UNL A   1      33.710  25.010  24.419  1.00  0.00     0.074 A 
ATOM     81  C   UNL A   1      33.822  24.703  23.118  1.00  0.00     0.088 A 
ATOM     82  C   UNL A   1      32.955  26.205  24.843  1.00  0.00     0.014 A 
ATOM     83  C   UNL A   1      33.183  25.529  22.087  1.00  0.00     0.249 A 
ATOM     84  C   UNL A   1      32.367  27.010  23.851  1.00  0.00     0.063 A 
ATOM     85  C   UNL A   1      32.816  26.593  26.183  1.00  0.00     0.011 A 
ATOM     86  O   UNL A   1      33.298  25.207  20.906  1.00  0.00    -0.270 OA
ATOM     87  N   UNL A   1      32.502  26.632  22.503  1.00  0.00    -0.321 N 
ATOM     88  C   UNL A   1      31.658  28.170  24.202  1.00  0.00     0.042 A 
ATOM     89  C   UNL A   1      32.143  27.769  26.528  1.00  0.00     0.002 A 
ATOM     90  H   UNL A   1      32.077  27.198  21.819  1.00  0.00     0.170 HD
ATOM     91  Br  UNL A   1      30.808  29.249  22.893  1.00  0.00    -0.049 Br
ATOM     92  C   UNL A   1      31.559  28.555  25.539  1.00  0.00     0.018 A 
ENDBRANCH  78  80
ENDBRANCH  77  78
ENDBRANCH  76  77
ENDBRANCH  75  76
ENDBRANCH  74  75
ENDBRANCH  73  74
ENDBRANCH   1  73
TORSDOF 17
ENDMDL
MODEL 2
REMARK VINA RESULT:     -11.1      6.187     11.992
REMARK SMILES O=C(OCCOCCOCCOC(=O)c1cc(=O)[nH]c2c(Br)cccc12)c1ccc(-c2c3nc(c(-c4c(F)c(F)c(F)c(F)c4F)c4ccc([nH]4)c(-c4c(F)c(F)c(F)c(F)c4F)c4nc(c(-c5c(F)c(F)c(F)c(F)c5F)c5ccc2[nH]5)C=C4)C=C3)cc1
REMARK SMILES IDX 7 1 6 2 5 3 4 4 3 5 2 6 1 7 27 8 28 9 89 10 29 11 88 12
REMARK SMILES IDX 30 13 31 14 32 15 82 16 33 17 87 18 81 19 83 20 34 21 86 22
REMARK SMILES IDX 80 23 79 24 35 26 67 27 47 28 66 29 48 30 51 31 65 32 84 33
REMARK SMILES IDX 49 34 50 35 64 37 85 38 52 39 36 40 37 41 45 42 38 43 39 44
REMARK SMILES IDX 43 45 46 46 40 47 41 48 44 49 42 50 68 51 69 52 77 53 70 54
REMARK SMILES IDX 71 55 75 56 78 57 72 58 73 59 76 60 74 61 53 62 54 63 62 64
REMARK SMILES IDX 55 65 56 66 60 67 63 68 57 69 58 70 61 71 59 72 8 73 9 74
REMARK SMILES IDX 10 75 11 76 12 77 13 78 14 79 15 80 16 81 26 82 17 83 20 84
REMARK SMILES IDX 25 85 18 86 19 87 21 88 24 89 22 91 23 92
REMARK H PARENT 83 25 51 36 19 90
REMARK Flexibility Score: inf
ROOT
ATOM      1  C   UNL A   1      43.141  35.334  31.319  1.00  0.00     0.188 C 
ENDROOT
BRANCH   1   2
ATOM      2  O   UNL A   1      43.639  36.617  31.646  1.00  0.00    -0.376 OA
BRANCH   2   3
ATOM      3  C   UNL A   1      43.921  37.542  30.616  1.00  0.00     0.202 C 
BRANCH   3   4
ATOM      4  C   UNL A   1      45.376  37.900  30.291  1.00  0.00     0.261 C 
BRANCH   4   5
ATOM      5  O   UNL A   1      45.894  37.417  29.043  1.00  0.00    -0.460 OA
BRANCH   5   6
ATOM      6  C   UNL A   1      46.757  36.367  28.977  1.00  0.00     0.338 C 
ATOM      7  O   UNL A   1      47.936  36.519  28.684  1.00  0.00    -0.246 OA
BRANCH   6   8
ATOM      8  C   UNL A   1      46.128  35.025  28.862  1.00  0.00     0.060 A 
ATOM      9  C   UNL A   1      45.128  34.850  27.890  1.00  0.00     0.016 A 
ATOM     10  C   UNL A   1      46.469  33.961  29.695  1.00  0.00     0.016 A 
ATOM     11  C   UNL A   1      44.450  33.631  27.783  1.00  0.00     0.010 A 
ATOM     12  C   UNL A   1      45.753  32.767  29.634  1.00  0.00     0.010 A 
ATOM     13  C   UNL A   1      44.761  32.583  28.659  1.00  0.00    -0.014 A 
BRANCH  13  14
ATOM     14  C   UNL A   1      44.312  31.201  28.389  1.00  0.00     0.031 A 
ATOM     15  C   UNL A   1      45.052  30.258  27.496  1.00  0.00     0.074 A 
ATOM     16  C   UNL A   1      43.116  30.861  28.904  1.00  0.00     0.049 A 
ATOM     17  N   UNL A   1      44.775  29.004  27.238  1.00  0.00    -0.248 NA
ATOM     18  C   UNL A   1      46.237  30.771  26.796  1.00  0.00     0.031 C 
ATOM     19  C   UNL A   1      42.284  31.742  29.729  1.00  0.00     0.029 A 
ATOM     20  N   UNL A   1      42.373  29.719  28.781  1.00  0.00    -0.354 N 
ATOM     21  C   UNL A   1      45.782  28.558  26.396  1.00  0.00     0.074 A 
ATOM     22  C   UNL A   1      46.636  29.694  26.125  1.00  0.00     0.031 C 
ATOM     23  C   UNL A   1      41.128  31.125  30.002  1.00  0.00     0.029 A 
ATOM     24  C   UNL A   1      41.148  29.800  29.394  1.00  0.00     0.049 A 
ATOM     25  H   UNL A   1      42.685  28.918  28.301  1.00  0.00     0.167 HD
ATOM     26  C   UNL A   1      45.973  27.305  25.921  1.00  0.00     0.037 A 
ATOM     27  C   UNL A   1      40.151  28.901  29.468  1.00  0.00     0.037 A 
ATOM     28  C   UNL A   1      45.062  26.210  26.134  1.00  0.00     0.049 A 
ATOM     29  C   UNL A   1      40.361  27.540  28.878  1.00  0.00     0.074 A 
ATOM     30  C   UNL A   1      45.189  24.895  25.724  1.00  0.00     0.029 A 
ATOM     31  N   UNL A   1      43.841  26.315  26.781  1.00  0.00    -0.354 N 
ATOM     32  N   UNL A   1      41.402  27.078  28.231  1.00  0.00    -0.248 NA
ATOM     33  C   UNL A   1      39.278  26.564  29.052  1.00  0.00     0.031 C 
ATOM     34  C   UNL A   1      44.018  24.217  26.071  1.00  0.00     0.029 A 
ATOM     35  C   UNL A   1      43.186  25.095  26.747  1.00  0.00     0.049 A 
ATOM     36  H   UNL A   1      43.492  27.133  27.202  1.00  0.00     0.167 HD
ATOM     37  C   UNL A   1      41.121  25.749  27.955  1.00  0.00     0.074 A 
ATOM     38  C   UNL A   1      39.808  25.478  28.507  1.00  0.00     0.031 C 
ATOM     39  C   UNL A   1      41.885  24.838  27.309  1.00  0.00     0.037 A 
BRANCH  26  40
ATOM     40  C   UNL A   1      47.227  27.002  25.156  1.00  0.00     0.064 A 
ATOM     41  C   UNL A   1      47.405  27.518  23.864  1.00  0.00     0.173 A 
ATOM     42  C   UNL A   1      48.316  26.372  25.772  1.00  0.00     0.173 A 
ATOM     43  F   UNL A   1      46.400  28.167  23.254  1.00  0.00    -0.203 F 
ATOM     44  C   UNL A   1      48.629  27.397  23.208  1.00  0.00     0.198 A 
ATOM     45  C   UNL A   1      49.544  26.271  25.120  1.00  0.00     0.198 A 
ATOM     46  F   UNL A   1      48.210  25.909  27.027  1.00  0.00    -0.203 F 
ATOM     47  F   UNL A   1      48.785  27.909  21.978  1.00  0.00    -0.200 F 
ATOM     48  C   UNL A   1      49.698  26.779  23.839  1.00  0.00     0.200 A 
ATOM     49  F   UNL A   1      50.590  25.715  25.749  1.00  0.00    -0.200 F 
ATOM     50  F   UNL A   1      50.887  26.698  23.225  1.00  0.00    -0.200 F 
ENDBRANCH  26  40
BRANCH  27  51
ATOM     51  C   UNL A   1      38.921  29.256  30.214  1.00  0.00     0.064 A 
ATOM     52  C   UNL A   1      38.912  29.255  31.614  1.00  0.00     0.173 A 
ATOM     53  C   UNL A   1      37.760  29.681  29.551  1.00  0.00     0.173 A 
ATOM     54  F   UNL A   1      40.001  28.858  32.289  1.00  0.00    -0.203 F 
ATOM     55  C   UNL A   1      37.784  29.655  32.326  1.00  0.00     0.198 A 
ATOM     56  C   UNL A   1      36.641  30.105  30.263  1.00  0.00     0.198 A 
ATOM     57  F   UNL A   1      37.729  29.725  28.209  1.00  0.00    -0.203 F 
ATOM     58  F   UNL A   1      37.795  29.623  33.665  1.00  0.00    -0.200 F 
ATOM     59  C   UNL A   1      36.653  30.086  31.650  1.00  0.00     0.200 A 
ATOM     60  F   UNL A   1      35.559  30.546  29.608  1.00  0.00    -0.200 F 
ATOM     61  F   UNL A   1      35.574  30.488  32.336  1.00  0.00    -0.200 F 
ENDBRANCH  27  51
BRANCH  39  62
ATOM     62  C   UNL A   1      41.346  23.449  27.164  1.00  0.00     0.064 A 
ATOM     63  C   UNL A   1      40.237  23.180  26.350  1.00  0.00     0.173 A 
ATOM     64  C   UNL A   1      42.016  22.364  27.751  1.00  0.00     0.173 A 
ATOM     65  F   UNL A   1      39.560  24.187  25.778  1.00  0.00    -0.203 F 
ATOM     66  C   UNL A   1      39.819  21.872  26.126  1.00  0.00     0.198 A 
ATOM     67  C   UNL A   1      41.611  21.056  27.503  1.00  0.00     0.198 A 
ATOM     68  F   UNL A   1      43.086  22.572  28.532  1.00  0.00    -0.203 F 
ATOM     69  F   UNL A   1      38.745  21.637  25.359  1.00  0.00    -0.200 F 
ATOM     70  C   UNL A   1      40.513  20.812  26.690  1.00  0.00     0.200 A 
ATOM     71  F   UNL A   1      42.294  20.033  28.033  1.00  0.00    -0.200 F 
ATOM     72  F   UNL A   1      40.126  19.552  26.449  1.00  0.00    -0.200 F 
ENDBRANCH  39  62
ENDBRANCH  13  14
ENDBRANCH   6   8
ENDBRANCH   5   6
ENDBRANCH   4   5
ENDBRANCH   3   4
ENDBRANCH   2   3
ENDBRANCH   1   2
BRANCH   1  73
ATOM     73  C   UNL A   1      42.875  34.296  32.412  1.00  0.00     0.188 C 
BRANCH  73  74
ATOM     74  O   UNL A   1      41.617  34.216  33.048  1.00  0.00    -0.376 OA
BRANCH  74  75
ATOM     75  C   UNL A   1      41.030  32.961  33.331  1.00  0.00     0.202 C 
BRANCH  75  76
ATOM     76  C   UNL A   1      39.912  32.830  34.372  1.00  0.00     0.261 C 
BRANCH  76  77
ATOM     77  O   UNL A   1      38.575  32.711  33.864  1.00  0.00    -0.460 OA
BRANCH  77  78
ATOM     78  C   UNL A   1      37.892  33.868  33.684  1.00  0.00     0.339 C 
ATOM     79  O   UNL A   1      38.148  34.956  34.209  1.00  0.00    -0.246 OA
BRANCH  78  80
ATOM     80  C   UNL A   1      36.756  33.667  32.770  1.00  0.00     0.074 A 
ATOM     81  C   UNL A   1      35.572  33.608  33.398  1.00  0.00     0.088 A 
ATOM     82  C   UNL A   1      36.823  33.662  31.295  1.00  0.00     0.014 A 
ATOM     83  C   UNL A   1      34.315  33.559  32.640  1.00  0.00     0.249 A 
ATOM     84  C   UNL A   1      35.618  33.588  30.573  1.00  0.00     0.063 A 
ATOM     85  C   UNL A   1      38.026  33.703  30.578  1.00  0.00     0.011 A 
ATOM     86  O   UNL A   1      33.249  33.519  33.252  1.00  0.00    -0.270 OA
ATOM     87  N   UNL A   1      34.404  33.544  31.282  1.00  0.00    -0.321 N 
ATOM     88  C   UNL A   1      35.630  33.557  29.169  1.00  0.00     0.042 A 
ATOM     89  C   UNL A   1      38.038  33.633  29.182  1.00  0.00     0.002 A 
ATOM     90  H   UNL A   1      33.568  33.503  30.765  1.00  0.00     0.170 HD
ATOM     91  Br  UNL A   1      34.021  33.510  28.164  1.00  0.00    -0.049 Br
ATOM     92  C   UNL A   1      36.840  33.566  28.476  1.00  0.00     0.018 A 
ENDBRANCH  78  80
ENDBRANCH  77  78
ENDBRANCH  76  77
ENDBRANCH  75  76
ENDBRANCH  74  75
ENDBRANCH  73  74
ENDBRANCH   1  73
TORSDOF 17
ENDMDL
MODEL 3
REMARK VINA RESULT:     -11.0      4.322      6.740
REMARK SMILES O=C(OCCOCCOCCOC(=O)c1cc(=O)[nH]c2c(Br)cccc12)c1ccc(-c2c3nc(c(-c4c(F)c(F)c(F)c(F)c4F)c4ccc([nH]4)c(-c4c(F)c(F)c(F)c(F)c4F)c4nc(c(-c5c(F)c(F)c(F)c(F)c5F)c5ccc2[nH]5)C=C4)C=C3)cc1
REMARK SMILES IDX 7 1 6 2 5 3 4 4 3 5 2 6 1 7 27 8 28 9 89 10 29 11 88 12
REMARK SMILES IDX 30 13 31 14 32 15 82 16 33 17 87 18 81 19 83 20 34 21 86 22
REMARK SMILES IDX 80 23 79 24 35 26 67 27 47 28 66 29 48 30 51 31 65 32 84 33
REMARK SMILES IDX 49 34 50 35 64 37 85 38 52 39 36 40 37 41 45 42 38 43 39 44
REMARK SMILES IDX 43 45 46 46 40 47 41 48 44 49 42 50 68 51 69 52 77 53 70 54
REMARK SMILES IDX 71 55 75 56 78 57 72 58 73 59 76 60 74 61 53 62 54 63 62 64
REMARK SMILES IDX 55 65 56 66 60 67 63 68 57 69 58 70 61 71 59 72 8 73 9 74
REMARK SMILES IDX 10 75 11 76 12 77 13 78 14 79 15 80 16 81 26 82 17 83 20 84
REMARK SMILES IDX 25 85 18 86 19 87 21 88 24 89 22 91 23 92
REMARK H PARENT 83 25 51 36 19 90
REMARK Flexibility Score: inf
ROOT
ATOM      1  C   UNL A   1      43.276  18.986  25.999  1.00  0.00     0.188 C 
ENDROOT
BRANCH   1   2
ATOM      2  O   UNL A   1      41.886  18.886  25.763  1.00  0.00    -0.376 OA
BRANCH   2   3
ATOM      3  C   UNL A   1      40.988  19.673  26.520  1.00  0.00     0.202 C 
BRANCH   3   4
ATOM      4  C   UNL A   1      40.080  20.686  25.813  1.00  0.00     0.261 C 
BRANCH   4   5
ATOM      5  O   UNL A   1      40.200  22.055  26.226  1.00  0.00    -0.460 OA
BRANCH   5   6
ATOM      6  C   UNL A   1      39.120  22.877  26.324  1.00  0.00     0.338 C 
ATOM      7  O   UNL A   1      38.123  22.718  25.631  1.00  0.00    -0.246 OA
BRANCH   6   8
ATOM      8  C   UNL A   1      39.367  24.186  26.982  1.00  0.00     0.060 A 
ATOM      9  C   UNL A   1      38.883  24.366  28.289  1.00  0.00     0.016 A 
ATOM     10  C   UNL A   1      40.024  25.237  26.344  1.00  0.00     0.016 A 
ATOM     11  C   UNL A   1      39.021  25.600  28.933  1.00  0.00     0.010 A 
ATOM     12  C   UNL A   1      40.108  26.485  26.957  1.00  0.00     0.010 A 
ATOM     13  C   UNL A   1      39.635  26.668  28.265  1.00  0.00    -0.014 A 
BRANCH  13  14
ATOM     14  C   UNL A   1      40.085  27.870  28.997  1.00  0.00     0.031 A 
ATOM     15  C   UNL A   1      39.224  29.074  29.205  1.00  0.00     0.074 A 
ATOM     16  C   UNL A   1      41.376  27.877  29.378  1.00  0.00     0.049 A 
ATOM     17  N   UNL A   1      39.501  30.159  29.884  1.00  0.00    -0.248 NA
ATOM     18  C   UNL A   1      37.897  29.079  28.574  1.00  0.00     0.031 C 
ATOM     19  C   UNL A   1      42.317  26.775  29.153  1.00  0.00     0.029 A 
ATOM     20  N   UNL A   1      42.132  28.842  29.986  1.00  0.00    -0.354 N 
ATOM     21  C   UNL A   1      38.366  30.952  29.816  1.00  0.00     0.074 A 
ATOM     22  C   UNL A   1      37.421  30.258  28.967  1.00  0.00     0.031 C 
ATOM     23  C   UNL A   1      43.532  27.142  29.577  1.00  0.00     0.029 A 
ATOM     24  C   UNL A   1      43.451  28.491  30.124  1.00  0.00     0.049 A 
ATOM     25  H   UNL A   1      41.766  29.703  30.293  1.00  0.00     0.167 HD
ATOM     26  C   UNL A   1      38.142  32.136  30.431  1.00  0.00     0.037 A 
ATOM     27  C   UNL A   1      44.484  29.177  30.645  1.00  0.00     0.037 A 
ATOM     28  C   UNL A   1      39.128  32.849  31.201  1.00  0.00     0.049 A 
ATOM     29  C   UNL A   1      44.222  30.516  31.263  1.00  0.00     0.074 A 
ATOM     30  C   UNL A   1      38.983  34.038  31.893  1.00  0.00     0.029 A 
ATOM     31  N   UNL A   1      40.449  32.457  31.346  1.00  0.00    -0.354 N 
ATOM     32  N   UNL A   1      43.094  31.176  31.344  1.00  0.00    -0.248 NA
ATOM     33  C   UNL A   1      45.364  31.193  31.892  1.00  0.00     0.031 C 
ATOM     34  C   UNL A   1      40.231  34.396  32.409  1.00  0.00     0.029 A 
ATOM     35  C   UNL A   1      41.141  33.402  32.085  1.00  0.00     0.049 A 
ATOM     36  H   UNL A   1      40.838  31.630  30.979  1.00  0.00     0.167 HD
ATOM     37  C   UNL A   1      43.376  32.326  32.064  1.00  0.00     0.074 A 
ATOM     38  C   UNL A   1      44.785  32.273  32.399  1.00  0.00     0.031 C 
ATOM     39  C   UNL A   1      42.540  33.330  32.419  1.00  0.00     0.037 A 
BRANCH  26  40
ATOM     40  C   UNL A   1      36.774  32.746  30.355  1.00  0.00     0.064 A 
ATOM     41  C   UNL A   1      35.919  32.698  31.466  1.00  0.00     0.173 A 
ATOM     42  C   UNL A   1      36.392  33.534  29.261  1.00  0.00     0.173 A 
ATOM     43  F   UNL A   1      36.267  31.989  32.553  1.00  0.00    -0.203 F 
ATOM     44  C   UNL A   1      34.720  33.407  31.478  1.00  0.00     0.198 A 
ATOM     45  C   UNL A   1      35.200  34.257  29.285  1.00  0.00     0.198 A 
ATOM     46  F   UNL A   1      37.200  33.652  28.197  1.00  0.00    -0.203 F 
ATOM     47  F   UNL A   1      33.922  33.361  32.555  1.00  0.00    -0.200 F 
ATOM     48  C   UNL A   1      34.364  34.190  30.389  1.00  0.00     0.200 A 
ATOM     49  F   UNL A   1      34.880  35.051  28.252  1.00  0.00    -0.200 F 
ATOM     50  F   UNL A   1      33.230  34.905  30.416  1.00  0.00    -0.200 F 
ENDBRANCH  26  40
BRANCH  27  51
ATOM     51  C   UNL A   1      45.822  28.541  30.675  1.00  0.00     0.064 A 
ATOM     52  C   UNL A   1      46.141  27.598  31.659  1.00  0.00     0.173 A 
ATOM     53  C   UNL A   1      46.777  28.799  29.680  1.00  0.00     0.173 A 
ATOM     54  F   UNL A   1      45.256  27.319  32.628  1.00  0.00    -0.203 F 
ATOM     55  C   UNL A   1      47.369  26.943  31.656  1.00  0.00     0.198 A 
ATOM     56  C   UNL A   1      47.995  28.125  29.662  1.00  0.00     0.198 A 
ATOM     57  F   UNL A   1      46.507  29.676  28.700  1.00  0.00    -0.203 F 
ATOM     58  F   UNL A   1      47.656  26.061  32.622  1.00  0.00    -0.200 F 
ATOM     59  C   UNL A   1      48.292  27.201  30.653  1.00  0.00     0.200 A 
ATOM     60  F   UNL A   1      48.874  28.357  28.678  1.00  0.00    -0.200 F 
ATOM     61  F   UNL A   1      49.467  26.556  30.640  1.00  0.00    -0.200 F 
ENDBRANCH  27  51
BRANCH  39  62
ATOM     62  C   UNL A   1      43.104  34.459  33.225  1.00  0.00     0.064 A 
ATOM     63  C   UNL A   1      43.521  35.650  32.617  1.00  0.00     0.173 A 
ATOM     64  C   UNL A   1      43.117  34.390  34.627  1.00  0.00     0.173 A 
ATOM     65  F   UNL A   1      43.536  35.756  31.280  1.00  0.00    -0.203 F 
ATOM     66  C   UNL A   1      43.930  36.736  33.384  1.00  0.00     0.198 A 
ATOM     67  C   UNL A   1      43.500  35.488  35.392  1.00  0.00     0.198 A 
ATOM     68  F   UNL A   1      42.720  33.273  35.254  1.00  0.00    -0.203 F 
ATOM     69  F   UNL A   1      44.343  37.861  32.783  1.00  0.00    -0.200 F 
ATOM     70  C   UNL A   1      43.906  36.659  34.770  1.00  0.00     0.200 A 
ATOM     71  F   UNL A   1      43.459  35.418  36.729  1.00  0.00    -0.200 F 
ATOM     72  F   UNL A   1      44.272  37.717  35.506  1.00  0.00    -0.200 F 
ENDBRANCH  39  62
ENDBRANCH  13  14
ENDBRANCH   6   8
ENDBRANCH   5   6
ENDBRANCH   4   5
ENDBRANCH   3   4
ENDBRANCH   2   3
ENDBRANCH   1   2
BRANCH   1  73
ATOM     73  C   UNL A   1      44.277  18.827  24.851  1.00  0.00     0.188 C 
BRANCH  73  74
ATOM     74  O   UNL A   1      44.437  19.840  23.881  1.00  0.00    -0.376 OA
BRANCH  74  75
ATOM     75  C   UNL A   1      45.101  21.047  24.199  1.00  0.00     0.202 C 
BRANCH  75  76
ATOM     76  C   UNL A   1      44.485  22.404  23.841  1.00  0.00     0.261 C 
BRANCH  76  77
ATOM     77  O   UNL A   1      43.288  22.769  24.542  1.00  0.00    -0.460 OA
BRANCH  77  78
ATOM     78  C   UNL A   1      43.452  23.432  25.713  1.00  0.00     0.339 C 
ATOM     79  O   UNL A   1      43.200  22.996  26.840  1.00  0.00    -0.246 OA
BRANCH  78  80
ATOM     80  C   UNL A   1      43.970  24.790  25.477  1.00  0.00     0.074 A 
ATOM     81  C   UNL A   1      43.031  25.652  25.058  1.00  0.00     0.088 A 
ATOM     82  C   UNL A   1      45.336  25.260  25.780  1.00  0.00     0.014 A 
ATOM     83  C   UNL A   1      43.328  27.082  24.911  1.00  0.00     0.249 A 
ATOM     84  C   UNL A   1      45.624  26.626  25.612  1.00  0.00     0.063 A 
ATOM     85  C   UNL A   1      46.367  24.410  26.202  1.00  0.00     0.011 A 
ATOM     86  O   UNL A   1      42.437  27.842  24.537  1.00  0.00    -0.270 OA
ATOM     87  N   UNL A   1      44.597  27.489  25.186  1.00  0.00    -0.321 N 
ATOM     88  C   UNL A   1      46.914  27.119  25.866  1.00  0.00     0.042 A 
ATOM     89  C   UNL A   1      47.661  24.895  26.416  1.00  0.00     0.002 A 
ATOM     90  H   UNL A   1      44.809  28.444  25.083  1.00  0.00     0.170 HD
ATOM     91  Br  UNL A   1      47.323  28.964  25.700  1.00  0.00    -0.049 Br
ATOM     92  C   UNL A   1      47.934  26.251  26.254  1.00  0.00     0.018 A 
ENDBRANCH  78  80
ENDBRANCH  77  78
ENDBRANCH  76  77
ENDBRANCH  75  76
ENDBRANCH  74  75
ENDBRANCH  73  74
ENDBRANCH   1  73
TORSDOF 17
ENDMDL
