MODEL 1
REMARK VINA RESULT:     -10.7      0.000      0.000
REMARK SMILES O=C(CN(C(=O)[C@H]1CC[C@H]2CCCC[C@H]2[NH2+]1)C1CC1)OCCOCCOCCOC(=O)c1ccc(-c2c3nc(c(-c4c(F)c(F)c(F)c(F)c4F)c4ccc([nH]4)c(-c4c(F)c(F)c(F)c(F)c4F)c4nc(c(-c5c(F)c(F)c(F)c(F)c5F)c5ccc2[nH]5)C=C4)C=C3)cc1
REMARK SMILES IDX 24 1 23 2 22 3 21 4 20 5 2 6 1 7 3 8 4 9 5 10 6 11 7 12 8 13
REMARK SMILES IDX 16 14 9 15 15 16 10 19 14 20 11 21 13 22 12 23 17 24 18 25
REMARK SMILES IDX 19 26 25 27 26 28 27 29 28 30 29 31 30 32 31 33 32 34 33 35
REMARK SMILES IDX 94 36 34 37 93 38 35 39 36 40 37 41 87 42 38 43 92 44 86 45
REMARK SMILES IDX 88 46 39 47 91 48 85 49 84 50 40 52 72 53 52 54 71 55 53 56
REMARK SMILES IDX 56 57 70 58 89 59 54 60 55 61 69 63 90 64 57 65 41 66 42 67
REMARK SMILES IDX 50 68 43 69 44 70 48 71 51 72 45 73 46 74 49 75 47 76 73 77
REMARK SMILES IDX 74 78 82 79 75 80 76 81 80 82 83 83 77 84 78 85 81 86 79 87
REMARK SMILES IDX 58 88 59 89 67 90 60 91 61 92 65 93 68 94 62 95 63 96 66 97
REMARK SMILES IDX 64 98
REMARK H PARENT 16 17 16 18 88 51 56 62
REMARK Flexibility Score: inf
ROOT
ATOM      1  C   UNL A   1      41.063  20.447  27.433  1.00  0.00     0.188 C 
ENDROOT
BRANCH   1   2
ATOM      2  O   UNL A   1      40.049  21.422  27.190  1.00  0.00    -0.376 OA
BRANCH   2   3
ATOM      3  C   UNL A   1      39.500  21.339  25.871  1.00  0.00     0.202 C 
BRANCH   3   4
ATOM      4  C   UNL A   1      38.299  22.276  25.743  1.00  0.00     0.261 C 
BRANCH   4   5
ATOM      5  O   UNL A   1      37.651  22.143  24.465  1.00  0.00    -0.462 OA
BRANCH   5   6
ATOM      6  C   UNL A   1      36.631  22.940  24.063  1.00  0.00     0.325 C 
ATOM      7  O   UNL A   1      36.337  22.989  22.867  1.00  0.00    -0.250 OA
BRANCH   6   8
ATOM      8  C   UNL A   1      35.934  23.859  25.063  1.00  0.00     0.242 C 
BRANCH   8   9
ATOM      9  N   UNL A   1      34.514  23.598  25.360  1.00  0.00    -0.323 N 
BRANCH   9  10
ATOM     10  C   UNL A   1      33.442  24.145  24.636  1.00  0.00     0.281 C 
ATOM     11  O   UNL A   1      33.179  23.763  23.491  1.00  0.00    -0.268 OA
BRANCH  10  12
ATOM     12  C   UNL A   1      32.516  25.202  25.321  1.00  0.00     0.273 C 
ATOM     13  C   UNL A   1      33.371  26.358  25.860  1.00  0.00     0.076 C 
ATOM     14  N   UNL A   1      31.541  25.698  24.324  1.00  0.00    -0.333 N 
ATOM     15  C   UNL A   1      32.510  27.520  26.364  1.00  0.00     0.016 C 
ATOM     16  C   UNL A   1      30.646  26.717  24.885  1.00  0.00     0.186 C 
ATOM     17  H   UNL A   1      30.979  24.913  23.995  1.00  0.00     0.347 HD
ATOM     18  H   UNL A   1      32.064  26.127  23.560  1.00  0.00     0.347 HD
ATOM     19  C   UNL A   1      31.454  27.947  25.331  1.00  0.00     0.048 C 
ATOM     20  C   UNL A   1      29.595  27.134  23.851  1.00  0.00     0.065 C 
ATOM     21  C   UNL A   1      32.090  28.685  24.136  1.00  0.00     0.010 C 
ATOM     22  C   UNL A   1      30.224  27.775  22.619  1.00  0.00     0.006 C 
ATOM     23  C   UNL A   1      31.125  28.954  22.978  1.00  0.00     0.001 C 
ENDBRANCH  10  12
ENDBRANCH   9  10
BRANCH   9  24
ATOM     24  C   UNL A   1      34.321  22.443  26.233  1.00  0.00     0.086 C 
ATOM     25  C   UNL A   1      33.392  22.583  27.418  1.00  0.00     0.027 C 
ATOM     26  C   UNL A   1      33.099  21.575  26.354  1.00  0.00     0.027 C 
ENDBRANCH   9  24
ENDBRANCH   8   9
ENDBRANCH   6   8
ENDBRANCH   5   6
ENDBRANCH   4   5
ENDBRANCH   3   4
ENDBRANCH   2   3
ENDBRANCH   1   2
BRANCH   1  27
ATOM     27  C   UNL A   1      41.686  19.800  26.189  1.00  0.00     0.188 C 
BRANCH  27  28
ATOM     28  O   UNL A   1      42.988  20.225  25.813  1.00  0.00    -0.376 OA
BRANCH  28  29
ATOM     29  C   UNL A   1      43.572  21.307  26.541  1.00  0.00     0.202 C 
BRANCH  29  30
ATOM     30  C   UNL A   1      44.794  21.980  25.911  1.00  0.00     0.261 C 
BRANCH  30  31
ATOM     31  O   UNL A   1      44.621  23.412  25.833  1.00  0.00    -0.460 OA
BRANCH  31  32
ATOM     32  C   UNL A   1      43.523  23.822  25.158  1.00  0.00     0.338 C 
ATOM     33  O   UNL A   1      43.085  23.387  24.109  1.00  0.00    -0.246 OA
BRANCH  32  34
ATOM     34  C   UNL A   1      42.834  24.885  25.906  1.00  0.00     0.060 A 
ATOM     35  C   UNL A   1      43.393  26.168  25.924  1.00  0.00     0.016 A 
ATOM     36  C   UNL A   1      41.760  24.560  26.735  1.00  0.00     0.016 A 
ATOM     37  C   UNL A   1      42.902  27.125  26.814  1.00  0.00     0.010 A 
ATOM     38  C   UNL A   1      41.279  25.514  27.634  1.00  0.00     0.010 A 
ATOM     39  C   UNL A   1      41.875  26.786  27.706  1.00  0.00    -0.014 A 
BRANCH  39  40
ATOM     40  C   UNL A   1      41.518  27.691  28.824  1.00  0.00     0.031 A 
ATOM     41  C   UNL A   1      42.287  27.598  30.112  1.00  0.00     0.074 A 
ATOM     42  C   UNL A   1      40.493  28.551  28.711  1.00  0.00     0.049 A 
ATOM     43  N   UNL A   1      42.075  28.202  31.254  1.00  0.00    -0.248 NA
ATOM     44  C   UNL A   1      43.449  26.695  30.115  1.00  0.00     0.031 C 
ATOM     45  C   UNL A   1      39.688  28.750  27.510  1.00  0.00     0.029 A 
ATOM     46  N   UNL A   1      39.937  29.397  29.638  1.00  0.00    -0.354 N 
ATOM     47  C   UNL A   1      43.067  27.747  32.111  1.00  0.00     0.074 A 
ATOM     48  C   UNL A   1      43.873  26.803  31.366  1.00  0.00     0.031 C 
ATOM     49  C   UNL A   1      38.714  29.635  27.783  1.00  0.00     0.029 A 
ATOM     50  C   UNL A   1      38.813  30.039  29.185  1.00  0.00     0.049 A 
ATOM     51  H   UNL A   1      40.309  29.529  30.540  1.00  0.00     0.167 HD
ATOM     52  C   UNL A   1      43.286  28.086  33.404  1.00  0.00     0.037 A 
ATOM     53  C   UNL A   1      37.942  30.832  29.838  1.00  0.00     0.037 A 
ATOM     54  C   UNL A   1      42.484  29.022  34.146  1.00  0.00     0.049 A 
ATOM     55  C   UNL A   1      38.169  31.150  31.293  1.00  0.00     0.074 A 
ATOM     56  C   UNL A   1      42.654  29.465  35.446  1.00  0.00     0.029 A 
ATOM     57  N   UNL A   1      41.351  29.650  33.653  1.00  0.00    -0.354 N 
ATOM     58  N   UNL A   1      39.133  30.749  32.086  1.00  0.00    -0.248 NA
ATOM     59  C   UNL A   1      37.186  32.027  31.944  1.00  0.00     0.031 C 
ATOM     60  C   UNL A   1      41.595  30.326  35.756  1.00  0.00     0.029 A 
ATOM     61  C   UNL A   1      40.792  30.452  34.634  1.00  0.00     0.049 A 
ATOM     62  H   UNL A   1      40.995  29.542  32.741  1.00  0.00     0.167 HD
ATOM     63  C   UNL A   1      38.887  31.340  33.319  1.00  0.00     0.074 A 
ATOM     64  C   UNL A   1      37.684  32.133  33.168  1.00  0.00     0.031 C 
ATOM     65  C   UNL A   1      39.595  31.239  34.469  1.00  0.00     0.037 A 
BRANCH  52  66
ATOM     66  C   UNL A   1      44.428  27.418  34.109  1.00  0.00     0.064 A 
ATOM     67  C   UNL A   1      45.705  27.996  34.155  1.00  0.00     0.173 A 
ATOM     68  C   UNL A   1      44.233  26.196  34.770  1.00  0.00     0.173 A 
ATOM     69  F   UNL A   1      45.943  29.158  33.527  1.00  0.00    -0.203 F 
ATOM     70  C   UNL A   1      46.752  27.363  34.820  1.00  0.00     0.198 A 
ATOM     71  C   UNL A   1      45.277  25.577  35.452  1.00  0.00     0.198 A 
ATOM     72  F   UNL A   1      43.030  25.604  34.757  1.00  0.00    -0.203 F 
ATOM     73  F   UNL A   1      47.974  27.913  34.817  1.00  0.00    -0.200 F 
ATOM     74  C   UNL A   1      46.537  26.158  35.471  1.00  0.00     0.200 A 
ATOM     75  F   UNL A   1      45.066  24.417  36.088  1.00  0.00    -0.200 F 
ATOM     76  F   UNL A   1      47.546  25.551  36.111  1.00  0.00    -0.200 F 
ENDBRANCH  52  66
BRANCH  53  77
ATOM     77  C   UNL A   1      36.754  31.361  29.123  1.00  0.00     0.064 A 
ATOM     78  C   UNL A   1      35.671  30.532  28.808  1.00  0.00     0.173 A 
ATOM     79  C   UNL A   1      36.680  32.710  28.746  1.00  0.00     0.173 A 
ATOM     80  F   UNL A   1      35.710  29.231  29.127  1.00  0.00    -0.203 F 
ATOM     81  C   UNL A   1      34.559  31.030  28.132  1.00  0.00     0.198 A 
ATOM     82  C   UNL A   1      35.559  33.212  28.090  1.00  0.00     0.198 A 
ATOM     83  F   UNL A   1      37.695  33.542  29.025  1.00  0.00    -0.203 F 
ATOM     84  F   UNL A   1      33.550  30.209  27.810  1.00  0.00    -0.200 F 
ATOM     85  C   UNL A   1      34.502  32.371  27.780  1.00  0.00     0.200 A 
ATOM     86  F   UNL A   1      35.503  34.509  27.759  1.00  0.00    -0.200 F 
ATOM     87  F   UNL A   1      33.430  32.850  27.134  1.00  0.00    -0.200 F 
ENDBRANCH  53  77
BRANCH  65  88
ATOM     88  C   UNL A   1      39.110  32.020  35.654  1.00  0.00     0.064 A 
ATOM     89  C   UNL A   1      38.294  31.434  36.633  1.00  0.00     0.173 A 
ATOM     90  C   UNL A   1      39.517  33.349  35.844  1.00  0.00     0.173 A 
ATOM     91  F   UNL A   1      37.868  30.171  36.488  1.00  0.00    -0.203 F 
ATOM     92  C   UNL A   1      37.894  32.156  37.755  1.00  0.00     0.198 A 
ATOM     93  C   UNL A   1      39.134  34.061  36.977  1.00  0.00     0.198 A 
ATOM     94  F   UNL A   1      40.303  33.950  34.938  1.00  0.00    -0.203 F 
ATOM     95  F   UNL A   1      37.090  31.588  38.663  1.00  0.00    -0.200 F 
ATOM     96  C   UNL A   1      38.320  33.465  37.929  1.00  0.00     0.200 A 
ATOM     97  F   UNL A   1      39.556  35.320  37.150  1.00  0.00    -0.200 F 
ATOM     98  F   UNL A   1      37.944  34.154  39.015  1.00  0.00    -0.200 F 
ENDBRANCH  65  88
ENDBRANCH  39  40
ENDBRANCH  32  34
ENDBRANCH  31  32
ENDBRANCH  30  31
ENDBRANCH  29  30
ENDBRANCH  28  29
ENDBRANCH  27  28
ENDBRANCH   1  27
TORSDOF 21
ENDMDL
MODEL 2
REMARK VINA RESULT:     -10.6      3.276      8.854
REMARK SMILES O=C(CN(C(=O)[C@H]1CC[C@H]2CCCC[C@H]2[NH2+]1)C1CC1)OCCOCCOCCOC(=O)c1ccc(-c2c3nc(c(-c4c(F)c(F)c(F)c(F)c4F)c4ccc([nH]4)c(-c4c(F)c(F)c(F)c(F)c4F)c4nc(c(-c5c(F)c(F)c(F)c(F)c5F)c5ccc2[nH]5)C=C4)C=C3)cc1
REMARK SMILES IDX 24 1 23 2 22 3 21 4 20 5 2 6 1 7 3 8 4 9 5 10 6 11 7 12 8 13
REMARK SMILES IDX 16 14 9 15 15 16 10 19 14 20 11 21 13 22 12 23 17 24 18 25
REMARK SMILES IDX 19 26 25 27 26 28 27 29 28 30 29 31 30 32 31 33 32 34 33 35
REMARK SMILES IDX 94 36 34 37 93 38 35 39 36 40 37 41 87 42 38 43 92 44 86 45
REMARK SMILES IDX 88 46 39 47 91 48 85 49 84 50 40 52 72 53 52 54 71 55 53 56
REMARK SMILES IDX 56 57 70 58 89 59 54 60 55 61 69 63 90 64 57 65 41 66 42 67
REMARK SMILES IDX 50 68 43 69 44 70 48 71 51 72 45 73 46 74 49 75 47 76 73 77
REMARK SMILES IDX 74 78 82 79 75 80 76 81 80 82 83 83 77 84 78 85 81 86 79 87
REMARK SMILES IDX 58 88 59 89 67 90 60 91 61 92 65 93 68 94 62 95 63 96 66 97
REMARK SMILES IDX 64 98
REMARK H PARENT 16 17 16 18 88 51 56 62
REMARK Flexibility Score: inf
ROOT
ATOM      1  C   UNL A   1      31.785  28.381  25.950  1.00  0.00     0.188 C 
ENDROOT
BRANCH   1   2
ATOM      2  O   UNL A   1      30.863  27.846  25.000  1.00  0.00    -0.376 OA
BRANCH   2   3
ATOM      3  C   UNL A   1      30.668  28.702  23.870  1.00  0.00     0.202 C 
BRANCH   3   4
ATOM      4  C   UNL A   1      31.097  27.985  22.590  1.00  0.00     0.261 C 
BRANCH   4   5
ATOM      5  O   UNL A   1      32.426  27.444  22.700  1.00  0.00    -0.462 OA
BRANCH   5   6
ATOM      6  C   UNL A   1      32.707  26.128  22.539  1.00  0.00     0.325 C 
ATOM      7  O   UNL A   1      33.844  25.789  22.207  1.00  0.00    -0.250 OA
BRANCH   6   8
ATOM      8  C   UNL A   1      31.597  25.085  22.650  1.00  0.00     0.242 C 
BRANCH   8   9
ATOM      9  N   UNL A   1      31.704  24.082  23.724  1.00  0.00    -0.323 N 
BRANCH   9  10
ATOM     10  C   UNL A   1      31.660  24.385  25.095  1.00  0.00     0.281 C 
ATOM     11  O   UNL A   1      30.607  24.723  25.645  1.00  0.00    -0.268 OA
BRANCH  10  12
ATOM     12  C   UNL A   1      32.952  24.217  25.959  1.00  0.00     0.273 C 
ATOM     13  C   UNL A   1      32.798  22.995  26.877  1.00  0.00     0.076 C 
ATOM     14  N   UNL A   1      34.111  24.043  25.054  1.00  0.00    -0.333 N 
ATOM     15  C   UNL A   1      34.102  22.656  27.603  1.00  0.00     0.016 C 
ATOM     16  C   UNL A   1      35.365  23.853  25.792  1.00  0.00     0.186 C 
ATOM     17  H   UNL A   1      34.197  24.873  24.468  1.00  0.00     0.347 HD
ATOM     18  H   UNL A   1      33.948  23.207  24.493  1.00  0.00     0.347 HD
ATOM     19  C   UNL A   1      35.296  22.570  26.637  1.00  0.00     0.048 C 
ATOM     20  C   UNL A   1      36.550  23.772  24.823  1.00  0.00     0.065 C 
ATOM     21  C   UNL A   1      35.231  21.303  25.760  1.00  0.00     0.010 C 
ATOM     22  C   UNL A   1      36.442  22.576  23.883  1.00  0.00     0.006 C 
ATOM     23  C   UNL A   1      36.273  21.261  24.640  1.00  0.00     0.001 C 
ENDBRANCH  10  12
ENDBRANCH   9  10
BRANCH   9  24
ATOM     24  C   UNL A   1      31.495  22.718  23.249  1.00  0.00     0.086 C 
ATOM     25  C   UNL A   1      32.571  22.077  22.402  1.00  0.00     0.027 C 
ATOM     26  C   UNL A   1      32.187  21.466  23.710  1.00  0.00     0.027 C 
ENDBRANCH   9  24
ENDBRANCH   8   9
ENDBRANCH   6   8
ENDBRANCH   5   6
ENDBRANCH   4   5
ENDBRANCH   3   4
ENDBRANCH   2   3
ENDBRANCH   1   2
BRANCH   1  27
ATOM     27  C   UNL A   1      32.506  29.671  25.537  1.00  0.00     0.188 C 
BRANCH  27  28
ATOM     28  O   UNL A   1      32.589  30.711  26.500  1.00  0.00    -0.376 OA
BRANCH  28  29
ATOM     29  C   UNL A   1      31.535  31.677  26.530  1.00  0.00     0.202 C 
BRANCH  29  30
ATOM     30  C   UNL A   1      31.852  33.021  27.191  1.00  0.00     0.261 C 
BRANCH  30  31
ATOM     31  O   UNL A   1      33.226  33.404  26.965  1.00  0.00    -0.460 OA
BRANCH  31  32
ATOM     32  C   UNL A   1      33.893  33.827  28.062  1.00  0.00     0.338 C 
ATOM     33  O   UNL A   1      33.611  34.757  28.795  1.00  0.00    -0.246 OA
BRANCH  32  34
ATOM     34  C   UNL A   1      35.044  32.951  28.327  1.00  0.00     0.060 A 
ATOM     35  C   UNL A   1      34.809  31.610  28.653  1.00  0.00     0.016 A 
ATOM     36  C   UNL A   1      36.320  33.503  28.441  1.00  0.00     0.016 A 
ATOM     37  C   UNL A   1      35.853  30.824  29.144  1.00  0.00     0.010 A 
ATOM     38  C   UNL A   1      37.360  32.718  28.944  1.00  0.00     0.010 A 
ATOM     39  C   UNL A   1      37.121  31.389  29.336  1.00  0.00    -0.014 A 
BRANCH  39  40
ATOM     40  C   UNL A   1      38.167  30.658  30.090  1.00  0.00     0.031 A 
ATOM     41  C   UNL A   1      38.414  31.016  31.529  1.00  0.00     0.074 A 
ATOM     42  C   UNL A   1      38.918  29.720  29.490  1.00  0.00     0.049 A 
ATOM     43  N   UNL A   1      39.349  30.594  32.343  1.00  0.00    -0.248 NA
ATOM     44  C   UNL A   1      37.485  31.987  32.129  1.00  0.00     0.031 C 
ATOM     45  C   UNL A   1      38.760  29.270  28.110  1.00  0.00     0.029 A 
ATOM     46  N   UNL A   1      39.988  29.002  29.963  1.00  0.00    -0.354 N 
ATOM     47  C   UNL A   1      39.128  31.254  33.544  1.00  0.00     0.074 A 
ATOM     48  C   UNL A   1      37.981  32.116  33.351  1.00  0.00     0.031 C 
ATOM     49  C   UNL A   1      39.725  28.375  27.834  1.00  0.00     0.029 A 
ATOM     50  C   UNL A   1      40.581  28.216  29.008  1.00  0.00     0.049 A 
ATOM     51  H   UNL A   1      40.298  29.046  30.897  1.00  0.00     0.167 HD
ATOM     52  C   UNL A   1      39.819  31.148  34.705  1.00  0.00     0.037 A 
ATOM     53  C   UNL A   1      41.709  27.482  29.066  1.00  0.00     0.037 A 
ATOM     54  C   UNL A   1      40.959  30.293  34.897  1.00  0.00     0.049 A 
ATOM     55  C   UNL A   1      42.498  27.425  30.348  1.00  0.00     0.074 A 
ATOM     56  C   UNL A   1      41.698  30.084  36.048  1.00  0.00     0.029 A 
ATOM     57  N   UNL A   1      41.533  29.514  33.904  1.00  0.00    -0.354 N 
ATOM     58  N   UNL A   1      42.259  28.018  31.493  1.00  0.00    -0.248 NA
ATOM     59  C   UNL A   1      43.715  26.600  30.345  1.00  0.00     0.031 C 
ATOM     60  C   UNL A   1      42.749  29.213  35.740  1.00  0.00     0.029 A 
ATOM     61  C   UNL A   1      42.638  28.847  34.408  1.00  0.00     0.049 A 
ATOM     62  H   UNL A   1      41.206  29.445  32.978  1.00  0.00     0.167 HD
ATOM     63  C   UNL A   1      43.278  27.622  32.350  1.00  0.00     0.074 A 
ATOM     64  C   UNL A   1      44.136  26.732  31.595  1.00  0.00     0.031 C 
ATOM     65  C   UNL A   1      43.481  27.961  33.645  1.00  0.00     0.037 A 
BRANCH  52  66
ATOM     66  C   UNL A   1      39.373  32.002  35.853  1.00  0.00     0.064 A 
ATOM     67  C   UNL A   1      38.426  31.550  36.783  1.00  0.00     0.173 A 
ATOM     68  C   UNL A   1      39.923  33.280  36.039  1.00  0.00     0.173 A 
ATOM     69  F   UNL A   1      37.862  30.341  36.639  1.00  0.00    -0.203 F 
ATOM     70  C   UNL A   1      38.028  32.356  37.847  1.00  0.00     0.198 A 
ATOM     71  C   UNL A   1      39.540  34.073  37.118  1.00  0.00     0.198 A 
ATOM     72  F   UNL A   1      40.835  33.756  35.179  1.00  0.00    -0.203 F 
ATOM     73  F   UNL A   1      37.091  31.921  38.701  1.00  0.00    -0.200 F 
ATOM     74  C   UNL A   1      38.588  33.614  38.016  1.00  0.00     0.200 A 
ATOM     75  F   UNL A   1      40.088  35.285  37.284  1.00  0.00    -0.200 F 
ATOM     76  F   UNL A   1      38.205  34.387  39.042  1.00  0.00    -0.200 F 
ENDBRANCH  52  66
BRANCH  53  77
ATOM     77  C   UNL A   1      42.175  26.760  27.856  1.00  0.00     0.064 A 
ATOM     78  C   UNL A   1      43.061  27.359  26.952  1.00  0.00     0.173 A 
ATOM     79  C   UNL A   1      41.746  25.452  27.585  1.00  0.00     0.173 A 
ATOM     80  F   UNL A   1      43.478  28.616  27.158  1.00  0.00    -0.203 F 
ATOM     81  C   UNL A   1      43.493  26.680  25.814  1.00  0.00     0.198 A 
ATOM     82  C   UNL A   1      42.195  24.767  26.460  1.00  0.00     0.198 A 
ATOM     83  F   UNL A   1      40.896  24.838  28.421  1.00  0.00    -0.203 F 
ATOM     84  F   UNL A   1      44.313  27.288  24.946  1.00  0.00    -0.200 F 
ATOM     85  C   UNL A   1      43.065  25.383  25.573  1.00  0.00     0.200 A 
ATOM     86  F   UNL A   1      41.786  23.511  26.234  1.00  0.00    -0.200 F 
ATOM     87  F   UNL A   1      43.485  24.730  24.481  1.00  0.00    -0.200 F 
ENDBRANCH  53  77
BRANCH  65  88
ATOM     88  C   UNL A   1      44.661  27.354  34.345  1.00  0.00     0.064 A 
ATOM     89  C   UNL A   1      45.901  28.007  34.391  1.00  0.00     0.173 A 
ATOM     90  C   UNL A   1      44.531  26.136  35.029  1.00  0.00     0.173 A 
ATOM     91  F   UNL A   1      46.078  29.166  33.740  1.00  0.00    -0.203 F 
ATOM     92  C   UNL A   1      46.973  27.456  35.088  1.00  0.00     0.198 A 
ATOM     93  C   UNL A   1      45.598  25.599  35.744  1.00  0.00     0.198 A 
ATOM     94  F   UNL A   1      43.362  25.477  35.019  1.00  0.00    -0.203 F 
ATOM     95  F   UNL A   1      48.158  28.080  35.095  1.00  0.00    -0.200 F 
ATOM     96  C   UNL A   1      46.818  26.257  35.771  1.00  0.00     0.200 A 
ATOM     97  F   UNL A   1      45.442  24.448  36.412  1.00  0.00    -0.200 F 
ATOM     98  F   UNL A   1      47.847  25.735  36.451  1.00  0.00    -0.200 F 
ENDBRANCH  65  88
ENDBRANCH  39  40
ENDBRANCH  32  34
ENDBRANCH  31  32
ENDBRANCH  30  31
ENDBRANCH  29  30
ENDBRANCH  28  29
ENDBRANCH  27  28
ENDBRANCH   1  27
TORSDOF 21
ENDMDL
MODEL 3
REMARK VINA RESULT:     -10.5      4.020      9.347
REMARK SMILES O=C(CN(C(=O)[C@H]1CC[C@H]2CCCC[C@H]2[NH2+]1)C1CC1)OCCOCCOCCOC(=O)c1ccc(-c2c3nc(c(-c4c(F)c(F)c(F)c(F)c4F)c4ccc([nH]4)c(-c4c(F)c(F)c(F)c(F)c4F)c4nc(c(-c5c(F)c(F)c(F)c(F)c5F)c5ccc2[nH]5)C=C4)C=C3)cc1
REMARK SMILES IDX 24 1 23 2 22 3 21 4 20 5 2 6 1 7 3 8 4 9 5 10 6 11 7 12 8 13
REMARK SMILES IDX 16 14 9 15 15 16 10 19 14 20 11 21 13 22 12 23 17 24 18 25
REMARK SMILES IDX 19 26 25 27 26 28 27 29 28 30 29 31 30 32 31 33 32 34 33 35
REMARK SMILES IDX 94 36 34 37 93 38 35 39 36 40 37 41 87 42 38 43 92 44 86 45
REMARK SMILES IDX 88 46 39 47 91 48 85 49 84 50 40 52 72 53 52 54 71 55 53 56
REMARK SMILES IDX 56 57 70 58 89 59 54 60 55 61 69 63 90 64 57 65 41 66 42 67
REMARK SMILES IDX 50 68 43 69 44 70 48 71 51 72 45 73 46 74 49 75 47 76 73 77
REMARK SMILES IDX 74 78 82 79 75 80 76 81 80 82 83 83 77 84 78 85 81 86 79 87
REMARK SMILES IDX 58 88 59 89 67 90 60 91 61 92 65 93 68 94 62 95 63 96 66 97
REMARK SMILES IDX 64 98
REMARK H PARENT 16 17 16 18 88 51 56 62
REMARK Flexibility Score: inf
ROOT
ATOM      1  C   UNL A   1      35.021  33.516  28.129  1.00  0.00     0.188 C 
ENDROOT
BRANCH   1   2
ATOM      2  O   UNL A   1      34.562  32.178  28.323  1.00  0.00    -0.376 OA
BRANCH   2   3
ATOM      3  C   UNL A   1      35.385  31.206  27.672  1.00  0.00     0.202 C 
BRANCH   3   4
ATOM      4  C   UNL A   1      34.605  29.907  27.474  1.00  0.00     0.261 C 
BRANCH   4   5
ATOM      5  O   UNL A   1      33.409  30.113  26.699  1.00  0.00    -0.462 OA
BRANCH   5   6
ATOM      6  C   UNL A   1      33.074  29.346  25.634  1.00  0.00     0.325 C 
ATOM      7  O   UNL A   1      33.954  28.968  24.859  1.00  0.00    -0.250 OA
BRANCH   6   8
ATOM      8  C   UNL A   1      31.606  29.052  25.330  1.00  0.00     0.242 C 
BRANCH   8   9
ATOM      9  N   UNL A   1      31.298  27.851  24.534  1.00  0.00    -0.323 N 
BRANCH   9  10
ATOM     10  C   UNL A   1      31.155  27.844  23.137  1.00  0.00     0.281 C 
ATOM     11  O   UNL A   1      32.079  27.488  22.399  1.00  0.00    -0.268 OA
BRANCH  10  12
ATOM     12  C   UNL A   1      29.774  28.219  22.507  1.00  0.00     0.273 C 
ATOM     13  C   UNL A   1      28.658  27.970  23.534  1.00  0.00     0.076 C 
ATOM     14  N   UNL A   1      29.803  29.645  22.109  1.00  0.00    -0.333 N 
ATOM     15  C   UNL A   1      27.307  28.504  23.052  1.00  0.00     0.016 C 
ATOM     16  C   UNL A   1      28.530  30.083  21.528  1.00  0.00     0.186 C 
ATOM     17  H   UNL A   1      30.542  29.777  21.418  1.00  0.00     0.347 HD
ATOM     18  H   UNL A   1      29.974  30.201  22.947  1.00  0.00     0.347 HD
ATOM     19  C   UNL A   1      27.401  29.961  22.566  1.00  0.00     0.048 C 
ATOM     20  C   UNL A   1      28.632  31.534  21.043  1.00  0.00     0.065 C 
ATOM     21  C   UNL A   1      27.587  30.943  23.740  1.00  0.00     0.010 C 
ATOM     22  C   UNL A   1      28.917  32.502  22.187  1.00  0.00     0.006 C 
ATOM     23  C   UNL A   1      27.894  32.381  23.313  1.00  0.00     0.001 C 
ENDBRANCH  10  12
ENDBRANCH   9  10
BRANCH   9  24
ATOM     24  C   UNL A   1      31.513  26.611  25.274  1.00  0.00     0.086 C 
ATOM     25  C   UNL A   1      30.321  25.944  25.924  1.00  0.00     0.027 C 
ATOM     26  C   UNL A   1      31.104  25.219  24.877  1.00  0.00     0.027 C 
ENDBRANCH   9  24
ENDBRANCH   8   9
ENDBRANCH   6   8
ENDBRANCH   5   6
ENDBRANCH   4   5
ENDBRANCH   3   4
ENDBRANCH   2   3
ENDBRANCH   1   2
BRANCH   1  27
ATOM     27  C   UNL A   1      33.953  34.615  28.219  1.00  0.00     0.188 C 
BRANCH  27  28
ATOM     28  O   UNL A   1      34.381  35.958  28.047  1.00  0.00    -0.376 OA
BRANCH  28  29
ATOM     29  C   UNL A   1      33.613  36.987  28.676  1.00  0.00     0.202 C 
BRANCH  29  30
ATOM     30  C   UNL A   1      32.562  36.538  29.693  1.00  0.00     0.261 C 
BRANCH  30  31
ATOM     31  O   UNL A   1      32.871  37.026  31.016  1.00  0.00    -0.460 OA
BRANCH  31  32
ATOM     32  C   UNL A   1      32.618  36.160  32.023  1.00  0.00     0.338 C 
ATOM     33  O   UNL A   1      31.671  36.161  32.788  1.00  0.00    -0.246 OA
BRANCH  32  34
ATOM     34  C   UNL A   1      33.648  35.111  32.063  1.00  0.00     0.060 A 
ATOM     35  C   UNL A   1      33.427  33.978  32.853  1.00  0.00     0.016 A 
ATOM     36  C   UNL A   1      34.893  35.345  31.479  1.00  0.00     0.016 A 
ATOM     37  C   UNL A   1      34.476  33.092  33.103  1.00  0.00     0.010 A 
ATOM     38  C   UNL A   1      35.945  34.464  31.740  1.00  0.00     0.010 A 
ATOM     39  C   UNL A   1      35.751  33.358  32.586  1.00  0.00    -0.014 A 
BRANCH  39  40
ATOM     40  C   UNL A   1      36.928  32.583  33.045  1.00  0.00     0.031 A 
ATOM     41  C   UNL A   1      37.589  32.958  34.342  1.00  0.00     0.074 A 
ATOM     42  C   UNL A   1      37.431  31.588  32.295  1.00  0.00     0.049 A 
ATOM     43  N   UNL A   1      38.692  32.500  34.877  1.00  0.00    -0.248 NA
ATOM     44  C   UNL A   1      36.918  33.996  35.140  1.00  0.00     0.031 C 
ATOM     45  C   UNL A   1      36.867  31.117  31.033  1.00  0.00     0.029 A 
ATOM     46  N   UNL A   1      38.552  30.818  32.477  1.00  0.00    -0.354 N 
ATOM     47  C   UNL A   1      38.853  33.198  36.065  1.00  0.00     0.074 A 
ATOM     48  C   UNL A   1      37.744  34.124  36.168  1.00  0.00     0.031 C 
ATOM     49  C   UNL A   1      37.668  30.160  30.533  1.00  0.00     0.029 A 
ATOM     50  C   UNL A   1      38.811  29.976  31.425  1.00  0.00     0.049 A 
ATOM     51  H   UNL A   1      39.115  30.865  33.283  1.00  0.00     0.167 HD
ATOM     52  C   UNL A   1      39.837  33.078  36.989  1.00  0.00     0.037 A 
ATOM     53  C   UNL A   1      39.871  29.177  31.193  1.00  0.00     0.037 A 
ATOM     54  C   UNL A   1      40.940  32.161  36.887  1.00  0.00     0.049 A 
ATOM     55  C   UNL A   1      40.985  29.102  32.204  1.00  0.00     0.074 A 
ATOM     56  C   UNL A   1      41.962  31.934  37.792  1.00  0.00     0.029 A 
ATOM     57  N   UNL A   1      41.170  31.326  35.804  1.00  0.00    -0.354 N 
ATOM     58  N   UNL A   1      41.109  29.735  33.346  1.00  0.00    -0.248 NA
ATOM     59  C   UNL A   1      42.107  28.206  31.892  1.00  0.00     0.031 C 
ATOM     60  C   UNL A   1      42.838  30.995  37.236  1.00  0.00     0.029 A 
ATOM     61  C   UNL A   1      42.336  30.606  36.004  1.00  0.00     0.049 A 
ATOM     62  H   UNL A   1      40.592  31.256  35.010  1.00  0.00     0.167 HD
ATOM     63  C   UNL A   1      42.307  29.298  33.898  1.00  0.00     0.074 A 
ATOM     64  C   UNL A   1      42.870  28.341  32.968  1.00  0.00     0.031 C 
ATOM     65  C   UNL A   1      42.884  29.654  35.070  1.00  0.00     0.037 A 
BRANCH  52  66
ATOM     66  C   UNL A   1      39.777  33.984  38.182  1.00  0.00     0.064 A 
ATOM     67  C   UNL A   1      39.065  33.633  39.338  1.00  0.00     0.173 A 
ATOM     68  C   UNL A   1      40.466  35.206  38.177  1.00  0.00     0.173 A 
ATOM     69  F   UNL A   1      38.379  32.481  39.385  1.00  0.00    -0.203 F 
ATOM     70  C   UNL A   1      39.025  34.485  40.439  1.00  0.00     0.198 A 
ATOM     71  C   UNL A   1      40.443  36.044  39.289  1.00  0.00     0.198 A 
ATOM     72  F   UNL A   1      41.165  35.585  37.097  1.00  0.00    -0.203 F 
ATOM     73  F   UNL A   1      38.305  34.149  41.518  1.00  0.00    -0.200 F 
ATOM     74  C   UNL A   1      39.718  35.687  40.416  1.00  0.00     0.200 A 
ATOM     75  F   UNL A   1      41.120  37.201  39.268  1.00  0.00    -0.200 F 
ATOM     76  F   UNL A   1      39.680  36.504  41.477  1.00  0.00    -0.200 F 
ENDBRANCH  52  66
BRANCH  53  77
ATOM     77  C   UNL A   1      39.939  28.401  29.930  1.00  0.00     0.064 A 
ATOM     78  C   UNL A   1      39.343  27.138  29.823  1.00  0.00     0.173 A 
ATOM     79  C   UNL A   1      40.601  28.912  28.804  1.00  0.00     0.173 A 
ATOM     80  F   UNL A   1      38.723  26.600  30.882  1.00  0.00    -0.203 F 
ATOM     81  C   UNL A   1      39.414  26.410  28.637  1.00  0.00     0.198 A 
ATOM     82  C   UNL A   1      40.652  28.193  27.612  1.00  0.00     0.198 A 
ATOM     83  F   UNL A   1      41.189  30.116  28.860  1.00  0.00    -0.203 F 
ATOM     84  F   UNL A   1      38.866  25.189  28.570  1.00  0.00    -0.200 F 
ATOM     85  C   UNL A   1      40.063  26.941  27.532  1.00  0.00     0.200 A 
ATOM     86  F   UNL A   1      41.272  28.712  26.544  1.00  0.00    -0.200 F 
ATOM     87  F   UNL A   1      40.126  26.241  26.390  1.00  0.00    -0.200 F 
ENDBRANCH  53  77
BRANCH  65  88
ATOM     88  C   UNL A   1      44.181  28.993  35.434  1.00  0.00     0.064 A 
ATOM     89  C   UNL A   1      44.212  27.784  36.144  1.00  0.00     0.173 A 
ATOM     90  C   UNL A   1      45.401  29.543  35.013  1.00  0.00     0.173 A 
ATOM     91  F   UNL A   1      43.073  27.227  36.580  1.00  0.00    -0.203 F 
ATOM     92  C   UNL A   1      45.422  27.155  36.429  1.00  0.00     0.198 A 
ATOM     93  C   UNL A   1      46.606  28.900  35.280  1.00  0.00     0.198 A 
ATOM     94  F   UNL A   1      45.421  30.695  34.326  1.00  0.00    -0.203 F 
ATOM     95  F   UNL A   1      45.433  26.016  37.134  1.00  0.00    -0.200 F 
ATOM     96  C   UNL A   1      46.616  27.709  35.990  1.00  0.00     0.200 A 
ATOM     97  F   UNL A   1      47.757  29.431  34.845  1.00  0.00    -0.200 F 
ATOM     98  F   UNL A   1      47.777  27.096  36.255  1.00  0.00    -0.200 F 
ENDBRANCH  65  88
ENDBRANCH  39  40
ENDBRANCH  32  34
ENDBRANCH  31  32
ENDBRANCH  30  31
ENDBRANCH  29  30
ENDBRANCH  28  29
ENDBRANCH  27  28
ENDBRANCH   1  27
TORSDOF 21
ENDMDL
