MODEL 1
REMARK VINA RESULT:     -11.7      0.000      0.000
REMARK SMILES Cc1nc2ccc(OCC(=O)OCCOCCOCCOC(=O)c3ccc(-c4c5nc(c(-c6c(F)c(F)c(F)c(F)c6F)c6ccc([nH]6)c(-c6c(F)c(F)c(F)c(F)c6F)c6nc(c(-c7c(F)c(F)c(F)c(F)c7F)c7ccc4[nH]7)C=C6)C=C5)cc3)cc2c(=O)n1-c1ccc2c(c1)OCO2
REMARK SMILES IDX 16 1 15 2 14 3 13 4 12 5 10 6 11 7 9 8 8 9 7 10 1 11 2 12
REMARK SMILES IDX 3 13 91 14 4 15 89 16 5 17 88 18 90 19 6 20 87 21 92 22
REMARK SMILES IDX 93 23 97 24 94 25 96 26 95 27 98 28 100 29 99 30 17 31 18 32
REMARK SMILES IDX 19 33 20 34 21 35 22 36 23 37 24 38 25 39 86 40 26 41 85 42
REMARK SMILES IDX 27 43 28 44 29 45 79 46 30 47 84 48 78 49 80 50 31 51 83 52
REMARK SMILES IDX 77 53 76 54 32 56 64 57 44 58 63 59 45 60 48 61 62 62 81 63
REMARK SMILES IDX 46 64 47 65 61 67 82 68 49 69 33 70 34 71 42 72 35 73 36 74
REMARK SMILES IDX 40 75 43 76 37 77 38 78 41 79 39 80 65 81 66 82 74 83 67 84
REMARK SMILES IDX 68 85 72 86 75 87 69 88 70 89 73 90 71 91 50 92 51 93 59 94
REMARK SMILES IDX 52 95 53 96 57 97 60 98 54 99 55 100 58 101 56 102
REMARK H PARENT 80 55 48 66
REMARK Flexibility Score: inf
ROOT
ATOM      1  C   UNL A   1      33.709  21.972  24.515  1.00  0.00     0.188 C 
ENDROOT
BRANCH   1   2
ATOM      2  O   UNL A   1      32.914  22.993  23.919  1.00  0.00    -0.376 OA
BRANCH   2   3
ATOM      3  C   UNL A   1      31.722  23.404  24.570  1.00  0.00     0.202 C 
BRANCH   3   4
ATOM      4  C   UNL A   1      31.597  24.907  24.814  1.00  0.00     0.261 C 
BRANCH   4   5
ATOM      5  O   UNL A   1      31.241  25.677  23.646  1.00  0.00    -0.461 OA
BRANCH   5   6
ATOM      6  C   UNL A   1      30.817  26.953  23.865  1.00  0.00     0.344 C 
ATOM      7  O   UNL A   1      29.779  27.433  23.420  1.00  0.00    -0.248 OA
BRANCH   6   8
ATOM      8  C   UNL A   1      31.832  27.785  24.659  1.00  0.00     0.351 C 
BRANCH   8   9
ATOM      9  O   UNL A   1      31.418  28.505  25.812  1.00  0.00    -0.482 OA
BRANCH   9  10
ATOM     10  C   UNL A   1      32.333  29.201  26.551  1.00  0.00     0.121 A 
ATOM     11  C   UNL A   1      36.410  33.889  28.065  1.00  0.00     0.088 C 
ATOM     12  C   UNL A   1      35.201  32.977  28.002  1.00  0.00     0.113 A 
ATOM     13  N   UNL A   1      35.384  31.699  27.911  1.00  0.00    -0.234 NA
ATOM     14  N   UNL A   1      33.951  33.567  27.959  1.00  0.00    -0.264 N 
ATOM     15  C   UNL A   1      34.262  30.899  27.672  1.00  0.00     0.078 A 
ATOM     16  C   UNL A   1      32.853  32.882  27.426  1.00  0.00     0.266 A 
ATOM     17  C   UNL A   1      34.399  29.517  27.758  1.00  0.00     0.033 A 
ATOM     18  C   UNL A   1      33.065  31.428  27.207  1.00  0.00     0.070 A 
ATOM     19  O   UNL A   1      31.749  33.368  27.202  1.00  0.00    -0.268 OA
ATOM     20  C   UNL A   1      33.455  28.666  27.179  1.00  0.00     0.049 A 
ATOM     21  C   UNL A   1      32.101  30.585  26.640  1.00  0.00     0.062 A 
BRANCH  14  22
ATOM     22  C   UNL A   1      33.694  34.632  28.866  1.00  0.00     0.054 A 
ATOM     23  C   UNL A   1      33.514  35.961  28.446  1.00  0.00     0.031 A 
ATOM     24  C   UNL A   1      33.661  34.306  30.235  1.00  0.00     0.077 A 
ATOM     25  C   UNL A   1      33.326  36.975  29.399  1.00  0.00     0.053 A 
ATOM     26  C   UNL A   1      33.437  35.315  31.137  1.00  0.00     0.167 A 
ATOM     27  C   UNL A   1      33.279  36.618  30.734  1.00  0.00     0.165 A 
ATOM     28  O   UNL A   1      33.342  35.162  32.484  1.00  0.00    -0.454 OA
ATOM     29  O   UNL A   1      33.072  37.453  31.788  1.00  0.00    -0.454 OA
ATOM     30  C   UNL A   1      32.990  36.504  32.875  1.00  0.00     0.468 C 
ENDBRANCH  14  22
ENDBRANCH   9  10
ENDBRANCH   8   9
ENDBRANCH   6   8
ENDBRANCH   5   6
ENDBRANCH   4   5
ENDBRANCH   3   4
ENDBRANCH   2   3
ENDBRANCH   1   2
BRANCH   1  31
ATOM     31  C   UNL A   1      34.249  22.164  25.940  1.00  0.00     0.188 C 
BRANCH  31  32
ATOM     32  O   UNL A   1      35.442  21.410  26.139  1.00  0.00    -0.376 OA
BRANCH  32  33
ATOM     33  C   UNL A   1      35.773  20.532  25.078  1.00  0.00     0.202 C 
BRANCH  33  34
ATOM     34  C   UNL A   1      37.287  20.414  24.901  1.00  0.00     0.261 C 
BRANCH  34  35
ATOM     35  O   UNL A   1      37.979  21.526  25.502  1.00  0.00    -0.460 OA
BRANCH  35  36
ATOM     36  C   UNL A   1      39.177  21.287  26.062  1.00  0.00     0.338 C 
ATOM     37  O   UNL A   1      39.726  20.198  26.193  1.00  0.00    -0.246 OA
BRANCH  36  38
ATOM     38  C   UNL A   1      39.711  22.545  26.619  1.00  0.00     0.060 A 
ATOM     39  C   UNL A   1      40.764  22.482  27.528  1.00  0.00     0.016 A 
ATOM     40  C   UNL A   1      39.232  23.788  26.206  1.00  0.00     0.016 A 
ATOM     41  C   UNL A   1      41.340  23.664  28.003  1.00  0.00     0.010 A 
ATOM     42  C   UNL A   1      39.861  24.970  26.620  1.00  0.00     0.010 A 
ATOM     43  C   UNL A   1      40.926  24.922  27.524  1.00  0.00    -0.014 A 
BRANCH  43  44
ATOM     44  C   UNL A   1      41.676  26.146  27.926  1.00  0.00     0.031 A 
ATOM     45  C   UNL A   1      43.041  26.466  27.380  1.00  0.00     0.074 A 
ATOM     46  C   UNL A   1      41.102  26.998  28.802  1.00  0.00     0.049 A 
ATOM     47  N   UNL A   1      43.718  27.585  27.465  1.00  0.00    -0.248 NA
ATOM     48  C   UNL A   1      43.755  25.390  26.677  1.00  0.00     0.031 C 
ATOM     49  C   UNL A   1      39.847  26.750  29.512  1.00  0.00     0.029 A 
ATOM     50  N   UNL A   1      41.479  28.251  29.220  1.00  0.00    -0.354 N 
ATOM     51  C   UNL A   1      44.920  27.356  26.811  1.00  0.00     0.074 A 
ATOM     52  C   UNL A   1      44.918  25.967  26.405  1.00  0.00     0.031 C 
ATOM     53  C   UNL A   1      39.515  27.845  30.214  1.00  0.00     0.029 A 
ATOM     54  C   UNL A   1      40.538  28.867  30.011  1.00  0.00     0.049 A 
ATOM     55  H   UNL A   1      42.337  28.668  28.978  1.00  0.00     0.167 HD
ATOM     56  C   UNL A   1      45.916  28.234  26.536  1.00  0.00     0.037 A 
ATOM     57  C   UNL A   1      40.479  30.127  30.484  1.00  0.00     0.037 A 
ATOM     58  C   UNL A   1      45.906  29.619  26.928  1.00  0.00     0.049 A 
ATOM     59  C   UNL A   1      41.562  31.103  30.119  1.00  0.00     0.074 A 
ATOM     60  C   UNL A   1      46.823  30.610  26.622  1.00  0.00     0.029 A 
ATOM     61  N   UNL A   1      44.932  30.209  27.720  1.00  0.00    -0.354 N 
ATOM     62  N   UNL A   1      42.624  30.917  29.375  1.00  0.00    -0.248 NA
ATOM     63  C   UNL A   1      41.430  32.470  30.644  1.00  0.00     0.031 C 
ATOM     64  C   UNL A   1      46.426  31.788  27.263  1.00  0.00     0.029 A 
ATOM     65  C   UNL A   1      45.237  31.544  27.930  1.00  0.00     0.049 A 
ATOM     66  H   UNL A   1      44.140  29.746  28.079  1.00  0.00     0.167 HD
ATOM     67  C   UNL A   1      43.278  32.140  29.328  1.00  0.00     0.074 A 
ATOM     68  C   UNL A   1      42.481  33.070  30.101  1.00  0.00     0.031 C 
ATOM     69  C   UNL A   1      44.437  32.460  28.703  1.00  0.00     0.037 A 
BRANCH  56  70
ATOM     70  C   UNL A   1      47.083  27.743  25.726  1.00  0.00     0.064 A 
ATOM     71  C   UNL A   1      47.073  27.814  24.324  1.00  0.00     0.173 A 
ATOM     72  C   UNL A   1      48.250  27.277  26.350  1.00  0.00     0.173 A 
ATOM     73  F   UNL A   1      45.982  28.252  23.678  1.00  0.00    -0.203 F 
ATOM     74  C   UNL A   1      48.180  27.419  23.577  1.00  0.00     0.198 A 
ATOM     75  C   UNL A   1      49.366  26.909  25.600  1.00  0.00     0.198 A 
ATOM     76  F   UNL A   1      48.320  27.201  27.687  1.00  0.00    -0.203 F 
ATOM     77  F   UNL A   1      48.134  27.467  22.238  1.00  0.00    -0.200 F 
ATOM     78  C   UNL A   1      49.328  26.976  24.215  1.00  0.00     0.200 A 
ATOM     79  F   UNL A   1      50.482  26.499  26.219  1.00  0.00    -0.200 F 
ATOM     80  F   UNL A   1      50.399  26.615  23.495  1.00  0.00    -0.200 F 
ENDBRANCH  56  70
BRANCH  57  81
ATOM     81  C   UNL A   1      39.292  30.557  31.269  1.00  0.00     0.064 A 
ATOM     82  C   UNL A   1      39.271  30.424  32.664  1.00  0.00     0.173 A 
ATOM     83  C   UNL A   1      38.179  31.145  30.652  1.00  0.00     0.173 A 
ATOM     84  F   UNL A   1      40.307  29.854  33.298  1.00  0.00    -0.203 F 
ATOM     85  C   UNL A   1      38.178  30.857  33.413  1.00  0.00     0.198 A 
ATOM     86  C   UNL A   1      37.097  31.599  31.404  1.00  0.00     0.198 A 
ATOM     87  F   UNL A   1      38.154  31.300  29.320  1.00  0.00    -0.203 F 
ATOM     88  F   UNL A   1      38.173  30.693  34.743  1.00  0.00    -0.200 F 
ATOM     89  C   UNL A   1      37.096  31.451  32.783  1.00  0.00     0.200 A 
ATOM     90  F   UNL A   1      36.059  32.187  30.793  1.00  0.00    -0.200 F 
ATOM     91  F   UNL A   1      36.052  31.880  33.504  1.00  0.00    -0.200 F 
ENDBRANCH  57  81
BRANCH  69  92
ATOM     92  C   UNL A   1      44.926  33.873  28.825  1.00  0.00     0.064 A 
ATOM     93  C   UNL A   1      44.532  34.861  27.911  1.00  0.00     0.173 A 
ATOM     94  C   UNL A   1      45.734  34.259  29.905  1.00  0.00     0.173 A 
ATOM     95  F   UNL A   1      43.769  34.540  26.855  1.00  0.00    -0.203 F 
ATOM     96  C   UNL A   1      44.939  36.184  28.068  1.00  0.00     0.198 A 
ATOM     97  C   UNL A   1      46.118  35.586  30.073  1.00  0.00     0.198 A 
ATOM     98  F   UNL A   1      46.132  33.352  30.809  1.00  0.00    -0.203 F 
ATOM     99  F   UNL A   1      44.576  37.107  27.168  1.00  0.00    -0.200 F 
ATOM    100  C   UNL A   1      45.723  36.546  29.154  1.00  0.00     0.200 A 
ATOM    101  F   UNL A   1      46.864  35.938  31.130  1.00  0.00    -0.200 F 
ATOM    102  F   UNL A   1      46.100  37.823  29.313  1.00  0.00    -0.200 F 
ENDBRANCH  69  92
ENDBRANCH  43  44
ENDBRANCH  36  38
ENDBRANCH  35  36
ENDBRANCH  34  35
ENDBRANCH  33  34
ENDBRANCH  32  33
ENDBRANCH  31  32
ENDBRANCH   1  31
TORSDOF 20
ENDMDL
MODEL 2
REMARK VINA RESULT:     -11.5      4.013     11.705
REMARK SMILES Cc1nc2ccc(OCC(=O)OCCOCCOCCOC(=O)c3ccc(-c4c5nc(c(-c6c(F)c(F)c(F)c(F)c6F)c6ccc([nH]6)c(-c6c(F)c(F)c(F)c(F)c6F)c6nc(c(-c7c(F)c(F)c(F)c(F)c7F)c7ccc4[nH]7)C=C6)C=C5)cc3)cc2c(=O)n1-c1ccc2c(c1)OCO2
REMARK SMILES IDX 16 1 15 2 14 3 13 4 12 5 10 6 11 7 9 8 8 9 7 10 1 11 2 12
REMARK SMILES IDX 3 13 91 14 4 15 89 16 5 17 88 18 90 19 6 20 87 21 92 22
REMARK SMILES IDX 93 23 97 24 94 25 96 26 95 27 98 28 100 29 99 30 17 31 18 32
REMARK SMILES IDX 19 33 20 34 21 35 22 36 23 37 24 38 25 39 86 40 26 41 85 42
REMARK SMILES IDX 27 43 28 44 29 45 79 46 30 47 84 48 78 49 80 50 31 51 83 52
REMARK SMILES IDX 77 53 76 54 32 56 64 57 44 58 63 59 45 60 48 61 62 62 81 63
REMARK SMILES IDX 46 64 47 65 61 67 82 68 49 69 33 70 34 71 42 72 35 73 36 74
REMARK SMILES IDX 40 75 43 76 37 77 38 78 41 79 39 80 65 81 66 82 74 83 67 84
REMARK SMILES IDX 68 85 72 86 75 87 69 88 70 89 73 90 71 91 50 92 51 93 59 94
REMARK SMILES IDX 52 95 53 96 57 97 60 98 54 99 55 100 58 101 56 102
REMARK H PARENT 80 55 48 66
REMARK Flexibility Score: inf
ROOT
ATOM      1  C   UNL A   1      32.385  27.547  22.679  1.00  0.00     0.188 C 
ENDROOT
BRANCH   1   2
ATOM      2  O   UNL A   1      31.635  26.453  23.200  1.00  0.00    -0.376 OA
BRANCH   2   3
ATOM      3  C   UNL A   1      32.319  25.271  23.583  1.00  0.00     0.202 C 
BRANCH   3   4
ATOM      4  C   UNL A   1      33.136  24.603  22.477  1.00  0.00     0.261 C 
BRANCH   4   5
ATOM      5  O   UNL A   1      32.907  23.185  22.334  1.00  0.00    -0.461 OA
BRANCH   5   6
ATOM      6  C   UNL A   1      33.336  22.393  23.354  1.00  0.00     0.344 C 
ATOM      7  O   UNL A   1      32.611  21.687  24.047  1.00  0.00    -0.248 OA
BRANCH   6   8
ATOM      8  C   UNL A   1      34.839  22.544  23.627  1.00  0.00     0.351 C 
BRANCH   8   9
ATOM      9  O   UNL A   1      35.479  21.704  24.577  1.00  0.00    -0.482 OA
BRANCH   9  10
ATOM     10  C   UNL A   1      36.722  22.023  25.047  1.00  0.00     0.121 A 
ATOM     11  C   UNL A   1      42.014  21.583  28.609  1.00  0.00     0.088 C 
ATOM     12  C   UNL A   1      41.024  21.529  27.463  1.00  0.00     0.113 A 
ATOM     13  N   UNL A   1      40.197  22.511  27.303  1.00  0.00    -0.234 NA
ATOM     14  N   UNL A   1      40.997  20.383  26.689  1.00  0.00    -0.264 N 
ATOM     15  C   UNL A   1      39.180  22.354  26.356  1.00  0.00     0.078 A 
ATOM     16  C   UNL A   1      39.852  20.037  25.962  1.00  0.00     0.266 A 
ATOM     17  C   UNL A   1      38.397  23.458  26.029  1.00  0.00     0.033 A 
ATOM     18  C   UNL A   1      38.831  21.109  25.849  1.00  0.00     0.070 A 
ATOM     19  O   UNL A   1      39.674  18.973  25.376  1.00  0.00    -0.268 OA
ATOM     20  C   UNL A   1      37.160  23.298  25.400  1.00  0.00     0.049 A 
ATOM     21  C   UNL A   1      37.601  20.937  25.200  1.00  0.00     0.062 A 
BRANCH  14  22
ATOM     22  C   UNL A   1      42.243  19.845  26.264  1.00  0.00     0.054 A 
ATOM     23  C   UNL A   1      42.599  18.501  26.465  1.00  0.00     0.031 A 
ATOM     24  C   UNL A   1      43.144  20.738  25.653  1.00  0.00     0.077 A 
ATOM     25  C   UNL A   1      43.871  18.050  26.077  1.00  0.00     0.053 A 
ATOM     26  C   UNL A   1      44.363  20.255  25.251  1.00  0.00     0.167 A 
ATOM     27  C   UNL A   1      44.723  18.947  25.461  1.00  0.00     0.165 A 
ATOM     28  O   UNL A   1      45.326  20.975  24.617  1.00  0.00    -0.454 OA
ATOM     29  O   UNL A   1      45.972  18.684  24.989  1.00  0.00    -0.454 OA
ATOM     30  C   UNL A   1      46.292  19.939  24.348  1.00  0.00     0.468 C 
ENDBRANCH  14  22
ENDBRANCH   9  10
ENDBRANCH   8   9
ENDBRANCH   6   8
ENDBRANCH   5   6
ENDBRANCH   4   5
ENDBRANCH   3   4
ENDBRANCH   2   3
ENDBRANCH   1   2
BRANCH   1  31
ATOM     31  C   UNL A   1      32.250  28.935  23.323  1.00  0.00     0.188 C 
BRANCH  31  32
ATOM     32  O   UNL A   1      32.612  28.894  24.701  1.00  0.00    -0.376 OA
BRANCH  32  33
ATOM     33  C   UNL A   1      31.535  29.066  25.604  1.00  0.00     0.202 C 
BRANCH  33  34
ATOM     34  C   UNL A   1      31.775  30.248  26.543  1.00  0.00     0.261 C 
BRANCH  34  35
ATOM     35  O   UNL A   1      33.105  30.784  26.391  1.00  0.00    -0.460 OA
BRANCH  35  36
ATOM     36  C   UNL A   1      33.525  31.676  27.303  1.00  0.00     0.338 C 
ATOM     37  O   UNL A   1      32.961  32.713  27.636  1.00  0.00    -0.246 OA
BRANCH  36  38
ATOM     38  C   UNL A   1      34.862  31.281  27.788  1.00  0.00     0.060 A 
ATOM     39  C   UNL A   1      35.820  32.269  27.996  1.00  0.00     0.016 A 
ATOM     40  C   UNL A   1      35.161  29.956  28.104  1.00  0.00     0.016 A 
ATOM     41  C   UNL A   1      37.063  31.926  28.533  1.00  0.00     0.010 A 
ATOM     42  C   UNL A   1      36.377  29.624  28.717  1.00  0.00     0.010 A 
ATOM     43  C   UNL A   1      37.345  30.607  28.941  1.00  0.00    -0.014 A 
BRANCH  43  44
ATOM     44  C   UNL A   1      38.615  30.314  29.664  1.00  0.00     0.031 A 
ATOM     45  C   UNL A   1      38.846  30.746  31.086  1.00  0.00     0.074 A 
ATOM     46  C   UNL A   1      39.583  29.630  29.019  1.00  0.00     0.049 A 
ATOM     47  N   UNL A   1      39.798  30.382  31.910  1.00  0.00    -0.248 NA
ATOM     48  C   UNL A   1      37.915  31.733  31.652  1.00  0.00     0.031 C 
ATOM     49  C   UNL A   1      39.550  29.267  27.601  1.00  0.00     0.029 A 
ATOM     50  N   UNL A   1      40.763  29.092  29.472  1.00  0.00    -0.354 N 
ATOM     51  C   UNL A   1      39.568  31.074  33.091  1.00  0.00     0.074 A 
ATOM     52  C   UNL A   1      38.436  31.944  32.853  1.00  0.00     0.031 C 
ATOM     53  C   UNL A   1      40.615  28.500  27.319  1.00  0.00     0.029 A 
ATOM     54  C   UNL A   1      41.409  28.326  28.532  1.00  0.00     0.049 A 
ATOM     55  H   UNL A   1      41.112  29.241  30.381  1.00  0.00     0.167 HD
ATOM     56  C   UNL A   1      40.214  30.964  34.277  1.00  0.00     0.037 A 
ATOM     57  C   UNL A   1      42.493  27.533  28.641  1.00  0.00     0.037 A 
ATOM     58  C   UNL A   1      41.331  30.085  34.514  1.00  0.00     0.049 A 
ATOM     59  C   UNL A   1      43.161  27.377  29.979  1.00  0.00     0.074 A 
ATOM     60  C   UNL A   1      41.997  29.836  35.702  1.00  0.00     0.029 A 
ATOM     61  N   UNL A   1      41.951  29.318  33.540  1.00  0.00    -0.354 N 
ATOM     62  N   UNL A   1      42.846  27.924  31.127  1.00  0.00    -0.248 NA
ATOM     63  C   UNL A   1      44.324  26.479  30.041  1.00  0.00     0.031 C 
ATOM     64  C   UNL A   1      43.046  28.949  35.438  1.00  0.00     0.029 A 
ATOM     65  C   UNL A   1      43.005  28.610  34.095  1.00  0.00     0.049 A 
ATOM     66  H   UNL A   1      41.681  29.281  32.593  1.00  0.00     0.167 HD
ATOM     67  C   UNL A   1      43.756  27.428  32.050  1.00  0.00     0.074 A 
ATOM     68  C   UNL A   1      44.624  26.517  31.332  1.00  0.00     0.031 C 
ATOM     69  C   UNL A   1      43.864  27.708  33.372  1.00  0.00     0.037 A 
BRANCH  56  70
ATOM     70  C   UNL A   1      39.702  31.774  35.435  1.00  0.00     0.064 A 
ATOM     71  C   UNL A   1      40.192  33.064  35.691  1.00  0.00     0.173 A 
ATOM     72  C   UNL A   1      38.658  31.298  36.244  1.00  0.00     0.173 A 
ATOM     73  F   UNL A   1      41.190  33.567  34.948  1.00  0.00    -0.203 F 
ATOM     74  C   UNL A   1      39.673  33.838  36.725  1.00  0.00     0.198 A 
ATOM     75  C   UNL A   1      38.121  32.087  37.260  1.00  0.00     0.198 A 
ATOM     76  F   UNL A   1      38.141  30.078  36.035  1.00  0.00    -0.203 F 
ATOM     77  F   UNL A   1      40.181  35.054  36.969  1.00  0.00    -0.200 F 
ATOM     78  C   UNL A   1      38.632  33.354  37.502  1.00  0.00     0.200 A 
ATOM     79  F   UNL A   1      37.101  31.626  37.997  1.00  0.00    -0.200 F 
ATOM     80  F   UNL A   1      38.119  34.109  38.484  1.00  0.00    -0.200 F 
ENDBRANCH  56  70
BRANCH  57  81
ATOM     81  C   UNL A   1      42.945  26.748  27.463  1.00  0.00     0.064 A 
ATOM     82  C   UNL A   1      44.090  27.125  26.747  1.00  0.00     0.173 A 
ATOM     83  C   UNL A   1      42.272  25.588  27.054  1.00  0.00     0.173 A 
ATOM     84  F   UNL A   1      44.758  28.236  27.092  1.00  0.00    -0.203 F 
ATOM     85  C   UNL A   1      44.542  26.376  25.663  1.00  0.00     0.198 A 
ATOM     86  C   UNL A   1      42.739  24.825  25.985  1.00  0.00     0.198 A 
ATOM     87  F   UNL A   1      41.176  25.181  27.711  1.00  0.00    -0.203 F 
ATOM     88  F   UNL A   1      45.623  26.774  24.980  1.00  0.00    -0.200 F 
ATOM     89  C   UNL A   1      43.870  25.223  25.288  1.00  0.00     0.200 A 
ATOM     90  F   UNL A   1      42.096  23.703  25.635  1.00  0.00    -0.200 F 
ATOM     91  F   UNL A   1      44.314  24.493  24.254  1.00  0.00    -0.200 F 
ENDBRANCH  57  81
BRANCH  69  92
ATOM     92  C   UNL A   1      44.958  27.028  34.139  1.00  0.00     0.064 A 
ATOM     93  C   UNL A   1      44.776  25.754  34.696  1.00  0.00     0.173 A 
ATOM     94  C   UNL A   1      46.225  27.623  34.256  1.00  0.00     0.173 A 
ATOM     95  F   UNL A   1      43.580  25.149  34.621  1.00  0.00    -0.203 F 
ATOM     96  C   UNL A   1      45.818  25.104  35.353  1.00  0.00     0.198 A 
ATOM     97  C   UNL A   1      47.271  26.959  34.890  1.00  0.00     0.198 A 
ATOM     98  F   UNL A   1      46.451  28.837  33.735  1.00  0.00    -0.203 F 
ATOM     99  F   UNL A   1      45.613  23.900  35.903  1.00  0.00    -0.200 F 
ATOM    100  C   UNL A   1      47.066  25.702  35.440  1.00  0.00     0.200 A 
ATOM    101  F   UNL A   1      48.481  27.532  34.962  1.00  0.00    -0.200 F 
ATOM    102  F   UNL A   1      48.073  25.069  36.057  1.00  0.00    -0.200 F 
ENDBRANCH  69  92
ENDBRANCH  43  44
ENDBRANCH  36  38
ENDBRANCH  35  36
ENDBRANCH  34  35
ENDBRANCH  33  34
ENDBRANCH  32  33
ENDBRANCH  31  32
ENDBRANCH   1  31
TORSDOF 20
ENDMDL
MODEL 3
REMARK VINA RESULT:     -11.4      4.011     11.717
REMARK SMILES Cc1nc2ccc(OCC(=O)OCCOCCOCCOC(=O)c3ccc(-c4c5nc(c(-c6c(F)c(F)c(F)c(F)c6F)c6ccc([nH]6)c(-c6c(F)c(F)c(F)c(F)c6F)c6nc(c(-c7c(F)c(F)c(F)c(F)c7F)c7ccc4[nH]7)C=C6)C=C5)cc3)cc2c(=O)n1-c1ccc2c(c1)OCO2
REMARK SMILES IDX 16 1 15 2 14 3 13 4 12 5 10 6 11 7 9 8 8 9 7 10 1 11 2 12
REMARK SMILES IDX 3 13 91 14 4 15 89 16 5 17 88 18 90 19 6 20 87 21 92 22
REMARK SMILES IDX 93 23 97 24 94 25 96 26 95 27 98 28 100 29 99 30 17 31 18 32
REMARK SMILES IDX 19 33 20 34 21 35 22 36 23 37 24 38 25 39 86 40 26 41 85 42
REMARK SMILES IDX 27 43 28 44 29 45 79 46 30 47 84 48 78 49 80 50 31 51 83 52
REMARK SMILES IDX 77 53 76 54 32 56 64 57 44 58 63 59 45 60 48 61 62 62 81 63
REMARK SMILES IDX 46 64 47 65 61 67 82 68 49 69 33 70 34 71 42 72 35 73 36 74
REMARK SMILES IDX 40 75 43 76 37 77 38 78 41 79 39 80 65 81 66 82 74 83 67 84
REMARK SMILES IDX 68 85 72 86 75 87 69 88 70 89 73 90 71 91 50 92 51 93 59 94
REMARK SMILES IDX 52 95 53 96 57 97 60 98 54 99 55 100 58 101 56 102
REMARK H PARENT 80 55 48 66
REMARK Flexibility Score: inf
ROOT
ATOM      1  C   UNL A   1      31.233  26.231  24.605  1.00  0.00     0.188 C 
ENDROOT
BRANCH   1   2
ATOM      2  O   UNL A   1      31.342  25.439  25.785  1.00  0.00    -0.376 OA
BRANCH   2   3
ATOM      3  C   UNL A   1      31.695  24.070  25.664  1.00  0.00     0.202 C 
BRANCH   3   4
ATOM      4  C   UNL A   1      31.151  23.364  24.423  1.00  0.00     0.261 C 
BRANCH   4   5
ATOM      5  O   UNL A   1      32.098  23.231  23.342  1.00  0.00    -0.461 OA
BRANCH   5   6
ATOM      6  C   UNL A   1      32.860  22.103  23.336  1.00  0.00     0.344 C 
ATOM      7  O   UNL A   1      32.424  20.962  23.216  1.00  0.00    -0.248 OA
BRANCH   6   8
ATOM      8  C   UNL A   1      34.344  22.391  23.597  1.00  0.00     0.351 C 
BRANCH   8   9
ATOM      9  O   UNL A   1      35.108  21.514  24.414  1.00  0.00    -0.482 OA
BRANCH   9  10
ATOM     10  C   UNL A   1      36.348  21.888  24.849  1.00  0.00     0.121 A 
ATOM     11  C   UNL A   1      41.665  21.814  28.401  1.00  0.00     0.088 C 
ATOM     12  C   UNL A   1      40.670  21.653  27.270  1.00  0.00     0.113 A 
ATOM     13  N   UNL A   1      39.828  22.607  27.035  1.00  0.00    -0.234 NA
ATOM     14  N   UNL A   1      40.655  20.446  26.593  1.00  0.00    -0.264 N 
ATOM     15  C   UNL A   1      38.808  22.358  26.111  1.00  0.00     0.078 A 
ATOM     16  C   UNL A   1      39.512  20.026  25.903  1.00  0.00     0.266 A 
ATOM     17  C   UNL A   1      38.009  23.421  25.700  1.00  0.00     0.033 A 
ATOM     18  C   UNL A   1      38.475  21.071  25.710  1.00  0.00     0.070 A 
ATOM     19  O   UNL A   1      39.346  18.915  25.408  1.00  0.00    -0.268 OA
ATOM     20  C   UNL A   1      36.770  23.193  25.094  1.00  0.00     0.049 A 
ATOM     21  C   UNL A   1      37.244  20.830  25.085  1.00  0.00     0.062 A 
BRANCH  14  22
ATOM     22  C   UNL A   1      41.906  19.893  26.205  1.00  0.00     0.054 A 
ATOM     23  C   UNL A   1      42.249  18.551  26.438  1.00  0.00     0.031 A 
ATOM     24  C   UNL A   1      42.827  20.769  25.597  1.00  0.00     0.077 A 
ATOM     25  C   UNL A   1      43.526  18.085  26.086  1.00  0.00     0.053 A 
ATOM     26  C   UNL A   1      44.051  20.270  25.230  1.00  0.00     0.167 A 
ATOM     27  C   UNL A   1      44.397  18.965  25.473  1.00  0.00     0.165 A 
ATOM     28  O   UNL A   1      45.032  20.972  24.605  1.00  0.00    -0.454 OA
ATOM     29  O   UNL A   1      45.654  18.684  25.034  1.00  0.00    -0.454 OA
ATOM     30  C   UNL A   1      45.996  19.925  24.376  1.00  0.00     0.468 C 
ENDBRANCH  14  22
ENDBRANCH   9  10
ENDBRANCH   8   9
ENDBRANCH   6   8
ENDBRANCH   5   6
ENDBRANCH   4   5
ENDBRANCH   3   4
ENDBRANCH   2   3
ENDBRANCH   1   2
BRANCH   1  31
ATOM     31  C   UNL A   1      31.955  27.585  24.530  1.00  0.00     0.188 C 
BRANCH  31  32
ATOM     32  O   UNL A   1      31.248  28.580  25.265  1.00  0.00    -0.376 OA
BRANCH  32  33
ATOM     33  C   UNL A   1      31.813  28.904  26.523  1.00  0.00     0.202 C 
BRANCH  33  34
ATOM     34  C   UNL A   1      31.849  30.415  26.748  1.00  0.00     0.261 C 
BRANCH  34  35
ATOM     35  O   UNL A   1      33.175  30.948  26.557  1.00  0.00    -0.460 OA
BRANCH  35  36
ATOM     36  C   UNL A   1      33.599  31.890  27.416  1.00  0.00     0.338 C 
ATOM     37  O   UNL A   1      33.050  32.956  27.672  1.00  0.00    -0.246 OA
BRANCH  36  38
ATOM     38  C   UNL A   1      34.920  31.501  27.948  1.00  0.00     0.060 A 
ATOM     39  C   UNL A   1      35.885  32.487  28.132  1.00  0.00     0.016 A 
ATOM     40  C   UNL A   1      35.196  30.189  28.330  1.00  0.00     0.016 A 
ATOM     41  C   UNL A   1      37.112  32.155  28.712  1.00  0.00     0.010 A 
ATOM     42  C   UNL A   1      36.393  29.872  28.985  1.00  0.00     0.010 A 
ATOM     43  C   UNL A   1      37.368  30.853  29.185  1.00  0.00    -0.014 A 
BRANCH  43  44
ATOM     44  C   UNL A   1      38.619  30.579  29.949  1.00  0.00     0.031 A 
ATOM     45  C   UNL A   1      38.791  31.000  31.383  1.00  0.00     0.074 A 
ATOM     46  C   UNL A   1      39.623  29.922  29.331  1.00  0.00     0.049 A 
ATOM     47  N   UNL A   1      39.722  30.647  32.235  1.00  0.00    -0.248 NA
ATOM     48  C   UNL A   1      37.820  31.961  31.926  1.00  0.00     0.031 C 
ATOM     49  C   UNL A   1      39.647  29.574  27.909  1.00  0.00     0.029 A 
ATOM     50  N   UNL A   1      40.798  29.405  29.819  1.00  0.00    -0.354 N 
ATOM     51  C   UNL A   1      39.437  31.321  33.415  1.00  0.00     0.074 A 
ATOM     52  C   UNL A   1      38.296  32.169  33.147  1.00  0.00     0.031 C 
ATOM     53  C   UNL A   1      40.736  28.833  27.656  1.00  0.00     0.029 A 
ATOM     54  C   UNL A   1      41.492  28.662  28.894  1.00  0.00     0.049 A 
ATOM     55  H   UNL A   1      41.112  29.550  30.741  1.00  0.00     0.167 HD
ATOM     56  C   UNL A   1      40.044  31.211  34.621  1.00  0.00     0.037 A 
ATOM     57  C   UNL A   1      42.589  27.891  29.033  1.00  0.00     0.037 A 
ATOM     58  C   UNL A   1      41.170  30.353  34.888  1.00  0.00     0.049 A 
ATOM     59  C   UNL A   1      43.213  27.735  30.391  1.00  0.00     0.074 A 
ATOM     60  C   UNL A   1      41.800  30.105  36.095  1.00  0.00     0.029 A 
ATOM     61  N   UNL A   1      41.840  29.610  33.927  1.00  0.00    -0.354 N 
ATOM     62  N   UNL A   1      42.847  28.262  31.533  1.00  0.00    -0.248 NA
ATOM     63  C   UNL A   1      44.392  26.861  30.484  1.00  0.00     0.031 C 
ATOM     64  C   UNL A   1      42.876  29.243  35.858  1.00  0.00     0.029 A 
ATOM     65  C   UNL A   1      42.889  28.919  34.512  1.00  0.00     0.049 A 
ATOM     66  H   UNL A   1      41.604  29.578  32.972  1.00  0.00     0.167 HD
ATOM     67  C   UNL A   1      43.735  27.775  32.481  1.00  0.00     0.074 A 
ATOM     68  C   UNL A   1      44.647  26.891  31.785  1.00  0.00     0.031 C 
ATOM     69  C   UNL A   1      43.792  28.042  33.809  1.00  0.00     0.037 A 
BRANCH  56  70
ATOM     70  C   UNL A   1      39.475  31.997  35.769  1.00  0.00     0.064 A 
ATOM     71  C   UNL A   1      38.491  31.447  36.606  1.00  0.00     0.173 A 
ATOM     72  C   UNL A   1      39.970  33.270  36.090  1.00  0.00     0.173 A 
ATOM     73  F   UNL A   1      37.983  30.233  36.345  1.00  0.00    -0.203 F 
ATOM     74  C   UNL A   1      38.009  32.151  37.708  1.00  0.00     0.198 A 
ATOM     75  C   UNL A   1      39.506  33.959  37.209  1.00  0.00     0.198 A 
ATOM     76  F   UNL A   1      40.921  33.837  35.333  1.00  0.00    -0.203 F 
ATOM     77  F   UNL A   1      37.047  31.617  38.473  1.00  0.00    -0.200 F 
ATOM     78  C   UNL A   1      38.524  33.400  38.014  1.00  0.00     0.200 A 
ATOM     79  F   UNL A   1      40.019  35.159  37.515  1.00  0.00    -0.200 F 
ATOM     80  F   UNL A   1      38.074  34.068  39.086  1.00  0.00    -0.200 F 
ENDBRANCH  56  70
BRANCH  57  81
ATOM     81  C   UNL A   1      43.097  27.129  27.863  1.00  0.00     0.064 A 
ATOM     82  C   UNL A   1      42.634  25.833  27.597  1.00  0.00     0.173 A 
ATOM     83  C   UNL A   1      44.020  27.689  26.969  1.00  0.00     0.173 A 
ATOM     84  F   UNL A   1      41.762  25.249  28.432  1.00  0.00    -0.203 F 
ATOM     85  C   UNL A   1      43.078  25.123  26.482  1.00  0.00     0.198 A 
ATOM     86  C   UNL A   1      44.445  26.987  25.841  1.00  0.00     0.198 A 
ATOM     87  F   UNL A   1      44.489  28.928  27.176  1.00  0.00    -0.203 F 
ATOM     88  F   UNL A   1      42.638  23.876  26.266  1.00  0.00    -0.200 F 
ATOM     89  C   UNL A   1      43.977  25.704  25.602  1.00  0.00     0.200 A 
ATOM     90  F   UNL A   1      45.303  27.558  24.984  1.00  0.00    -0.200 F 
ATOM     91  F   UNL A   1      44.393  25.027  24.523  1.00  0.00    -0.200 F 
ENDBRANCH  57  81
BRANCH  69  92
ATOM     92  C   UNL A   1      44.873  27.378  34.607  1.00  0.00     0.064 A 
ATOM     93  C   UNL A   1      46.078  28.036  34.894  1.00  0.00     0.173 A 
ATOM     94  C   UNL A   1      44.675  26.100  35.154  1.00  0.00     0.173 A 
ATOM     95  F   UNL A   1      46.319  29.254  34.385  1.00  0.00    -0.203 F 
ATOM     96  C   UNL A   1      47.050  27.435  35.689  1.00  0.00     0.198 A 
ATOM     97  C   UNL A   1      45.638  25.514  35.970  1.00  0.00     0.198 A 
ATOM     98  F   UNL A   1      43.537  25.432  34.915  1.00  0.00    -0.203 F 
ATOM     99  F   UNL A   1      48.206  28.070  35.926  1.00  0.00    -0.200 F 
ATOM    100  C   UNL A   1      46.825  26.180  36.235  1.00  0.00     0.200 A 
ATOM    101  F   UNL A   1      45.414  24.306  36.508  1.00  0.00    -0.200 F 
ATOM    102  F   UNL A   1      47.755  25.610  37.014  1.00  0.00    -0.200 F 
ENDBRANCH  69  92
ENDBRANCH  43  44
ENDBRANCH  36  38
ENDBRANCH  35  36
ENDBRANCH  34  35
ENDBRANCH  33  34
ENDBRANCH  32  33
ENDBRANCH  31  32
ENDBRANCH   1  31
TORSDOF 20
ENDMDL
