MODEL 1
REMARK VINA RESULT:     -10.2      0.000      0.000
REMARK SMILES CC[NH2+][C@@]1(C(=O)OCCOCCOCCOC(=O)c2ccc(-c3c4nc(c(-c5c(F)c(F)c(F)c(F)c5F)c5ccc([nH]5)c(-c5c(F)c(F)c(F)c(F)c5F)c5nc(c(-c6c(F)c(F)c(F)c(F)c6F)c6ccc3[nH]6)C=C5)C=C4)cc2)CC[C@@H](SCC2CCCC2)C1
REMARK SMILES IDX 11 1 10 2 9 3 8 4 7 5 5 6 6 7 4 8 82 9 92 10 83 11 84 12
REMARK SMILES IDX 3 13 2 16 1 17 85 18 86 19 87 20 88 21 91 22 89 23 90 24
REMARK SMILES IDX 12 25 13 26 14 27 15 28 16 29 17 30 18 31 19 32 20 33 81 34
REMARK SMILES IDX 21 35 80 36 22 37 23 38 24 39 74 40 25 41 79 42 73 43 75 44
REMARK SMILES IDX 26 45 78 46 72 47 71 48 27 50 59 51 39 52 58 53 40 54 43 55
REMARK SMILES IDX 57 56 76 57 41 58 42 59 56 61 77 62 44 63 28 64 29 65 37 66
REMARK SMILES IDX 30 67 31 68 35 69 38 70 32 71 33 72 36 73 34 74 60 75 61 76
REMARK SMILES IDX 69 77 62 78 63 79 67 80 70 81 64 82 65 83 68 84 66 85 45 86
REMARK SMILES IDX 46 87 54 88 47 89 48 90 52 91 55 92 49 93 50 94 53 95 51 96
REMARK H PARENT 3 14 3 15 75 49 43 60
REMARK Flexibility Score: inf
ROOT
ATOM      1  C   UNL A   1      40.340  20.956  26.226  1.00  0.00     0.188 C 
ENDROOT
BRANCH   1   2
ATOM      2  O   UNL A   1      39.072  21.520  26.520  1.00  0.00    -0.376 OA
BRANCH   2   3
ATOM      3  C   UNL A   1      38.517  22.453  25.593  1.00  0.00     0.202 C 
BRANCH   3   4
ATOM      4  C   UNL A   1      37.636  23.612  26.100  1.00  0.00     0.261 C 
BRANCH   4   5
ATOM      5  O   UNL A   1      36.414  23.826  25.358  1.00  0.00    -0.459 OA
BRANCH   5   6
ATOM      6  C   UNL A   1      35.375  23.017  25.688  1.00  0.00     0.368 C 
ATOM      7  O   UNL A   1      35.440  22.163  26.570  1.00  0.00    -0.245 OA
BRANCH   6   8
ATOM      8  C   UNL A   1      34.068  23.271  24.861  1.00  0.00     0.195 C 
ATOM      9  C   UNL A   1      34.232  24.677  24.266  1.00  0.00     0.082 C 
ATOM     10  C   UNL A   1      32.726  23.435  25.628  1.00  0.00     0.095 C 
ATOM     11  C   UNL A   1      33.813  25.602  25.415  1.00  0.00     0.022 C 
ATOM     12  C   UNL A   1      32.670  24.878  26.126  1.00  0.00     0.053 C 
BRANCH   8  13
ATOM     13  N   UNL A   1      33.907  22.150  23.885  1.00  0.00    -0.332 N 
ATOM     14  H   UNL A   1      34.114  22.510  22.954  1.00  0.00     0.347 HD
ATOM     15  H   UNL A   1      34.547  21.416  24.191  1.00  0.00     0.347 HD
BRANCH  13  16
ATOM     16  C   UNL A   1      32.577  21.537  23.849  1.00  0.00     0.257 C 
ATOM     17  C   UNL A   1      32.143  21.343  22.400  1.00  0.00     0.071 C 
ENDBRANCH  13  16
ENDBRANCH   8  13
BRANCH  12  18
ATOM     18  S   UNL A   1      31.009  25.695  26.078  1.00  0.00    -0.158 SA
BRANCH  18  19
ATOM     19  C   UNL A   1      30.459  25.579  24.326  1.00  0.00     0.073 C 
BRANCH  19  20
ATOM     20  C   UNL A   1      30.346  26.938  23.659  1.00  0.00    -0.001 C 
ATOM     21  C   UNL A   1      28.919  27.453  23.502  1.00  0.00     0.004 C 
ATOM     22  C   UNL A   1      31.020  28.103  24.375  1.00  0.00     0.004 C 
ATOM     23  C   UNL A   1      29.160  28.860  22.968  1.00  0.00     0.000 C 
ATOM     24  C   UNL A   1      30.457  29.327  23.644  1.00  0.00     0.000 C 
ENDBRANCH  19  20
ENDBRANCH  18  19
ENDBRANCH  12  18
ENDBRANCH   6   8
ENDBRANCH   5   6
ENDBRANCH   4   5
ENDBRANCH   3   4
ENDBRANCH   2   3
ENDBRANCH   1   2
BRANCH   1  25
ATOM     25  C   UNL A   1      41.117  20.289  27.364  1.00  0.00     0.188 C 
BRANCH  25  26
ATOM     26  O   UNL A   1      42.366  19.748  27.004  1.00  0.00    -0.376 OA
BRANCH  26  27
ATOM     27  C   UNL A   1      42.916  20.007  25.721  1.00  0.00     0.202 C 
BRANCH  27  28
ATOM     28  C   UNL A   1      43.944  21.135  25.481  1.00  0.00     0.261 C 
BRANCH  28  29
ATOM     29  O   UNL A   1      43.768  22.368  26.202  1.00  0.00    -0.460 OA
BRANCH  29  30
ATOM     30  C   UNL A   1      43.583  23.496  25.475  1.00  0.00     0.338 C 
ATOM     31  O   UNL A   1      43.648  23.605  24.260  1.00  0.00    -0.246 OA
BRANCH  30  32
ATOM     32  C   UNL A   1      42.993  24.514  26.383  1.00  0.00     0.060 A 
ATOM     33  C   UNL A   1      43.512  25.821  26.359  1.00  0.00     0.016 A 
ATOM     34  C   UNL A   1      41.895  24.214  27.190  1.00  0.00     0.016 A 
ATOM     35  C   UNL A   1      42.956  26.819  27.163  1.00  0.00     0.010 A 
ATOM     36  C   UNL A   1      41.359  25.206  28.018  1.00  0.00     0.010 A 
ATOM     37  C   UNL A   1      41.906  26.502  28.034  1.00  0.00    -0.014 A 
BRANCH  37  38
ATOM     38  C   UNL A   1      41.530  27.444  29.120  1.00  0.00     0.031 A 
ATOM     39  C   UNL A   1      42.314  27.385  30.403  1.00  0.00     0.074 A 
ATOM     40  C   UNL A   1      40.530  28.333  28.986  1.00  0.00     0.049 A 
ATOM     41  N   UNL A   1      42.127  28.022  31.530  1.00  0.00    -0.248 NA
ATOM     42  C   UNL A   1      43.468  26.470  30.412  1.00  0.00     0.031 C 
ATOM     43  C   UNL A   1      39.731  28.536  27.782  1.00  0.00     0.029 A 
ATOM     44  N   UNL A   1      40.010  29.224  29.893  1.00  0.00    -0.354 N 
ATOM     45  C   UNL A   1      43.129  27.576  32.384  1.00  0.00     0.074 A 
ATOM     46  C   UNL A   1      43.899  26.591  31.658  1.00  0.00     0.031 C 
ATOM     47  C   UNL A   1      38.805  29.480  28.029  1.00  0.00     0.029 A 
ATOM     48  C   UNL A   1      38.923  29.918  29.421  1.00  0.00     0.049 A 
ATOM     49  H   UNL A   1      40.381  29.353  30.796  1.00  0.00     0.167 HD
ATOM     50  C   UNL A   1      43.388  27.957  33.657  1.00  0.00     0.037 A 
ATOM     51  C   UNL A   1      38.104  30.783  30.052  1.00  0.00     0.037 A 
ATOM     52  C   UNL A   1      42.615  28.932  34.382  1.00  0.00     0.049 A 
ATOM     53  C   UNL A   1      38.351  31.122  31.502  1.00  0.00     0.074 A 
ATOM     54  C   UNL A   1      42.803  29.394  35.672  1.00  0.00     0.029 A 
ATOM     55  N   UNL A   1      41.499  29.585  33.881  1.00  0.00    -0.354 N 
ATOM     56  N   UNL A   1      39.307  30.712  32.302  1.00  0.00    -0.248 NA
ATOM     57  C   UNL A   1      37.402  32.048  32.139  1.00  0.00     0.031 C 
ATOM     58  C   UNL A   1      41.764  30.278  35.975  1.00  0.00     0.029 A 
ATOM     59  C   UNL A   1      40.969  30.424  34.848  1.00  0.00     0.049 A 
ATOM     60  H   UNL A   1      41.136  29.470  32.973  1.00  0.00     0.167 HD
ATOM     61  C   UNL A   1      39.097  31.354  33.516  1.00  0.00     0.074 A 
ATOM     62  C   UNL A   1      37.928  32.191  33.347  1.00  0.00     0.031 C 
ATOM     63  C   UNL A   1      39.810  31.263  34.667  1.00  0.00     0.037 A 
BRANCH  50  64
ATOM     64  C   UNL A   1      44.533  27.285  34.358  1.00  0.00     0.064 A 
ATOM     65  C   UNL A   1      45.831  27.818  34.338  1.00  0.00     0.173 A 
ATOM     66  C   UNL A   1      44.325  26.095  35.072  1.00  0.00     0.173 A 
ATOM     67  F   UNL A   1      46.088  28.945  33.657  1.00  0.00    -0.203 F 
ATOM     68  C   UNL A   1      46.884  27.167  34.975  1.00  0.00     0.198 A 
ATOM     69  C   UNL A   1      45.373  25.467  35.740  1.00  0.00     0.198 A 
ATOM     70  F   UNL A   1      43.104  25.543  35.128  1.00  0.00    -0.203 F 
ATOM     71  F   UNL A   1      48.127  27.661  34.890  1.00  0.00    -0.200 F 
ATOM     72  C   UNL A   1      46.652  25.996  35.681  1.00  0.00     0.200 A 
ATOM     73  F   UNL A   1      45.144  24.343  36.434  1.00  0.00    -0.200 F 
ATOM     74  F   UNL A   1      47.666  25.372  36.299  1.00  0.00    -0.200 F 
ENDBRANCH  50  64
BRANCH  51  75
ATOM     75  C   UNL A   1      36.954  31.388  29.324  1.00  0.00     0.064 A 
ATOM     76  C   UNL A   1      36.954  32.744  28.972  1.00  0.00     0.173 A 
ATOM     77  C   UNL A   1      35.821  30.630  28.993  1.00  0.00     0.173 A 
ATOM     78  F   UNL A   1      38.000  33.519  29.296  1.00  0.00    -0.203 F 
ATOM     79  C   UNL A   1      35.859  33.325  28.334  1.00  0.00     0.198 A 
ATOM     80  C   UNL A   1      34.740  31.203  28.325  1.00  0.00     0.198 A 
ATOM     81  F   UNL A   1      35.763  29.329  29.313  1.00  0.00    -0.203 F 
ATOM     82  F   UNL A   1      35.866  34.636  28.057  1.00  0.00    -0.200 F 
ATOM     83  C   UNL A   1      34.756  32.552  28.004  1.00  0.00     0.200 A 
ATOM     84  F   UNL A   1      33.680  30.451  28.000  1.00  0.00    -0.200 F 
ATOM     85  F   UNL A   1      33.706  33.110  27.387  1.00  0.00    -0.200 F 
ENDBRANCH  51  75
BRANCH  63  86
ATOM     86  C   UNL A   1      39.386  32.126  35.823  1.00  0.00     0.064 A 
ATOM     87  C   UNL A   1      39.911  33.410  36.026  1.00  0.00     0.173 A 
ATOM     88  C   UNL A   1      38.399  31.676  36.716  1.00  0.00     0.173 A 
ATOM     89  F   UNL A   1      40.864  33.886  35.209  1.00  0.00    -0.203 F 
ATOM     90  C   UNL A   1      39.488  34.199  37.094  1.00  0.00     0.198 A 
ATOM     91  C   UNL A   1      37.952  32.481  37.760  1.00  0.00     0.198 A 
ATOM     92  F   UNL A   1      37.853  30.459  36.565  1.00  0.00    -0.203 F 
ATOM     93  F   UNL A   1      40.044  35.401  37.297  1.00  0.00    -0.200 F 
ATOM     94  C   UNL A   1      38.503  33.737  37.954  1.00  0.00     0.200 A 
ATOM     95  F   UNL A   1      36.986  32.040  38.578  1.00  0.00    -0.200 F 
ATOM     96  F   UNL A   1      38.090  34.502  38.974  1.00  0.00    -0.200 F 
ENDBRANCH  63  86
ENDBRANCH  37  38
ENDBRANCH  30  32
ENDBRANCH  29  30
ENDBRANCH  28  29
ENDBRANCH  27  28
ENDBRANCH  26  27
ENDBRANCH  25  26
ENDBRANCH   1  25
TORSDOF 22
ENDMDL
MODEL 2
REMARK VINA RESULT:     -10.0      0.996      2.030
REMARK SMILES CC[NH2+][C@@]1(C(=O)OCCOCCOCCOC(=O)c2ccc(-c3c4nc(c(-c5c(F)c(F)c(F)c(F)c5F)c5ccc([nH]5)c(-c5c(F)c(F)c(F)c(F)c5F)c5nc(c(-c6c(F)c(F)c(F)c(F)c6F)c6ccc3[nH]6)C=C5)C=C4)cc2)CC[C@@H](SCC2CCCC2)C1
REMARK SMILES IDX 11 1 10 2 9 3 8 4 7 5 5 6 6 7 4 8 82 9 92 10 83 11 84 12
REMARK SMILES IDX 3 13 2 16 1 17 85 18 86 19 87 20 88 21 91 22 89 23 90 24
REMARK SMILES IDX 12 25 13 26 14 27 15 28 16 29 17 30 18 31 19 32 20 33 81 34
REMARK SMILES IDX 21 35 80 36 22 37 23 38 24 39 74 40 25 41 79 42 73 43 75 44
REMARK SMILES IDX 26 45 78 46 72 47 71 48 27 50 59 51 39 52 58 53 40 54 43 55
REMARK SMILES IDX 57 56 76 57 41 58 42 59 56 61 77 62 44 63 28 64 29 65 37 66
REMARK SMILES IDX 30 67 31 68 35 69 38 70 32 71 33 72 36 73 34 74 60 75 61 76
REMARK SMILES IDX 69 77 62 78 63 79 67 80 70 81 64 82 65 83 68 84 66 85 45 86
REMARK SMILES IDX 46 87 54 88 47 89 48 90 52 91 55 92 49 93 50 94 53 95 51 96
REMARK H PARENT 3 14 3 15 75 49 43 60
REMARK Flexibility Score: inf
ROOT
ATOM      1  C   UNL A   1      40.116  21.460  26.191  1.00  0.00     0.188 C 
ENDROOT
BRANCH   1   2
ATOM      2  O   UNL A   1      38.705  21.323  26.236  1.00  0.00    -0.376 OA
BRANCH   2   3
ATOM      3  C   UNL A   1      38.000  21.200  25.001  1.00  0.00     0.202 C 
BRANCH   3   4
ATOM      4  C   UNL A   1      36.568  20.630  24.983  1.00  0.00     0.261 C 
BRANCH   4   5
ATOM      5  O   UNL A   1      35.520  21.600  24.759  1.00  0.00    -0.459 OA
BRANCH   5   6
ATOM      6  C   UNL A   1      34.477  21.552  25.626  1.00  0.00     0.368 C 
ATOM      7  O   UNL A   1      34.611  21.627  26.845  1.00  0.00    -0.245 OA
BRANCH   6   8
ATOM      8  C   UNL A   1      33.074  21.408  24.943  1.00  0.00     0.195 C 
ATOM      9  C   UNL A   1      33.271  21.901  23.503  1.00  0.00     0.082 C 
ATOM     10  C   UNL A   1      31.922  22.340  25.414  1.00  0.00     0.095 C 
ATOM     11  C   UNL A   1      33.172  23.426  23.631  1.00  0.00     0.022 C 
ATOM     12  C   UNL A   1      32.111  23.678  24.702  1.00  0.00     0.053 C 
BRANCH   8  13
ATOM     13  N   UNL A   1      32.618  19.993  25.106  1.00  0.00    -0.332 N 
ATOM     14  H   UNL A   1      33.279  19.517  25.719  1.00  0.00     0.347 HD
ATOM     15  H   UNL A   1      31.672  20.043  25.486  1.00  0.00     0.347 HD
BRANCH  13  16
ATOM     16  C   UNL A   1      32.515  19.222  23.865  1.00  0.00     0.257 C 
ATOM     17  C   UNL A   1      33.562  18.113  23.864  1.00  0.00     0.071 C 
ENDBRANCH  13  16
ENDBRANCH   8  13
BRANCH  12  18
ATOM     18  S   UNL A   1      30.566  24.539  24.157  1.00  0.00    -0.158 SA
BRANCH  18  19
ATOM     19  C   UNL A   1      31.073  26.272  23.801  1.00  0.00     0.073 C 
BRANCH  19  20
ATOM     20  C   UNL A   1      31.054  27.151  25.038  1.00  0.00    -0.001 C 
ATOM     21  C   UNL A   1      32.088  26.780  26.097  1.00  0.00     0.004 C 
ATOM     22  C   UNL A   1      31.346  28.632  24.823  1.00  0.00     0.004 C 
ATOM     23  C   UNL A   1      31.919  27.918  27.098  1.00  0.00     0.000 C 
ATOM     24  C   UNL A   1      31.569  29.148  26.249  1.00  0.00     0.000 C 
ENDBRANCH  19  20
ENDBRANCH  18  19
ENDBRANCH  12  18
ENDBRANCH   6   8
ENDBRANCH   5   6
ENDBRANCH   4   5
ENDBRANCH   3   4
ENDBRANCH   2   3
ENDBRANCH   1   2
BRANCH   1  25
ATOM     25  C   UNL A   1      40.890  21.409  27.512  1.00  0.00     0.188 C 
BRANCH  25  26
ATOM     26  O   UNL A   1      42.242  21.030  27.403  1.00  0.00    -0.376 OA
BRANCH  26  27
ATOM     27  C   UNL A   1      42.806  20.745  26.131  1.00  0.00     0.202 C 
BRANCH  27  28
ATOM     28  C   UNL A   1      43.860  21.666  25.478  1.00  0.00     0.261 C 
BRANCH  28  29
ATOM     29  O   UNL A   1      44.259  22.846  26.195  1.00  0.00    -0.460 OA
BRANCH  29  30
ATOM     30  C   UNL A   1      44.151  24.035  25.554  1.00  0.00     0.338 C 
ATOM     31  O   UNL A   1      44.343  24.247  24.366  1.00  0.00    -0.246 OA
BRANCH  30  32
ATOM     32  C   UNL A   1      43.472  24.977  26.481  1.00  0.00     0.060 A 
ATOM     33  C   UNL A   1      43.885  26.321  26.499  1.00  0.00     0.016 A 
ATOM     34  C   UNL A   1      42.393  24.568  27.265  1.00  0.00     0.016 A 
ATOM     35  C   UNL A   1      43.242  27.249  27.322  1.00  0.00     0.010 A 
ATOM     36  C   UNL A   1      41.770  25.491  28.112  1.00  0.00     0.010 A 
ATOM     37  C   UNL A   1      42.211  26.826  28.170  1.00  0.00    -0.014 A 
BRANCH  37  38
ATOM     38  C   UNL A   1      41.749  27.704  29.276  1.00  0.00     0.031 A 
ATOM     39  C   UNL A   1      42.473  27.615  30.592  1.00  0.00     0.074 A 
ATOM     40  C   UNL A   1      40.724  28.562  29.131  1.00  0.00     0.049 A 
ATOM     41  N   UNL A   1      42.209  28.194  31.735  1.00  0.00    -0.248 NA
ATOM     42  C   UNL A   1      43.659  26.742  30.619  1.00  0.00     0.031 C 
ATOM     43  C   UNL A   1      39.977  28.791  27.899  1.00  0.00     0.029 A 
ATOM     44  N   UNL A   1      40.128  29.393  30.049  1.00  0.00    -0.354 N 
ATOM     45  C   UNL A   1      43.185  27.746  32.617  1.00  0.00     0.074 A 
ATOM     46  C   UNL A   1      44.025  26.822  31.888  1.00  0.00     0.031 C 
ATOM     47  C   UNL A   1      39.005  29.690  28.141  1.00  0.00     0.029 A 
ATOM     48  C   UNL A   1      39.040  30.069  29.555  1.00  0.00     0.049 A 
ATOM     49  H   UNL A   1      40.451  29.494  30.974  1.00  0.00     0.167 HD
ATOM     50  C   UNL A   1      43.368  28.078  33.916  1.00  0.00     0.037 A 
ATOM     51  C   UNL A   1      38.160  30.875  30.181  1.00  0.00     0.037 A 
ATOM     52  C   UNL A   1      42.527  28.992  34.644  1.00  0.00     0.049 A 
ATOM     53  C   UNL A   1      38.325  31.157  31.656  1.00  0.00     0.074 A 
ATOM     54  C   UNL A   1      42.636  29.402  35.961  1.00  0.00     0.029 A 
ATOM     55  N   UNL A   1      41.412  29.627  34.117  1.00  0.00    -0.354 N 
ATOM     56  N   UNL A   1      39.257  30.745  32.482  1.00  0.00    -0.248 NA
ATOM     57  C   UNL A   1      37.313  32.020  32.284  1.00  0.00     0.031 C 
ATOM     58  C   UNL A   1      41.551  30.234  36.250  1.00  0.00     0.029 A 
ATOM     59  C   UNL A   1      40.805  30.403  35.093  1.00  0.00     0.049 A 
ATOM     60  H   UNL A   1      41.097  29.540  33.188  1.00  0.00     0.167 HD
ATOM     61  C   UNL A   1      38.965  31.325  33.712  1.00  0.00     0.074 A 
ATOM     62  C   UNL A   1      37.776  32.127  33.521  1.00  0.00     0.031 C 
ATOM     63  C   UNL A   1      39.626  31.207  34.891  1.00  0.00     0.037 A 
BRANCH  50  64
ATOM     64  C   UNL A   1      44.503  27.416  34.644  1.00  0.00     0.064 A 
ATOM     65  C   UNL A   1      44.357  26.167  35.267  1.00  0.00     0.173 A 
ATOM     66  C   UNL A   1      45.760  28.037  34.708  1.00  0.00     0.173 A 
ATOM     67  F   UNL A   1      43.172  25.538  35.250  1.00  0.00    -0.203 F 
ATOM     68  C   UNL A   1      45.415  25.582  35.957  1.00  0.00     0.198 A 
ATOM     69  C   UNL A   1      46.827  27.431  35.367  1.00  0.00     0.198 A 
ATOM     70  F   UNL A   1      45.957  29.229  34.127  1.00  0.00    -0.203 F 
ATOM     71  F   UNL A   1      45.235  24.418  36.597  1.00  0.00    -0.200 F 
ATOM     72  C   UNL A   1      46.651  26.211  36.000  1.00  0.00     0.200 A 
ATOM     73  F   UNL A   1      48.024  28.033  35.394  1.00  0.00    -0.200 F 
ATOM     74  F   UNL A   1      47.671  25.644  36.660  1.00  0.00    -0.200 F 
ENDBRANCH  50  64
BRANCH  51  75
ATOM     75  C   UNL A   1      37.024  31.471  29.424  1.00  0.00     0.064 A 
ATOM     76  C   UNL A   1      36.994  32.840  29.125  1.00  0.00     0.173 A 
ATOM     77  C   UNL A   1      35.934  30.691  29.012  1.00  0.00     0.173 A 
ATOM     78  F   UNL A   1      37.998  33.635  29.526  1.00  0.00    -0.203 F 
ATOM     79  C   UNL A   1      35.910  33.410  28.459  1.00  0.00     0.198 A 
ATOM     80  C   UNL A   1      34.865  31.255  28.318  1.00  0.00     0.198 A 
ATOM     81  F   UNL A   1      35.906  29.377  29.280  1.00  0.00    -0.203 F 
ATOM     82  F   UNL A   1      35.885  34.730  28.233  1.00  0.00    -0.200 F 
ATOM     83  C   UNL A   1      34.850  32.615  28.049  1.00  0.00     0.200 A 
ATOM     84  F   UNL A   1      33.847  30.483  27.915  1.00  0.00    -0.200 F 
ATOM     85  F   UNL A   1      33.810  33.163  27.406  1.00  0.00    -0.200 F 
ENDBRANCH  51  75
BRANCH  63  86
ATOM     86  C   UNL A   1      39.115  32.002  36.061  1.00  0.00     0.064 A 
ATOM     87  C   UNL A   1      38.227  31.458  37.000  1.00  0.00     0.173 A 
ATOM     88  C   UNL A   1      39.561  33.318  36.271  1.00  0.00     0.173 A 
ATOM     89  F   UNL A   1      37.760  30.210  36.843  1.00  0.00    -0.203 F 
ATOM     90  C   UNL A   1      37.783  32.208  38.087  1.00  0.00     0.198 A 
ATOM     91  C   UNL A   1      39.144  34.052  37.377  1.00  0.00     0.198 A 
ATOM     92  F   UNL A   1      40.419  33.887  35.410  1.00  0.00    -0.203 F 
ATOM     93  F   UNL A   1      36.893  31.684  38.941  1.00  0.00    -0.200 F 
ATOM     94  C   UNL A   1      38.248  33.501  38.279  1.00  0.00     0.200 A 
ATOM     95  F   UNL A   1      39.611  35.293  37.571  1.00  0.00    -0.200 F 
ATOM     96  F   UNL A   1      37.827  34.216  39.331  1.00  0.00    -0.200 F 
ENDBRANCH  63  86
ENDBRANCH  37  38
ENDBRANCH  30  32
ENDBRANCH  29  30
ENDBRANCH  28  29
ENDBRANCH  27  28
ENDBRANCH  26  27
ENDBRANCH  25  26
ENDBRANCH   1  25
TORSDOF 22
ENDMDL
MODEL 3
REMARK VINA RESULT:      -9.9      4.495      6.708
REMARK SMILES CC[NH2+][C@@]1(C(=O)OCCOCCOCCOC(=O)c2ccc(-c3c4nc(c(-c5c(F)c(F)c(F)c(F)c5F)c5ccc([nH]5)c(-c5c(F)c(F)c(F)c(F)c5F)c5nc(c(-c6c(F)c(F)c(F)c(F)c6F)c6ccc3[nH]6)C=C5)C=C4)cc2)CC[C@@H](SCC2CCCC2)C1
REMARK SMILES IDX 11 1 10 2 9 3 8 4 7 5 5 6 6 7 4 8 82 9 92 10 83 11 84 12
REMARK SMILES IDX 3 13 2 16 1 17 85 18 86 19 87 20 88 21 91 22 89 23 90 24
REMARK SMILES IDX 12 25 13 26 14 27 15 28 16 29 17 30 18 31 19 32 20 33 81 34
REMARK SMILES IDX 21 35 80 36 22 37 23 38 24 39 74 40 25 41 79 42 73 43 75 44
REMARK SMILES IDX 26 45 78 46 72 47 71 48 27 50 59 51 39 52 58 53 40 54 43 55
REMARK SMILES IDX 57 56 76 57 41 58 42 59 56 61 77 62 44 63 28 64 29 65 37 66
REMARK SMILES IDX 30 67 31 68 35 69 38 70 32 71 33 72 36 73 34 74 60 75 61 76
REMARK SMILES IDX 69 77 62 78 63 79 67 80 70 81 64 82 65 83 68 84 66 85 45 86
REMARK SMILES IDX 46 87 54 88 47 89 48 90 52 91 55 92 49 93 50 94 53 95 51 96
REMARK H PARENT 3 14 3 15 75 49 43 60
REMARK Flexibility Score: inf
ROOT
ATOM      1  C   UNL A   1      36.829  23.413  25.334  1.00  0.00     0.188 C 
ENDROOT
BRANCH   1   2
ATOM      2  O   UNL A   1      35.439  23.403  25.620  1.00  0.00    -0.376 OA
BRANCH   2   3
ATOM      3  C   UNL A   1      34.958  22.476  26.593  1.00  0.00     0.202 C 
BRANCH   3   4
ATOM      4  C   UNL A   1      33.569  22.678  27.230  1.00  0.00     0.261 C 
BRANCH   4   5
ATOM      5  O   UNL A   1      32.464  22.723  26.299  1.00  0.00    -0.459 OA
BRANCH   5   6
ATOM      6  C   UNL A   1      31.755  23.879  26.282  1.00  0.00     0.368 C 
ATOM      7  O   UNL A   1      31.079  24.269  27.232  1.00  0.00    -0.245 OA
BRANCH   6   8
ATOM      8  C   UNL A   1      31.879  24.697  24.951  1.00  0.00     0.195 C 
ATOM      9  C   UNL A   1      32.147  26.144  25.387  1.00  0.00     0.082 C 
ATOM     10  C   UNL A   1      30.608  24.888  24.076  1.00  0.00     0.095 C 
ATOM     11  C   UNL A   1      30.750  26.683  25.713  1.00  0.00     0.022 C 
ATOM     12  C   UNL A   1      29.815  26.040  24.689  1.00  0.00     0.053 C 
BRANCH   8  13
ATOM     13  N   UNL A   1      32.929  24.051  24.103  1.00  0.00    -0.332 N 
ATOM     14  H   UNL A   1      33.643  24.751  23.898  1.00  0.00     0.347 HD
ATOM     15  H   UNL A   1      33.277  23.258  24.641  1.00  0.00     0.347 HD
BRANCH  13  16
ATOM     16  C   UNL A   1      32.455  23.501  22.830  1.00  0.00     0.257 C 
ATOM     17  C   UNL A   1      32.324  21.987  22.946  1.00  0.00     0.071 C 
ENDBRANCH  13  16
ENDBRANCH   8  13
BRANCH  12  18
ATOM     18  S   UNL A   1      28.977  27.180  23.495  1.00  0.00    -0.158 SA
BRANCH  18  19
ATOM     19  C   UNL A   1      29.865  28.784  23.647  1.00  0.00     0.073 C 
BRANCH  19  20
ATOM     20  C   UNL A   1      29.036  29.958  23.157  1.00  0.00    -0.001 C 
ATOM     21  C   UNL A   1      29.293  31.270  23.894  1.00  0.00     0.004 C 
ATOM     22  C   UNL A   1      29.239  30.373  21.704  1.00  0.00     0.004 C 
ATOM     23  C   UNL A   1      28.454  32.246  23.077  1.00  0.00     0.000 C 
ATOM     24  C   UNL A   1      28.533  31.732  21.633  1.00  0.00     0.000 C 
ENDBRANCH  19  20
ENDBRANCH  18  19
ENDBRANCH  12  18
ENDBRANCH   6   8
ENDBRANCH   5   6
ENDBRANCH   4   5
ENDBRANCH   3   4
ENDBRANCH   2   3
ENDBRANCH   1   2
BRANCH   1  25
ATOM     25  C   UNL A   1      37.680  22.246  25.840  1.00  0.00     0.188 C 
BRANCH  25  26
ATOM     26  O   UNL A   1      38.082  21.323  24.856  1.00  0.00    -0.376 OA
BRANCH  26  27
ATOM     27  C   UNL A   1      38.300  19.961  25.197  1.00  0.00     0.202 C 
BRANCH  27  28
ATOM     28  C   UNL A   1      39.660  19.457  25.728  1.00  0.00     0.261 C 
BRANCH  28  29
ATOM     29  O   UNL A   1      40.136  19.995  26.974  1.00  0.00    -0.460 OA
BRANCH  29  30
ATOM     30  C   UNL A   1      41.459  20.268  27.073  1.00  0.00     0.338 C 
ATOM     31  O   UNL A   1      42.385  19.537  26.752  1.00  0.00    -0.246 OA
BRANCH  30  32
ATOM     32  C   UNL A   1      41.591  21.721  27.358  1.00  0.00     0.060 A 
ATOM     33  C   UNL A   1      40.986  22.638  26.481  1.00  0.00     0.016 A 
ATOM     34  C   UNL A   1      42.229  22.175  28.512  1.00  0.00     0.016 A 
ATOM     35  C   UNL A   1      41.047  24.010  26.738  1.00  0.00     0.010 A 
ATOM     36  C   UNL A   1      42.317  23.551  28.753  1.00  0.00     0.010 A 
ATOM     37  C   UNL A   1      41.756  24.475  27.852  1.00  0.00    -0.014 A 
BRANCH  37  38
ATOM     38  C   UNL A   1      42.114  25.913  27.959  1.00  0.00     0.031 A 
ATOM     39  C   UNL A   1      43.432  26.354  27.381  1.00  0.00     0.074 A 
ATOM     40  C   UNL A   1      41.304  26.814  28.544  1.00  0.00     0.049 A 
ATOM     41  N   UNL A   1      44.020  27.521  27.429  1.00  0.00    -0.248 NA
ATOM     42  C   UNL A   1      44.192  25.326  26.651  1.00  0.00     0.031 C 
ATOM     43  C   UNL A   1      39.981  26.534  29.091  1.00  0.00     0.029 A 
ATOM     44  N   UNL A   1      41.496  28.152  28.786  1.00  0.00    -0.354 N 
ATOM     45  C   UNL A   1      45.222  27.364  26.750  1.00  0.00     0.074 A 
ATOM     46  C   UNL A   1      45.295  25.982  26.329  1.00  0.00     0.031 C 
ATOM     47  C   UNL A   1      39.484  27.666  29.624  1.00  0.00     0.029 A 
ATOM     48  C   UNL A   1      40.472  28.737  29.490  1.00  0.00     0.049 A 
ATOM     49  H   UNL A   1      42.293  28.646  28.483  1.00  0.00     0.167 HD
ATOM     50  C   UNL A   1      46.177  28.288  26.495  1.00  0.00     0.037 A 
ATOM     51  C   UNL A   1      40.363  29.984  29.991  1.00  0.00     0.037 A 
ATOM     52  C   UNL A   1      46.108  29.661  26.921  1.00  0.00     0.049 A 
ATOM     53  C   UNL A   1      41.484  30.973  29.778  1.00  0.00     0.074 A 
ATOM     54  C   UNL A   1      47.020  30.679  26.703  1.00  0.00     0.029 A 
ATOM     55  N   UNL A   1      45.071  30.205  27.664  1.00  0.00    -0.354 N 
ATOM     56  N   UNL A   1      42.611  30.827  29.123  1.00  0.00    -0.248 NA
ATOM     57  C   UNL A   1      41.315  32.306  30.378  1.00  0.00     0.031 C 
ATOM     58  C   UNL A   1      46.567  31.821  27.369  1.00  0.00     0.029 A 
ATOM     59  C   UNL A   1      45.336  31.538  27.940  1.00  0.00     0.049 A 
ATOM     60  H   UNL A   1      44.266  29.717  27.954  1.00  0.00     0.167 HD
ATOM     61  C   UNL A   1      43.264  32.052  29.200  1.00  0.00     0.074 A 
ATOM     62  C   UNL A   1      42.403  32.935  29.956  1.00  0.00     0.031 C 
ATOM     63  C   UNL A   1      44.466  32.413  28.686  1.00  0.00     0.037 A 
BRANCH  50  64
ATOM     64  C   UNL A   1      47.399  27.830  25.751  1.00  0.00     0.064 A 
ATOM     65  C   UNL A   1      47.437  27.774  24.349  1.00  0.00     0.173 A 
ATOM     66  C   UNL A   1      48.555  27.453  26.453  1.00  0.00     0.173 A 
ATOM     67  F   UNL A   1      46.354  28.107  23.630  1.00  0.00    -0.203 F 
ATOM     68  C   UNL A   1      48.572  27.323  23.679  1.00  0.00     0.198 A 
ATOM     69  C   UNL A   1      49.700  27.039  25.778  1.00  0.00     0.198 A 
ATOM     70  F   UNL A   1      48.576  27.491  27.793  1.00  0.00    -0.203 F 
ATOM     71  F   UNL A   1      48.563  27.219  22.344  1.00  0.00    -0.200 F 
ATOM     72  C   UNL A   1      49.705  26.963  24.394  1.00  0.00     0.200 A 
ATOM     73  F   UNL A   1      50.799  26.706  26.471  1.00  0.00    -0.200 F 
ATOM     74  F   UNL A   1      50.798  26.535  23.749  1.00  0.00    -0.200 F 
ENDBRANCH  50  64
BRANCH  51  75
ATOM     75  C   UNL A   1      39.150  30.375  30.761  1.00  0.00     0.064 A 
ATOM     76  C   UNL A   1      38.058  30.984  30.128  1.00  0.00     0.173 A 
ATOM     77  C   UNL A   1      39.071  30.175  32.147  1.00  0.00     0.173 A 
ATOM     78  F   UNL A   1      38.098  31.226  28.809  1.00  0.00    -0.203 F 
ATOM     79  C   UNL A   1      36.941  31.395  30.853  1.00  0.00     0.198 A 
ATOM     80  C   UNL A   1      37.940  30.557  32.867  1.00  0.00     0.198 A 
ATOM     81  F   UNL A   1      40.091  29.605  32.805  1.00  0.00    -0.203 F 
ATOM     82  F   UNL A   1      35.935  32.022  30.230  1.00  0.00    -0.200 F 
ATOM     83  C   UNL A   1      36.880  31.174  32.221  1.00  0.00     0.200 A 
ATOM     84  F   UNL A   1      37.881  30.334  34.187  1.00  0.00    -0.200 F 
ATOM     85  F   UNL A   1      35.804  31.566  32.917  1.00  0.00    -0.200 F 
ENDBRANCH  51  75
BRANCH  63  86
ATOM     86  C   UNL A   1      44.906  33.839  28.873  1.00  0.00     0.064 A 
ATOM     87  C   UNL A   1      45.701  34.236  29.958  1.00  0.00     0.173 A 
ATOM     88  C   UNL A   1      44.566  34.816  27.922  1.00  0.00     0.173 A 
ATOM     89  F   UNL A   1      46.047  33.347  30.902  1.00  0.00    -0.203 F 
ATOM     90  C   UNL A   1      46.113  35.560  30.100  1.00  0.00     0.198 A 
ATOM     91  C   UNL A   1      45.009  36.129  28.048  1.00  0.00     0.198 A 
ATOM     92  F   UNL A   1      43.815  34.490  26.858  1.00  0.00    -0.203 F 
ATOM     93  F   UNL A   1      46.827  35.926  31.174  1.00  0.00    -0.200 F 
ATOM     94  C   UNL A   1      45.774  36.502  29.141  1.00  0.00     0.200 A 
ATOM     95  F   UNL A   1      44.696  37.033  27.109  1.00  0.00    -0.200 F 
ATOM     96  F   UNL A   1      46.180  37.772  29.275  1.00  0.00    -0.200 F 
ENDBRANCH  63  86
ENDBRANCH  37  38
ENDBRANCH  30  32
ENDBRANCH  29  30
ENDBRANCH  28  29
ENDBRANCH  27  28
ENDBRANCH  26  27
ENDBRANCH  25  26
ENDBRANCH   1  25
TORSDOF 22
ENDMDL
