MODEL 1
REMARK VINA RESULT:     -12.0      0.000      0.000
REMARK SMILES O=C(OCCOCCOCCOC(=O)c1ccc(-c2c3nc(c(-c4c(F)c(F)c(F)c(F)c4F)c4ccc([nH]4)c(-c4c(F)c(F)c(F)c(F)c4F)c4nc(c(-c5c(F)c(F)c(F)c(F)c5F)c5ccc2[nH]5)C=C4)C=C3)cc1)C1=Cc2cc(S(F)(F)(F)(F)F)cc(Br)c2O[C@@H]1C(F)(F)F
REMARK SMILES IDX 8 1 7 2 6 3 5 4 4 5 3 6 2 7 1 8 78 9 79 10 94 11 80 12 93 13
REMARK SMILES IDX 81 14 92 15 82 16 90 17 89 18 91 19 95 20 96 21 97 22 98 23
REMARK SMILES IDX 83 24 84 25 85 26 86 27 87 28 88 29 9 30 10 31 11 32 12 33
REMARK SMILES IDX 13 34 14 35 15 36 16 37 77 38 17 39 76 40 18 41 19 42 20 43
REMARK SMILES IDX 70 44 21 45 75 46 69 47 71 48 22 49 74 50 68 51 67 52 23 54
REMARK SMILES IDX 55 55 35 56 54 57 36 58 39 59 53 60 72 61 37 62 38 63 52 65
REMARK SMILES IDX 73 66 40 67 24 68 25 69 33 70 26 71 27 72 31 73 34 74 28 75
REMARK SMILES IDX 29 76 32 77 30 78 56 79 57 80 65 81 58 82 59 83 63 84 66 85
REMARK SMILES IDX 60 86 61 87 64 88 62 89 41 90 42 91 50 92 43 93 44 94 48 95
REMARK SMILES IDX 51 96 45 97 46 98 49 99 47 100
REMARK H PARENT 71 53 39 64
REMARK Flexibility Score: inf
ROOT
ATOM      1  C   UNL A   1      36.323  21.399  25.141  1.00  0.00     0.188 C 
ENDROOT
BRANCH   1   2
ATOM      2  C   UNL A   1      35.158  21.584  26.099  1.00  0.00     0.188 C 
BRANCH   2   3
ATOM      3  O   UNL A   1      35.255  22.857  26.722  1.00  0.00    -0.376 OA
BRANCH   3   4
ATOM      4  C   UNL A   1      34.617  23.831  25.910  1.00  0.00     0.202 C 
BRANCH   4   5
ATOM      5  C   UNL A   1      33.175  24.000  26.361  1.00  0.00     0.261 C 
BRANCH   5   6
ATOM      6  O   UNL A   1      32.700  25.275  25.956  1.00  0.00    -0.460 OA
BRANCH   6   7
ATOM      7  C   UNL A   1      31.512  25.378  25.184  1.00  0.00     0.338 C 
ATOM      8  O   UNL A   1      30.407  25.645  25.752  1.00  0.00    -0.246 OA
BRANCH   7   9
ATOM      9  C   UNL A   1      31.564  25.170  23.679  1.00  0.00     0.087 C 
ATOM     10  C   UNL A   1      31.249  26.193  22.840  1.00  0.00     0.027 C 
ATOM     11  C   UNL A   1      31.967  23.819  23.112  1.00  0.00     0.316 C 
ATOM     12  C   UNL A   1      30.846  27.544  23.408  1.00  0.00     0.020 A 
ATOM     13  O   UNL A   1      32.552  27.288  25.042  1.00  0.00    -0.474 OA
ATOM     14  C   UNL A   1      29.761  28.214  22.866  1.00  0.00     0.036 A 
ATOM     15  C   UNL A   1      31.551  28.067  24.404  1.00  0.00     0.142 A 
ATOM     16  C   UNL A   1      29.674  29.572  23.254  1.00  0.00     0.109 A 
ATOM     17  C   UNL A   1      31.320  29.355  24.823  1.00  0.00     0.062 A 
ATOM     18  C   UNL A   1      30.302  30.097  24.290  1.00  0.00     0.044 A 
ATOM     19  Br  UNL A   1      32.467  30.140  26.206  1.00  0.00    -0.047 Br
BRANCH  11  20
ATOM     20  C   UNL A   1      33.209  23.981  22.250  1.00  0.00     0.430 C 
ATOM     21  F   UNL A   1      33.861  22.824  22.187  1.00  0.00    -0.167 F 
ATOM     22  F   UNL A   1      32.851  24.356  21.025  1.00  0.00    -0.167 F 
ATOM     23  F   UNL A   1      33.999  24.907  22.784  1.00  0.00    -0.167 F 
ENDBRANCH  11  20
BRANCH  16  24
ATOM     24  S   UNL A   1      28.627  30.666  22.263  1.00  0.00     0.310 S 
ATOM     25  F   UNL A   1      27.909  29.441  21.556  1.00  0.00    -0.094 F 
ATOM     26  F   UNL A   1      29.703  30.610  21.114  1.00  0.00    -0.094 F 
ATOM     27  F   UNL A   1      27.727  31.605  21.412  1.00  0.00    -0.094 F 
ATOM     28  F   UNL A   1      27.497  30.598  23.365  1.00  0.00    -0.094 F 
ATOM     29  F   UNL A   1      29.477  29.622  23.090  1.00  0.00    -0.094 F 
ENDBRANCH  16  24
ENDBRANCH   7   9
ENDBRANCH   6   7
ENDBRANCH   5   6
ENDBRANCH   4   5
ENDBRANCH   3   4
ENDBRANCH   2   3
ENDBRANCH   1   2
BRANCH   1  30
ATOM     30  O   UNL A   1      36.745  20.043  25.167  1.00  0.00    -0.376 OA
BRANCH  30  31
ATOM     31  C   UNL A   1      38.053  19.943  24.622  1.00  0.00     0.202 C 
BRANCH  31  32
ATOM     32  C   UNL A   1      39.078  20.088  25.735  1.00  0.00     0.261 C 
BRANCH  32  33
ATOM     33  O   UNL A   1      40.015  19.024  25.657  1.00  0.00    -0.460 OA
BRANCH  33  34
ATOM     34  C   UNL A   1      41.375  19.251  25.997  1.00  0.00     0.338 C 
ATOM     35  O   UNL A   1      42.208  18.293  25.963  1.00  0.00    -0.246 OA
BRANCH  34  36
ATOM     36  C   UNL A   1      41.834  20.643  26.403  1.00  0.00     0.060 A 
ATOM     37  C   UNL A   1      42.151  21.570  25.423  1.00  0.00     0.016 A 
ATOM     38  C   UNL A   1      41.896  20.953  27.692  1.00  0.00     0.016 A 
ATOM     39  C   UNL A   1      42.806  22.724  25.917  1.00  0.00     0.010 A 
ATOM     40  C   UNL A   1      42.423  22.155  28.097  1.00  0.00     0.010 A 
ATOM     41  C   UNL A   1      42.813  23.096  27.184  1.00  0.00    -0.014 A 
BRANCH  41  42
ATOM     42  C   UNL A   1      43.230  24.496  27.605  1.00  0.00     0.031 A 
ATOM     43  C   UNL A   1      44.596  24.767  27.701  1.00  0.00     0.074 A 
ATOM     44  C   UNL A   1      42.236  25.416  27.894  1.00  0.00     0.049 A 
ATOM     45  N   UNL A   1      45.174  25.920  28.042  1.00  0.00    -0.248 NA
ATOM     46  C   UNL A   1      45.653  23.782  27.428  1.00  0.00     0.031 C 
ATOM     47  C   UNL A   1      40.856  25.152  27.790  1.00  0.00     0.029 A 
ATOM     48  N   UNL A   1      42.386  26.715  28.323  1.00  0.00    -0.354 N 
ATOM     49  C   UNL A   1      46.503  25.798  28.003  1.00  0.00     0.074 A 
ATOM     50  C   UNL A   1      46.830  24.420  27.614  1.00  0.00     0.031 C 
ATOM     51  C   UNL A   1      40.185  26.273  28.163  1.00  0.00     0.029 A 
ATOM     52  C   UNL A   1      41.132  27.257  28.505  1.00  0.00     0.049 A 
ATOM     53  H   UNL A   1      43.242  27.179  28.474  1.00  0.00     0.167 HD
ATOM     54  C   UNL A   1      47.455  26.782  28.275  1.00  0.00     0.037 A 
ATOM     55  C   UNL A   1      40.814  28.531  28.944  1.00  0.00     0.037 A 
ATOM     56  C   UNL A   1      47.135  28.071  28.673  1.00  0.00     0.049 A 
ATOM     57  C   UNL A   1      41.767  29.499  29.273  1.00  0.00     0.074 A 
ATOM     58  C   UNL A   1      48.082  29.077  28.945  1.00  0.00     0.029 A 
ATOM     59  N   UNL A   1      45.882  28.603  28.878  1.00  0.00    -0.354 N 
ATOM     60  N   UNL A   1      43.093  29.388  29.197  1.00  0.00    -0.248 NA
ATOM     61  C   UNL A   1      41.441  30.841  29.771  1.00  0.00     0.031 C 
ATOM     62  C   UNL A   1      47.410  30.198  29.317  1.00  0.00     0.029 A 
ATOM     63  C   UNL A   1      46.031  29.911  29.285  1.00  0.00     0.049 A 
ATOM     64  H   UNL A   1      45.027  28.132  28.756  1.00  0.00     0.167 HD
ATOM     65  C   UNL A   1      43.672  30.529  29.577  1.00  0.00     0.074 A 
ATOM     66  C   UNL A   1      42.617  31.479  29.959  1.00  0.00     0.031 C 
ATOM     67  C   UNL A   1      45.037  30.818  29.618  1.00  0.00     0.037 A 
BRANCH  54  68
ATOM     68  C   UNL A   1      48.923  26.421  28.127  1.00  0.00     0.064 A 
ATOM     69  C   UNL A   1      49.642  25.963  29.218  1.00  0.00     0.173 A 
ATOM     70  C   UNL A   1      49.500  26.588  26.943  1.00  0.00     0.173 A 
ATOM     71  F   UNL A   1      49.067  25.543  30.342  1.00  0.00    -0.203 F 
ATOM     72  C   UNL A   1      51.045  25.981  29.030  1.00  0.00     0.198 A 
ATOM     73  C   UNL A   1      50.862  26.458  26.803  1.00  0.00     0.198 A 
ATOM     74  F   UNL A   1      48.754  26.884  25.882  1.00  0.00    -0.203 F 
ATOM     75  F   UNL A   1      51.816  25.910  30.112  1.00  0.00    -0.200 F 
ATOM     76  C   UNL A   1      51.642  26.064  27.855  1.00  0.00     0.200 A 
ATOM     77  F   UNL A   1      51.428  26.717  25.628  1.00  0.00    -0.200 F 
ATOM     78  F   UNL A   1      52.932  25.782  27.703  1.00  0.00    -0.200 F 
ENDBRANCH  54  68
BRANCH  55  79
ATOM     79  C   UNL A   1      39.345  28.898  29.076  1.00  0.00     0.064 A 
ATOM     80  C   UNL A   1      38.651  29.457  28.015  1.00  0.00     0.173 A 
ATOM     81  C   UNL A   1      38.748  28.655  30.238  1.00  0.00     0.173 A 
ATOM     82  F   UNL A   1      39.125  29.485  26.773  1.00  0.00    -0.203 F 
ATOM     83  C   UNL A   1      37.392  29.995  28.373  1.00  0.00     0.198 A 
ATOM     84  C   UNL A   1      37.467  29.091  30.470  1.00  0.00     0.198 A 
ATOM     85  F   UNL A   1      39.397  27.982  31.183  1.00  0.00    -0.203 F 
ATOM     86  F   UNL A   1      36.824  30.852  27.531  1.00  0.00    -0.200 F 
ATOM     87  C   UNL A   1      36.742  29.704  29.486  1.00  0.00     0.200 A 
ATOM     88  F   UNL A   1      36.922  28.915  31.671  1.00  0.00    -0.200 F 
ATOM     89  F   UNL A   1      35.454  29.992  29.640  1.00  0.00    -0.200 F 
ENDBRANCH  55  79
BRANCH  67  90
ATOM     90  C   UNL A   1      45.459  32.213  30.051  1.00  0.00     0.064 A 
ATOM     91  C   UNL A   1      45.744  32.456  31.385  1.00  0.00     0.173 A 
ATOM     92  C   UNL A   1      45.577  33.168  29.137  1.00  0.00     0.173 A 
ATOM     93  F   UNL A   1      45.887  31.487  32.285  1.00  0.00    -0.203 F 
ATOM     94  C   UNL A   1      45.870  33.829  31.703  1.00  0.00     0.198 A 
ATOM     95  C   UNL A   1      45.835  34.465  29.509  1.00  0.00     0.198 A 
ATOM     96  F   UNL A   1      45.443  32.866  27.848  1.00  0.00    -0.203 F 
ATOM     97  F   UNL A   1      45.782  34.178  32.983  1.00  0.00    -0.200 F 
ATOM     98  C   UNL A   1      46.068  34.788  30.816  1.00  0.00     0.200 A 
ATOM     99  F   UNL A   1      45.859  35.420  28.583  1.00  0.00    -0.200 F 
ATOM    100  F   UNL A   1      46.472  36.002  31.177  1.00  0.00    -0.200 F 
ENDBRANCH  67  90
ENDBRANCH  41  42
ENDBRANCH  34  36
ENDBRANCH  33  34
ENDBRANCH  32  33
ENDBRANCH  31  32
ENDBRANCH  30  31
ENDBRANCH   1  30
TORSDOF 19
ENDMDL
MODEL 2
REMARK VINA RESULT:     -12.0      0.342      7.050
REMARK SMILES O=C(OCCOCCOCCOC(=O)c1ccc(-c2c3nc(c(-c4c(F)c(F)c(F)c(F)c4F)c4ccc([nH]4)c(-c4c(F)c(F)c(F)c(F)c4F)c4nc(c(-c5c(F)c(F)c(F)c(F)c5F)c5ccc2[nH]5)C=C4)C=C3)cc1)C1=Cc2cc(S(F)(F)(F)(F)F)cc(Br)c2O[C@@H]1C(F)(F)F
REMARK SMILES IDX 8 1 7 2 6 3 5 4 4 5 3 6 2 7 1 8 78 9 79 10 94 11 80 12 93 13
REMARK SMILES IDX 81 14 92 15 82 16 90 17 89 18 91 19 95 20 96 21 97 22 98 23
REMARK SMILES IDX 83 24 84 25 85 26 86 27 87 28 88 29 9 30 10 31 11 32 12 33
REMARK SMILES IDX 13 34 14 35 15 36 16 37 77 38 17 39 76 40 18 41 19 42 20 43
REMARK SMILES IDX 70 44 21 45 75 46 69 47 71 48 22 49 74 50 68 51 67 52 23 54
REMARK SMILES IDX 55 55 35 56 54 57 36 58 39 59 53 60 72 61 37 62 38 63 52 65
REMARK SMILES IDX 73 66 40 67 24 68 25 69 33 70 26 71 27 72 31 73 34 74 28 75
REMARK SMILES IDX 29 76 32 77 30 78 56 79 57 80 65 81 58 82 59 83 63 84 66 85
REMARK SMILES IDX 60 86 61 87 64 88 62 89 41 90 42 91 50 92 43 93 44 94 48 95
REMARK SMILES IDX 51 96 45 97 46 98 49 99 47 100
REMARK H PARENT 71 53 39 64
REMARK Flexibility Score: inf
ROOT
ATOM      1  C   UNL A   1      36.311  21.365  25.103  1.00  0.00     0.188 C 
ENDROOT
BRANCH   1   2
ATOM      2  C   UNL A   1      35.146  21.573  26.056  1.00  0.00     0.188 C 
BRANCH   2   3
ATOM      3  O   UNL A   1      35.251  22.854  26.660  1.00  0.00    -0.376 OA
BRANCH   3   4
ATOM      4  C   UNL A   1      34.589  23.814  25.850  1.00  0.00     0.202 C 
BRANCH   4   5
ATOM      5  C   UNL A   1      33.171  24.015  26.359  1.00  0.00     0.261 C 
BRANCH   5   6
ATOM      6  O   UNL A   1      32.692  25.283  25.937  1.00  0.00    -0.460 OA
BRANCH   6   7
ATOM      7  C   UNL A   1      31.500  25.371  25.169  1.00  0.00     0.338 C 
ATOM      8  O   UNL A   1      30.394  25.625  25.741  1.00  0.00    -0.246 OA
BRANCH   7   9
ATOM      9  C   UNL A   1      31.549  25.164  23.664  1.00  0.00     0.087 C 
ATOM     10  C   UNL A   1      31.231  26.187  22.826  1.00  0.00     0.027 C 
ATOM     11  C   UNL A   1      31.952  23.813  23.095  1.00  0.00     0.316 C 
ATOM     12  C   UNL A   1      30.828  27.538  23.395  1.00  0.00     0.020 A 
ATOM     13  O   UNL A   1      32.538  27.282  25.025  1.00  0.00    -0.474 OA
ATOM     14  C   UNL A   1      29.742  28.207  22.856  1.00  0.00     0.036 A 
ATOM     15  C   UNL A   1      31.535  28.061  24.390  1.00  0.00     0.142 A 
ATOM     16  C   UNL A   1      29.654  29.565  23.245  1.00  0.00     0.109 A 
ATOM     17  C   UNL A   1      31.304  29.348  24.810  1.00  0.00     0.062 A 
ATOM     18  C   UNL A   1      30.285  30.090  24.280  1.00  0.00     0.044 A 
ATOM     19  Br  UNL A   1      32.454  30.134  26.191  1.00  0.00    -0.047 Br
BRANCH  11  20
ATOM     20  C   UNL A   1      33.191  23.977  22.230  1.00  0.00     0.430 C 
ATOM     21  F   UNL A   1      33.855  22.826  22.183  1.00  0.00    -0.167 F 
ATOM     22  F   UNL A   1      32.829  24.331  21.000  1.00  0.00    -0.167 F 
ATOM     23  F   UNL A   1      33.971  24.919  22.751  1.00  0.00    -0.167 F 
ENDBRANCH  11  20
BRANCH  16  24
ATOM     24  S   UNL A   1      28.605  30.659  22.257  1.00  0.00     0.310 S 
ATOM     25  F   UNL A   1      27.862  29.434  21.576  1.00  0.00    -0.094 F 
ATOM     26  F   UNL A   1      29.662  30.576  21.092  1.00  0.00    -0.094 F 
ATOM     27  F   UNL A   1      27.702  31.598  21.408  1.00  0.00    -0.094 F 
ATOM     28  F   UNL A   1      27.492  30.617  23.378  1.00  0.00    -0.094 F 
ATOM     29  F   UNL A   1      29.456  29.616  23.084  1.00  0.00    -0.094 F 
ENDBRANCH  16  24
ENDBRANCH   7   9
ENDBRANCH   6   7
ENDBRANCH   5   6
ENDBRANCH   4   5
ENDBRANCH   3   4
ENDBRANCH   2   3
ENDBRANCH   1   2
BRANCH   1  30
ATOM     30  O   UNL A   1      36.713  20.003  25.138  1.00  0.00    -0.376 OA
BRANCH  30  31
ATOM     31  C   UNL A   1      38.032  19.885  24.626  1.00  0.00     0.202 C 
BRANCH  31  32
ATOM     32  C   UNL A   1      39.032  20.070  25.756  1.00  0.00     0.261 C 
BRANCH  32  33
ATOM     33  O   UNL A   1      39.999  19.032  25.708  1.00  0.00    -0.460 OA
BRANCH  33  34
ATOM     34  C   UNL A   1      41.362  19.319  25.983  1.00  0.00     0.338 C 
ATOM     35  O   UNL A   1      42.245  18.418  25.835  1.00  0.00    -0.246 OA
BRANCH  34  36
ATOM     36  C   UNL A   1      41.765  20.707  26.455  1.00  0.00     0.060 A 
ATOM     37  C   UNL A   1      41.752  20.999  27.809  1.00  0.00     0.016 A 
ATOM     38  C   UNL A   1      42.151  21.608  25.559  1.00  0.00     0.016 A 
ATOM     39  C   UNL A   1      41.891  22.377  28.100  1.00  0.00     0.010 A 
ATOM     40  C   UNL A   1      42.403  22.905  25.936  1.00  0.00     0.010 A 
ATOM     41  C   UNL A   1      42.350  23.279  27.250  1.00  0.00    -0.014 A 
BRANCH  41  42
ATOM     42  C   UNL A   1      42.796  24.657  27.710  1.00  0.00     0.031 A 
ATOM     43  C   UNL A   1      41.806  25.594  28.015  1.00  0.00     0.074 A 
ATOM     44  C   UNL A   1      44.154  24.918  27.774  1.00  0.00     0.049 A 
ATOM     45  N   UNL A   1      41.976  26.847  28.441  1.00  0.00    -0.248 NA
ATOM     46  C   UNL A   1      40.364  25.331  27.914  1.00  0.00     0.031 C 
ATOM     47  C   UNL A   1      45.158  23.975  27.476  1.00  0.00     0.029 A 
ATOM     48  N   UNL A   1      44.774  26.096  28.127  1.00  0.00    -0.354 N 
ATOM     49  C   UNL A   1      40.792  27.428  28.645  1.00  0.00     0.074 A 
ATOM     50  C   UNL A   1      39.738  26.464  28.304  1.00  0.00     0.031 C 
ATOM     51  C   UNL A   1      46.364  24.581  27.635  1.00  0.00     0.029 A 
ATOM     52  C   UNL A   1      46.136  25.911  28.036  1.00  0.00     0.049 A 
ATOM     53  H   UNL A   1      44.321  26.928  28.397  1.00  0.00     0.167 HD
ATOM     54  C   UNL A   1      40.550  28.723  29.105  1.00  0.00     0.037 A 
ATOM     55  C   UNL A   1      47.136  26.837  28.282  1.00  0.00     0.037 A 
ATOM     56  C   UNL A   1      41.553  29.636  29.394  1.00  0.00     0.049 A 
ATOM     57  C   UNL A   1      46.893  28.152  28.687  1.00  0.00     0.074 A 
ATOM     58  C   UNL A   1      41.326  30.944  29.865  1.00  0.00     0.029 A 
ATOM     59  N   UNL A   1      42.914  29.458  29.279  1.00  0.00    -0.354 N 
ATOM     60  N   UNL A   1      45.711  28.720  28.929  1.00  0.00    -0.248 NA
ATOM     61  C   UNL A   1      47.944  29.151  28.920  1.00  0.00     0.031 C 
ATOM     62  C   UNL A   1      42.533  31.549  30.024  1.00  0.00     0.029 A 
ATOM     63  C   UNL A   1      43.534  30.629  29.654  1.00  0.00     0.049 A 
ATOM     64  H   UNL A   1      43.365  28.636  28.981  1.00  0.00     0.167 HD
ATOM     65  C   UNL A   1      45.880  29.986  29.315  1.00  0.00     0.074 A 
ATOM     66  C   UNL A   1      47.319  30.284  29.308  1.00  0.00     0.031 C 
ATOM     67  C   UNL A   1      44.893  30.904  29.676  1.00  0.00     0.037 A 
BRANCH  54  68
ATOM     68  C   UNL A   1      39.107  29.158  29.301  1.00  0.00     0.064 A 
ATOM     69  C   UNL A   1      38.401  29.725  28.253  1.00  0.00     0.173 A 
ATOM     70  C   UNL A   1      38.559  29.011  30.502  1.00  0.00     0.173 A 
ATOM     71  F   UNL A   1      38.807  29.664  26.988  1.00  0.00    -0.203 F 
ATOM     72  C   UNL A   1      37.209  30.376  28.651  1.00  0.00     0.198 A 
ATOM     73  C   UNL A   1      37.329  29.558  30.780  1.00  0.00     0.198 A 
ATOM     74  F   UNL A   1      39.206  28.329  31.443  1.00  0.00    -0.203 F 
ATOM     75  F   UNL A   1      36.663  31.240  27.800  1.00  0.00    -0.200 F 
ATOM     76  C   UNL A   1      36.601  30.184  29.807  1.00  0.00     0.200 A 
ATOM     77  F   UNL A   1      36.839  29.475  32.015  1.00  0.00    -0.200 F 
ATOM     78  F   UNL A   1      35.349  30.580  30.014  1.00  0.00    -0.200 F 
ENDBRANCH  54  68
BRANCH  55  79
ATOM     79  C   UNL A   1      48.580  26.397  28.103  1.00  0.00     0.064 A 
ATOM     80  C   UNL A   1      49.295  25.850  29.156  1.00  0.00     0.173 A 
ATOM     81  C   UNL A   1      49.128  26.546  26.902  1.00  0.00     0.173 A 
ATOM     82  F   UNL A   1      48.725  25.450  30.290  1.00  0.00    -0.203 F 
ATOM     83  C   UNL A   1      50.686  25.754  28.916  1.00  0.00     0.198 A 
ATOM     84  C   UNL A   1      50.465  26.303  26.709  1.00  0.00     0.198 A 
ATOM     85  F   UNL A   1      48.373  26.932  25.878  1.00  0.00    -0.203 F 
ATOM     86  F   UNL A   1      51.485  25.588  29.966  1.00  0.00    -0.200 F 
ATOM     87  C   UNL A   1      51.246  25.817  27.721  1.00  0.00     0.200 A 
ATOM     88  F   UNL A   1      51.011  26.545  25.520  1.00  0.00    -0.200 F 
ATOM     89  F   UNL A   1      52.501  25.430  27.515  1.00  0.00    -0.200 F 
ENDBRANCH  55  79
BRANCH  67  90
ATOM     90  C   UNL A   1      45.334  32.289  30.123  1.00  0.00     0.064 A 
ATOM     91  C   UNL A   1      45.411  33.314  29.194  1.00  0.00     0.173 A 
ATOM     92  C   UNL A   1      45.609  32.499  31.405  1.00  0.00     0.173 A 
ATOM     93  F   UNL A   1      44.908  33.219  27.966  1.00  0.00    -0.203 F 
ATOM     94  C   UNL A   1      46.073  34.470  29.670  1.00  0.00     0.198 A 
ATOM     95  C   UNL A   1      46.128  33.701  31.820  1.00  0.00     0.198 A 
ATOM     96  F   UNL A   1      45.381  31.536  32.294  1.00  0.00    -0.203 F 
ATOM     97  F   UNL A   1      46.511  35.346  28.770  1.00  0.00    -0.200 F 
ATOM     98  C   UNL A   1      46.286  34.739  30.945  1.00  0.00     0.200 A 
ATOM     99  F   UNL A   1      46.480  33.858  33.094  1.00  0.00    -0.200 F 
ATOM    100  F   UNL A   1      46.638  35.954  31.355  1.00  0.00    -0.200 F 
ENDBRANCH  67  90
ENDBRANCH  41  42
ENDBRANCH  34  36
ENDBRANCH  33  34
ENDBRANCH  32  33
ENDBRANCH  31  32
ENDBRANCH  30  31
ENDBRANCH   1  30
TORSDOF 19
ENDMDL
MODEL 3
REMARK VINA RESULT:     -12.0      5.184     10.490
REMARK SMILES O=C(OCCOCCOCCOC(=O)c1ccc(-c2c3nc(c(-c4c(F)c(F)c(F)c(F)c4F)c4ccc([nH]4)c(-c4c(F)c(F)c(F)c(F)c4F)c4nc(c(-c5c(F)c(F)c(F)c(F)c5F)c5ccc2[nH]5)C=C4)C=C3)cc1)C1=Cc2cc(S(F)(F)(F)(F)F)cc(Br)c2O[C@@H]1C(F)(F)F
REMARK SMILES IDX 8 1 7 2 6 3 5 4 4 5 3 6 2 7 1 8 78 9 79 10 94 11 80 12 93 13
REMARK SMILES IDX 81 14 92 15 82 16 90 17 89 18 91 19 95 20 96 21 97 22 98 23
REMARK SMILES IDX 83 24 84 25 85 26 86 27 87 28 88 29 9 30 10 31 11 32 12 33
REMARK SMILES IDX 13 34 14 35 15 36 16 37 77 38 17 39 76 40 18 41 19 42 20 43
REMARK SMILES IDX 70 44 21 45 75 46 69 47 71 48 22 49 74 50 68 51 67 52 23 54
REMARK SMILES IDX 55 55 35 56 54 57 36 58 39 59 53 60 72 61 37 62 38 63 52 65
REMARK SMILES IDX 73 66 40 67 24 68 25 69 33 70 26 71 27 72 31 73 34 74 28 75
REMARK SMILES IDX 29 76 32 77 30 78 56 79 57 80 65 81 58 82 59 83 63 84 66 85
REMARK SMILES IDX 60 86 61 87 64 88 62 89 41 90 42 91 50 92 43 93 44 94 48 95
REMARK SMILES IDX 51 96 45 97 46 98 49 99 47 100
REMARK H PARENT 71 53 39 64
REMARK Flexibility Score: inf
ROOT
ATOM      1  C   UNL A   1      32.429  29.396  26.348  1.00  0.00     0.188 C 
ENDROOT
BRANCH   1   2
ATOM      2  C   UNL A   1      32.865  28.089  26.989  1.00  0.00     0.188 C 
BRANCH   2   3
ATOM      3  O   UNL A   1      33.358  27.211  25.988  1.00  0.00    -0.376 OA
BRANCH   3   4
ATOM      4  C   UNL A   1      33.460  27.909  24.756  1.00  0.00     0.202 C 
BRANCH   4   5
ATOM      5  C   UNL A   1      33.660  26.913  23.626  1.00  0.00     0.261 C 
BRANCH   5   6
ATOM      6  O   UNL A   1      33.800  25.607  24.166  1.00  0.00    -0.460 OA
BRANCH   6   7
ATOM      7  C   UNL A   1      32.986  24.548  23.683  1.00  0.00     0.338 C 
ATOM      8  O   UNL A   1      33.298  23.946  22.608  1.00  0.00    -0.246 OA
BRANCH   7   9
ATOM      9  C   UNL A   1      31.742  24.134  24.452  1.00  0.00     0.087 C 
ATOM     10  C   UNL A   1      31.653  22.884  24.980  1.00  0.00     0.027 C 
ATOM     11  C   UNL A   1      30.597  25.118  24.632  1.00  0.00     0.316 C 
ATOM     12  C   UNL A   1      32.798  21.900  24.799  1.00  0.00     0.020 A 
ATOM     13  O   UNL A   1      34.307  23.694  25.191  1.00  0.00    -0.474 OA
ATOM     14  C   UNL A   1      32.521  20.588  24.451  1.00  0.00     0.036 A 
ATOM     15  C   UNL A   1      34.046  22.313  24.995  1.00  0.00     0.142 A 
ATOM     16  C   UNL A   1      33.616  19.708  24.616  1.00  0.00     0.109 A 
ATOM     17  C   UNL A   1      35.085  21.413  25.007  1.00  0.00     0.062 A 
ATOM     18  C   UNL A   1      34.875  20.091  24.731  1.00  0.00     0.044 A 
ATOM     19  Br  UNL A   1      36.895  22.037  25.430  1.00  0.00    -0.047 Br
BRANCH  11  20
ATOM     20  C   UNL A   1      30.367  25.360  26.115  1.00  0.00     0.430 C 
ATOM     21  F   UNL A   1      30.123  26.651  26.322  1.00  0.00    -0.167 F 
ATOM     22  F   UNL A   1      29.325  24.642  26.525  1.00  0.00    -0.167 F 
ATOM     23  F   UNL A   1      31.450  24.999  26.796  1.00  0.00    -0.167 F 
ENDBRANCH  11  20
BRANCH  16  24
ATOM     24  S   UNL A   1      33.269  17.933  24.672  1.00  0.00     0.310 S 
ATOM     25  F   UNL A   1      31.788  18.142  24.145  1.00  0.00    -0.094 F 
ATOM     26  F   UNL A   1      32.702  18.118  26.130  1.00  0.00    -0.094 F 
ATOM     27  F   UNL A   1      32.971  16.408  24.720  1.00  0.00    -0.094 F 
ATOM     28  F   UNL A   1      33.710  17.790  23.162  1.00  0.00    -0.094 F 
ATOM     29  F   UNL A   1      33.472  19.497  24.569  1.00  0.00    -0.094 F 
ENDBRANCH  16  24
ENDBRANCH   7   9
ENDBRANCH   6   7
ENDBRANCH   5   6
ENDBRANCH   4   5
ENDBRANCH   3   4
ENDBRANCH   2   3
ENDBRANCH   1   2
BRANCH   1  30
ATOM     30  O   UNL A   1      32.730  30.475  27.221  1.00  0.00    -0.376 OA
BRANCH  30  31
ATOM     31  C   UNL A   1      31.870  31.569  26.937  1.00  0.00     0.202 C 
BRANCH  31  32
ATOM     32  C   UNL A   1      32.695  32.838  26.798  1.00  0.00     0.261 C 
BRANCH  32  33
ATOM     33  O   UNL A   1      32.154  33.848  27.637  1.00  0.00    -0.460 OA
BRANCH  33  34
ATOM     34  C   UNL A   1      33.008  34.585  28.500  1.00  0.00     0.338 C 
ATOM     35  O   UNL A   1      32.800  35.822  28.696  1.00  0.00    -0.246 OA
BRANCH  34  36
ATOM     36  C   UNL A   1      34.173  33.891  29.190  1.00  0.00     0.060 A 
ATOM     37  C   UNL A   1      33.925  32.835  30.051  1.00  0.00     0.016 A 
ATOM     38  C   UNL A   1      35.411  34.295  28.931  1.00  0.00     0.016 A 
ATOM     39  C   UNL A   1      35.048  32.449  30.821  1.00  0.00     0.010 A 
ATOM     40  C   UNL A   1      36.475  33.776  29.628  1.00  0.00     0.010 A 
ATOM     41  C   UNL A   1      36.297  32.771  30.538  1.00  0.00    -0.014 A 
BRANCH  41  42
ATOM     42  C   UNL A   1      37.474  32.061  31.187  1.00  0.00     0.031 A 
ATOM     43  C   UNL A   1      37.841  32.453  32.476  1.00  0.00     0.074 A 
ATOM     44  C   UNL A   1      38.133  31.086  30.458  1.00  0.00     0.049 A 
ATOM     45  N   UNL A   1      38.828  31.960  33.225  1.00  0.00    -0.248 NA
ATOM     46  C   UNL A   1      37.164  33.512  33.239  1.00  0.00     0.031 C 
ATOM     47  C   UNL A   1      37.764  30.678  29.161  1.00  0.00     0.029 A 
ATOM     48  N   UNL A   1      39.234  30.348  30.833  1.00  0.00    -0.354 N 
ATOM     49  C   UNL A   1      38.858  32.576  34.409  1.00  0.00     0.074 A 
ATOM     50  C   UNL A   1      37.793  33.587  34.433  1.00  0.00     0.031 C 
ATOM     51  C   UNL A   1      38.636  29.719  28.756  1.00  0.00     0.029 A 
ATOM     52  C   UNL A   1      39.565  29.508  29.793  1.00  0.00     0.049 A 
ATOM     53  H   UNL A   1      39.703  30.411  31.697  1.00  0.00     0.167 HD
ATOM     54  C   UNL A   1      39.731  32.333  35.471  1.00  0.00     0.037 A 
ATOM     55  C   UNL A   1      40.614  28.606  29.732  1.00  0.00     0.037 A 
ATOM     56  C   UNL A   1      40.754  31.399  35.426  1.00  0.00     0.049 A 
ATOM     57  C   UNL A   1      41.524  28.403  30.773  1.00  0.00     0.074 A 
ATOM     58  C   UNL A   1      41.639  31.136  36.490  1.00  0.00     0.029 A 
ATOM     59  N   UNL A   1      41.100  30.577  34.377  1.00  0.00    -0.354 N 
ATOM     60  N   UNL A   1      41.530  28.991  31.970  1.00  0.00    -0.248 NA
ATOM     61  C   UNL A   1      42.659  27.473  30.707  1.00  0.00     0.031 C 
ATOM     62  C   UNL A   1      42.511  30.176  36.085  1.00  0.00     0.029 A 
ATOM     63  C   UNL A   1      42.187  29.823  34.761  1.00  0.00     0.049 A 
ATOM     64  H   UNL A   1      40.649  30.535  33.503  1.00  0.00     0.167 HD
ATOM     65  C   UNL A   1      42.543  28.527  32.705  1.00  0.00     0.074 A 
ATOM     66  C   UNL A   1      43.289  27.549  31.900  1.00  0.00     0.031 C 
ATOM     67  C   UNL A   1      42.874  28.878  34.015  1.00  0.00     0.037 A 
BRANCH  54  68
ATOM     68  C   UNL A   1      39.550  33.137  36.748  1.00  0.00     0.064 A 
ATOM     69  C   UNL A   1      38.671  32.704  37.726  1.00  0.00     0.173 A 
ATOM     70  C   UNL A   1      40.225  34.273  36.882  1.00  0.00     0.173 A 
ATOM     71  F   UNL A   1      38.172  31.472  37.759  1.00  0.00    -0.203 F 
ATOM     72  C   UNL A   1      38.354  33.691  38.689  1.00  0.00     0.198 A 
ATOM     73  C   UNL A   1      39.956  35.128  37.924  1.00  0.00     0.198 A 
ATOM     74  F   UNL A   1      41.169  34.587  35.999  1.00  0.00    -0.203 F 
ATOM     75  F   UNL A   1      37.271  33.499  39.438  1.00  0.00    -0.200 F 
ATOM     76  C   UNL A   1      39.057  34.790  38.897  1.00  0.00     0.200 A 
ATOM     77  F   UNL A   1      40.582  36.300  37.988  1.00  0.00    -0.200 F 
ATOM     78  F   UNL A   1      38.897  35.527  39.991  1.00  0.00    -0.200 F 
ENDBRANCH  54  68
BRANCH  55  79
ATOM     79  C   UNL A   1      40.785  27.789  28.462  1.00  0.00     0.064 A 
ATOM     80  C   UNL A   1      41.616  28.222  27.442  1.00  0.00     0.173 A 
ATOM     81  C   UNL A   1      40.120  26.643  28.368  1.00  0.00     0.173 A 
ATOM     82  F   UNL A   1      42.488  29.216  27.589  1.00  0.00    -0.203 F 
ATOM     83  C   UNL A   1      41.455  27.510  26.230  1.00  0.00     0.198 A 
ATOM     84  C   UNL A   1      40.117  25.930  27.195  1.00  0.00     0.198 A 
ATOM     85  F   UNL A   1      39.451  26.183  29.422  1.00  0.00    -0.203 F 
ATOM     86  F   UNL A   1      41.927  28.066  25.118  1.00  0.00    -0.200 F 
ATOM     87  C   UNL A   1      40.869  26.331  26.126  1.00  0.00     0.200 A 
ATOM     88  F   UNL A   1      39.371  24.833  27.096  1.00  0.00    -0.200 F 
ATOM     89  F   UNL A   1      41.003  25.576  25.040  1.00  0.00    -0.200 F 
ENDBRANCH  55  79
BRANCH  67  90
ATOM     90  C   UNL A   1      44.059  28.180  34.663  1.00  0.00     0.064 A 
ATOM     91  C   UNL A   1      45.317  28.755  34.582  1.00  0.00     0.173 A 
ATOM     92  C   UNL A   1      43.861  27.045  35.322  1.00  0.00     0.173 A 
ATOM     93  F   UNL A   1      45.521  30.000  34.160  1.00  0.00    -0.203 F 
ATOM     94  C   UNL A   1      46.366  27.897  34.991  1.00  0.00     0.198 A 
ATOM     95  C   UNL A   1      44.925  26.327  35.813  1.00  0.00     0.198 A 
ATOM     96  F   UNL A   1      42.622  26.599  35.509  1.00  0.00    -0.203 F 
ATOM     97  F   UNL A   1      47.603  28.213  34.618  1.00  0.00    -0.200 F 
ATOM     98  C   UNL A   1      46.201  26.806  35.716  1.00  0.00     0.200 A 
ATOM     99  F   UNL A   1      44.709  25.148  36.390  1.00  0.00    -0.200 F 
ATOM    100  F   UNL A   1      47.223  26.205  36.319  1.00  0.00    -0.200 F 
ENDBRANCH  67  90
ENDBRANCH  41  42
ENDBRANCH  34  36
ENDBRANCH  33  34
ENDBRANCH  32  33
ENDBRANCH  31  32
ENDBRANCH  30  31
ENDBRANCH   1  30
TORSDOF 19
ENDMDL
