MODEL 1
REMARK VINA RESULT:     -10.9      0.000      0.000
REMARK SMILES C[C@H](NC(=O)N[C@H]1CCCC1(C)C)c1nc(C(=O)OCCOCCOCCOC(=O)c2ccc(-c3c4nc(c(-c5c(F)c(F)c(F)c(F)c5F)c5ccc([nH]5)c(-c5c(F)c(F)c(F)c(F)c5F)c5nc(c(-c6c(F)c(F)c(F)c(F)c6F)c6ccc3[nH]6)C=C5)C=C4)cc2)cs1
REMARK SMILES IDX 23 1 22 2 21 3 20 4 19 5 17 6 18 7 16 8 14 9 15 10 95 11
REMARK SMILES IDX 94 12 2 13 1 14 3 15 4 16 5 18 6 19 7 21 8 22 11 23 9 24
REMARK SMILES IDX 10 25 12 26 13 27 24 28 25 29 26 30 27 31 28 32 29 33 30 34
REMARK SMILES IDX 31 35 32 36 93 37 33 38 92 39 34 40 35 41 36 42 86 43 37 44
REMARK SMILES IDX 91 45 85 46 87 47 38 48 90 49 84 50 83 51 39 53 71 54 51 55
REMARK SMILES IDX 70 56 52 57 55 58 69 59 88 60 53 61 54 62 68 64 89 65 56 66
REMARK SMILES IDX 40 67 41 68 49 69 42 70 43 71 47 72 50 73 44 74 45 75 48 76
REMARK SMILES IDX 46 77 72 78 73 79 81 80 74 81 75 82 79 83 82 84 76 85 77 86
REMARK SMILES IDX 80 87 78 88 57 89 58 90 66 91 59 92 60 93 64 94 67 95 61 96
REMARK SMILES IDX 62 97 65 98 63 99
REMARK H PARENT 3 17 6 20 87 52 55 63
REMARK Flexibility Score: inf
ROOT
ATOM      1  C   UNL A   1      35.788  32.610  28.331  1.00  0.00     0.188 C 
ENDROOT
BRANCH   1   2
ATOM      2  O   UNL A   1      35.133  31.720  27.433  1.00  0.00    -0.376 OA
BRANCH   2   3
ATOM      3  C   UNL A   1      33.788  31.325  27.681  1.00  0.00     0.202 C 
BRANCH   3   4
ATOM      4  C   UNL A   1      33.437  29.891  27.285  1.00  0.00     0.261 C 
BRANCH   4   5
ATOM      5  O   UNL A   1      33.275  29.776  25.866  1.00  0.00    -0.458 OA
BRANCH   5   6
ATOM      6  C   UNL A   1      32.000  29.897  25.408  1.00  0.00     0.357 C 
ATOM      7  O   UNL A   1      31.282  30.878  25.566  1.00  0.00    -0.244 OA
BRANCH   6   8
ATOM      8  C   UNL A   1      31.616  28.784  24.542  1.00  0.00     0.159 A 
ATOM      9  C   UNL A   1      30.984  26.739  24.077  1.00  0.00     0.116 A 
ATOM     10  N   UNL A   1      31.706  27.451  24.924  1.00  0.00    -0.232 NA
ATOM     11  S   UNL A   1      30.838  27.462  22.511  1.00  0.00    -0.124 S 
ATOM     12  C   UNL A   1      31.159  28.974  23.248  1.00  0.00     0.102 A 
BRANCH   9  13
ATOM     13  C   UNL A   1      29.949  25.733  24.508  1.00  0.00     0.140 C 
ATOM     14  C   UNL A   1      28.563  26.318  24.200  1.00  0.00     0.039 C 
BRANCH  13  15
ATOM     15  N   UNL A   1      30.044  25.311  25.884  1.00  0.00    -0.329 N 
ATOM     16  C   UNL A   1      30.383  24.045  26.245  1.00  0.00     0.315 C 
ATOM     17  H   UNL A   1      29.857  25.968  26.594  1.00  0.00     0.166 HD
ATOM     18  O   UNL A   1      29.898  23.538  27.252  1.00  0.00    -0.249 OA
ATOM     19  N   UNL A   1      31.193  23.310  25.432  1.00  0.00    -0.335 N 
ATOM     20  H   UNL A   1      30.897  22.397  25.212  1.00  0.00     0.165 HD
BRANCH  19  21
ATOM     21  C   UNL A   1      32.464  23.756  24.855  1.00  0.00     0.089 C 
ATOM     22  C   UNL A   1      33.405  24.203  25.994  1.00  0.00     0.025 C 
ATOM     23  C   UNL A   1      33.286  22.665  24.109  1.00  0.00    -0.015 C 
ATOM     24  C   UNL A   1      34.366  23.043  26.258  1.00  0.00     0.003 C 
ATOM     25  C   UNL A   1      34.021  21.955  25.253  1.00  0.00     0.008 C 
ATOM     26  C   UNL A   1      32.511  21.619  23.300  1.00  0.00     0.013 C 
ATOM     27  C   UNL A   1      34.279  23.351  23.144  1.00  0.00     0.013 C 
ENDBRANCH  19  21
ENDBRANCH  13  15
ENDBRANCH   9  13
ENDBRANCH   6   8
ENDBRANCH   5   6
ENDBRANCH   4   5
ENDBRANCH   3   4
ENDBRANCH   2   3
ENDBRANCH   1   2
BRANCH   1  28
ATOM     28  C   UNL A   1      34.973  33.381  29.384  1.00  0.00     0.188 C 
BRANCH  28  29
ATOM     29  O   UNL A   1      34.908  34.773  29.107  1.00  0.00    -0.376 OA
BRANCH  29  30
ATOM     30  C   UNL A   1      33.669  35.222  28.581  1.00  0.00     0.202 C 
BRANCH  30  31
ATOM     31  C   UNL A   1      32.904  36.016  29.642  1.00  0.00     0.261 C 
BRANCH  31  32
ATOM     32  O   UNL A   1      32.453  35.218  30.753  1.00  0.00    -0.460 OA
BRANCH  32  33
ATOM     33  C   UNL A   1      32.680  35.723  31.985  1.00  0.00     0.338 C 
ATOM     34  O   UNL A   1      31.994  36.529  32.588  1.00  0.00    -0.246 OA
BRANCH  33  35
ATOM     35  C   UNL A   1      33.848  35.033  32.571  1.00  0.00     0.060 A 
ATOM     36  C   UNL A   1      35.103  35.648  32.496  1.00  0.00     0.016 A 
ATOM     37  C   UNL A   1      33.713  33.771  33.159  1.00  0.00     0.016 A 
ATOM     38  C   UNL A   1      36.235  34.982  32.972  1.00  0.00     0.010 A 
ATOM     39  C   UNL A   1      34.846  33.103  33.625  1.00  0.00     0.010 A 
ATOM     40  C   UNL A   1      36.118  33.690  33.507  1.00  0.00    -0.014 A 
BRANCH  40  41
ATOM     41  C   UNL A   1      37.327  32.880  33.794  1.00  0.00     0.031 A 
ATOM     42  C   UNL A   1      38.098  33.155  35.056  1.00  0.00     0.074 A 
ATOM     43  C   UNL A   1      37.751  31.928  32.943  1.00  0.00     0.049 A 
ATOM     44  N   UNL A   1      39.218  32.625  35.480  1.00  0.00    -0.248 NA
ATOM     45  C   UNL A   1      37.530  34.168  35.960  1.00  0.00     0.031 C 
ATOM     46  C   UNL A   1      37.086  31.547  31.700  1.00  0.00     0.029 A 
ATOM     47  N   UNL A   1      38.860  31.120  32.997  1.00  0.00    -0.354 N 
ATOM     48  C   UNL A   1      39.487  33.237  36.696  1.00  0.00     0.074 A 
ATOM     49  C   UNL A   1      38.430  34.198  36.931  1.00  0.00     0.031 C 
ATOM     50  C   UNL A   1      37.813  30.589  31.097  1.00  0.00     0.029 A 
ATOM     51  C   UNL A   1      39.004  30.311  31.898  1.00  0.00     0.049 A 
ATOM     52  H   UNL A   1      39.492  31.121  33.752  1.00  0.00     0.167 HD
ATOM     53  C   UNL A   1      40.519  33.016  37.544  1.00  0.00     0.037 A 
ATOM     54  C   UNL A   1      39.998  29.462  31.567  1.00  0.00     0.037 A 
ATOM     55  C   UNL A   1      41.579  32.072  37.314  1.00  0.00     0.049 A 
ATOM     56  C   UNL A   1      41.174  29.288  32.495  1.00  0.00     0.074 A 
ATOM     57  C   UNL A   1      42.656  31.768  38.128  1.00  0.00     0.029 A 
ATOM     58  N   UNL A   1      41.699  31.286  36.180  1.00  0.00    -0.354 N 
ATOM     59  N   UNL A   1      41.402  29.844  33.660  1.00  0.00    -0.248 NA
ATOM     60  C   UNL A   1      42.233  28.365  32.058  1.00  0.00     0.031 C 
ATOM     61  C   UNL A   1      43.452  30.826  37.467  1.00  0.00     0.029 A 
ATOM     62  C   UNL A   1      42.846  30.512  36.261  1.00  0.00     0.049 A 
ATOM     63  H   UNL A   1      41.065  31.277  35.427  1.00  0.00     0.167 HD
ATOM     64  C   UNL A   1      42.610  29.320  34.105  1.00  0.00     0.074 A 
ATOM     65  C   UNL A   1      43.063  28.393  33.090  1.00  0.00     0.031 C 
ATOM     66  C   UNL A   1      43.282  29.584  35.251  1.00  0.00     0.037 A 
BRANCH  53  67
ATOM     67  C   UNL A   1      40.559  33.827  38.803  1.00  0.00     0.064 A 
ATOM     68  C   UNL A   1      39.862  33.428  39.953  1.00  0.00     0.173 A 
ATOM     69  C   UNL A   1      41.335  34.993  38.874  1.00  0.00     0.173 A 
ATOM     70  F   UNL A   1      39.094  32.328  39.929  1.00  0.00    -0.203 F 
ATOM     71  C   UNL A   1      39.925  34.179  41.124  1.00  0.00     0.198 A 
ATOM     72  C   UNL A   1      41.415  35.728  40.054  1.00  0.00     0.198 A 
ATOM     73  F   UNL A   1      42.023  35.414  37.802  1.00  0.00    -0.203 F 
ATOM     74  F   UNL A   1      39.221  33.800  42.199  1.00  0.00    -0.200 F 
ATOM     75  C   UNL A   1      40.707  35.324  41.175  1.00  0.00     0.200 A 
ATOM     76  F   UNL A   1      42.177  36.829  40.104  1.00  0.00    -0.200 F 
ATOM     77  F   UNL A   1      40.771  36.041  42.305  1.00  0.00    -0.200 F 
ENDBRANCH  53  67
BRANCH  54  78
ATOM     78  C   UNL A   1      39.942  28.714  30.285  1.00  0.00     0.064 A 
ATOM     79  C   UNL A   1      39.365  27.439  30.218  1.00  0.00     0.173 A 
ATOM     80  C   UNL A   1      40.502  29.239  29.112  1.00  0.00     0.173 A 
ATOM     81  F   UNL A   1      38.845  26.881  31.322  1.00  0.00    -0.203 F 
ATOM     82  C   UNL A   1      39.366  26.709  29.031  1.00  0.00     0.198 A 
ATOM     83  C   UNL A   1      40.481  28.520  27.919  1.00  0.00     0.198 A 
ATOM     84  F   UNL A   1      41.074  30.453  29.126  1.00  0.00    -0.203 F 
ATOM     85  F   UNL A   1      38.854  25.471  29.008  1.00  0.00    -0.200 F 
ATOM     86  C   UNL A   1      39.921  27.252  27.882  1.00  0.00     0.200 A 
ATOM     87  F   UNL A   1      41.013  29.050  26.810  1.00  0.00    -0.200 F 
ATOM     88  F   UNL A   1      39.927  26.548  26.741  1.00  0.00    -0.200 F 
ENDBRANCH  54  78
BRANCH  66  89
ATOM     89  C   UNL A   1      44.561  28.837  35.494  1.00  0.00     0.064 A 
ATOM     90  C   UNL A   1      44.575  27.591  36.137  1.00  0.00     0.173 A 
ATOM     91  C   UNL A   1      45.782  29.353  35.032  1.00  0.00     0.173 A 
ATOM     92  F   UNL A   1      43.435  27.063  36.608  1.00  0.00    -0.203 F 
ATOM     93  C   UNL A   1      45.767  26.897  36.327  1.00  0.00     0.198 A 
ATOM     94  C   UNL A   1      46.970  28.645  35.202  1.00  0.00     0.198 A 
ATOM     95  F   UNL A   1      45.822  30.538  34.405  1.00  0.00    -0.203 F 
ATOM     96  F   UNL A   1      45.763  25.727  36.979  1.00  0.00    -0.200 F 
ATOM     97  C   UNL A   1      46.962  27.422  35.854  1.00  0.00     0.200 A 
ATOM     98  F   UNL A   1      48.120  29.147  34.734  1.00  0.00    -0.200 F 
ATOM     99  F   UNL A   1      48.107  26.749  36.031  1.00  0.00    -0.200 F 
ENDBRANCH  66  89
ENDBRANCH  40  41
ENDBRANCH  33  35
ENDBRANCH  32  33
ENDBRANCH  31  32
ENDBRANCH  30  31
ENDBRANCH  29  30
ENDBRANCH  28  29
ENDBRANCH   1  28
TORSDOF 20
ENDMDL
MODEL 2
REMARK VINA RESULT:     -10.6      0.539      7.179
REMARK SMILES C[C@H](NC(=O)N[C@H]1CCCC1(C)C)c1nc(C(=O)OCCOCCOCCOC(=O)c2ccc(-c3c4nc(c(-c5c(F)c(F)c(F)c(F)c5F)c5ccc([nH]5)c(-c5c(F)c(F)c(F)c(F)c5F)c5nc(c(-c6c(F)c(F)c(F)c(F)c6F)c6ccc3[nH]6)C=C5)C=C4)cc2)cs1
REMARK SMILES IDX 23 1 22 2 21 3 20 4 19 5 17 6 18 7 16 8 14 9 15 10 95 11
REMARK SMILES IDX 94 12 2 13 1 14 3 15 4 16 5 18 6 19 7 21 8 22 11 23 9 24
REMARK SMILES IDX 10 25 12 26 13 27 24 28 25 29 26 30 27 31 28 32 29 33 30 34
REMARK SMILES IDX 31 35 32 36 93 37 33 38 92 39 34 40 35 41 36 42 86 43 37 44
REMARK SMILES IDX 91 45 85 46 87 47 38 48 90 49 84 50 83 51 39 53 71 54 51 55
REMARK SMILES IDX 70 56 52 57 55 58 69 59 88 60 53 61 54 62 68 64 89 65 56 66
REMARK SMILES IDX 40 67 41 68 49 69 42 70 43 71 47 72 50 73 44 74 45 75 48 76
REMARK SMILES IDX 46 77 72 78 73 79 81 80 74 81 75 82 79 83 82 84 76 85 77 86
REMARK SMILES IDX 80 87 78 88 57 89 58 90 66 91 59 92 60 93 64 94 67 95 61 96
REMARK SMILES IDX 62 97 65 98 63 99
REMARK H PARENT 3 17 6 20 87 52 55 63
REMARK Flexibility Score: inf
ROOT
ATOM      1  C   UNL A   1      35.501  32.556  28.278  1.00  0.00     0.188 C 
ENDROOT
BRANCH   1   2
ATOM      2  O   UNL A   1      35.022  31.532  27.412  1.00  0.00    -0.376 OA
BRANCH   2   3
ATOM      3  C   UNL A   1      35.236  30.165  27.745  1.00  0.00     0.202 C 
BRANCH   3   4
ATOM      4  C   UNL A   1      34.182  29.186  27.226  1.00  0.00     0.261 C 
BRANCH   4   5
ATOM      5  O   UNL A   1      33.625  29.642  25.987  1.00  0.00    -0.458 OA
BRANCH   5   6
ATOM      6  C   UNL A   1      32.271  29.772  25.963  1.00  0.00     0.357 C 
ATOM      7  O   UNL A   1      31.629  30.602  26.597  1.00  0.00    -0.244 OA
BRANCH   6   8
ATOM      8  C   UNL A   1      31.652  28.916  24.954  1.00  0.00     0.159 A 
ATOM      9  C   UNL A   1      30.872  27.043  24.128  1.00  0.00     0.116 A 
ATOM     10  N   UNL A   1      31.803  27.534  24.925  1.00  0.00    -0.232 NA
ATOM     11  S   UNL A   1      30.349  28.151  22.905  1.00  0.00    -0.124 S 
ATOM     12  C   UNL A   1      30.884  29.424  23.918  1.00  0.00     0.102 A 
BRANCH   9  13
ATOM     13  C   UNL A   1      29.957  25.912  24.516  1.00  0.00     0.140 C 
ATOM     14  C   UNL A   1      28.519  26.328  24.178  1.00  0.00     0.039 C 
BRANCH  13  15
ATOM     15  N   UNL A   1      30.068  25.482  25.890  1.00  0.00    -0.329 N 
ATOM     16  C   UNL A   1      30.397  24.210  26.239  1.00  0.00     0.315 C 
ATOM     17  H   UNL A   1      29.899  26.137  26.604  1.00  0.00     0.166 HD
ATOM     18  O   UNL A   1      29.921  23.704  27.251  1.00  0.00    -0.249 OA
ATOM     19  N   UNL A   1      31.186  23.470  25.411  1.00  0.00    -0.335 N 
ATOM     20  H   UNL A   1      30.877  22.562  25.191  1.00  0.00     0.165 HD
BRANCH  19  21
ATOM     21  C   UNL A   1      32.454  23.905  24.817  1.00  0.00     0.089 C 
ATOM     22  C   UNL A   1      33.388  24.409  25.938  1.00  0.00     0.025 C 
ATOM     23  C   UNL A   1      33.289  22.791  24.120  1.00  0.00    -0.015 C 
ATOM     24  C   UNL A   1      34.361  23.272  26.253  1.00  0.00     0.003 C 
ATOM     25  C   UNL A   1      34.029  22.138  25.295  1.00  0.00     0.008 C 
ATOM     26  C   UNL A   1      32.526  21.703  23.356  1.00  0.00     0.013 C 
ATOM     27  C   UNL A   1      34.276  23.446  23.128  1.00  0.00     0.013 C 
ENDBRANCH  19  21
ENDBRANCH  13  15
ENDBRANCH   9  13
ENDBRANCH   6   8
ENDBRANCH   5   6
ENDBRANCH   4   5
ENDBRANCH   3   4
ENDBRANCH   2   3
ENDBRANCH   1   2
BRANCH   1  28
ATOM     28  C   UNL A   1      34.543  33.237  29.271  1.00  0.00     0.188 C 
BRANCH  28  29
ATOM     29  O   UNL A   1      34.350  34.614  28.980  1.00  0.00    -0.376 OA
BRANCH  29  30
ATOM     30  C   UNL A   1      32.994  35.030  28.920  1.00  0.00     0.202 C 
BRANCH  30  31
ATOM     31  C   UNL A   1      32.702  36.035  30.037  1.00  0.00     0.261 C 
BRANCH  31  32
ATOM     32  O   UNL A   1      32.219  35.431  31.251  1.00  0.00    -0.460 OA
BRANCH  32  33
ATOM     33  C   UNL A   1      32.835  35.804  32.394  1.00  0.00     0.338 C 
ATOM     34  O   UNL A   1      32.410  36.563  33.247  1.00  0.00    -0.246 OA
BRANCH  33  35
ATOM     35  C   UNL A   1      34.086  35.029  32.530  1.00  0.00     0.060 A 
ATOM     36  C   UNL A   1      34.028  33.749  33.094  1.00  0.00     0.016 A 
ATOM     37  C   UNL A   1      35.312  35.575  32.138  1.00  0.00     0.016 A 
ATOM     38  C   UNL A   1      35.206  33.028  33.307  1.00  0.00     0.010 A 
ATOM     39  C   UNL A   1      36.489  34.856  32.360  1.00  0.00     0.010 A 
ATOM     40  C   UNL A   1      36.446  33.593  32.974  1.00  0.00    -0.014 A 
BRANCH  40  41
ATOM     41  C   UNL A   1      37.710  32.948  33.408  1.00  0.00     0.031 A 
ATOM     42  C   UNL A   1      38.317  31.885  32.532  1.00  0.00     0.074 A 
ATOM     43  C   UNL A   1      38.303  33.279  34.568  1.00  0.00     0.049 A 
ATOM     44  N   UNL A   1      39.372  31.139  32.739  1.00  0.00    -0.248 NA
ATOM     45  C   UNL A   1      37.638  31.630  31.251  1.00  0.00     0.031 C 
ATOM     46  C   UNL A   1      37.833  34.303  35.496  1.00  0.00     0.029 A 
ATOM     47  N   UNL A   1      39.427  32.768  35.168  1.00  0.00    -0.354 N 
ATOM     48  C   UNL A   1      39.485  30.328  31.618  1.00  0.00     0.074 A 
ATOM     49  C   UNL A   1      38.376  30.653  30.745  1.00  0.00     0.031 C 
ATOM     50  C   UNL A   1      38.655  34.333  36.561  1.00  0.00     0.029 A 
ATOM     51  C   UNL A   1      39.690  33.313  36.400  1.00  0.00     0.049 A 
ATOM     52  H   UNL A   1      39.993  32.076  34.753  1.00  0.00     0.167 HD
ATOM     53  C   UNL A   1      40.429  29.400  31.337  1.00  0.00     0.037 A 
ATOM     54  C   UNL A   1      40.642  33.005  37.303  1.00  0.00     0.037 A 
ATOM     55  C   UNL A   1      41.527  29.063  32.202  1.00  0.00     0.049 A 
ATOM     56  C   UNL A   1      41.639  31.915  36.997  1.00  0.00     0.074 A 
ATOM     57  C   UNL A   1      42.544  28.148  31.990  1.00  0.00     0.029 A 
ATOM     58  N   UNL A   1      41.747  29.624  33.450  1.00  0.00    -0.354 N 
ATOM     59  N   UNL A   1      41.760  31.178  35.920  1.00  0.00    -0.248 NA
ATOM     60  C   UNL A   1      42.634  31.614  38.039  1.00  0.00     0.031 C 
ATOM     61  C   UNL A   1      43.357  28.124  33.129  1.00  0.00     0.029 A 
ATOM     62  C   UNL A   1      42.870  29.057  34.031  1.00  0.00     0.049 A 
ATOM     63  H   UNL A   1      41.189  30.321  33.863  1.00  0.00     0.167 HD
ATOM     64  C   UNL A   1      42.854  30.351  36.141  1.00  0.00     0.074 A 
ATOM     65  C   UNL A   1      43.370  30.682  37.453  1.00  0.00     0.031 C 
ATOM     66  C   UNL A   1      43.382  29.402  35.331  1.00  0.00     0.037 A 
BRANCH  53  67
ATOM     67  C   UNL A   1      40.306  28.666  30.037  1.00  0.00     0.064 A 
ATOM     68  C   UNL A   1      40.911  29.146  28.866  1.00  0.00     0.173 A 
ATOM     69  C   UNL A   1      39.611  27.450  29.969  1.00  0.00     0.173 A 
ATOM     70  F   UNL A   1      41.574  30.312  28.877  1.00  0.00    -0.203 F 
ATOM     71  C   UNL A   1      40.808  28.443  27.668  1.00  0.00     0.198 A 
ATOM     72  C   UNL A   1      39.530  26.738  28.775  1.00  0.00     0.198 A 
ATOM     73  F   UNL A   1      39.018  26.948  31.063  1.00  0.00    -0.203 F 
ATOM     74  F   UNL A   1      41.362  28.938  26.553  1.00  0.00    -0.200 F 
ATOM     75  C   UNL A   1      40.123  27.237  27.626  1.00  0.00     0.200 A 
ATOM     76  F   UNL A   1      38.876  25.569  28.738  1.00  0.00    -0.200 F 
ATOM     77  F   UNL A   1      40.031  26.559  26.474  1.00  0.00    -0.200 F 
ENDBRANCH  53  67
BRANCH  54  78
ATOM     78  C   UNL A   1      40.698  33.724  38.602  1.00  0.00     0.064 A 
ATOM     79  C   UNL A   1      39.860  33.361  39.664  1.00  0.00     0.173 A 
ATOM     80  C   UNL A   1      41.560  34.814  38.792  1.00  0.00     0.173 A 
ATOM     81  F   UNL A   1      38.996  32.345  39.518  1.00  0.00    -0.203 F 
ATOM     82  C   UNL A   1      39.867  34.073  40.862  1.00  0.00     0.198 A 
ATOM     83  C   UNL A   1      41.585  35.509  39.998  1.00  0.00     0.198 A 
ATOM     84  F   UNL A   1      42.377  35.204  37.802  1.00  0.00    -0.203 F 
ATOM     85  F   UNL A   1      39.018  33.737  41.843  1.00  0.00    -0.200 F 
ATOM     86  C   UNL A   1      40.732  35.143  41.029  1.00  0.00     0.200 A 
ATOM     87  F   UNL A   1      42.425  36.540  40.158  1.00  0.00    -0.200 F 
ATOM     88  F   UNL A   1      40.735  35.832  42.179  1.00  0.00    -0.200 F 
ENDBRANCH  54  78
BRANCH  66  89
ATOM     89  C   UNL A   1      44.604  28.677  35.816  1.00  0.00     0.064 A 
ATOM     90  C   UNL A   1      45.895  29.161  35.564  1.00  0.00     0.173 A 
ATOM     91  C   UNL A   1      44.477  27.509  36.584  1.00  0.00     0.173 A 
ATOM     92  F   UNL A   1      46.069  30.266  34.824  1.00  0.00    -0.203 F 
ATOM     93  C   UNL A   1      47.017  28.491  36.048  1.00  0.00     0.198 A 
ATOM     94  C   UNL A   1      45.600  26.856  37.087  1.00  0.00     0.198 A 
ATOM     95  F   UNL A   1      43.263  27.008  36.858  1.00  0.00    -0.203 F 
ATOM     96  F   UNL A   1      48.243  28.950  35.764  1.00  0.00    -0.200 F 
ATOM     97  C   UNL A   1      46.867  27.344  36.814  1.00  0.00     0.200 A 
ATOM     98  F   UNL A   1      45.452  25.754  37.836  1.00  0.00    -0.200 F 
ATOM     99  F   UNL A   1      47.947  26.705  37.284  1.00  0.00    -0.200 F 
ENDBRANCH  66  89
ENDBRANCH  40  41
ENDBRANCH  33  35
ENDBRANCH  32  33
ENDBRANCH  31  32
ENDBRANCH  30  31
ENDBRANCH  29  30
ENDBRANCH  28  29
ENDBRANCH   1  28
TORSDOF 20
ENDMDL
MODEL 3
REMARK VINA RESULT:     -10.2      1.237      2.058
REMARK SMILES C[C@H](NC(=O)N[C@H]1CCCC1(C)C)c1nc(C(=O)OCCOCCOCCOC(=O)c2ccc(-c3c4nc(c(-c5c(F)c(F)c(F)c(F)c5F)c5ccc([nH]5)c(-c5c(F)c(F)c(F)c(F)c5F)c5nc(c(-c6c(F)c(F)c(F)c(F)c6F)c6ccc3[nH]6)C=C5)C=C4)cc2)cs1
REMARK SMILES IDX 23 1 22 2 21 3 20 4 19 5 17 6 18 7 16 8 14 9 15 10 95 11
REMARK SMILES IDX 94 12 2 13 1 14 3 15 4 16 5 18 6 19 7 21 8 22 11 23 9 24
REMARK SMILES IDX 10 25 12 26 13 27 24 28 25 29 26 30 27 31 28 32 29 33 30 34
REMARK SMILES IDX 31 35 32 36 93 37 33 38 92 39 34 40 35 41 36 42 86 43 37 44
REMARK SMILES IDX 91 45 85 46 87 47 38 48 90 49 84 50 83 51 39 53 71 54 51 55
REMARK SMILES IDX 70 56 52 57 55 58 69 59 88 60 53 61 54 62 68 64 89 65 56 66
REMARK SMILES IDX 40 67 41 68 49 69 42 70 43 71 47 72 50 73 44 74 45 75 48 76
REMARK SMILES IDX 46 77 72 78 73 79 81 80 74 81 75 82 79 83 82 84 76 85 77 86
REMARK SMILES IDX 80 87 78 88 57 89 58 90 66 91 59 92 60 93 64 94 67 95 61 96
REMARK SMILES IDX 62 97 65 98 63 99
REMARK H PARENT 3 17 6 20 87 52 55 63
REMARK Flexibility Score: inf
ROOT
ATOM      1  C   UNL A   1      35.146  31.937  27.989  1.00  0.00     0.188 C 
ENDROOT
BRANCH   1   2
ATOM      2  O   UNL A   1      34.479  31.186  26.979  1.00  0.00    -0.376 OA
BRANCH   2   3
ATOM      3  C   UNL A   1      33.352  30.387  27.319  1.00  0.00     0.202 C 
BRANCH   3   4
ATOM      4  C   UNL A   1      32.129  30.552  26.416  1.00  0.00     0.261 C 
BRANCH   4   5
ATOM      5  O   UNL A   1      31.524  29.284  26.136  1.00  0.00    -0.458 OA
BRANCH   5   6
ATOM      6  C   UNL A   1      30.981  29.153  24.895  1.00  0.00     0.357 C 
ATOM      7  O   UNL A   1      30.507  30.068  24.230  1.00  0.00    -0.244 OA
BRANCH   6   8
ATOM      8  C   UNL A   1      31.173  27.812  24.347  1.00  0.00     0.159 A 
ATOM      9  C   UNL A   1      32.324  26.077  23.667  1.00  0.00     0.116 A 
ATOM     10  N   UNL A   1      32.352  27.395  23.739  1.00  0.00    -0.232 NA
ATOM     11  S   UNL A   1      30.724  25.418  23.608  1.00  0.00    -0.124 S 
ATOM     12  C   UNL A   1      30.173  26.853  24.362  1.00  0.00     0.102 A 
BRANCH   9  13
ATOM     13  C   UNL A   1      33.451  25.194  24.135  1.00  0.00     0.140 C 
ATOM     14  C   UNL A   1      34.381  26.039  25.017  1.00  0.00     0.039 C 
BRANCH  13  15
ATOM     15  N   UNL A   1      34.186  24.534  23.082  1.00  0.00    -0.329 N 
ATOM     16  C   UNL A   1      34.841  23.358  23.267  1.00  0.00     0.315 C 
ATOM     17  H   UNL A   1      34.213  24.953  22.192  1.00  0.00     0.166 HD
ATOM     18  O   UNL A   1      35.884  23.129  22.662  1.00  0.00    -0.249 OA
ATOM     19  N   UNL A   1      34.383  22.473  24.196  1.00  0.00    -0.335 N 
ATOM     20  H   UNL A   1      35.040  22.110  24.832  1.00  0.00     0.165 HD
BRANCH  19  21
ATOM     21  C   UNL A   1      32.997  22.014  24.335  1.00  0.00     0.089 C 
ATOM     22  C   UNL A   1      32.883  20.582  23.773  1.00  0.00     0.025 C 
ATOM     23  C   UNL A   1      32.476  21.877  25.796  1.00  0.00    -0.015 C 
ATOM     24  C   UNL A   1      32.919  19.629  24.969  1.00  0.00     0.003 C 
ATOM     25  C   UNL A   1      33.005  20.499  26.214  1.00  0.00     0.008 C 
ATOM     26  C   UNL A   1      32.947  22.915  26.820  1.00  0.00     0.013 C 
ATOM     27  C   UNL A   1      30.931  21.906  25.785  1.00  0.00     0.013 C 
ENDBRANCH  19  21
ENDBRANCH  13  15
ENDBRANCH   9  13
ENDBRANCH   6   8
ENDBRANCH   5   6
ENDBRANCH   4   5
ENDBRANCH   3   4
ENDBRANCH   2   3
ENDBRANCH   1   2
BRANCH   1  28
ATOM     28  C   UNL A   1      34.469  32.170  29.351  1.00  0.00     0.188 C 
BRANCH  28  29
ATOM     29  O   UNL A   1      34.450  33.541  29.720  1.00  0.00    -0.376 OA
BRANCH  29  30
ATOM     30  C   UNL A   1      33.701  34.385  28.859  1.00  0.00     0.202 C 
BRANCH  30  31
ATOM     31  C   UNL A   1      33.079  35.532  29.658  1.00  0.00     0.261 C 
BRANCH  31  32
ATOM     32  O   UNL A   1      32.418  35.110  30.865  1.00  0.00    -0.460 OA
BRANCH  32  33
ATOM     33  C   UNL A   1      32.781  35.744  32.001  1.00  0.00     0.338 C 
ATOM     34  O   UNL A   1      32.199  36.662  32.551  1.00  0.00    -0.246 OA
BRANCH  33  35
ATOM     35  C   UNL A   1      33.955  35.053  32.574  1.00  0.00     0.060 A 
ATOM     36  C   UNL A   1      35.214  35.654  32.461  1.00  0.00     0.016 A 
ATOM     37  C   UNL A   1      33.820  33.804  33.188  1.00  0.00     0.016 A 
ATOM     38  C   UNL A   1      36.350  34.985  32.924  1.00  0.00     0.010 A 
ATOM     39  C   UNL A   1      34.958  33.133  33.642  1.00  0.00     0.010 A 
ATOM     40  C   UNL A   1      36.232  33.704  33.485  1.00  0.00    -0.014 A 
BRANCH  40  41
ATOM     41  C   UNL A   1      37.439  32.888  33.760  1.00  0.00     0.031 A 
ATOM     42  C   UNL A   1      38.213  33.145  35.025  1.00  0.00     0.074 A 
ATOM     43  C   UNL A   1      37.859  31.946  32.898  1.00  0.00     0.049 A 
ATOM     44  N   UNL A   1      39.331  32.607  35.441  1.00  0.00    -0.248 NA
ATOM     45  C   UNL A   1      37.648  34.149  35.942  1.00  0.00     0.031 C 
ATOM     46  C   UNL A   1      37.192  31.582  31.651  1.00  0.00     0.029 A 
ATOM     47  N   UNL A   1      38.966  31.134  32.940  1.00  0.00    -0.354 N 
ATOM     48  C   UNL A   1      39.604  33.203  36.664  1.00  0.00     0.074 A 
ATOM     49  C   UNL A   1      38.550  34.164  36.913  1.00  0.00     0.031 C 
ATOM     50  C   UNL A   1      37.915  30.629  31.035  1.00  0.00     0.029 A 
ATOM     51  C   UNL A   1      39.107  30.338  31.830  1.00  0.00     0.049 A 
ATOM     52  H   UNL A   1      39.599  31.124  33.694  1.00  0.00     0.167 HD
ATOM     53  C   UNL A   1      40.636  32.969  37.508  1.00  0.00     0.037 A 
ATOM     54  C   UNL A   1      40.098  29.490  31.488  1.00  0.00     0.037 A 
ATOM     55  C   UNL A   1      41.693  32.025  37.265  1.00  0.00     0.049 A 
ATOM     56  C   UNL A   1      41.274  29.301  32.412  1.00  0.00     0.074 A 
ATOM     57  C   UNL A   1      42.770  31.707  38.074  1.00  0.00     0.029 A 
ATOM     58  N   UNL A   1      41.809  31.252  36.121  1.00  0.00    -0.354 N 
ATOM     59  N   UNL A   1      41.506  29.842  33.584  1.00  0.00    -0.248 NA
ATOM     60  C   UNL A   1      42.331  28.381  31.963  1.00  0.00     0.031 C 
ATOM     61  C   UNL A   1      43.563  30.772  37.400  1.00  0.00     0.029 A 
ATOM     62  C   UNL A   1      42.955  30.474  36.192  1.00  0.00     0.049 A 
ATOM     63  H   UNL A   1      41.175  31.254  35.369  1.00  0.00     0.167 HD
ATOM     64  C   UNL A   1      42.713  29.310  34.021  1.00  0.00     0.074 A 
ATOM     65  C   UNL A   1      43.162  28.394  32.994  1.00  0.00     0.031 C 
ATOM     66  C   UNL A   1      43.387  29.558  35.169  1.00  0.00     0.037 A 
BRANCH  53  67
ATOM     67  C   UNL A   1      40.680  33.764  38.777  1.00  0.00     0.064 A 
ATOM     68  C   UNL A   1      41.454  34.928  38.885  1.00  0.00     0.173 A 
ATOM     69  C   UNL A   1      39.909  33.380  39.885  1.00  0.00     0.173 A 
ATOM     70  F   UNL A   1      42.219  35.327  37.857  1.00  0.00    -0.203 F 
ATOM     71  C   UNL A   1      41.470  35.670  40.062  1.00  0.00     0.198 A 
ATOM     72  C   UNL A   1      39.909  34.138  41.053  1.00  0.00     0.198 A 
ATOM     73  F   UNL A   1      39.151  32.275  39.831  1.00  0.00    -0.203 F 
ATOM     74  F   UNL A   1      42.246  36.759  40.155  1.00  0.00    -0.200 F 
ATOM     75  C   UNL A   1      40.693  35.278  41.142  1.00  0.00     0.200 A 
ATOM     76  F   UNL A   1      39.152  33.762  42.092  1.00  0.00    -0.200 F 
ATOM     77  F   UNL A   1      40.704  35.997  42.273  1.00  0.00    -0.200 F 
ENDBRANCH  53  67
BRANCH  54  78
ATOM     78  C   UNL A   1      40.038  28.758  30.197  1.00  0.00     0.064 A 
ATOM     79  C   UNL A   1      39.446  27.491  30.113  1.00  0.00     0.173 A 
ATOM     80  C   UNL A   1      40.609  29.291  29.032  1.00  0.00     0.173 A 
ATOM     81  F   UNL A   1      38.916  26.926  31.208  1.00  0.00    -0.203 F 
ATOM     82  C   UNL A   1      39.444  26.776  28.916  1.00  0.00     0.198 A 
ATOM     83  C   UNL A   1      40.585  28.587  27.831  1.00  0.00     0.198 A 
ATOM     84  F   UNL A   1      41.195  30.498  29.064  1.00  0.00    -0.203 F 
ATOM     85  F   UNL A   1      38.917  25.544  28.877  1.00  0.00    -0.200 F 
ATOM     86  C   UNL A   1      40.009  27.326  27.777  1.00  0.00     0.200 A 
ATOM     87  F   UNL A   1      41.128  29.123  26.731  1.00  0.00    -0.200 F 
ATOM     88  F   UNL A   1      40.013  26.635  26.628  1.00  0.00    -0.200 F 
ENDBRANCH  54  78
BRANCH  66  89
ATOM     89  C   UNL A   1      44.664  28.804  35.401  1.00  0.00     0.064 A 
ATOM     90  C   UNL A   1      44.676  27.554  36.037  1.00  0.00     0.173 A 
ATOM     91  C   UNL A   1      45.885  29.318  34.938  1.00  0.00     0.173 A 
ATOM     92  F   UNL A   1      43.537  27.028  36.509  1.00  0.00    -0.203 F 
ATOM     93  C   UNL A   1      45.867  26.855  36.217  1.00  0.00     0.198 A 
ATOM     94  C   UNL A   1      47.070  28.604  35.097  1.00  0.00     0.198 A 
ATOM     95  F   UNL A   1      45.927  30.507  34.318  1.00  0.00    -0.203 F 
ATOM     96  F   UNL A   1      45.861  25.680  36.860  1.00  0.00    -0.200 F 
ATOM     97  C   UNL A   1      47.061  27.377  35.741  1.00  0.00     0.200 A 
ATOM     98  F   UNL A   1      48.221  29.106  34.627  1.00  0.00    -0.200 F 
ATOM     99  F   UNL A   1      48.204  26.699  35.909  1.00  0.00    -0.200 F 
ENDBRANCH  66  89
ENDBRANCH  40  41
ENDBRANCH  33  35
ENDBRANCH  32  33
ENDBRANCH  31  32
ENDBRANCH  30  31
ENDBRANCH  29  30
ENDBRANCH  28  29
ENDBRANCH   1  28
TORSDOF 20
ENDMDL
