MODEL 1
REMARK VINA RESULT:     -11.4      0.000      0.000
REMARK SMILES Cc1ccc(S(=O)(=O)Nc2ccccn2)cc1C(=O)OCCOCCOCCOC(=O)c1ccc(-c2c3nc(c(-c4c(F)c(F)c(F)c(F)c4F)c4ccc([nH]4)c(-c4c(F)c(F)c(F)c(F)c4F)c4nc(c(-c5c(F)c(F)c(F)c(F)c5F)c5ccc2[nH]5)C=C4)C=C3)cc1
REMARK SMILES IDX 24 1 23 2 22 3 21 4 20 5 18 6 19 7 17 8 1 9 2 10 3 11 4 12
REMARK SMILES IDX 16 13 5 14 6 15 7 16 8 17 9 18 10 20 11 21 15 22 12 23 14 24
REMARK SMILES IDX 13 25 25 26 26 27 27 28 28 29 29 30 30 31 31 32 32 33 33 34
REMARK SMILES IDX 94 35 34 36 93 37 35 38 36 39 37 40 87 41 38 42 92 43 86 44
REMARK SMILES IDX 88 45 39 46 91 47 85 48 84 49 40 51 72 52 52 53 71 54 53 55
REMARK SMILES IDX 56 56 70 57 89 58 54 59 55 60 69 62 90 63 57 64 41 65 42 66
REMARK SMILES IDX 50 67 43 68 44 69 48 70 51 71 45 72 46 73 49 74 47 75 73 76
REMARK SMILES IDX 74 77 82 78 75 79 76 80 80 81 83 82 77 83 78 84 81 85 79 86
REMARK SMILES IDX 58 87 59 88 67 89 60 90 61 91 65 92 68 93 62 94 63 95 66 96
REMARK SMILES IDX 64 97
REMARK H PARENT 9 19 88 50 56 61
REMARK Flexibility Score: inf
ROOT
ATOM      1  C   UNL A   1      39.148  21.898  26.132  1.00  0.00     0.188 C 
ENDROOT
BRANCH   1   2
ATOM      2  O   UNL A   1      38.735  23.268  26.032  1.00  0.00    -0.376 OA
BRANCH   2   3
ATOM      3  C   UNL A   1      37.354  23.671  26.108  1.00  0.00     0.202 C 
BRANCH   3   4
ATOM      4  C   UNL A   1      36.176  22.590  26.013  1.00  0.00     0.261 C 
BRANCH   4   5
ATOM      5  O   UNL A   1      34.805  23.021  26.446  1.00  0.00    -0.460 OA
BRANCH   5   6
ATOM      6  C   UNL A   1      33.646  23.188  25.752  1.00  0.00     0.338 C 
ATOM      7  O   UNL A   1      32.814  22.292  25.707  1.00  0.00    -0.246 OA
BRANCH   6   8
ATOM      8  C   UNL A   1      33.457  24.546  24.873  1.00  0.00     0.064 A 
ATOM      9  C   UNL A   1      34.338  23.156  22.946  1.00  0.00     0.045 C 
ATOM     10  C   UNL A   1      33.732  24.413  23.503  1.00  0.00    -0.036 A 
ATOM     11  C   UNL A   1      33.449  25.465  22.592  1.00  0.00     0.006 A 
ATOM     12  C   UNL A   1      32.976  26.713  23.004  1.00  0.00     0.022 A 
ATOM     13  C   UNL A   1      33.000  25.873  25.246  1.00  0.00     0.038 A 
ATOM     14  C   UNL A   1      32.775  26.950  24.353  1.00  0.00     0.088 A 
BRANCH  14  15
ATOM     15  S   UNL A   1      32.224  28.642  24.780  1.00  0.00     0.263 S 
ATOM     16  O   UNL A   1      31.300  28.481  25.882  1.00  0.00    -0.201 OA
ATOM     17  O   UNL A   1      33.445  29.407  24.936  1.00  0.00    -0.201 OA
BRANCH  15  18
ATOM     18  N   UNL A   1      31.434  29.349  23.467  1.00  0.00    -0.263 N 
ATOM     19  H   UNL A   1      31.937  29.580  22.654  1.00  0.00     0.182 HD
BRANCH  18  20
ATOM     20  C   UNL A   1      30.018  29.613  23.541  1.00  0.00     0.139 A 
ATOM     21  C   UNL A   1      29.040  28.874  22.890  1.00  0.00     0.048 A 
ATOM     22  N   UNL A   1      29.790  30.875  23.971  1.00  0.00    -0.239 NA
ATOM     23  C   UNL A   1      27.787  29.453  22.650  1.00  0.00     0.005 A 
ATOM     24  C   UNL A   1      28.561  31.410  23.732  1.00  0.00     0.113 A 
ATOM     25  C   UNL A   1      27.545  30.757  23.058  1.00  0.00     0.020 A 
ENDBRANCH  18  20
ENDBRANCH  15  18
ENDBRANCH  14  15
ENDBRANCH   6   8
ENDBRANCH   5   6
ENDBRANCH   4   5
ENDBRANCH   3   4
ENDBRANCH   2   3
ENDBRANCH   1   2
BRANCH   1  26
ATOM     26  C   UNL A   1      40.428  21.430  26.811  1.00  0.00     0.188 C 
BRANCH  26  27
ATOM     27  O   UNL A   1      41.570  22.042  26.239  1.00  0.00    -0.376 OA
BRANCH  27  28
ATOM     28  C   UNL A   1      42.434  22.670  27.183  1.00  0.00     0.202 C 
BRANCH  28  29
ATOM     29  C   UNL A   1      42.712  24.158  26.875  1.00  0.00     0.261 C 
BRANCH  29  30
ATOM     30  O   UNL A   1      41.497  24.928  27.021  1.00  0.00    -0.460 OA
BRANCH  30  31
ATOM     31  C   UNL A   1      41.290  25.928  26.096  1.00  0.00     0.338 C 
ATOM     32  O   UNL A   1      41.822  26.000  25.023  1.00  0.00    -0.246 OA
BRANCH  31  33
ATOM     33  C   UNL A   1      40.511  27.045  26.743  1.00  0.00     0.060 A 
ATOM     34  C   UNL A   1      40.875  28.393  26.665  1.00  0.00     0.016 A 
ATOM     35  C   UNL A   1      39.660  26.710  27.745  1.00  0.00     0.016 A 
ATOM     36  C   UNL A   1      40.515  29.346  27.699  1.00  0.00     0.010 A 
ATOM     37  C   UNL A   1      39.569  27.602  28.812  1.00  0.00     0.010 A 
ATOM     38  C   UNL A   1      39.889  28.974  28.883  1.00  0.00    -0.014 A 
BRANCH  38  39
ATOM     39  C   UNL A   1      39.655  29.839  30.194  1.00  0.00     0.031 A 
ATOM     40  C   UNL A   1      39.021  31.285  30.346  1.00  0.00     0.074 A 
ATOM     41  C   UNL A   1      39.683  29.207  31.391  1.00  0.00     0.049 A 
ATOM     42  N   UNL A   1      37.901  31.522  30.984  1.00  0.00    -0.248 NA
ATOM     43  C   UNL A   1      39.550  32.565  29.817  1.00  0.00     0.031 C 
ATOM     44  C   UNL A   1      39.092  29.636  32.664  1.00  0.00     0.029 A 
ATOM     45  N   UNL A   1      40.382  28.052  31.768  1.00  0.00    -0.354 N 
ATOM     46  C   UNL A   1      37.488  32.830  30.835  1.00  0.00     0.074 A 
ATOM     47  C   UNL A   1      38.539  33.425  30.023  1.00  0.00     0.031 C 
ATOM     48  C   UNL A   1      39.732  29.039  33.677  1.00  0.00     0.029 A 
ATOM     49  C   UNL A   1      40.830  28.311  33.088  1.00  0.00     0.049 A 
ATOM     50  H   UNL A   1      40.530  27.240  31.233  1.00  0.00     0.167 HD
ATOM     51  C   UNL A   1      36.988  33.518  31.903  1.00  0.00     0.037 A 
ATOM     52  C   UNL A   1      42.149  28.579  33.293  1.00  0.00     0.037 A 
ATOM     53  C   UNL A   1      37.732  33.252  33.106  1.00  0.00     0.049 A 
ATOM     54  C   UNL A   1      42.401  30.017  33.689  1.00  0.00     0.074 A 
ATOM     55  C   UNL A   1      37.548  32.510  34.254  1.00  0.00     0.029 A 
ATOM     56  N   UNL A   1      39.052  33.656  33.100  1.00  0.00    -0.354 N 
ATOM     57  N   UNL A   1      41.489  30.953  33.620  1.00  0.00    -0.248 NA
ATOM     58  C   UNL A   1      43.650  30.526  34.241  1.00  0.00     0.031 C 
ATOM     59  C   UNL A   1      38.834  32.352  34.857  1.00  0.00     0.029 A 
ATOM     60  C   UNL A   1      39.766  33.039  34.093  1.00  0.00     0.049 A 
ATOM     61  H   UNL A   1      39.430  34.306  32.463  1.00  0.00     0.167 HD
ATOM     62  C   UNL A   1      41.972  32.130  34.117  1.00  0.00     0.074 A 
ATOM     63  C   UNL A   1      43.336  31.812  34.491  1.00  0.00     0.031 C 
ATOM     64  C   UNL A   1      41.204  33.260  34.178  1.00  0.00     0.037 A 
BRANCH  51  65
ATOM     65  C   UNL A   1      35.665  34.234  31.800  1.00  0.00     0.064 A 
ATOM     66  C   UNL A   1      34.823  34.082  30.679  1.00  0.00     0.173 A 
ATOM     67  C   UNL A   1      35.193  35.123  32.791  1.00  0.00     0.173 A 
ATOM     68  F   UNL A   1      35.139  33.232  29.692  1.00  0.00    -0.203 F 
ATOM     69  C   UNL A   1      33.623  34.792  30.546  1.00  0.00     0.198 A 
ATOM     70  C   UNL A   1      34.001  35.843  32.650  1.00  0.00     0.198 A 
ATOM     71  F   UNL A   1      35.865  35.288  33.935  1.00  0.00    -0.203 F 
ATOM     72  F   UNL A   1      32.854  34.610  29.462  1.00  0.00    -0.200 F 
ATOM     73  C   UNL A   1      33.218  35.681  31.525  1.00  0.00     0.200 A 
ATOM     74  F   UNL A   1      33.611  36.688  33.616  1.00  0.00    -0.200 F 
ATOM     75  F   UNL A   1      32.072  36.364  31.392  1.00  0.00    -0.200 F 
ENDBRANCH  51  65
BRANCH  52  76
ATOM     76  C   UNL A   1      42.981  27.595  32.538  1.00  0.00     0.064 A 
ATOM     77  C   UNL A   1      43.636  28.094  31.394  1.00  0.00     0.173 A 
ATOM     78  C   UNL A   1      43.607  26.536  33.203  1.00  0.00     0.173 A 
ATOM     79  F   UNL A   1      43.092  29.119  30.721  1.00  0.00    -0.203 F 
ATOM     80  C   UNL A   1      44.920  27.674  31.036  1.00  0.00     0.198 A 
ATOM     81  C   UNL A   1      44.890  26.107  32.828  1.00  0.00     0.198 A 
ATOM     82  F   UNL A   1      43.059  26.070  34.332  1.00  0.00    -0.203 F 
ATOM     83  F   UNL A   1      45.568  28.278  30.032  1.00  0.00    -0.200 F 
ATOM     84  C   UNL A   1      45.562  26.707  31.780  1.00  0.00     0.200 A 
ATOM     85  F   UNL A   1      45.536  25.173  33.530  1.00  0.00    -0.200 F 
ATOM     86  F   UNL A   1      46.839  26.384  31.523  1.00  0.00    -0.200 F 
ENDBRANCH  52  76
BRANCH  64  87
ATOM     87  C   UNL A   1      41.725  34.676  34.335  1.00  0.00     0.064 A 
ATOM     88  C   UNL A   1      41.835  35.326  35.574  1.00  0.00     0.173 A 
ATOM     89  C   UNL A   1      42.306  35.369  33.241  1.00  0.00     0.173 A 
ATOM     90  F   UNL A   1      41.472  34.723  36.714  1.00  0.00    -0.203 F 
ATOM     91  C   UNL A   1      42.395  36.600  35.700  1.00  0.00     0.198 A 
ATOM     92  C   UNL A   1      42.933  36.607  33.383  1.00  0.00     0.198 A 
ATOM     93  F   UNL A   1      42.327  34.845  32.006  1.00  0.00    -0.203 F 
ATOM     94  F   UNL A   1      42.422  37.192  36.902  1.00  0.00    -0.200 F 
ATOM     95  C   UNL A   1      42.954  37.235  34.609  1.00  0.00     0.200 A 
ATOM     96  F   UNL A   1      43.543  37.170  32.330  1.00  0.00    -0.200 F 
ATOM     97  F   UNL A   1      43.535  38.434  34.745  1.00  0.00    -0.200 F 
ENDBRANCH  64  87
ENDBRANCH  38  39
ENDBRANCH  31  33
ENDBRANCH  30  31
ENDBRANCH  29  30
ENDBRANCH  28  29
ENDBRANCH  27  28
ENDBRANCH  26  27
ENDBRANCH   1  26
TORSDOF 20
ENDMDL
MODEL 2
REMARK VINA RESULT:     -11.2      4.512     10.686
REMARK SMILES Cc1ccc(S(=O)(=O)Nc2ccccn2)cc1C(=O)OCCOCCOCCOC(=O)c1ccc(-c2c3nc(c(-c4c(F)c(F)c(F)c(F)c4F)c4ccc([nH]4)c(-c4c(F)c(F)c(F)c(F)c4F)c4nc(c(-c5c(F)c(F)c(F)c(F)c5F)c5ccc2[nH]5)C=C4)C=C3)cc1
REMARK SMILES IDX 24 1 23 2 22 3 21 4 20 5 18 6 19 7 17 8 1 9 2 10 3 11 4 12
REMARK SMILES IDX 16 13 5 14 6 15 7 16 8 17 9 18 10 20 11 21 15 22 12 23 14 24
REMARK SMILES IDX 13 25 25 26 26 27 27 28 28 29 29 30 30 31 31 32 32 33 33 34
REMARK SMILES IDX 94 35 34 36 93 37 35 38 36 39 37 40 87 41 38 42 92 43 86 44
REMARK SMILES IDX 88 45 39 46 91 47 85 48 84 49 40 51 72 52 52 53 71 54 53 55
REMARK SMILES IDX 56 56 70 57 89 58 54 59 55 60 69 62 90 63 57 64 41 65 42 66
REMARK SMILES IDX 50 67 43 68 44 69 48 70 51 71 45 72 46 73 49 74 47 75 73 76
REMARK SMILES IDX 74 77 82 78 75 79 76 80 80 81 83 82 77 83 78 84 81 85 79 86
REMARK SMILES IDX 58 87 59 88 67 89 60 90 61 91 65 92 68 93 62 94 63 95 66 96
REMARK SMILES IDX 64 97
REMARK H PARENT 9 19 88 50 56 61
REMARK Flexibility Score: inf
ROOT
ATOM      1  C   UNL A   1      36.568  32.680  28.960  1.00  0.00     0.188 C 
ENDROOT
BRANCH   1   2
ATOM      2  O   UNL A   1      35.963  31.979  27.865  1.00  0.00    -0.376 OA
BRANCH   2   3
ATOM      3  C   UNL A   1      35.017  30.908  28.055  1.00  0.00     0.202 C 
BRANCH   3   4
ATOM      4  C   UNL A   1      35.179  29.521  27.273  1.00  0.00     0.261 C 
BRANCH   4   5
ATOM      5  O   UNL A   1      34.007  28.583  27.278  1.00  0.00    -0.460 OA
BRANCH   5   6
ATOM      6  C   UNL A   1      32.915  28.491  26.471  1.00  0.00     0.338 C 
ATOM      7  O   UNL A   1      31.953  29.228  26.640  1.00  0.00    -0.246 OA
BRANCH   6   8
ATOM      8  C   UNL A   1      32.861  27.290  25.372  1.00  0.00     0.064 A 
ATOM      9  C   UNL A   1      33.602  29.066  23.723  1.00  0.00     0.045 C 
ATOM     10  C   UNL A   1      33.297  27.640  24.084  1.00  0.00    -0.036 A 
ATOM     11  C   UNL A   1      33.462  26.657  23.074  1.00  0.00     0.006 A 
ATOM     12  C   UNL A   1      33.119  25.316  23.262  1.00  0.00     0.022 A 
ATOM     13  C   UNL A   1      32.488  25.893  25.498  1.00  0.00     0.038 A 
ATOM     14  C   UNL A   1      32.590  24.916  24.476  1.00  0.00     0.088 A 
BRANCH  14  15
ATOM     15  S   UNL A   1      32.110  23.153  24.582  1.00  0.00     0.263 S 
ATOM     16  O   UNL A   1      32.112  22.837  25.995  1.00  0.00    -0.201 OA
ATOM     17  O   UNL A   1      30.898  23.045  23.795  1.00  0.00    -0.201 OA
BRANCH  15  18
ATOM     18  N   UNL A   1      33.237  22.190  23.777  1.00  0.00    -0.263 N 
ATOM     19  H   UNL A   1      32.962  21.651  23.001  1.00  0.00     0.182 HD
BRANCH  18  20
ATOM     20  C   UNL A   1      34.607  22.160  24.229  1.00  0.00     0.139 A 
ATOM     21  C   UNL A   1      35.630  22.937  23.704  1.00  0.00     0.048 A 
ATOM     22  N   UNL A   1      34.856  21.026  24.922  1.00  0.00    -0.239 NA
ATOM     23  C   UNL A   1      36.959  22.529  23.875  1.00  0.00     0.005 A 
ATOM     24  C   UNL A   1      36.157  20.656  25.079  1.00  0.00     0.113 A 
ATOM     25  C   UNL A   1      37.233  21.352  24.558  1.00  0.00     0.020 A 
ENDBRANCH  18  20
ENDBRANCH  15  18
ENDBRANCH  14  15
ENDBRANCH   6   8
ENDBRANCH   5   6
ENDBRANCH   4   5
ENDBRANCH   3   4
ENDBRANCH   2   3
ENDBRANCH   1   2
BRANCH   1  26
ATOM     26  C   UNL A   1      37.991  32.449  29.452  1.00  0.00     0.188 C 
BRANCH  26  27
ATOM     27  O   UNL A   1      38.004  31.755  30.688  1.00  0.00    -0.376 OA
BRANCH  27  28
ATOM     28  C   UNL A   1      37.515  32.514  31.791  1.00  0.00     0.202 C 
BRANCH  28  29
ATOM     29  C   UNL A   1      37.650  31.790  33.149  1.00  0.00     0.261 C 
BRANCH  29  30
ATOM     30  O   UNL A   1      39.029  31.422  33.378  1.00  0.00    -0.460 OA
BRANCH  30  31
ATOM     31  C   UNL A   1      39.247  30.350  34.215  1.00  0.00     0.338 C 
ATOM     32  O   UNL A   1      39.018  30.332  35.393  1.00  0.00    -0.246 OA
BRANCH  31  33
ATOM     33  C   UNL A   1      40.059  29.311  33.485  1.00  0.00     0.060 A 
ATOM     34  C   UNL A   1      41.449  29.195  33.590  1.00  0.00     0.016 A 
ATOM     35  C   UNL A   1      39.488  28.722  32.404  1.00  0.00     0.016 A 
ATOM     36  C   UNL A   1      42.257  28.642  32.519  1.00  0.00     0.010 A 
ATOM     37  C   UNL A   1      40.328  28.444  31.327  1.00  0.00     0.010 A 
ATOM     38  C   UNL A   1      41.731  28.295  31.280  1.00  0.00    -0.014 A 
BRANCH  38  39
ATOM     39  C   UNL A   1      42.504  27.916  29.946  1.00  0.00     0.031 A 
ATOM     40  C   UNL A   1      43.074  26.511  29.478  1.00  0.00     0.074 A 
ATOM     41  C   UNL A   1      42.427  28.768  28.897  1.00  0.00     0.049 A 
ATOM     42  N   UNL A   1      42.632  25.863  28.429  1.00  0.00    -0.248 NA
ATOM     43  C   UNL A   1      44.152  25.715  30.113  1.00  0.00     0.031 C 
ATOM     44  C   UNL A   1      42.653  28.487  27.474  1.00  0.00     0.029 A 
ATOM     45  N   UNL A   1      42.242  30.157  28.895  1.00  0.00    -0.354 N 
ATOM     46  C   UNL A   1      43.180  24.601  28.331  1.00  0.00     0.074 A 
ATOM     47  C   UNL A   1      44.084  24.537  29.471  1.00  0.00     0.031 C 
ATOM     48  C   UNL A   1      42.972  29.622  26.841  1.00  0.00     0.029 A 
ATOM     49  C   UNL A   1      43.085  30.636  27.861  1.00  0.00     0.049 A 
ATOM     50  H   UNL A   1      41.654  30.684  29.483  1.00  0.00     0.167 HD
ATOM     51  C   UNL A   1      43.586  24.119  27.119  1.00  0.00     0.037 A 
ATOM     52  C   UNL A   1      44.232  31.288  28.198  1.00  0.00     0.037 A 
ATOM     53  C   UNL A   1      44.250  25.129  26.339  1.00  0.00     0.049 A 
ATOM     54  C   UNL A   1      45.475  30.492  27.868  1.00  0.00     0.074 A 
ATOM     55  C   UNL A   1      43.940  25.922  25.253  1.00  0.00     0.029 A 
ATOM     56  N   UNL A   1      45.432  25.614  26.862  1.00  0.00    -0.354 N 
ATOM     57  N   UNL A   1      45.452  29.233  27.513  1.00  0.00    -0.248 NA
ATOM     58  C   UNL A   1      46.830  31.029  27.848  1.00  0.00     0.031 C 
ATOM     59  C   UNL A   1      44.888  26.990  25.235  1.00  0.00     0.029 A 
ATOM     60  C   UNL A   1      45.785  26.802  26.277  1.00  0.00     0.049 A 
ATOM     61  H   UNL A   1      45.954  25.163  27.565  1.00  0.00     0.167 HD
ATOM     62  C   UNL A   1      46.709  28.800  27.199  1.00  0.00     0.074 A 
ATOM     63  C   UNL A   1      47.541  29.964  27.429  1.00  0.00     0.031 C 
ATOM     64  C   UNL A   1      46.950  27.522  26.774  1.00  0.00     0.037 A 
BRANCH  51  65
ATOM     65  C   UNL A   1      43.121  22.767  26.639  1.00  0.00     0.064 A 
ATOM     66  C   UNL A   1      41.761  22.397  26.666  1.00  0.00     0.173 A 
ATOM     67  C   UNL A   1      44.006  21.775  26.165  1.00  0.00     0.173 A 
ATOM     68  F   UNL A   1      40.818  23.267  27.053  1.00  0.00    -0.203 F 
ATOM     69  C   UNL A   1      41.328  21.120  26.282  1.00  0.00     0.198 A 
ATOM     70  C   UNL A   1      43.575  20.496  25.796  1.00  0.00     0.198 A 
ATOM     71  F   UNL A   1      45.309  22.036  26.018  1.00  0.00    -0.203 F 
ATOM     72  F   UNL A   1      40.023  20.817  26.321  1.00  0.00    -0.200 F 
ATOM     73  C   UNL A   1      42.236  20.167  25.859  1.00  0.00     0.200 A 
ATOM     74  F   UNL A   1      44.464  19.586  25.369  1.00  0.00    -0.200 F 
ATOM     75  F   UNL A   1      41.820  18.944  25.498  1.00  0.00    -0.200 F 
ENDBRANCH  51  65
BRANCH  52  76
ATOM     76  C   UNL A   1      43.944  32.283  29.274  1.00  0.00     0.064 A 
ATOM     77  C   UNL A   1      43.247  33.439  28.869  1.00  0.00     0.173 A 
ATOM     78  C   UNL A   1      43.749  31.865  30.594  1.00  0.00     0.173 A 
ATOM     79  F   UNL A   1      43.382  33.882  27.611  1.00  0.00    -0.203 F 
ATOM     80  C   UNL A   1      42.284  34.042  29.683  1.00  0.00     0.198 A 
ATOM     81  C   UNL A   1      42.792  32.486  31.412  1.00  0.00     0.198 A 
ATOM     82  F   UNL A   1      44.337  30.736  31.006  1.00  0.00    -0.203 F 
ATOM     83  F   UNL A   1      41.536  35.047  29.207  1.00  0.00    -0.200 F 
ATOM     84  C   UNL A   1      42.029  33.538  30.941  1.00  0.00     0.200 A 
ATOM     85  F   UNL A   1      42.524  32.019  32.634  1.00  0.00    -0.200 F 
ATOM     86  F   UNL A   1      41.024  34.028  31.682  1.00  0.00    -0.200 F 
ENDBRANCH  52  76
BRANCH  64  87
ATOM     87  C   UNL A   1      48.300  26.830  26.773  1.00  0.00     0.064 A 
ATOM     88  C   UNL A   1      48.713  25.943  27.780  1.00  0.00     0.173 A 
ATOM     89  C   UNL A   1      49.161  26.904  25.648  1.00  0.00     0.173 A 
ATOM     90  F   UNL A   1      47.926  25.655  28.824  1.00  0.00    -0.203 F 
ATOM     91  C   UNL A   1      49.928  25.254  27.712  1.00  0.00     0.198 A 
ATOM     92  C   UNL A   1      50.335  26.157  25.549  1.00  0.00     0.198 A 
ATOM     93  F   UNL A   1      48.866  27.667  24.584  1.00  0.00    -0.203 F 
ATOM     94  F   UNL A   1      50.294  24.463  28.729  1.00  0.00    -0.200 F 
ATOM     95  C   UNL A   1      50.732  25.352  26.594  1.00  0.00     0.200 A 
ATOM     96  F   UNL A   1      51.060  26.200  24.422  1.00  0.00    -0.200 F 
ATOM     97  F   UNL A   1      51.870  24.650  26.513  1.00  0.00    -0.200 F 
ENDBRANCH  64  87
ENDBRANCH  38  39
ENDBRANCH  31  33
ENDBRANCH  30  31
ENDBRANCH  29  30
ENDBRANCH  28  29
ENDBRANCH  27  28
ENDBRANCH  26  27
ENDBRANCH   1  26
TORSDOF 20
ENDMDL
MODEL 3
REMARK VINA RESULT:     -11.2      3.102      8.504
REMARK SMILES Cc1ccc(S(=O)(=O)Nc2ccccn2)cc1C(=O)OCCOCCOCCOC(=O)c1ccc(-c2c3nc(c(-c4c(F)c(F)c(F)c(F)c4F)c4ccc([nH]4)c(-c4c(F)c(F)c(F)c(F)c4F)c4nc(c(-c5c(F)c(F)c(F)c(F)c5F)c5ccc2[nH]5)C=C4)C=C3)cc1
REMARK SMILES IDX 24 1 23 2 22 3 21 4 20 5 18 6 19 7 17 8 1 9 2 10 3 11 4 12
REMARK SMILES IDX 16 13 5 14 6 15 7 16 8 17 9 18 10 20 11 21 15 22 12 23 14 24
REMARK SMILES IDX 13 25 25 26 26 27 27 28 28 29 29 30 30 31 31 32 32 33 33 34
REMARK SMILES IDX 94 35 34 36 93 37 35 38 36 39 37 40 87 41 38 42 92 43 86 44
REMARK SMILES IDX 88 45 39 46 91 47 85 48 84 49 40 51 72 52 52 53 71 54 53 55
REMARK SMILES IDX 56 56 70 57 89 58 54 59 55 60 69 62 90 63 57 64 41 65 42 66
REMARK SMILES IDX 50 67 43 68 44 69 48 70 51 71 45 72 46 73 49 74 47 75 73 76
REMARK SMILES IDX 74 77 82 78 75 79 76 80 80 81 83 82 77 83 78 84 81 85 79 86
REMARK SMILES IDX 58 87 59 88 67 89 60 90 61 91 65 92 68 93 62 94 63 95 66 96
REMARK SMILES IDX 64 97
REMARK H PARENT 9 19 88 50 56 61
REMARK Flexibility Score: inf
ROOT
ATOM      1  C   UNL A   1      32.186  25.339  26.457  1.00  0.00     0.188 C 
ENDROOT
BRANCH   1   2
ATOM      2  O   UNL A   1      33.210  24.351  26.636  1.00  0.00    -0.376 OA
BRANCH   2   3
ATOM      3  C   UNL A   1      32.919  22.947  26.787  1.00  0.00     0.202 C 
BRANCH   3   4
ATOM      4  C   UNL A   1      34.068  21.909  27.194  1.00  0.00     0.261 C 
BRANCH   4   5
ATOM      5  O   UNL A   1      34.779  21.194  26.083  1.00  0.00    -0.460 OA
BRANCH   5   6
ATOM      6  C   UNL A   1      35.134  21.590  24.830  1.00  0.00     0.338 C 
ATOM      7  O   UNL A   1      36.293  21.490  24.451  1.00  0.00    -0.246 OA
BRANCH   6   8
ATOM      8  C   UNL A   1      34.015  22.326  23.903  1.00  0.00     0.064 A 
ATOM      9  C   UNL A   1      32.814  20.096  23.969  1.00  0.00     0.045 C 
ATOM     10  C   UNL A   1      32.881  21.553  23.609  1.00  0.00    -0.036 A 
ATOM     11  C   UNL A   1      31.756  22.120  22.955  1.00  0.00     0.006 A 
ATOM     12  C   UNL A   1      31.739  23.436  22.486  1.00  0.00     0.022 A 
ATOM     13  C   UNL A   1      33.954  23.673  23.363  1.00  0.00     0.038 A 
ATOM     14  C   UNL A   1      32.861  24.229  22.654  1.00  0.00     0.088 A 
BRANCH  14  15
ATOM     15  S   UNL A   1      32.750  25.909  21.934  1.00  0.00     0.263 S 
ATOM     16  O   UNL A   1      34.119  26.327  21.720  1.00  0.00    -0.201 OA
ATOM     17  O   UNL A   1      31.826  25.783  20.825  1.00  0.00    -0.201 OA
BRANCH  15  18
ATOM     18  N   UNL A   1      31.992  26.959  23.015  1.00  0.00    -0.263 N 
ATOM     19  H   UNL A   1      32.499  27.350  23.762  1.00  0.00     0.182 HD
BRANCH  18  20
ATOM     20  C   UNL A   1      30.596  27.280  22.842  1.00  0.00     0.139 A 
ATOM     21  C   UNL A   1      30.113  28.521  22.452  1.00  0.00     0.048 A 
ATOM     22  N   UNL A   1      29.816  26.380  23.483  1.00  0.00    -0.239 NA
ATOM     23  C   UNL A   1      28.788  28.866  22.746  1.00  0.00     0.005 A 
ATOM     24  C   UNL A   1      28.530  26.738  23.750  1.00  0.00     0.113 A 
ATOM     25  C   UNL A   1      27.981  27.967  23.430  1.00  0.00     0.020 A 
ENDBRANCH  18  20
ENDBRANCH  15  18
ENDBRANCH  14  15
ENDBRANCH   6   8
ENDBRANCH   5   6
ENDBRANCH   4   5
ENDBRANCH   3   4
ENDBRANCH   2   3
ENDBRANCH   1   2
BRANCH   1  26
ATOM     26  C   UNL A   1      32.417  26.843  26.518  1.00  0.00     0.188 C 
BRANCH  26  27
ATOM     27  O   UNL A   1      31.289  27.559  26.048  1.00  0.00    -0.376 OA
BRANCH  27  28
ATOM     28  C   UNL A   1      31.455  28.975  26.041  1.00  0.00     0.202 C 
BRANCH  28  29
ATOM     29  C   UNL A   1      32.391  29.495  27.154  1.00  0.00     0.261 C 
BRANCH  29  30
ATOM     30  O   UNL A   1      33.242  30.543  26.635  1.00  0.00    -0.460 OA
BRANCH  30  31
ATOM     31  C   UNL A   1      33.787  31.404  27.561  1.00  0.00     0.338 C 
ATOM     32  O   UNL A   1      33.217  32.333  28.064  1.00  0.00    -0.246 OA
BRANCH  31  33
ATOM     33  C   UNL A   1      35.274  31.168  27.639  1.00  0.00     0.060 A 
ATOM     34  C   UNL A   1      35.851  29.913  27.857  1.00  0.00     0.016 A 
ATOM     35  C   UNL A   1      36.062  32.243  27.892  1.00  0.00     0.016 A 
ATOM     36  C   UNL A   1      37.148  29.764  28.490  1.00  0.00     0.010 A 
ATOM     37  C   UNL A   1      37.167  32.029  28.713  1.00  0.00     0.010 A 
ATOM     38  C   UNL A   1      37.855  30.836  29.023  1.00  0.00    -0.014 A 
BRANCH  38  39
ATOM     39  C   UNL A   1      39.145  30.811  29.948  1.00  0.00     0.031 A 
ATOM     40  C   UNL A   1      40.401  29.843  29.898  1.00  0.00     0.074 A 
ATOM     41  C   UNL A   1      39.424  31.911  30.687  1.00  0.00     0.049 A 
ATOM     42  N   UNL A   1      41.617  30.248  29.622  1.00  0.00    -0.248 NA
ATOM     43  C   UNL A   1      40.426  28.380  30.135  1.00  0.00     0.031 C 
ATOM     44  C   UNL A   1      40.712  32.324  31.257  1.00  0.00     0.029 A 
ATOM     45  N   UNL A   1      38.551  32.873  31.210  1.00  0.00    -0.354 N 
ATOM     46  C   UNL A   1      42.495  29.192  29.486  1.00  0.00     0.074 A 
ATOM     47  C   UNL A   1      41.664  28.027  29.751  1.00  0.00     0.031 C 
ATOM     48  C   UNL A   1      40.499  33.145  32.293  1.00  0.00     0.029 A 
ATOM     49  C   UNL A   1      39.070  33.179  32.493  1.00  0.00     0.049 A 
ATOM     50  H   UNL A   1      37.752  33.254  30.779  1.00  0.00     0.167 HD
ATOM     51  C   UNL A   1      43.747  29.266  30.025  1.00  0.00     0.037 A 
ATOM     52  C   UNL A   1      38.419  32.709  33.593  1.00  0.00     0.037 A 
ATOM     53  C   UNL A   1      43.733  29.876  31.328  1.00  0.00     0.049 A 
ATOM     54  C   UNL A   1      39.198  31.635  34.319  1.00  0.00     0.074 A 
ATOM     55  C   UNL A   1      44.074  31.100  31.865  1.00  0.00     0.029 A 
ATOM     56  N   UNL A   1      43.043  29.189  32.306  1.00  0.00    -0.354 N 
ATOM     57  N   UNL A   1      40.265  31.059  33.825  1.00  0.00    -0.248 NA
ATOM     58  C   UNL A   1      38.901  31.150  35.661  1.00  0.00     0.031 C 
ATOM     59  C   UNL A   1      43.435  31.186  33.140  1.00  0.00     0.029 A 
ATOM     60  C   UNL A   1      42.758  29.998  33.376  1.00  0.00     0.049 A 
ATOM     61  H   UNL A   1      42.788  28.240  32.244  1.00  0.00     0.167 HD
ATOM     62  C   UNL A   1      40.804  30.190  34.731  1.00  0.00     0.074 A 
ATOM     63  C   UNL A   1      39.909  30.280  35.868  1.00  0.00     0.031 C 
ATOM     64  C   UNL A   1      41.940  29.478  34.464  1.00  0.00     0.037 A 
BRANCH  51  65
ATOM     65  C   UNL A   1      44.961  28.966  29.182  1.00  0.00     0.064 A 
ATOM     66  C   UNL A   1      45.567  29.950  28.374  1.00  0.00     0.173 A 
ATOM     67  C   UNL A   1      45.553  27.686  29.117  1.00  0.00     0.173 A 
ATOM     68  F   UNL A   1      45.125  31.215  28.382  1.00  0.00    -0.203 F 
ATOM     69  C   UNL A   1      46.655  29.663  27.539  1.00  0.00     0.198 A 
ATOM     70  C   UNL A   1      46.630  27.396  28.272  1.00  0.00     0.198 A 
ATOM     71  F   UNL A   1      45.117  26.692  29.898  1.00  0.00    -0.203 F 
ATOM     72  F   UNL A   1      47.199  30.634  26.791  1.00  0.00    -0.200 F 
ATOM     73  C   UNL A   1      47.179  28.384  27.479  1.00  0.00     0.200 A 
ATOM     74  F   UNL A   1      47.141  26.156  28.237  1.00  0.00    -0.200 F 
ATOM     75  F   UNL A   1      48.216  28.111  26.674  1.00  0.00    -0.200 F 
ENDBRANCH  51  65
BRANCH  52  76
ATOM     76  C   UNL A   1      36.953  32.947  33.446  1.00  0.00     0.064 A 
ATOM     77  C   UNL A   1      36.527  34.280  33.614  1.00  0.00     0.173 A 
ATOM     78  C   UNL A   1      36.187  32.149  32.590  1.00  0.00     0.173 A 
ATOM     79  F   UNL A   1      37.228  35.098  34.412  1.00  0.00    -0.203 F 
ATOM     80  C   UNL A   1      35.499  34.829  32.843  1.00  0.00     0.198 A 
ATOM     81  C   UNL A   1      35.144  32.704  31.830  1.00  0.00     0.198 A 
ATOM     82  F   UNL A   1      36.587  30.897  32.346  1.00  0.00    -0.203 F 
ATOM     83  F   UNL A   1      35.223  36.137  32.925  1.00  0.00    -0.200 F 
ATOM     84  C   UNL A   1      34.835  34.048  31.921  1.00  0.00     0.200 A 
ATOM     85  F   UNL A   1      34.484  31.972  30.930  1.00  0.00    -0.200 F 
ATOM     86  F   UNL A   1      33.933  34.591  31.089  1.00  0.00    -0.200 F 
ENDBRANCH  52  76
BRANCH  64  87
ATOM     87  C   UNL A   1      42.400  28.236  35.202  1.00  0.00     0.064 A 
ATOM     88  C   UNL A   1      43.342  28.260  36.243  1.00  0.00     0.173 A 
ATOM     89  C   UNL A   1      41.761  26.984  35.000  1.00  0.00     0.173 A 
ATOM     90  F   UNL A   1      43.906  29.405  36.648  1.00  0.00    -0.203 F 
ATOM     91  C   UNL A   1      43.686  27.112  36.963  1.00  0.00     0.198 A 
ATOM     92  C   UNL A   1      42.052  25.859  35.772  1.00  0.00     0.198 A 
ATOM     93  F   UNL A   1      40.799  26.825  34.079  1.00  0.00    -0.203 F 
ATOM     94  F   UNL A   1      44.632  27.186  37.908  1.00  0.00    -0.200 F 
ATOM     95  C   UNL A   1      43.034  25.916  36.736  1.00  0.00     0.200 A 
ATOM     96  F   UNL A   1      41.351  24.729  35.594  1.00  0.00    -0.200 F 
ATOM     97  F   UNL A   1      43.333  24.831  37.464  1.00  0.00    -0.200 F 
ENDBRANCH  64  87
ENDBRANCH  38  39
ENDBRANCH  31  33
ENDBRANCH  30  31
ENDBRANCH  29  30
ENDBRANCH  28  29
ENDBRANCH  27  28
ENDBRANCH  26  27
ENDBRANCH   1  26
TORSDOF 20
ENDMDL
