MODEL 1
REMARK VINA RESULT:     -10.9      0.000      0.000
REMARK SMILES CC[NH2+][C@@]1(C(=O)OCCOCCOCCOC(=O)c2ccc(-c3c4nc(c(-c5c(F)c(F)c(F)c(F)c5F)c5ccc([nH]5)c(-c5c(F)c(F)c(F)c(F)c5F)c5nc(c(-c6c(F)c(F)c(F)c(F)c6F)c6ccc3[nH]6)C=C5)C=C4)cc2)CC[C@H]([NH+]2CCC(C(C)(C)C)CC2)C1
REMARK SMILES IDX 11 1 10 2 9 3 8 4 7 5 5 6 6 7 4 8 82 9 95 10 83 11 84 12
REMARK SMILES IDX 3 13 2 16 1 17 85 18 86 19 94 20 87 22 93 23 88 24 89 25
REMARK SMILES IDX 90 26 91 27 92 28 12 29 13 30 14 31 15 32 16 33 17 34 18 35
REMARK SMILES IDX 19 36 20 37 81 38 21 39 80 40 22 41 23 42 24 43 74 44 25 45
REMARK SMILES IDX 79 46 73 47 75 48 26 49 78 50 72 51 71 52 27 54 59 55 39 56
REMARK SMILES IDX 58 57 40 58 43 59 57 60 76 61 41 62 42 63 56 65 77 66 44 67
REMARK SMILES IDX 28 68 29 69 37 70 30 71 31 72 35 73 38 74 32 75 33 76 36 77
REMARK SMILES IDX 34 78 60 79 61 80 69 81 62 82 63 83 67 84 70 85 64 86 65 87
REMARK SMILES IDX 68 88 66 89 45 90 46 91 54 92 47 93 48 94 52 95 55 96 49 97
REMARK SMILES IDX 50 98 53 99 51 100
REMARK H PARENT 3 14 3 15 85 21 75 53 43 64
REMARK Flexibility Score: inf
ROOT
ATOM      1  C   UNL A   1      39.973  21.256  26.061  1.00  0.00     0.188 C 
ENDROOT
BRANCH   1   2
ATOM      2  O   UNL A   1      38.688  21.194  25.469  1.00  0.00    -0.376 OA
BRANCH   2   3
ATOM      3  C   UNL A   1      37.797  22.285  25.686  1.00  0.00     0.202 C 
BRANCH   3   4
ATOM      4  C   UNL A   1      36.927  22.737  24.505  1.00  0.00     0.261 C 
BRANCH   4   5
ATOM      5  O   UNL A   1      35.538  22.875  24.883  1.00  0.00    -0.459 OA
BRANCH   5   6
ATOM      6  C   UNL A   1      34.637  22.874  23.863  1.00  0.00     0.368 C 
ATOM      7  O   UNL A   1      34.903  23.318  22.750  1.00  0.00    -0.245 OA
BRANCH   6   8
ATOM      8  C   UNL A   1      33.297  22.111  24.183  1.00  0.00     0.200 C 
ATOM      9  C   UNL A   1      32.201  22.557  23.194  1.00  0.00     0.087 C 
ATOM     10  C   UNL A   1      32.557  22.326  25.523  1.00  0.00     0.146 C 
ATOM     11  C   UNL A   1      31.459  23.704  23.863  1.00  0.00     0.072 C 
ATOM     12  C   UNL A   1      31.610  23.542  25.373  1.00  0.00     0.191 C 
BRANCH   8  13
ATOM     13  N   UNL A   1      33.525  20.672  23.865  1.00  0.00    -0.332 N 
ATOM     14  H   UNL A   1      33.556  20.576  22.850  1.00  0.00     0.347 HD
ATOM     15  H   UNL A   1      34.398  20.420  24.329  1.00  0.00     0.347 HD
BRANCH  13  16
ATOM     16  C   UNL A   1      32.524  19.747  24.372  1.00  0.00     0.257 C 
ATOM     17  C   UNL A   1      32.788  18.378  23.769  1.00  0.00     0.071 C 
ENDBRANCH  13  16
ENDBRANCH   8  13
BRANCH  12  18
ATOM     18  N   UNL A   1      31.893  24.749  26.173  1.00  0.00    -0.332 N 
ATOM     19  C   UNL A   1      30.907  25.831  26.123  1.00  0.00     0.262 C 
ATOM     20  C   UNL A   1      33.224  25.327  26.146  1.00  0.00     0.262 C 
ATOM     21  H   UNL A   1      31.812  24.268  27.069  1.00  0.00     0.348 HD
ATOM     22  C   UNL A   1      31.032  26.797  24.929  1.00  0.00     0.066 C 
ATOM     23  C   UNL A   1      33.508  26.088  24.865  1.00  0.00     0.066 C 
ATOM     24  C   UNL A   1      32.477  27.160  24.488  1.00  0.00     0.005 C 
BRANCH  24  25
ATOM     25  C   UNL A   1      32.613  27.581  22.959  1.00  0.00    -0.035 C 
ATOM     26  C   UNL A   1      33.173  26.399  22.150  1.00  0.00     0.011 C 
ATOM     27  C   UNL A   1      31.235  27.960  22.368  1.00  0.00     0.011 C 
ATOM     28  C   UNL A   1      33.535  28.795  22.703  1.00  0.00     0.011 C 
ENDBRANCH  24  25
ENDBRANCH  12  18
ENDBRANCH   6   8
ENDBRANCH   5   6
ENDBRANCH   4   5
ENDBRANCH   3   4
ENDBRANCH   2   3
ENDBRANCH   1   2
BRANCH   1  29
ATOM     29  C   UNL A   1      40.748  19.955  26.288  1.00  0.00     0.188 C 
BRANCH  29  30
ATOM     30  O   UNL A   1      41.712  19.473  25.376  1.00  0.00    -0.376 OA
BRANCH  30  31
ATOM     31  C   UNL A   1      43.083  19.524  25.720  1.00  0.00     0.202 C 
BRANCH  31  32
ATOM     32  C   UNL A   1      43.887  20.800  25.435  1.00  0.00     0.261 C 
BRANCH  32  33
ATOM     33  O   UNL A   1      43.504  21.936  26.222  1.00  0.00    -0.460 OA
BRANCH  33  34
ATOM     34  C   UNL A   1      43.221  23.069  25.521  1.00  0.00     0.338 C 
ATOM     35  O   UNL A   1      43.126  23.192  24.318  1.00  0.00    -0.246 OA
BRANCH  34  36
ATOM     36  C   UNL A   1      42.797  24.112  26.487  1.00  0.00     0.060 A 
ATOM     37  C   UNL A   1      43.290  25.415  26.320  1.00  0.00     0.016 A 
ATOM     38  C   UNL A   1      41.870  23.833  27.492  1.00  0.00     0.016 A 
ATOM     39  C   UNL A   1      42.840  26.446  27.145  1.00  0.00     0.010 A 
ATOM     40  C   UNL A   1      41.452  24.858  28.344  1.00  0.00     0.010 A 
ATOM     41  C   UNL A   1      41.936  26.167  28.179  1.00  0.00    -0.014 A 
BRANCH  41  42
ATOM     42  C   UNL A   1      41.608  27.204  29.186  1.00  0.00     0.031 A 
ATOM     43  C   UNL A   1      42.463  27.302  30.414  1.00  0.00     0.074 A 
ATOM     44  C   UNL A   1      40.558  28.029  29.026  1.00  0.00     0.049 A 
ATOM     45  N   UNL A   1      42.303  28.042  31.480  1.00  0.00    -0.248 NA
ATOM     46  C   UNL A   1      43.652  26.436  30.449  1.00  0.00     0.031 C 
ATOM     47  C   UNL A   1      39.674  28.052  27.865  1.00  0.00     0.029 A 
ATOM     48  N   UNL A   1      40.061  29.011  29.848  1.00  0.00    -0.354 N 
ATOM     49  C   UNL A   1      43.352  27.709  32.325  1.00  0.00     0.074 A 
ATOM     50  C   UNL A   1      44.149  26.712  31.645  1.00  0.00     0.031 C 
ATOM     51  C   UNL A   1      38.760  29.024  28.032  1.00  0.00     0.029 A 
ATOM     52  C   UNL A   1      38.943  29.634  29.348  1.00  0.00     0.049 A 
ATOM     53  H   UNL A   1      40.467  29.246  30.712  1.00  0.00     0.167 HD
ATOM     54  C   UNL A   1      43.613  28.181  33.567  1.00  0.00     0.037 A 
ATOM     55  C   UNL A   1      38.136  30.559  29.910  1.00  0.00     0.037 A 
ATOM     56  C   UNL A   1      42.806  29.157  34.250  1.00  0.00     0.049 A 
ATOM     57  C   UNL A   1      38.414  31.016  31.322  1.00  0.00     0.074 A 
ATOM     58  C   UNL A   1      42.987  29.693  35.512  1.00  0.00     0.029 A 
ATOM     59  N   UNL A   1      41.654  29.731  33.732  1.00  0.00    -0.354 N 
ATOM     60  N   UNL A   1      39.405  30.699  32.120  1.00  0.00    -0.248 NA
ATOM     61  C   UNL A   1      37.437  31.936  31.926  1.00  0.00     0.031 C 
ATOM     62  C   UNL A   1      41.912  30.545  35.783  1.00  0.00     0.029 A 
ATOM     63  C   UNL A   1      41.095  30.590  34.665  1.00  0.00     0.049 A 
ATOM     64  H   UNL A   1      41.289  29.556  32.835  1.00  0.00     0.167 HD
ATOM     65  C   UNL A   1      39.175  31.379  33.310  1.00  0.00     0.074 A 
ATOM     66  C   UNL A   1      37.969  32.155  33.120  1.00  0.00     0.031 C 
ATOM     67  C   UNL A   1      39.889  31.352  34.462  1.00  0.00     0.037 A 
BRANCH  54  68
ATOM     68  C   UNL A   1      44.785  27.593  34.293  1.00  0.00     0.064 A 
ATOM     69  C   UNL A   1      44.674  26.423  35.059  1.00  0.00     0.173 A 
ATOM     70  C   UNL A   1      46.045  28.204  34.204  1.00  0.00     0.173 A 
ATOM     71  F   UNL A   1      43.486  25.815  35.193  1.00  0.00    -0.203 F 
ATOM     72  C   UNL A   1      45.778  25.899  35.726  1.00  0.00     0.198 A 
ATOM     73  C   UNL A   1      47.153  27.659  34.847  1.00  0.00     0.198 A 
ATOM     74  F   UNL A   1      46.205  29.326  33.486  1.00  0.00    -0.203 F 
ATOM     75  F   UNL A   1      45.639  24.808  36.491  1.00  0.00    -0.200 F 
ATOM     76  C   UNL A   1      47.017  26.512  35.613  1.00  0.00     0.200 A 
ATOM     77  F   UNL A   1      48.351  28.248  34.728  1.00  0.00    -0.200 F 
ATOM     78  F   UNL A   1      48.079  26.002  36.250  1.00  0.00    -0.200 F 
ENDBRANCH  54  68
BRANCH  55  79
ATOM     79  C   UNL A   1      36.949  31.075  29.173  1.00  0.00     0.064 A 
ATOM     80  C   UNL A   1      35.866  30.238  28.867  1.00  0.00     0.173 A 
ATOM     81  C   UNL A   1      36.891  32.401  28.716  1.00  0.00     0.173 A 
ATOM     82  F   UNL A   1      35.885  28.951  29.247  1.00  0.00    -0.203 F 
ATOM     83  C   UNL A   1      34.784  30.701  28.117  1.00  0.00     0.198 A 
ATOM     84  C   UNL A   1      35.792  32.872  28.001  1.00  0.00     0.198 A 
ATOM     85  F   UNL A   1      37.905  33.243  28.968  1.00  0.00    -0.203 F 
ATOM     86  F   UNL A   1      33.794  29.861  27.786  1.00  0.00    -0.200 F 
ATOM     87  C   UNL A   1      34.745  32.019  27.693  1.00  0.00     0.200 A 
ATOM     88  F   UNL A   1      35.755  34.152  27.604  1.00  0.00    -0.200 F 
ATOM     89  F   UNL A   1      33.706  32.465  26.974  1.00  0.00    -0.200 F 
ENDBRANCH  55  79
BRANCH  67  90
ATOM     90  C   UNL A   1      39.394  32.194  35.606  1.00  0.00     0.064 A 
ATOM     91  C   UNL A   1      38.572  31.658  36.609  1.00  0.00     0.173 A 
ATOM     92  C   UNL A   1      39.787  33.535  35.728  1.00  0.00     0.173 A 
ATOM     93  F   UNL A   1      38.156  30.385  36.534  1.00  0.00    -0.203 F 
ATOM     94  C   UNL A   1      38.144  32.441  37.679  1.00  0.00     0.198 A 
ATOM     95  C   UNL A   1      39.384  34.305  36.814  1.00  0.00     0.198 A 
ATOM     96  F   UNL A   1      40.578  34.094  34.800  1.00  0.00    -0.203 F 
ATOM     97  F   UNL A   1      37.323  31.921  38.602  1.00  0.00    -0.200 F 
ATOM     98  C   UNL A   1      38.558  33.761  37.785  1.00  0.00     0.200 A 
ATOM     99  F   UNL A   1      39.798  35.576  36.925  1.00  0.00    -0.200 F 
ATOM    100  F   UNL A   1      38.154  34.510  38.821  1.00  0.00    -0.200 F 
ENDBRANCH  67  90
ENDBRANCH  41  42
ENDBRANCH  34  36
ENDBRANCH  33  34
ENDBRANCH  32  33
ENDBRANCH  31  32
ENDBRANCH  30  31
ENDBRANCH  29  30
ENDBRANCH   1  29
TORSDOF 21
ENDMDL
MODEL 2
REMARK VINA RESULT:     -10.7      3.762      9.223
REMARK SMILES CC[NH2+][C@@]1(C(=O)OCCOCCOCCOC(=O)c2ccc(-c3c4nc(c(-c5c(F)c(F)c(F)c(F)c5F)c5ccc([nH]5)c(-c5c(F)c(F)c(F)c(F)c5F)c5nc(c(-c6c(F)c(F)c(F)c(F)c6F)c6ccc3[nH]6)C=C5)C=C4)cc2)CC[C@H]([NH+]2CCC(C(C)(C)C)CC2)C1
REMARK SMILES IDX 11 1 10 2 9 3 8 4 7 5 5 6 6 7 4 8 82 9 95 10 83 11 84 12
REMARK SMILES IDX 3 13 2 16 1 17 85 18 86 19 94 20 87 22 93 23 88 24 89 25
REMARK SMILES IDX 90 26 91 27 92 28 12 29 13 30 14 31 15 32 16 33 17 34 18 35
REMARK SMILES IDX 19 36 20 37 81 38 21 39 80 40 22 41 23 42 24 43 74 44 25 45
REMARK SMILES IDX 79 46 73 47 75 48 26 49 78 50 72 51 71 52 27 54 59 55 39 56
REMARK SMILES IDX 58 57 40 58 43 59 57 60 76 61 41 62 42 63 56 65 77 66 44 67
REMARK SMILES IDX 28 68 29 69 37 70 30 71 31 72 35 73 38 74 32 75 33 76 36 77
REMARK SMILES IDX 34 78 60 79 61 80 69 81 62 82 63 83 67 84 70 85 64 86 65 87
REMARK SMILES IDX 68 88 66 89 45 90 46 91 54 92 47 93 48 94 52 95 55 96 49 97
REMARK SMILES IDX 50 98 53 99 51 100
REMARK H PARENT 3 14 3 15 85 21 75 53 43 64
REMARK Flexibility Score: inf
ROOT
ATOM      1  C   UNL A   1      34.111  31.869  28.065  1.00  0.00     0.188 C 
ENDROOT
BRANCH   1   2
ATOM      2  O   UNL A   1      33.241  31.058  27.298  1.00  0.00    -0.376 OA
BRANCH   2   3
ATOM      3  C   UNL A   1      33.630  29.712  27.040  1.00  0.00     0.202 C 
BRANCH   3   4
ATOM      4  C   UNL A   1      32.584  28.613  27.270  1.00  0.00     0.261 C 
BRANCH   4   5
ATOM      5  O   UNL A   1      32.947  27.379  26.610  1.00  0.00    -0.459 OA
BRANCH   5   6
ATOM      6  C   UNL A   1      31.916  26.621  26.148  1.00  0.00     0.368 C 
ATOM      7  O   UNL A   1      30.877  26.466  26.783  1.00  0.00    -0.245 OA
BRANCH   6   8
ATOM      8  C   UNL A   1      32.103  26.101  24.673  1.00  0.00     0.200 C 
ATOM      9  C   UNL A   1      30.758  25.569  24.139  1.00  0.00     0.087 C 
ATOM     10  C   UNL A   1      33.016  24.893  24.363  1.00  0.00     0.146 C 
ATOM     11  C   UNL A   1      30.738  24.078  24.435  1.00  0.00     0.072 C 
ATOM     12  C   UNL A   1      32.183  23.596  24.515  1.00  0.00     0.191 C 
BRANCH   8  13
ATOM     13  N   UNL A   1      32.400  27.291  23.824  1.00  0.00    -0.332 N 
ATOM     14  H   UNL A   1      31.608  27.434  23.197  1.00  0.00     0.347 HD
ATOM     15  H   UNL A   1      32.557  28.063  24.471  1.00  0.00     0.347 HD
BRANCH  13  16
ATOM     16  C   UNL A   1      33.603  27.201  23.011  1.00  0.00     0.257 C 
ATOM     17  C   UNL A   1      33.978  28.603  22.558  1.00  0.00     0.071 C 
ENDBRANCH  13  16
ENDBRANCH   8  13
BRANCH  12  18
ATOM     18  N   UNL A   1      32.541  22.660  25.597  1.00  0.00    -0.332 N 
ATOM     19  C   UNL A   1      33.318  23.196  26.717  1.00  0.00     0.262 C 
ATOM     20  C   UNL A   1      33.052  21.343  25.262  1.00  0.00     0.262 C 
ATOM     21  H   UNL A   1      31.577  22.520  25.899  1.00  0.00     0.348 HD
ATOM     22  C   UNL A   1      34.842  23.267  26.503  1.00  0.00     0.066 C 
ATOM     23  C   UNL A   1      34.493  21.375  24.789  1.00  0.00     0.066 C 
ATOM     24  C   UNL A   1      35.481  22.085  25.724  1.00  0.00     0.005 C 
BRANCH  24  25
ATOM     25  C   UNL A   1      36.834  22.448  24.967  1.00  0.00    -0.035 C 
ATOM     26  C   UNL A   1      37.548  23.588  25.712  1.00  0.00     0.011 C 
ATOM     27  C   UNL A   1      37.786  21.229  24.924  1.00  0.00     0.011 C 
ATOM     28  C   UNL A   1      36.653  22.898  23.499  1.00  0.00     0.011 C 
ENDBRANCH  24  25
ENDBRANCH  12  18
ENDBRANCH   6   8
ENDBRANCH   5   6
ENDBRANCH   4   5
ENDBRANCH   3   4
ENDBRANCH   2   3
ENDBRANCH   1   2
BRANCH   1  29
ATOM     29  C   UNL A   1      33.943  33.390  28.018  1.00  0.00     0.188 C 
BRANCH  29  30
ATOM     30  O   UNL A   1      34.016  34.201  29.171  1.00  0.00    -0.376 OA
BRANCH  30  31
ATOM     31  C   UNL A   1      33.671  35.569  29.083  1.00  0.00     0.202 C 
BRANCH  31  32
ATOM     32  C   UNL A   1      32.446  36.092  29.846  1.00  0.00     0.261 C 
BRANCH  32  33
ATOM     33  O   UNL A   1      32.753  36.806  31.051  1.00  0.00    -0.460 OA
BRANCH  33  34
ATOM     34  C   UNL A   1      32.528  36.127  32.210  1.00  0.00     0.338 C 
ATOM     35  O   UNL A   1      31.487  36.041  32.828  1.00  0.00    -0.246 OA
BRANCH  34  36
ATOM     36  C   UNL A   1      33.719  35.288  32.489  1.00  0.00     0.060 A 
ATOM     37  C   UNL A   1      33.519  33.948  32.857  1.00  0.00     0.016 A 
ATOM     38  C   UNL A   1      35.010  35.785  32.315  1.00  0.00     0.016 A 
ATOM     39  C   UNL A   1      34.611  33.099  33.031  1.00  0.00     0.010 A 
ATOM     40  C   UNL A   1      36.105  34.944  32.530  1.00  0.00     0.010 A 
ATOM     41  C   UNL A   1      35.913  33.599  32.892  1.00  0.00    -0.014 A 
BRANCH  41  42
ATOM     42  C   UNL A   1      37.078  32.766  33.272  1.00  0.00     0.031 A 
ATOM     43  C   UNL A   1      37.727  33.010  34.602  1.00  0.00     0.074 A 
ATOM     44  C   UNL A   1      37.568  31.827  32.443  1.00  0.00     0.049 A 
ATOM     45  N   UNL A   1      38.822  32.496  35.098  1.00  0.00    -0.248 NA
ATOM     46  C   UNL A   1      37.056  33.977  35.485  1.00  0.00     0.031 C 
ATOM     47  C   UNL A   1      37.008  31.476  31.142  1.00  0.00     0.029 A 
ATOM     48  N   UNL A   1      38.651  30.992  32.580  1.00  0.00    -0.354 N 
ATOM     49  C   UNL A   1      38.988  33.098  36.338  1.00  0.00     0.074 A 
ATOM     50  C   UNL A   1      37.878  34.006  36.523  1.00  0.00     0.031 C 
ATOM     51  C   UNL A   1      37.731  30.475  30.611  1.00  0.00     0.029 A 
ATOM     52  C   UNL A   1      38.854  30.172  31.496  1.00  0.00     0.049 A 
ATOM     53  H   UNL A   1      39.226  30.983  33.378  1.00  0.00     0.167 HD
ATOM     54  C   UNL A   1      39.990  32.922  37.229  1.00  0.00     0.037 A 
ATOM     55  C   UNL A   1      39.858  29.309  31.233  1.00  0.00     0.037 A 
ATOM     56  C   UNL A   1      41.105  32.034  37.032  1.00  0.00     0.049 A 
ATOM     57  C   UNL A   1      40.997  29.185  32.217  1.00  0.00     0.074 A 
ATOM     58  C   UNL A   1      42.173  31.792  37.877  1.00  0.00     0.029 A 
ATOM     59  N   UNL A   1      41.303  31.254  35.903  1.00  0.00    -0.354 N 
ATOM     60  N   UNL A   1      41.152  29.756  33.387  1.00  0.00    -0.248 NA
ATOM     61  C   UNL A   1      42.120  28.318  31.826  1.00  0.00     0.031 C 
ATOM     62  C   UNL A   1      43.049  30.913  37.233  1.00  0.00     0.029 A 
ATOM     63  C   UNL A   1      42.496  30.557  36.014  1.00  0.00     0.049 A 
ATOM     64  H   UNL A   1      40.688  31.203  35.136  1.00  0.00     0.167 HD
ATOM     65  C   UNL A   1      42.381  29.318  33.870  1.00  0.00     0.074 A 
ATOM     66  C   UNL A   1      42.915  28.405  32.883  1.00  0.00     0.031 C 
ATOM     67  C   UNL A   1      43.017  29.654  35.019  1.00  0.00     0.037 A 
BRANCH  54  68
ATOM     68  C   UNL A   1      39.960  33.760  38.472  1.00  0.00     0.064 A 
ATOM     69  C   UNL A   1      40.671  34.965  38.572  1.00  0.00     0.173 A 
ATOM     70  C   UNL A   1      39.188  33.358  39.573  1.00  0.00     0.173 A 
ATOM     71  F   UNL A   1      41.440  35.381  37.556  1.00  0.00    -0.203 F 
ATOM     72  C   UNL A   1      40.628  35.724  39.739  1.00  0.00     0.198 A 
ATOM     73  C   UNL A   1      39.123  34.135  40.725  1.00  0.00     0.198 A 
ATOM     74  F   UNL A   1      38.491  32.212  39.528  1.00  0.00    -0.203 F 
ATOM     75  F   UNL A   1      41.353  36.846  39.833  1.00  0.00    -0.200 F 
ATOM     76  C   UNL A   1      39.848  35.313  40.810  1.00  0.00     0.200 A 
ATOM     77  F   UNL A   1      38.360  33.741  41.755  1.00  0.00    -0.200 F 
ATOM     78  F   UNL A   1      39.803  36.049  41.929  1.00  0.00    -0.200 F 
ENDBRANCH  54  68
BRANCH  55  79
ATOM     79  C   UNL A   1      39.877  28.536  29.960  1.00  0.00     0.064 A 
ATOM     80  C   UNL A   1      39.312  27.255  29.881  1.00  0.00     0.173 A 
ATOM     81  C   UNL A   1      40.503  29.039  28.809  1.00  0.00     0.173 A 
ATOM     82  F   UNL A   1      38.733  26.710  30.962  1.00  0.00    -0.203 F 
ATOM     83  C   UNL A   1      39.390  26.502  28.710  1.00  0.00     0.198 A 
ATOM     84  C   UNL A   1      40.546  28.301  27.628  1.00  0.00     0.198 A 
ATOM     85  F   UNL A   1      41.073  30.253  28.830  1.00  0.00    -0.203 F 
ATOM     86  F   UNL A   1      38.896  25.256  28.683  1.00  0.00    -0.200 F 
ATOM     87  C   UNL A   1      39.999  27.029  27.583  1.00  0.00     0.200 A 
ATOM     88  F   UNL A   1      41.127  28.821  26.538  1.00  0.00    -0.200 F 
ATOM     89  F   UNL A   1      40.074  26.306  26.457  1.00  0.00    -0.200 F 
ENDBRANCH  55  79
BRANCH  67  90
ATOM     90  C   UNL A   1      44.357  29.023  35.281  1.00  0.00     0.064 A 
ATOM     91  C   UNL A   1      44.471  27.787  35.934  1.00  0.00     0.173 A 
ATOM     92  C   UNL A   1      45.535  29.637  34.828  1.00  0.00     0.173 A 
ATOM     93  F   UNL A   1      43.377  27.164  36.398  1.00  0.00    -0.203 F 
ATOM     94  C   UNL A   1      45.717  27.200  36.144  1.00  0.00     0.198 A 
ATOM     95  C   UNL A   1      46.775  29.032  35.012  1.00  0.00     0.198 A 
ATOM     96  F   UNL A   1      45.481  30.816  34.191  1.00  0.00    -0.203 F 
ATOM     97  F   UNL A   1      45.805  26.040  36.810  1.00  0.00    -0.200 F 
ATOM     98  C   UNL A   1      46.866  27.819  35.675  1.00  0.00     0.200 A 
ATOM     99  F   UNL A   1      47.883  29.623  34.543  1.00  0.00    -0.200 F 
ATOM    100  F   UNL A   1      48.063  27.247  35.869  1.00  0.00    -0.200 F 
ENDBRANCH  67  90
ENDBRANCH  41  42
ENDBRANCH  34  36
ENDBRANCH  33  34
ENDBRANCH  32  33
ENDBRANCH  31  32
ENDBRANCH  30  31
ENDBRANCH  29  30
ENDBRANCH   1  29
TORSDOF 21
ENDMDL
MODEL 3
REMARK VINA RESULT:     -10.7      3.510      9.082
REMARK SMILES CC[NH2+][C@@]1(C(=O)OCCOCCOCCOC(=O)c2ccc(-c3c4nc(c(-c5c(F)c(F)c(F)c(F)c5F)c5ccc([nH]5)c(-c5c(F)c(F)c(F)c(F)c5F)c5nc(c(-c6c(F)c(F)c(F)c(F)c6F)c6ccc3[nH]6)C=C5)C=C4)cc2)CC[C@H]([NH+]2CCC(C(C)(C)C)CC2)C1
REMARK SMILES IDX 11 1 10 2 9 3 8 4 7 5 5 6 6 7 4 8 82 9 95 10 83 11 84 12
REMARK SMILES IDX 3 13 2 16 1 17 85 18 86 19 94 20 87 22 93 23 88 24 89 25
REMARK SMILES IDX 90 26 91 27 92 28 12 29 13 30 14 31 15 32 16 33 17 34 18 35
REMARK SMILES IDX 19 36 20 37 81 38 21 39 80 40 22 41 23 42 24 43 74 44 25 45
REMARK SMILES IDX 79 46 73 47 75 48 26 49 78 50 72 51 71 52 27 54 59 55 39 56
REMARK SMILES IDX 58 57 40 58 43 59 57 60 76 61 41 62 42 63 56 65 77 66 44 67
REMARK SMILES IDX 28 68 29 69 37 70 30 71 31 72 35 73 38 74 32 75 33 76 36 77
REMARK SMILES IDX 34 78 60 79 61 80 69 81 62 82 63 83 67 84 70 85 64 86 65 87
REMARK SMILES IDX 68 88 66 89 45 90 46 91 54 92 47 93 48 94 52 95 55 96 49 97
REMARK SMILES IDX 50 98 53 99 51 100
REMARK H PARENT 3 14 3 15 85 21 75 53 43 64
REMARK Flexibility Score: inf
ROOT
ATOM      1  C   UNL A   1      34.460  28.911  26.682  1.00  0.00     0.188 C 
ENDROOT
BRANCH   1   2
ATOM      2  O   UNL A   1      33.162  28.784  26.133  1.00  0.00    -0.376 OA
BRANCH   2   3
ATOM      3  C   UNL A   1      32.045  29.002  26.991  1.00  0.00     0.202 C 
BRANCH   3   4
ATOM      4  C   UNL A   1      31.350  27.767  27.580  1.00  0.00     0.261 C 
BRANCH   4   5
ATOM      5  O   UNL A   1      31.818  26.544  26.966  1.00  0.00    -0.459 OA
BRANCH   5   6
ATOM      6  C   UNL A   1      30.977  25.965  26.067  1.00  0.00     0.368 C 
ATOM      7  O   UNL A   1      29.774  25.836  26.281  1.00  0.00    -0.245 OA
BRANCH   6   8
ATOM      8  C   UNL A   1      31.640  25.630  24.679  1.00  0.00     0.200 C 
ATOM      9  C   UNL A   1      30.637  24.855  23.801  1.00  0.00     0.087 C 
ATOM     10  C   UNL A   1      32.865  24.692  24.586  1.00  0.00     0.146 C 
ATOM     11  C   UNL A   1      30.906  23.378  24.044  1.00  0.00     0.072 C 
ATOM     12  C   UNL A   1      32.360  23.233  24.484  1.00  0.00     0.191 C 
BRANCH   8  13
ATOM     13  N   UNL A   1      31.840  26.926  23.965  1.00  0.00    -0.332 N 
ATOM     14  H   UNL A   1      31.977  27.652  24.668  1.00  0.00     0.347 HD
ATOM     15  H   UNL A   1      32.645  26.786  23.355  1.00  0.00     0.347 HD
BRANCH  13  16
ATOM     16  C   UNL A   1      30.749  27.342  23.098  1.00  0.00     0.257 C 
ATOM     17  C   UNL A   1      30.182  28.646  23.637  1.00  0.00     0.071 C 
ENDBRANCH  13  16
ENDBRANCH   8  13
BRANCH  12  18
ATOM     18  N   UNL A   1      32.656  22.312  25.598  1.00  0.00    -0.332 N 
ATOM     19  C   UNL A   1      33.454  22.838  26.708  1.00  0.00     0.262 C 
ATOM     20  C   UNL A   1      33.092  20.959  25.309  1.00  0.00     0.262 C 
ATOM     21  H   UNL A   1      31.683  22.237  25.896  1.00  0.00     0.348 HD
ATOM     22  C   UNL A   1      34.981  22.816  26.505  1.00  0.00     0.066 C 
ATOM     23  C   UNL A   1      34.536  20.893  24.848  1.00  0.00     0.066 C 
ATOM     24  C   UNL A   1      35.557  21.574  25.769  1.00  0.00     0.005 C 
BRANCH  24  25
ATOM     25  C   UNL A   1      36.933  21.836  25.013  1.00  0.00    -0.035 C 
ATOM     26  C   UNL A   1      37.804  22.787  25.850  1.00  0.00     0.011 C 
ATOM     27  C   UNL A   1      37.713  20.514  24.817  1.00  0.00     0.011 C 
ATOM     28  C   UNL A   1      36.790  22.458  23.605  1.00  0.00     0.011 C 
ENDBRANCH  24  25
ENDBRANCH  12  18
ENDBRANCH   6   8
ENDBRANCH   5   6
ENDBRANCH   4   5
ENDBRANCH   3   4
ENDBRANCH   2   3
ENDBRANCH   1   2
BRANCH   1  29
ATOM     29  C   UNL A   1      34.641  29.696  27.985  1.00  0.00     0.188 C 
BRANCH  29  30
ATOM     30  O   UNL A   1      34.828  31.094  28.012  1.00  0.00    -0.376 OA
BRANCH  30  31
ATOM     31  C   UNL A   1      33.959  31.927  27.269  1.00  0.00     0.202 C 
BRANCH  31  32
ATOM     32  C   UNL A   1      32.918  32.781  28.005  1.00  0.00     0.261 C 
BRANCH  32  33
ATOM     33  O   UNL A   1      32.993  34.186  27.727  1.00  0.00    -0.460 OA
BRANCH  33  34
ATOM     34  C   UNL A   1      33.234  34.987  28.802  1.00  0.00     0.338 C 
ATOM     35  O   UNL A   1      32.534  35.878  29.234  1.00  0.00    -0.246 OA
BRANCH  34  36
ATOM     36  C   UNL A   1      34.402  34.434  29.532  1.00  0.00     0.060 A 
ATOM     37  C   UNL A   1      35.675  34.575  28.958  1.00  0.00     0.016 A 
ATOM     38  C   UNL A   1      34.259  33.858  30.795  1.00  0.00     0.016 A 
ATOM     39  C   UNL A   1      36.808  34.159  29.656  1.00  0.00     0.010 A 
ATOM     40  C   UNL A   1      35.391  33.404  31.475  1.00  0.00     0.010 A 
ATOM     41  C   UNL A   1      36.670  33.548  30.910  1.00  0.00    -0.014 A 
BRANCH  41  42
ATOM     42  C   UNL A   1      37.839  32.920  31.568  1.00  0.00     0.031 A 
ATOM     43  C   UNL A   1      38.497  31.753  30.893  1.00  0.00     0.074 A 
ATOM     44  C   UNL A   1      38.297  33.360  32.754  1.00  0.00     0.049 A 
ATOM     45  N   UNL A   1      39.450  30.971  31.329  1.00  0.00    -0.248 NA
ATOM     46  C   UNL A   1      38.000  31.414  29.551  1.00  0.00     0.031 C 
ATOM     47  C   UNL A   1      37.764  34.501  33.492  1.00  0.00     0.029 A 
ATOM     48  N   UNL A   1      39.320  32.896  33.545  1.00  0.00    -0.354 N 
ATOM     49  C   UNL A   1      39.647  30.030  30.328  1.00  0.00     0.074 A 
ATOM     50  C   UNL A   1      38.724  30.344  29.260  1.00  0.00     0.031 C 
ATOM     51  C   UNL A   1      38.485  34.671  34.614  1.00  0.00     0.029 A 
ATOM     52  C   UNL A   1      39.475  33.600  34.715  1.00  0.00     0.049 A 
ATOM     53  H   UNL A   1      39.888  32.132  33.296  1.00  0.00     0.167 HD
ATOM     54  C   UNL A   1      40.506  28.985  30.315  1.00  0.00     0.037 A 
ATOM     55  C   UNL A   1      40.293  33.376  35.764  1.00  0.00     0.037 A 
ATOM     56  C   UNL A   1      41.408  28.662  31.389  1.00  0.00     0.049 A 
ATOM     57  C   UNL A   1      41.194  32.164  35.748  1.00  0.00     0.074 A 
ATOM     58  C   UNL A   1      42.313  27.619  31.469  1.00  0.00     0.029 A 
ATOM     59  N   UNL A   1      41.504  29.369  32.578  1.00  0.00    -0.354 N 
ATOM     60  N   UNL A   1      41.376  31.275  34.802  1.00  0.00    -0.248 NA
ATOM     61  C   UNL A   1      41.978  31.904  36.967  1.00  0.00     0.031 C 
ATOM     62  C   UNL A   1      42.914  27.659  32.731  1.00  0.00     0.029 A 
ATOM     63  C   UNL A   1      42.430  28.763  33.413  1.00  0.00     0.049 A 
ATOM     64  H   UNL A   1      40.992  30.180  32.797  1.00  0.00     0.167 HD
ATOM     65  C   UNL A   1      42.293  30.359  35.305  1.00  0.00     0.074 A 
ATOM     66  C   UNL A   1      42.658  30.818  36.628  1.00  0.00     0.031 C 
ATOM     67  C   UNL A   1      42.778  29.231  34.731  1.00  0.00     0.037 A 
BRANCH  54  68
ATOM     68  C   UNL A   1      40.463  28.074  29.125  1.00  0.00     0.064 A 
ATOM     69  C   UNL A   1      41.210  28.330  27.966  1.00  0.00     0.173 A 
ATOM     70  C   UNL A   1      39.673  26.914  29.156  1.00  0.00     0.173 A 
ATOM     71  F   UNL A   1      41.963  29.437  27.879  1.00  0.00    -0.203 F 
ATOM     72  C   UNL A   1      41.151  27.470  26.873  1.00  0.00     0.198 A 
ATOM     73  C   UNL A   1      39.641  26.040  28.074  1.00  0.00     0.198 A 
ATOM     74  F   UNL A   1      38.938  26.625  30.240  1.00  0.00    -0.203 F 
ATOM     75  F   UNL A   1      41.833  27.758  25.758  1.00  0.00    -0.200 F 
ATOM     76  C   UNL A   1      40.373  26.322  26.931  1.00  0.00     0.200 A 
ATOM     77  F   UNL A   1      38.897  24.927  28.136  1.00  0.00    -0.200 F 
ATOM     78  F   UNL A   1      40.323  25.491  25.881  1.00  0.00    -0.200 F 
ENDBRANCH  54  68
BRANCH  55  79
ATOM     79  C   UNL A   1      40.264  34.276  36.952  1.00  0.00     0.064 A 
ATOM     80  C   UNL A   1      39.371  34.049  38.009  1.00  0.00     0.173 A 
ATOM     81  C   UNL A   1      41.092  35.406  37.033  1.00  0.00     0.173 A 
ATOM     82  F   UNL A   1      38.531  33.004  37.965  1.00  0.00    -0.203 F 
ATOM     83  C   UNL A   1      39.294  34.928  39.089  1.00  0.00     0.198 A 
ATOM     84  C   UNL A   1      41.041  36.261  38.132  1.00  0.00     0.198 A 
ATOM     85  F   UNL A   1      41.956  35.679  36.044  1.00  0.00    -0.203 F 
ATOM     86  F   UNL A   1      38.388  34.722  40.054  1.00  0.00    -0.200 F 
ATOM     87  C   UNL A   1      40.135  36.028  39.153  1.00  0.00     0.200 A 
ATOM     88  F   UNL A   1      41.864  37.317  38.193  1.00  0.00    -0.200 F 
ATOM     89  F   UNL A   1      40.062  36.872  40.191  1.00  0.00    -0.200 F 
ENDBRANCH  55  79
BRANCH  67  90
ATOM     90  C   UNL A   1      43.765  28.417  35.523  1.00  0.00     0.064 A 
ATOM     91  C   UNL A   1      45.149  28.607  35.387  1.00  0.00     0.173 A 
ATOM     92  C   UNL A   1      43.322  27.475  36.464  1.00  0.00     0.173 A 
ATOM     93  F   UNL A   1      45.626  29.486  34.493  1.00  0.00    -0.203 F 
ATOM     94  C   UNL A   1      46.051  27.867  36.148  1.00  0.00     0.198 A 
ATOM     95  C   UNL A   1      44.226  26.761  37.244  1.00  0.00     0.198 A 
ATOM     96  F   UNL A   1      42.009  27.260  36.638  1.00  0.00    -0.203 F 
ATOM     97  F   UNL A   1      47.369  28.033  35.969  1.00  0.00    -0.200 F 
ATOM     98  C   UNL A   1      45.589  26.952  37.081  1.00  0.00     0.200 A 
ATOM     99  F   UNL A   1      43.777  25.888  38.158  1.00  0.00    -0.200 F 
ATOM    100  F   UNL A   1      46.459  26.249  37.820  1.00  0.00    -0.200 F 
ENDBRANCH  67  90
ENDBRANCH  41  42
ENDBRANCH  34  36
ENDBRANCH  33  34
ENDBRANCH  32  33
ENDBRANCH  31  32
ENDBRANCH  30  31
ENDBRANCH  29  30
ENDBRANCH   1  29
TORSDOF 21
ENDMDL
