MODEL 1
REMARK VINA RESULT:     -10.8      0.000      0.000
REMARK SMILES C[C@@H]1CCCN(c2ccc(NC(=O)Cc3cccs3)c(C(=O)OCCOCCOCCOC(=O)c3ccc(-c4c5nc(c(-c6c(F)c(F)c(F)c(F)c6F)c6ccc([nH]6)c(-c6c(F)c(F)c(F)c(F)c6F)c6nc(c(-c7c(F)c(F)c(F)c(F)c7F)c7ccc4[nH]7)C=C6)C=C5)cc3)c2)C1
REMARK SMILES IDX 27 1 26 2 25 3 24 4 23 5 21 6 22 7 20 8 7 9 8 10 98 11 9 12
REMARK SMILES IDX 10 13 6 14 1 15 2 16 3 17 99 18 4 19 5 20 11 21 12 22 13 24
REMARK SMILES IDX 14 25 15 26 16 27 19 28 17 29 18 30 28 31 29 32 30 33 31 34
REMARK SMILES IDX 32 35 33 36 34 37 35 38 36 39 97 40 37 41 96 42 38 43 39 44
REMARK SMILES IDX 40 45 90 46 41 47 95 48 89 49 91 50 42 51 94 52 88 53 87 54
REMARK SMILES IDX 43 56 75 57 55 58 74 59 56 60 59 61 73 62 92 63 57 64 58 65
REMARK SMILES IDX 72 67 93 68 60 69 44 70 45 71 53 72 46 73 47 74 51 75 54 76
REMARK SMILES IDX 48 77 49 78 52 79 50 80 76 81 77 82 85 83 78 84 79 85 83 86
REMARK SMILES IDX 86 87 80 88 81 89 84 90 82 91 61 92 62 93 70 94 63 95 64 96
REMARK SMILES IDX 68 97 71 98 65 99 66 100 69 101 67 102
REMARK H PARENT 11 23 91 55 59 66
REMARK Flexibility Score: inf
ROOT
ATOM      1  C   UNL A   1      33.117  22.686  23.058  1.00  0.00     0.188 C 
ENDROOT
BRANCH   1   2
ATOM      2  O   UNL A   1      32.425  23.919  22.997  1.00  0.00    -0.376 OA
BRANCH   2   3
ATOM      3  C   UNL A   1      32.993  25.022  22.313  1.00  0.00     0.202 C 
BRANCH   3   4
ATOM      4  C   UNL A   1      33.564  26.216  23.085  1.00  0.00     0.261 C 
BRANCH   4   5
ATOM      5  O   UNL A   1      34.150  25.892  24.354  1.00  0.00    -0.460 OA
BRANCH   5   6
ATOM      6  C   UNL A   1      33.312  25.986  25.421  1.00  0.00     0.340 C 
ATOM      7  O   UNL A   1      32.947  25.070  26.131  1.00  0.00    -0.246 OA
BRANCH   6   8
ATOM      8  C   UNL A   1      32.993  27.404  25.736  1.00  0.00     0.085 A 
ATOM      9  C   UNL A   1      33.679  29.534  26.697  1.00  0.00     0.038 A 
ATOM     10  C   UNL A   1      32.458  30.071  26.295  1.00  0.00     0.028 A 
ATOM     11  C   UNL A   1      33.957  28.207  26.357  1.00  0.00     0.043 A 
ATOM     12  C   UNL A   1      31.494  29.284  25.661  1.00  0.00     0.029 A 
ATOM     13  C   UNL A   1      31.704  27.921  25.466  1.00  0.00     0.055 A 
BRANCH   9  14
ATOM     14  N   UNL A   1      34.588  30.269  27.421  1.00  0.00    -0.371 N 
ATOM     15  C   UNL A   1      34.669  33.465  29.472  1.00  0.00     0.009 C 
ATOM     16  C   UNL A   1      34.765  31.974  29.156  1.00  0.00     0.005 C 
ATOM     17  C   UNL A   1      36.176  31.445  29.467  1.00  0.00     0.007 C 
ATOM     18  C   UNL A   1      34.375  31.689  27.694  1.00  0.00     0.119 C 
ATOM     19  C   UNL A   1      36.312  29.968  29.094  1.00  0.00     0.022 C 
ATOM     20  C   UNL A   1      35.925  29.734  27.641  1.00  0.00     0.116 C 
ENDBRANCH   9  14
BRANCH  13  21
ATOM     21  N   UNL A   1      30.669  27.021  25.134  1.00  0.00    -0.325 N 
ATOM     22  C   UNL A   1      29.890  26.828  24.032  1.00  0.00     0.229 C 
ATOM     23  H   UNL A   1      30.463  26.391  25.862  1.00  0.00     0.169 HD
ATOM     24  O   UNL A   1      28.949  26.033  24.170  1.00  0.00    -0.274 OA
BRANCH  22  25
ATOM     25  C   UNL A   1      30.118  27.477  22.683  1.00  0.00     0.147 C 
BRANCH  25  26
ATOM     26  C   UNL A   1      29.522  28.850  22.491  1.00  0.00     0.014 A 
ATOM     27  C   UNL A   1      30.046  30.031  21.997  1.00  0.00     0.016 A 
ATOM     28  S   UNL A   1      27.851  29.055  22.876  1.00  0.00    -0.148 S 
ATOM     29  C   UNL A   1      29.080  31.079  21.906  1.00  0.00     0.012 A 
ATOM     30  C   UNL A   1      27.852  30.687  22.380  1.00  0.00     0.065 A 
ENDBRANCH  25  26
ENDBRANCH  22  25
ENDBRANCH  13  21
ENDBRANCH   6   8
ENDBRANCH   5   6
ENDBRANCH   4   5
ENDBRANCH   3   4
ENDBRANCH   2   3
ENDBRANCH   1   2
BRANCH   1  31
ATOM     31  C   UNL A   1      33.331  21.955  24.400  1.00  0.00     0.188 C 
BRANCH  31  32
ATOM     32  O   UNL A   1      34.583  21.381  24.688  1.00  0.00    -0.376 OA
BRANCH  32  33
ATOM     33  C   UNL A   1      35.786  21.924  24.172  1.00  0.00     0.202 C 
BRANCH  33  34
ATOM     34  C   UNL A   1      37.207  21.583  24.653  1.00  0.00     0.261 C 
BRANCH  34  35
ATOM     35  O   UNL A   1      37.724  22.310  25.767  1.00  0.00    -0.460 OA
BRANCH  35  36
ATOM     36  C   UNL A   1      38.998  22.004  26.108  1.00  0.00     0.338 C 
ATOM     37  O   UNL A   1      39.651  21.036  25.759  1.00  0.00    -0.246 OA
BRANCH  36  38
ATOM     38  C   UNL A   1      39.581  23.127  26.858  1.00  0.00     0.060 A 
ATOM     39  C   UNL A   1      39.099  24.409  26.591  1.00  0.00     0.016 A 
ATOM     40  C   UNL A   1      40.629  22.934  27.758  1.00  0.00     0.016 A 
ATOM     41  C   UNL A   1      39.672  25.511  27.218  1.00  0.00     0.010 A 
ATOM     42  C   UNL A   1      41.220  24.047  28.368  1.00  0.00     0.010 A 
ATOM     43  C   UNL A   1      40.757  25.344  28.082  1.00  0.00    -0.014 A 
BRANCH  43  44
ATOM     44  C   UNL A   1      41.506  26.542  28.528  1.00  0.00     0.031 A 
ATOM     45  C   UNL A   1      42.899  26.753  28.012  1.00  0.00     0.074 A 
ATOM     46  C   UNL A   1      40.938  27.467  29.321  1.00  0.00     0.049 A 
ATOM     47  N   UNL A   1      43.765  27.688  28.304  1.00  0.00    -0.248 NA
ATOM     48  C   UNL A   1      43.381  25.773  27.024  1.00  0.00     0.031 C 
ATOM     49  C   UNL A   1      39.567  27.424  29.814  1.00  0.00     0.029 A 
ATOM     50  N   UNL A   1      41.449  28.630  29.844  1.00  0.00    -0.354 N 
ATOM     51  C   UNL A   1      44.898  27.399  27.557  1.00  0.00     0.074 A 
ATOM     52  C   UNL A   1      44.617  26.194  26.806  1.00  0.00     0.031 C 
ATOM     53  C   UNL A   1      39.340  28.512  30.570  1.00  0.00     0.029 A 
ATOM     54  C   UNL A   1      40.567  29.300  30.655  1.00  0.00     0.049 A 
ATOM     55  H   UNL A   1      42.361  28.951  29.657  1.00  0.00     0.167 HD
ATOM     56  C   UNL A   1      46.068  28.077  27.505  1.00  0.00     0.037 A 
ATOM     57  C   UNL A   1      40.743  30.408  31.402  1.00  0.00     0.037 A 
ATOM     58  C   UNL A   1      46.342  29.279  28.249  1.00  0.00     0.049 A 
ATOM     59  C   UNL A   1      42.084  31.097  31.394  1.00  0.00     0.074 A 
ATOM     60  C   UNL A   1      47.501  30.035  28.270  1.00  0.00     0.029 A 
ATOM     61  N   UNL A   1      45.444  29.898  29.105  1.00  0.00    -0.354 N 
ATOM     62  N   UNL A   1      43.161  30.810  30.703  1.00  0.00    -0.248 NA
ATOM     63  C   UNL A   1      42.237  32.262  32.277  1.00  0.00     0.031 C 
ATOM     64  C   UNL A   1      47.323  31.082  29.179  1.00  0.00     0.029 A 
ATOM     65  C   UNL A   1      46.033  31.014  29.679  1.00  0.00     0.049 A 
ATOM     66  H   UNL A   1      44.525  29.592  29.280  1.00  0.00     0.167 HD
ATOM     67  C   UNL A   1      44.106  31.767  31.048  1.00  0.00     0.074 A 
ATOM     68  C   UNL A   1      43.471  32.656  31.997  1.00  0.00     0.031 C 
ATOM     69  C   UNL A   1      45.384  31.897  30.617  1.00  0.00     0.037 A 
BRANCH  56  70
ATOM     70  C   UNL A   1      47.157  27.503  26.650  1.00  0.00     0.064 A 
ATOM     71  C   UNL A   1      48.081  26.573  27.149  1.00  0.00     0.173 A 
ATOM     72  C   UNL A   1      47.268  27.881  25.303  1.00  0.00     0.173 A 
ATOM     73  F   UNL A   1      48.030  26.193  28.434  1.00  0.00    -0.203 F 
ATOM     74  C   UNL A   1      49.091  26.063  26.336  1.00  0.00     0.198 A 
ATOM     75  C   UNL A   1      48.260  27.347  24.487  1.00  0.00     0.198 A 
ATOM     76  F   UNL A   1      46.409  28.768  24.776  1.00  0.00    -0.203 F 
ATOM     77  F   UNL A   1      49.993  25.213  26.847  1.00  0.00    -0.200 F 
ATOM     78  C   UNL A   1      49.174  26.444  25.006  1.00  0.00     0.200 A 
ATOM     79  F   UNL A   1      48.332  27.709  23.198  1.00  0.00    -0.200 F 
ATOM     80  F   UNL A   1      50.144  25.947  24.225  1.00  0.00    -0.200 F 
ENDBRANCH  56  70
BRANCH  57  81
ATOM     81  C   UNL A   1      39.634  30.921  32.251  1.00  0.00     0.064 A 
ATOM     82  C   UNL A   1      38.809  31.966  31.814  1.00  0.00     0.173 A 
ATOM     83  C   UNL A   1      39.401  30.400  33.534  1.00  0.00     0.173 A 
ATOM     84  F   UNL A   1      39.013  32.524  30.611  1.00  0.00    -0.203 F 
ATOM     85  C   UNL A   1      37.808  32.484  32.633  1.00  0.00     0.198 A 
ATOM     86  C   UNL A   1      38.380  30.897  34.339  1.00  0.00     0.198 A 
ATOM     87  F   UNL A   1      40.172  29.411  34.007  1.00  0.00    -0.203 F 
ATOM     88  F   UNL A   1      37.072  33.524  32.215  1.00  0.00    -0.200 F 
ATOM     89  C   UNL A   1      37.590  31.946  33.893  1.00  0.00     0.200 A 
ATOM     90  F   UNL A   1      38.171  30.373  35.554  1.00  0.00    -0.200 F 
ATOM     91  F   UNL A   1      36.629  32.448  34.682  1.00  0.00    -0.200 F 
ENDBRANCH  57  81
BRANCH  69  92
ATOM     92  C   UNL A   1      46.176  33.063  31.136  1.00  0.00     0.064 A 
ATOM     93  C   UNL A   1      46.170  34.307  30.487  1.00  0.00     0.173 A 
ATOM     94  C   UNL A   1      46.912  32.947  32.326  1.00  0.00     0.173 A 
ATOM     95  F   UNL A   1      45.493  34.467  29.339  1.00  0.00    -0.203 F 
ATOM     96  C   UNL A   1      46.891  35.384  30.996  1.00  0.00     0.198 A 
ATOM     97  C   UNL A   1      47.607  34.034  32.849  1.00  0.00     0.198 A 
ATOM     98  F   UNL A   1      46.944  31.783  32.990  1.00  0.00    -0.203 F 
ATOM     99  F   UNL A   1      46.909  36.549  30.335  1.00  0.00    -0.200 F 
ATOM    100  C   UNL A   1      47.602  35.249  32.181  1.00  0.00     0.200 A 
ATOM    101  F   UNL A   1      48.278  33.907  34.000  1.00  0.00    -0.200 F 
ATOM    102  F   UNL A   1      48.287  36.289  32.674  1.00  0.00    -0.200 F 
ENDBRANCH  69  92
ENDBRANCH  43  44
ENDBRANCH  36  38
ENDBRANCH  35  36
ENDBRANCH  34  35
ENDBRANCH  33  34
ENDBRANCH  32  33
ENDBRANCH  31  32
ENDBRANCH   1  31
TORSDOF 21
ENDMDL
MODEL 2
REMARK VINA RESULT:     -10.5      3.108      9.093
REMARK SMILES C[C@@H]1CCCN(c2ccc(NC(=O)Cc3cccs3)c(C(=O)OCCOCCOCCOC(=O)c3ccc(-c4c5nc(c(-c6c(F)c(F)c(F)c(F)c6F)c6ccc([nH]6)c(-c6c(F)c(F)c(F)c(F)c6F)c6nc(c(-c7c(F)c(F)c(F)c(F)c7F)c7ccc4[nH]7)C=C6)C=C5)cc3)c2)C1
REMARK SMILES IDX 27 1 26 2 25 3 24 4 23 5 21 6 22 7 20 8 7 9 8 10 98 11 9 12
REMARK SMILES IDX 10 13 6 14 1 15 2 16 3 17 99 18 4 19 5 20 11 21 12 22 13 24
REMARK SMILES IDX 14 25 15 26 16 27 19 28 17 29 18 30 28 31 29 32 30 33 31 34
REMARK SMILES IDX 32 35 33 36 34 37 35 38 36 39 97 40 37 41 96 42 38 43 39 44
REMARK SMILES IDX 40 45 90 46 41 47 95 48 89 49 91 50 42 51 94 52 88 53 87 54
REMARK SMILES IDX 43 56 75 57 55 58 74 59 56 60 59 61 73 62 92 63 57 64 58 65
REMARK SMILES IDX 72 67 93 68 60 69 44 70 45 71 53 72 46 73 47 74 51 75 54 76
REMARK SMILES IDX 48 77 49 78 52 79 50 80 76 81 77 82 85 83 78 84 79 85 83 86
REMARK SMILES IDX 86 87 80 88 81 89 84 90 82 91 61 92 62 93 70 94 63 95 64 96
REMARK SMILES IDX 68 97 71 98 65 99 66 100 69 101 67 102
REMARK H PARENT 11 23 91 55 59 66
REMARK Flexibility Score: inf
ROOT
ATOM      1  C   UNL A   1      31.158  27.864  22.910  1.00  0.00     0.188 C 
ENDROOT
BRANCH   1   2
ATOM      2  O   UNL A   1      30.568  26.775  23.596  1.00  0.00    -0.376 OA
BRANCH   2   3
ATOM      3  C   UNL A   1      31.174  26.259  24.768  1.00  0.00     0.202 C 
BRANCH   3   4
ATOM      4  C   UNL A   1      32.446  26.892  25.339  1.00  0.00     0.261 C 
BRANCH   4   5
ATOM      5  O   UNL A   1      33.664  26.213  25.000  1.00  0.00    -0.460 OA
BRANCH   5   6
ATOM      6  C   UNL A   1      33.903  25.067  25.692  1.00  0.00     0.340 C 
ATOM      7  O   UNL A   1      33.227  24.619  26.596  1.00  0.00    -0.246 OA
BRANCH   6   8
ATOM      8  C   UNL A   1      35.039  24.307  25.104  1.00  0.00     0.085 A 
ATOM      9  C   UNL A   1      37.246  23.312  25.372  1.00  0.00     0.038 A 
ATOM     10  C   UNL A   1      37.158  22.846  24.062  1.00  0.00     0.028 A 
ATOM     11  C   UNL A   1      36.148  23.995  25.901  1.00  0.00     0.043 A 
ATOM     12  C   UNL A   1      36.051  23.137  23.262  1.00  0.00     0.029 A 
ATOM     13  C   UNL A   1      35.028  23.955  23.734  1.00  0.00     0.055 A 
BRANCH   9  14
ATOM     14  N   UNL A   1      38.378  23.128  26.131  1.00  0.00    -0.371 N 
ATOM     15  C   UNL A   1      41.289  20.697  26.346  1.00  0.00     0.009 C 
ATOM     16  C   UNL A   1      40.549  22.017  26.140  1.00  0.00     0.005 C 
ATOM     17  C   UNL A   1      41.032  23.071  27.151  1.00  0.00     0.007 C 
ATOM     18  C   UNL A   1      39.025  21.821  26.228  1.00  0.00     0.119 C 
ATOM     19  C   UNL A   1      40.256  24.381  27.004  1.00  0.00     0.022 C 
ATOM     20  C   UNL A   1      38.756  24.141  27.106  1.00  0.00     0.116 C 
ENDBRANCH   9  14
BRANCH  13  21
ATOM     21  N   UNL A   1      34.059  24.543  22.891  1.00  0.00    -0.325 N 
ATOM     22  C   UNL A   1      33.096  24.055  22.060  1.00  0.00     0.229 C 
ATOM     23  H   UNL A   1      34.086  25.527  22.909  1.00  0.00     0.169 HD
ATOM     24  O   UNL A   1      32.535  24.890  21.337  1.00  0.00    -0.274 OA
BRANCH  22  25
ATOM     25  C   UNL A   1      32.659  22.606  21.993  1.00  0.00     0.147 C 
BRANCH  25  26
ATOM     26  C   UNL A   1      32.470  21.901  23.314  1.00  0.00     0.014 A 
ATOM     27  C   UNL A   1      33.048  20.767  23.855  1.00  0.00     0.016 A 
ATOM     28  S   UNL A   1      31.389  22.621  24.453  1.00  0.00    -0.148 S 
ATOM     29  C   UNL A   1      32.633  20.513  25.197  1.00  0.00     0.012 A 
ATOM     30  C   UNL A   1      31.710  21.432  25.632  1.00  0.00     0.065 A 
ENDBRANCH  25  26
ENDBRANCH  22  25
ENDBRANCH  13  21
ENDBRANCH   6   8
ENDBRANCH   5   6
ENDBRANCH   4   5
ENDBRANCH   3   4
ENDBRANCH   2   3
ENDBRANCH   1   2
BRANCH   1  31
ATOM     31  C   UNL A   1      30.714  29.315  23.183  1.00  0.00     0.188 C 
BRANCH  31  32
ATOM     32  O   UNL A   1      30.545  29.753  24.510  1.00  0.00    -0.376 OA
BRANCH  32  33
ATOM     33  C   UNL A   1      31.605  30.347  25.238  1.00  0.00     0.202 C 
BRANCH  33  34
ATOM     34  C   UNL A   1      31.802  30.277  26.763  1.00  0.00     0.261 C 
BRANCH  34  35
ATOM     35  O   UNL A   1      33.135  30.146  27.255  1.00  0.00    -0.460 OA
BRANCH  35  36
ATOM     36  C   UNL A   1      33.749  31.315  27.556  1.00  0.00     0.338 C 
ATOM     37  O   UNL A   1      33.249  32.424  27.628  1.00  0.00    -0.246 OA
BRANCH  36  38
ATOM     38  C   UNL A   1      35.135  31.041  27.967  1.00  0.00     0.060 A 
ATOM     39  C   UNL A   1      35.455  29.738  28.353  1.00  0.00     0.016 A 
ATOM     40  C   UNL A   1      36.087  32.057  28.036  1.00  0.00     0.016 A 
ATOM     41  C   UNL A   1      36.730  29.446  28.824  1.00  0.00     0.010 A 
ATOM     42  C   UNL A   1      37.364  31.765  28.533  1.00  0.00     0.010 A 
ATOM     43  C   UNL A   1      37.683  30.461  28.951  1.00  0.00    -0.014 A 
BRANCH  43  44
ATOM     44  C   UNL A   1      38.936  30.176  29.690  1.00  0.00     0.031 A 
ATOM     45  C   UNL A   1      39.077  30.694  31.091  1.00  0.00     0.074 A 
ATOM     46  C   UNL A   1      39.904  29.412  29.157  1.00  0.00     0.049 A 
ATOM     47  N   UNL A   1      40.096  30.623  31.909  1.00  0.00    -0.248 NA
ATOM     48  C   UNL A   1      37.903  31.386  31.649  1.00  0.00     0.031 C 
ATOM     49  C   UNL A   1      39.848  28.776  27.846  1.00  0.00     0.029 A 
ATOM     50  N   UNL A   1      41.124  29.035  29.664  1.00  0.00    -0.354 N 
ATOM     51  C   UNL A   1      39.696  31.278  33.065  1.00  0.00     0.074 A 
ATOM     52  C   UNL A   1      38.347  31.751  32.842  1.00  0.00     0.031 C 
ATOM     53  C   UNL A   1      40.983  28.085  27.646  1.00  0.00     0.029 A 
ATOM     54  C   UNL A   1      41.866  28.272  28.795  1.00  0.00     0.049 A 
ATOM     55  H   UNL A   1      41.437  29.287  30.562  1.00  0.00     0.167 HD
ATOM     56  C   UNL A   1      40.394  31.468  34.208  1.00  0.00     0.037 A 
ATOM     57  C   UNL A   1      43.125  27.805  28.906  1.00  0.00     0.037 A 
ATOM     58  C   UNL A   1      41.735  30.990  34.429  1.00  0.00     0.049 A 
ATOM     59  C   UNL A   1      43.914  28.105  30.157  1.00  0.00     0.074 A 
ATOM     60  C   UNL A   1      42.531  31.140  35.551  1.00  0.00     0.029 A 
ATOM     61  N   UNL A   1      42.477  30.271  33.504  1.00  0.00    -0.354 N 
ATOM     62  N   UNL A   1      43.542  28.741  31.240  1.00  0.00    -0.248 NA
ATOM     63  C   UNL A   1      45.303  27.626  30.194  1.00  0.00     0.031 C 
ATOM     64  C   UNL A   1      43.773  30.557  35.287  1.00  0.00     0.029 A 
ATOM     65  C   UNL A   1      43.732  29.992  34.022  1.00  0.00     0.049 A 
ATOM     66  H   UNL A   1      42.161  29.999  32.613  1.00  0.00     0.167 HD
ATOM     67  C   UNL A   1      44.637  28.719  32.095  1.00  0.00     0.074 A 
ATOM     68  C   UNL A   1      45.684  27.990  31.411  1.00  0.00     0.031 C 
ATOM     69  C   UNL A   1      44.763  29.255  33.333  1.00  0.00     0.037 A 
BRANCH  56  70
ATOM     70  C   UNL A   1      39.736  32.270  35.290  1.00  0.00     0.064 A 
ATOM     71  C   UNL A   1      39.894  33.660  35.385  1.00  0.00     0.173 A 
ATOM     72  C   UNL A   1      38.921  31.634  36.240  1.00  0.00     0.173 A 
ATOM     73  F   UNL A   1      40.678  34.312  34.515  1.00  0.00    -0.203 F 
ATOM     74  C   UNL A   1      39.280  34.380  36.407  1.00  0.00     0.198 A 
ATOM     75  C   UNL A   1      38.285  32.362  37.241  1.00  0.00     0.198 A 
ATOM     76  F   UNL A   1      38.736  30.306  36.193  1.00  0.00    -0.203 F 
ATOM     77  F   UNL A   1      39.485  35.701  36.509  1.00  0.00    -0.200 F 
ATOM     78  C   UNL A   1      38.470  33.733  37.328  1.00  0.00     0.200 A 
ATOM     79  F   UNL A   1      37.494  31.735  38.123  1.00  0.00    -0.200 F 
ATOM     80  F   UNL A   1      37.877  34.429  38.307  1.00  0.00    -0.200 F 
ENDBRANCH  56  70
BRANCH  57  81
ATOM     81  C   UNL A   1      43.738  27.035  27.791  1.00  0.00     0.064 A 
ATOM     82  C   UNL A   1      44.320  27.684  26.695  1.00  0.00     0.173 A 
ATOM     83  C   UNL A   1      43.718  25.631  27.781  1.00  0.00     0.173 A 
ATOM     84  F   UNL A   1      44.332  29.025  26.637  1.00  0.00    -0.203 F 
ATOM     85  C   UNL A   1      44.843  26.961  25.623  1.00  0.00     0.198 A 
ATOM     86  C   UNL A   1      44.268  24.909  26.725  1.00  0.00     0.198 A 
ATOM     87  F   UNL A   1      43.157  24.960  28.798  1.00  0.00    -0.203 F 
ATOM     88  F   UNL A   1      45.340  27.608  24.559  1.00  0.00    -0.200 F 
ATOM     89  C   UNL A   1      44.821  25.575  25.642  1.00  0.00     0.200 A 
ATOM     90  F   UNL A   1      44.247  23.570  26.748  1.00  0.00    -0.200 F 
ATOM     91  F   UNL A   1      45.319  24.881  24.609  1.00  0.00    -0.200 F 
ENDBRANCH  57  81
BRANCH  69  92
ATOM     92  C   UNL A   1      46.065  29.042  34.051  1.00  0.00     0.064 A 
ATOM     93  C   UNL A   1      47.142  29.929  33.905  1.00  0.00     0.173 A 
ATOM     94  C   UNL A   1      46.219  27.963  34.935  1.00  0.00     0.173 A 
ATOM     95  F   UNL A   1      47.051  30.970  33.062  1.00  0.00    -0.203 F 
ATOM     96  C   UNL A   1      48.333  29.729  34.598  1.00  0.00     0.198 A 
ATOM     97  C   UNL A   1      47.400  27.783  35.650  1.00  0.00     0.198 A 
ATOM     98  F   UNL A   1      45.217  27.090  35.119  1.00  0.00    -0.203 F 
ATOM     99  F   UNL A   1      49.365  30.562  34.408  1.00  0.00    -0.200 F 
ATOM    100  C   UNL A   1      48.458  28.661  35.476  1.00  0.00     0.200 A 
ATOM    101  F   UNL A   1      47.513  26.761  36.509  1.00  0.00    -0.200 F 
ATOM    102  F   UNL A   1      49.602  28.476  36.148  1.00  0.00    -0.200 F 
ENDBRANCH  69  92
ENDBRANCH  43  44
ENDBRANCH  36  38
ENDBRANCH  35  36
ENDBRANCH  34  35
ENDBRANCH  33  34
ENDBRANCH  32  33
ENDBRANCH  31  32
ENDBRANCH   1  31
TORSDOF 21
ENDMDL
MODEL 3
REMARK VINA RESULT:     -10.1      4.085      7.868
REMARK SMILES C[C@@H]1CCCN(c2ccc(NC(=O)Cc3cccs3)c(C(=O)OCCOCCOCCOC(=O)c3ccc(-c4c5nc(c(-c6c(F)c(F)c(F)c(F)c6F)c6ccc([nH]6)c(-c6c(F)c(F)c(F)c(F)c6F)c6nc(c(-c7c(F)c(F)c(F)c(F)c7F)c7ccc4[nH]7)C=C6)C=C5)cc3)c2)C1
REMARK SMILES IDX 27 1 26 2 25 3 24 4 23 5 21 6 22 7 20 8 7 9 8 10 98 11 9 12
REMARK SMILES IDX 10 13 6 14 1 15 2 16 3 17 99 18 4 19 5 20 11 21 12 22 13 24
REMARK SMILES IDX 14 25 15 26 16 27 19 28 17 29 18 30 28 31 29 32 30 33 31 34
REMARK SMILES IDX 32 35 33 36 34 37 35 38 36 39 97 40 37 41 96 42 38 43 39 44
REMARK SMILES IDX 40 45 90 46 41 47 95 48 89 49 91 50 42 51 94 52 88 53 87 54
REMARK SMILES IDX 43 56 75 57 55 58 74 59 56 60 59 61 73 62 92 63 57 64 58 65
REMARK SMILES IDX 72 67 93 68 60 69 44 70 45 71 53 72 46 73 47 74 51 75 54 76
REMARK SMILES IDX 48 77 49 78 52 79 50 80 76 81 77 82 85 83 78 84 79 85 83 86
REMARK SMILES IDX 86 87 80 88 81 89 84 90 82 91 61 92 62 93 70 94 63 95 64 96
REMARK SMILES IDX 68 97 71 98 65 99 66 100 69 101 67 102
REMARK H PARENT 11 23 91 55 59 66
REMARK Flexibility Score: inf
ROOT
ATOM      1  C   UNL A   1      40.218  22.402  26.875  1.00  0.00     0.188 C 
ENDROOT
BRANCH   1   2
ATOM      2  O   UNL A   1      39.126  21.845  26.166  1.00  0.00    -0.376 OA
BRANCH   2   3
ATOM      3  C   UNL A   1      37.927  22.584  26.009  1.00  0.00     0.202 C 
BRANCH   3   4
ATOM      4  C   UNL A   1      37.437  22.999  24.618  1.00  0.00     0.261 C 
BRANCH   4   5
ATOM      5  O   UNL A   1      36.415  24.006  24.612  1.00  0.00    -0.460 OA
BRANCH   5   6
ATOM      6  C   UNL A   1      35.232  23.631  24.057  1.00  0.00     0.340 C 
ATOM      7  O   UNL A   1      34.807  23.971  22.970  1.00  0.00    -0.246 OA
BRANCH   6   8
ATOM      8  C   UNL A   1      34.549  22.600  24.883  1.00  0.00     0.085 A 
ATOM      9  C   UNL A   1      33.877  20.279  25.190  1.00  0.00     0.038 A 
ATOM     10  C   UNL A   1      33.332  20.634  26.421  1.00  0.00     0.028 A 
ATOM     11  C   UNL A   1      34.537  21.267  24.454  1.00  0.00     0.043 A 
ATOM     12  C   UNL A   1      33.351  21.958  26.867  1.00  0.00     0.029 A 
ATOM     13  C   UNL A   1      33.864  22.972  26.063  1.00  0.00     0.055 A 
BRANCH   9  14
ATOM     14  N   UNL A   1      33.765  19.003  24.690  1.00  0.00    -0.371 N 
ATOM     15  C   UNL A   1      35.437  15.621  25.135  1.00  0.00     0.009 C 
ATOM     16  C   UNL A   1      34.334  16.677  25.158  1.00  0.00     0.005 C 
ATOM     17  C   UNL A   1      33.163  16.257  24.254  1.00  0.00     0.007 C 
ATOM     18  C   UNL A   1      34.880  18.059  24.754  1.00  0.00     0.119 C 
ATOM     19  C   UNL A   1      32.078  17.334  24.211  1.00  0.00     0.022 C 
ATOM     20  C   UNL A   1      32.659  18.679  23.799  1.00  0.00     0.116 C 
ENDBRANCH   9  14
BRANCH  13  21
ATOM     21  N   UNL A   1      33.628  24.343  26.306  1.00  0.00    -0.325 N 
ATOM     22  C   UNL A   1      32.675  25.231  25.907  1.00  0.00     0.229 C 
ATOM     23  H   UNL A   1      34.304  24.747  26.897  1.00  0.00     0.169 HD
ATOM     24  O   UNL A   1      32.892  26.417  26.191  1.00  0.00    -0.274 OA
BRANCH  22  25
ATOM     25  C   UNL A   1      31.391  24.866  25.192  1.00  0.00     0.147 C 
BRANCH  25  26
ATOM     26  C   UNL A   1      30.829  25.903  24.251  1.00  0.00     0.014 A 
ATOM     27  C   UNL A   1      29.639  26.609  24.245  1.00  0.00     0.016 A 
ATOM     28  S   UNL A   1      31.829  26.410  22.936  1.00  0.00    -0.148 S 
ATOM     29  C   UNL A   1      29.565  27.574  23.196  1.00  0.00     0.012 A 
ATOM     30  C   UNL A   1      30.680  27.548  22.395  1.00  0.00     0.065 A 
ENDBRANCH  25  26
ENDBRANCH  22  25
ENDBRANCH  13  21
ENDBRANCH   6   8
ENDBRANCH   5   6
ENDBRANCH   4   5
ENDBRANCH   3   4
ENDBRANCH   2   3
ENDBRANCH   1   2
BRANCH   1  31
ATOM     31  C   UNL A   1      41.090  21.536  27.806  1.00  0.00     0.188 C 
BRANCH  31  32
ATOM     32  O   UNL A   1      42.021  20.638  27.252  1.00  0.00    -0.376 OA
BRANCH  32  33
ATOM     33  C   UNL A   1      42.494  20.783  25.923  1.00  0.00     0.202 C 
BRANCH  33  34
ATOM     34  C   UNL A   1      43.085  22.066  25.313  1.00  0.00     0.261 C 
BRANCH  34  35
ATOM     35  O   UNL A   1      43.922  22.872  26.142  1.00  0.00    -0.460 OA
BRANCH  35  36
ATOM     36  C   UNL A   1      44.135  24.129  25.688  1.00  0.00     0.338 C 
ATOM     37  O   UNL A   1      44.686  24.465  24.653  1.00  0.00    -0.246 OA
BRANCH  36  38
ATOM     38  C   UNL A   1      43.438  25.085  26.562  1.00  0.00     0.060 A 
ATOM     39  C   UNL A   1      44.077  26.293  26.848  1.00  0.00     0.016 A 
ATOM     40  C   UNL A   1      42.211  24.774  27.146  1.00  0.00     0.016 A 
ATOM     41  C   UNL A   1      43.494  27.195  27.731  1.00  0.00     0.010 A 
ATOM     42  C   UNL A   1      41.638  25.674  28.054  1.00  0.00     0.010 A 
ATOM     43  C   UNL A   1      42.290  26.880  28.367  1.00  0.00    -0.014 A 
BRANCH  43  44
ATOM     44  C   UNL A   1      41.829  27.734  29.486  1.00  0.00     0.031 A 
ATOM     45  C   UNL A   1      42.596  27.706  30.776  1.00  0.00     0.074 A 
ATOM     46  C   UNL A   1      40.791  28.576  29.342  1.00  0.00     0.049 A 
ATOM     47  N   UNL A   1      42.351  28.316  31.906  1.00  0.00    -0.248 NA
ATOM     48  C   UNL A   1      43.811  26.875  30.790  1.00  0.00     0.031 C 
ATOM     49  C   UNL A   1      40.024  28.763  28.116  1.00  0.00     0.029 A 
ATOM     50  N   UNL A   1      40.209  29.438  30.240  1.00  0.00    -0.354 N 
ATOM     51  C   UNL A   1      43.365  27.928  32.771  1.00  0.00     0.074 A 
ATOM     52  C   UNL A   1      44.222  27.019  32.041  1.00  0.00     0.031 C 
ATOM     53  C   UNL A   1      39.069  29.683  28.335  1.00  0.00     0.029 A 
ATOM     54  C   UNL A   1      39.127  30.112  29.730  1.00  0.00     0.049 A 
ATOM     55  H   UNL A   1      40.536  29.560  31.160  1.00  0.00     0.167 HD
ATOM     56  C   UNL A   1      43.560  28.295  34.058  1.00  0.00     0.037 A 
ATOM     57  C   UNL A   1      38.266  30.956  30.333  1.00  0.00     0.037 A 
ATOM     58  C   UNL A   1      42.708  29.205  34.779  1.00  0.00     0.049 A 
ATOM     59  C   UNL A   1      38.455  31.282  31.793  1.00  0.00     0.074 A 
ATOM     60  C   UNL A   1      42.817  29.633  36.091  1.00  0.00     0.029 A 
ATOM     61  N   UNL A   1      41.586  29.824  34.248  1.00  0.00    -0.354 N 
ATOM     62  N   UNL A   1      39.401  30.898  32.614  1.00  0.00    -0.248 NA
ATOM     63  C   UNL A   1      37.448  32.156  32.412  1.00  0.00     0.031 C 
ATOM     64  C   UNL A   1      41.733  30.470  36.369  1.00  0.00     0.029 A 
ATOM     65  C   UNL A   1      40.980  30.612  35.215  1.00  0.00     0.049 A 
ATOM     66  H   UNL A   1      41.268  29.721  33.323  1.00  0.00     0.167 HD
ATOM     67  C   UNL A   1      39.120  31.498  33.834  1.00  0.00     0.074 A 
ATOM     68  C   UNL A   1      37.923  32.288  33.643  1.00  0.00     0.031 C 
ATOM     69  C   UNL A   1      39.792  31.403  35.007  1.00  0.00     0.037 A 
BRANCH  56  70
ATOM     70  C   UNL A   1      44.714  27.672  34.783  1.00  0.00     0.064 A 
ATOM     71  C   UNL A   1      45.975  28.284  34.839  1.00  0.00     0.173 A 
ATOM     72  C   UNL A   1      44.548  26.446  35.447  1.00  0.00     0.173 A 
ATOM     73  F   UNL A   1      46.190  29.446  34.205  1.00  0.00    -0.203 F 
ATOM     74  C   UNL A   1      47.034  27.678  35.510  1.00  0.00     0.198 A 
ATOM     75  C   UNL A   1      45.601  25.860  36.142  1.00  0.00     0.198 A 
ATOM     76  F   UNL A   1      43.362  25.819  35.426  1.00  0.00    -0.203 F 
ATOM     77  F   UNL A   1      48.244  28.255  35.507  1.00  0.00    -0.200 F 
ATOM     78  C   UNL A   1      46.844  26.472  36.167  1.00  0.00     0.200 A 
ATOM     79  F   UNL A   1      45.412  24.698  36.786  1.00  0.00    -0.200 F 
ATOM     80  F   UNL A   1      47.864  25.894  36.817  1.00  0.00    -0.200 F 
ENDBRANCH  56  70
BRANCH  57  81
ATOM     81  C   UNL A   1      37.123  31.527  29.571  1.00  0.00     0.064 A 
ATOM     82  C   UNL A   1      37.073  32.891  29.252  1.00  0.00     0.173 A 
ATOM     83  C   UNL A   1      36.038  30.727  29.179  1.00  0.00     0.173 A 
ATOM     84  F   UNL A   1      38.067  33.706  29.635  1.00  0.00    -0.203 F 
ATOM     85  C   UNL A   1      35.975  33.435  28.588  1.00  0.00     0.198 A 
ATOM     86  C   UNL A   1      34.956  31.266  28.489  1.00  0.00     0.198 A 
ATOM     87  F   UNL A   1      36.028  29.419  29.475  1.00  0.00    -0.203 F 
ATOM     88  F   UNL A   1      35.925  34.754  28.348  1.00  0.00    -0.200 F 
ATOM     89  C   UNL A   1      34.921  32.622  28.202  1.00  0.00     0.200 A 
ATOM     90  F   UNL A   1      33.940  30.477  28.116  1.00  0.00    -0.200 F 
ATOM     91  F   UNL A   1      33.862  33.148  27.569  1.00  0.00    -0.200 F 
ENDBRANCH  57  81
BRANCH  69  92
ATOM     92  C   UNL A   1      39.276  32.201  36.170  1.00  0.00     0.064 A 
ATOM     93  C   UNL A   1      39.706  33.514  36.414  1.00  0.00     0.173 A 
ATOM     94  C   UNL A   1      38.301  31.660  37.023  1.00  0.00     0.173 A 
ATOM     95  F   UNL A   1      40.646  34.072  35.635  1.00  0.00    -0.203 F 
ATOM     96  C   UNL A   1      39.198  34.247  37.483  1.00  0.00     0.198 A 
ATOM     97  C   UNL A   1      37.772  32.407  38.072  1.00  0.00     0.198 A 
ATOM     98  F   UNL A   1      37.848  30.413  36.829  1.00  0.00    -0.203 F 
ATOM     99  F   UNL A   1      39.657  35.482  37.725  1.00  0.00    -0.200 F 
ATOM    100  C   UNL A   1      38.226  33.696  38.306  1.00  0.00     0.200 A 
ATOM    101  F   UNL A   1      36.822  31.879  38.855  1.00  0.00    -0.200 F 
ATOM    102  F   UNL A   1      37.731  34.406  39.329  1.00  0.00    -0.200 F 
ENDBRANCH  69  92
ENDBRANCH  43  44
ENDBRANCH  36  38
ENDBRANCH  35  36
ENDBRANCH  34  35
ENDBRANCH  33  34
ENDBRANCH  32  33
ENDBRANCH  31  32
ENDBRANCH   1  31
TORSDOF 21
ENDMDL
