MODEL 1
REMARK VINA RESULT:     -10.8      0.000      0.000
REMARK SMILES C[C@@H]1CCC[C@H]1NC(=O)c1csc(/C=C/C(=O)OCCOCCOCCOC(=O)c2ccc(-c3c4nc(c(-c5c(F)c(F)c(F)c(F)c5F)c5ccc([nH]5)c(-c5c(F)c(F)c(F)c(F)c5F)c5nc(c(-c6c(F)c(F)c(F)c(F)c6F)c6ccc3[nH]6)C=C5)C=C4)cc2)c1
REMARK SMILES IDX 22 1 21 2 20 3 19 4 18 5 16 6 17 7 15 8 14 9 13 10 10 11
REMARK SMILES IDX 11 12 93 13 12 14 8 15 7 16 9 18 6 19 1 20 2 21 3 22 4 23
REMARK SMILES IDX 5 24 23 25 24 26 25 27 26 28 27 29 28 30 29 31 30 32 31 33
REMARK SMILES IDX 92 34 32 35 91 36 33 37 34 38 35 39 85 40 36 41 90 42 84 43
REMARK SMILES IDX 86 44 37 45 89 46 83 47 82 48 38 50 70 51 50 52 69 53 51 54
REMARK SMILES IDX 54 55 68 56 87 57 52 58 53 59 67 61 88 62 55 63 39 64 40 65
REMARK SMILES IDX 48 66 41 67 42 68 46 69 49 70 43 71 44 72 47 73 45 74 71 75
REMARK SMILES IDX 72 76 80 77 73 78 74 79 78 80 81 81 75 82 76 83 79 84 77 85
REMARK SMILES IDX 56 86 57 87 65 88 58 89 59 90 63 91 66 92 60 93 61 94 64 95
REMARK SMILES IDX 62 96
REMARK H PARENT 7 17 86 49 54 60
REMARK Flexibility Score: inf
ROOT
ATOM      1  C   UNL A   1      34.525  32.017  28.818  1.00  0.00     0.188 C 
ENDROOT
BRANCH   1   2
ATOM      2  O   UNL A   1      34.779  30.920  27.946  1.00  0.00    -0.376 OA
BRANCH   2   3
ATOM      3  C   UNL A   1      33.731  30.421  27.119  1.00  0.00     0.202 C 
BRANCH   3   4
ATOM      4  C   UNL A   1      33.462  28.911  27.105  1.00  0.00     0.261 C 
BRANCH   4   5
ATOM      5  O   UNL A   1      34.218  28.184  26.121  1.00  0.00    -0.460 OA
BRANCH   5   6
ATOM      6  C   UNL A   1      33.552  27.905  24.974  1.00  0.00     0.330 C 
ATOM      7  O   UNL A   1      33.065  28.718  24.202  1.00  0.00    -0.247 OA
BRANCH   6   8
ATOM      8  C   UNL A   1      33.551  26.465  24.647  1.00  0.00     0.095 C 
ATOM      9  C   UNL A   1      34.071  25.478  25.391  1.00  0.00     0.026 C 
BRANCH   9  10
ATOM     10  C   UNL A   1      34.002  24.105  24.990  1.00  0.00     0.028 A 
ATOM     11  C   UNL A   1      34.535  21.795  24.762  1.00  0.00     0.051 A 
ATOM     12  C   UNL A   1      33.299  21.873  24.153  1.00  0.00     0.079 A 
ATOM     13  C   UNL A   1      34.924  23.101  25.240  1.00  0.00     0.033 A 
ATOM     14  S   UNL A   1      32.700  23.467  24.057  1.00  0.00    -0.144 S 
BRANCH  11  15
ATOM     15  C   UNL A   1      35.295  20.576  25.026  1.00  0.00     0.252 C 
ATOM     16  N   UNL A   1      34.697  19.343  25.036  1.00  0.00    -0.349 N 
ATOM     17  H   UNL A   1      35.244  18.631  25.440  1.00  0.00     0.164 HD
ATOM     18  O   UNL A   1      36.505  20.624  25.246  1.00  0.00    -0.269 OA
BRANCH  16  19
ATOM     19  C   UNL A   1      33.392  18.895  24.553  1.00  0.00     0.085 C 
ATOM     20  C   UNL A   1      32.266  18.035  22.446  1.00  0.00     0.010 C 
ATOM     21  C   UNL A   1      33.550  18.048  23.279  1.00  0.00     0.008 C 
ATOM     22  C   UNL A   1      33.886  16.658  23.818  1.00  0.00     0.005 C 
ATOM     23  C   UNL A   1      33.085  16.521  25.107  1.00  0.00     0.002 C 
ATOM     24  C   UNL A   1      32.748  17.943  25.566  1.00  0.00     0.025 C 
ENDBRANCH  16  19
ENDBRANCH  11  15
ENDBRANCH   9  10
ENDBRANCH   6   8
ENDBRANCH   5   6
ENDBRANCH   4   5
ENDBRANCH   3   4
ENDBRANCH   2   3
ENDBRANCH   1   2
BRANCH   1  25
ATOM     25  C   UNL A   1      35.313  33.332  28.641  1.00  0.00     0.188 C 
BRANCH  25  26
ATOM     26  O   UNL A   1      34.593  34.334  27.959  1.00  0.00    -0.376 OA
BRANCH  26  27
ATOM     27  C   UNL A   1      33.274  34.645  28.374  1.00  0.00     0.202 C 
BRANCH  27  28
ATOM     28  C   UNL A   1      32.980  35.658  29.495  1.00  0.00     0.261 C 
BRANCH  28  29
ATOM     29  O   UNL A   1      32.351  35.167  30.684  1.00  0.00    -0.460 OA
BRANCH  29  30
ATOM     30  C   UNL A   1      32.707  35.748  31.852  1.00  0.00     0.338 C 
ATOM     31  O   UNL A   1      32.125  36.628  32.453  1.00  0.00    -0.246 OA
BRANCH  30  32
ATOM     32  C   UNL A   1      33.882  35.017  32.370  1.00  0.00     0.060 A 
ATOM     33  C   UNL A   1      35.147  35.606  32.270  1.00  0.00     0.016 A 
ATOM     34  C   UNL A   1      33.729  33.754  32.948  1.00  0.00     0.016 A 
ATOM     35  C   UNL A   1      36.271  34.922  32.739  1.00  0.00     0.010 A 
ATOM     36  C   UNL A   1      34.856  33.063  33.398  1.00  0.00     0.010 A 
ATOM     37  C   UNL A   1      36.135  33.635  33.278  1.00  0.00    -0.014 A 
BRANCH  37  38
ATOM     38  C   UNL A   1      37.333  32.819  33.586  1.00  0.00     0.031 A 
ATOM     39  C   UNL A   1      38.075  33.083  34.865  1.00  0.00     0.074 A 
ATOM     40  C   UNL A   1      37.762  31.867  32.739  1.00  0.00     0.049 A 
ATOM     41  N   UNL A   1      39.196  32.565  35.300  1.00  0.00    -0.248 NA
ATOM     42  C   UNL A   1      37.469  34.066  35.778  1.00  0.00     0.031 C 
ATOM     43  C   UNL A   1      37.103  31.485  31.493  1.00  0.00     0.029 A 
ATOM     44  N   UNL A   1      38.870  31.059  32.797  1.00  0.00    -0.354 N 
ATOM     45  C   UNL A   1      39.426  33.156  36.535  1.00  0.00     0.074 A 
ATOM     46  C   UNL A   1      38.347  34.091  36.770  1.00  0.00     0.031 C 
ATOM     47  C   UNL A   1      37.829  30.525  30.893  1.00  0.00     0.029 A 
ATOM     48  C   UNL A   1      39.023  30.255  31.694  1.00  0.00     0.049 A 
ATOM     49  H   UNL A   1      39.496  31.055  33.557  1.00  0.00     0.167 HD
ATOM     50  C   UNL A   1      40.445  32.932  37.399  1.00  0.00     0.037 A 
ATOM     51  C   UNL A   1      40.029  29.424  31.359  1.00  0.00     0.037 A 
ATOM     52  C   UNL A   1      41.527  32.016  37.157  1.00  0.00     0.049 A 
ATOM     53  C   UNL A   1      41.209  29.278  32.287  1.00  0.00     0.074 A 
ATOM     54  C   UNL A   1      42.606  31.721  37.971  1.00  0.00     0.029 A 
ATOM     55  N   UNL A   1      41.670  31.253  36.008  1.00  0.00    -0.354 N 
ATOM     56  N   UNL A   1      41.414  29.825  33.461  1.00  0.00    -0.248 NA
ATOM     57  C   UNL A   1      42.303  28.403  31.837  1.00  0.00     0.031 C 
ATOM     58  C   UNL A   1      43.427  30.813  37.294  1.00  0.00     0.029 A 
ATOM     59  C   UNL A   1      42.834  30.507  36.080  1.00  0.00     0.049 A 
ATOM     60  H   UNL A   1      41.039  31.244  35.253  1.00  0.00     0.167 HD
ATOM     61  C   UNL A   1      42.640  29.339  33.901  1.00  0.00     0.074 A 
ATOM     62  C   UNL A   1      43.130  28.447  32.873  1.00  0.00     0.031 C 
ATOM     63  C   UNL A   1      43.300  29.610  35.054  1.00  0.00     0.037 A 
BRANCH  50  64
ATOM     64  C   UNL A   1      40.446  33.711  38.680  1.00  0.00     0.064 A 
ATOM     65  C   UNL A   1      41.211  34.878  38.827  1.00  0.00     0.173 A 
ATOM     66  C   UNL A   1      39.647  33.308  39.759  1.00  0.00     0.173 A 
ATOM     67  F   UNL A   1      42.004  35.296  37.828  1.00  0.00    -0.203 F 
ATOM     68  C   UNL A   1      41.191  35.601  40.016  1.00  0.00     0.198 A 
ATOM     69  C   UNL A   1      39.610  34.048  40.937  1.00  0.00     0.198 A 
ATOM     70  F   UNL A   1      38.896  32.201  39.667  1.00  0.00    -0.203 F 
ATOM     71  F   UNL A   1      41.961  36.690  40.149  1.00  0.00    -0.200 F 
ATOM     72  C   UNL A   1      40.386  35.190  41.068  1.00  0.00     0.200 A 
ATOM     73  F   UNL A   1      38.824  33.653  41.950  1.00  0.00    -0.200 F 
ATOM     74  F   UNL A   1      40.363  35.890  42.209  1.00  0.00    -0.200 F 
ENDBRANCH  50  64
BRANCH  51  75
ATOM     75  C   UNL A   1      39.988  28.677  30.074  1.00  0.00     0.064 A 
ATOM     76  C   UNL A   1      39.408  27.404  29.998  1.00  0.00     0.173 A 
ATOM     77  C   UNL A   1      40.565  29.202  28.908  1.00  0.00     0.173 A 
ATOM     78  F   UNL A   1      38.872  26.846  31.094  1.00  0.00    -0.203 F 
ATOM     79  C   UNL A   1      39.425  26.675  28.811  1.00  0.00     0.198 A 
ATOM     80  C   UNL A   1      40.557  28.484  27.715  1.00  0.00     0.198 A 
ATOM     81  F   UNL A   1      41.143  30.412  28.931  1.00  0.00    -0.203 F 
ATOM     82  F   UNL A   1      38.912  25.437  28.779  1.00  0.00    -0.200 F 
ATOM     83  C   UNL A   1      39.995  27.217  27.668  1.00  0.00     0.200 A 
ATOM     84  F   UNL A   1      41.106  29.013  26.613  1.00  0.00    -0.200 F 
ATOM     85  F   UNL A   1      40.017  26.513  26.528  1.00  0.00    -0.200 F 
ENDBRANCH  51  75
BRANCH  63  86
ATOM     86  C   UNL A   1      44.606  28.907  35.287  1.00  0.00     0.064 A 
ATOM     87  C   UNL A   1      44.664  27.648  35.900  1.00  0.00     0.173 A 
ATOM     88  C   UNL A   1      45.807  29.476  34.835  1.00  0.00     0.173 A 
ATOM     89  F   UNL A   1      43.546  27.070  36.363  1.00  0.00    -0.203 F 
ATOM     90  C   UNL A   1      45.880  26.991  36.068  1.00  0.00     0.198 A 
ATOM     91  C   UNL A   1      47.016  28.804  34.979  1.00  0.00     0.198 A 
ATOM     92  F   UNL A   1      45.803  30.676  34.235  1.00  0.00    -0.203 F 
ATOM     93  F   UNL A   1      45.918  25.804  36.690  1.00  0.00    -0.200 F 
ATOM     94  C   UNL A   1      47.054  27.565  35.600  1.00  0.00     0.200 A 
ATOM     95  F   UNL A   1      48.147  29.355  34.514  1.00  0.00    -0.200 F 
ATOM     96  F   UNL A   1      48.220  26.924  35.750  1.00  0.00    -0.200 F 
ENDBRANCH  63  86
ENDBRANCH  37  38
ENDBRANCH  30  32
ENDBRANCH  29  30
ENDBRANCH  28  29
ENDBRANCH  27  28
ENDBRANCH  26  27
ENDBRANCH  25  26
ENDBRANCH   1  25
TORSDOF 20
ENDMDL
MODEL 2
REMARK VINA RESULT:     -10.8      1.557      2.293
REMARK SMILES C[C@@H]1CCC[C@H]1NC(=O)c1csc(/C=C/C(=O)OCCOCCOCCOC(=O)c2ccc(-c3c4nc(c(-c5c(F)c(F)c(F)c(F)c5F)c5ccc([nH]5)c(-c5c(F)c(F)c(F)c(F)c5F)c5nc(c(-c6c(F)c(F)c(F)c(F)c6F)c6ccc3[nH]6)C=C5)C=C4)cc2)c1
REMARK SMILES IDX 22 1 21 2 20 3 19 4 18 5 16 6 17 7 15 8 14 9 13 10 10 11
REMARK SMILES IDX 11 12 93 13 12 14 8 15 7 16 9 18 6 19 1 20 2 21 3 22 4 23
REMARK SMILES IDX 5 24 23 25 24 26 25 27 26 28 27 29 28 30 29 31 30 32 31 33
REMARK SMILES IDX 92 34 32 35 91 36 33 37 34 38 35 39 85 40 36 41 90 42 84 43
REMARK SMILES IDX 86 44 37 45 89 46 83 47 82 48 38 50 70 51 50 52 69 53 51 54
REMARK SMILES IDX 54 55 68 56 87 57 52 58 53 59 67 61 88 62 55 63 39 64 40 65
REMARK SMILES IDX 48 66 41 67 42 68 46 69 49 70 43 71 44 72 47 73 45 74 71 75
REMARK SMILES IDX 72 76 80 77 73 78 74 79 78 80 81 81 75 82 76 83 79 84 77 85
REMARK SMILES IDX 56 86 57 87 65 88 58 89 59 90 63 91 66 92 60 93 61 94 64 95
REMARK SMILES IDX 62 96
REMARK H PARENT 7 17 86 49 54 60
REMARK Flexibility Score: inf
ROOT
ATOM      1  C   UNL A   1      31.399  29.104  25.412  1.00  0.00     0.188 C 
ENDROOT
BRANCH   1   2
ATOM      2  O   UNL A   1      32.214  28.133  24.761  1.00  0.00    -0.376 OA
BRANCH   2   3
ATOM      3  C   UNL A   1      33.340  28.557  23.998  1.00  0.00     0.202 C 
BRANCH   3   4
ATOM      4  C   UNL A   1      33.246  28.524  22.468  1.00  0.00     0.261 C 
BRANCH   4   5
ATOM      5  O   UNL A   1      33.622  27.266  21.878  1.00  0.00    -0.460 OA
BRANCH   5   6
ATOM      6  C   UNL A   1      32.634  26.340  21.817  1.00  0.00     0.330 C 
ATOM      7  O   UNL A   1      31.690  26.337  21.040  1.00  0.00    -0.247 OA
BRANCH   6   8
ATOM      8  C   UNL A   1      32.850  25.209  22.741  1.00  0.00     0.095 C 
ATOM      9  C   UNL A   1      34.021  24.610  23.008  1.00  0.00     0.026 C 
BRANCH   9  10
ATOM     10  C   UNL A   1      34.126  23.527  23.938  1.00  0.00     0.028 A 
ATOM     11  C   UNL A   1      34.777  21.457  24.921  1.00  0.00     0.051 A 
ATOM     12  C   UNL A   1      34.073  22.061  25.944  1.00  0.00     0.079 A 
ATOM     13  C   UNL A   1      34.796  22.325  23.767  1.00  0.00     0.033 A 
ATOM     14  S   UNL A   1      33.367  23.544  25.486  1.00  0.00    -0.144 S 
BRANCH  11  15
ATOM     15  C   UNL A   1      35.522  20.203  25.004  1.00  0.00     0.252 C 
ATOM     16  N   UNL A   1      34.890  18.987  24.972  1.00  0.00    -0.349 N 
ATOM     17  H   UNL A   1      35.452  18.232  25.258  1.00  0.00     0.164 HD
ATOM     18  O   UNL A   1      36.749  20.205  25.104  1.00  0.00    -0.269 OA
BRANCH  16  19
ATOM     19  C   UNL A   1      33.531  18.611  24.588  1.00  0.00     0.085 C 
ATOM     20  C   UNL A   1      32.152  18.060  22.529  1.00  0.00     0.010 C 
ATOM     21  C   UNL A   1      33.525  17.956  23.197  1.00  0.00     0.008 C 
ATOM     22  C   UNL A   1      33.900  16.503  23.490  1.00  0.00     0.005 C 
ATOM     23  C   UNL A   1      33.254  16.182  24.832  1.00  0.00     0.002 C 
ATOM     24  C   UNL A   1      32.996  17.523  25.525  1.00  0.00     0.025 C 
ENDBRANCH  16  19
ENDBRANCH  11  15
ENDBRANCH   9  10
ENDBRANCH   6   8
ENDBRANCH   5   6
ENDBRANCH   4   5
ENDBRANCH   3   4
ENDBRANCH   2   3
ENDBRANCH   1   2
BRANCH   1  25
ATOM     25  C   UNL A   1      31.988  30.487  25.759  1.00  0.00     0.188 C 
BRANCH  25  26
ATOM     26  O   UNL A   1      32.120  30.714  27.145  1.00  0.00    -0.376 OA
BRANCH  26  27
ATOM     27  C   UNL A   1      32.979  31.743  27.601  1.00  0.00     0.202 C 
BRANCH  27  28
ATOM     28  C   UNL A   1      32.746  33.226  27.254  1.00  0.00     0.261 C 
BRANCH  28  29
ATOM     29  O   UNL A   1      32.157  34.057  28.259  1.00  0.00    -0.460 OA
BRANCH  29  30
ATOM     30  C   UNL A   1      32.927  35.044  28.769  1.00  0.00     0.338 C 
ATOM     31  O   UNL A   1      32.706  36.238  28.763  1.00  0.00    -0.246 OA
BRANCH  30  32
ATOM     32  C   UNL A   1      34.050  34.404  29.485  1.00  0.00     0.060 A 
ATOM     33  C   UNL A   1      35.349  34.553  28.984  1.00  0.00     0.016 A 
ATOM     34  C   UNL A   1      33.816  33.659  30.644  1.00  0.00     0.016 A 
ATOM     35  C   UNL A   1      36.420  33.942  29.638  1.00  0.00     0.010 A 
ATOM     36  C   UNL A   1      34.886  33.032  31.285  1.00  0.00     0.010 A 
ATOM     37  C   UNL A   1      36.190  33.153  30.775  1.00  0.00    -0.014 A 
BRANCH  37  38
ATOM     38  C   UNL A   1      37.281  32.334  31.354  1.00  0.00     0.031 A 
ATOM     39  C   UNL A   1      37.817  32.703  32.709  1.00  0.00     0.074 A 
ATOM     40  C   UNL A   1      37.796  31.288  30.685  1.00  0.00     0.049 A 
ATOM     41  N   UNL A   1      38.825  32.196  33.372  1.00  0.00    -0.248 NA
ATOM     42  C   UNL A   1      37.119  33.792  33.411  1.00  0.00     0.031 C 
ATOM     43  C   UNL A   1      37.331  30.803  29.388  1.00  0.00     0.029 A 
ATOM     44  N   UNL A   1      38.839  30.455  31.003  1.00  0.00    -0.354 N 
ATOM     45  C   UNL A   1      38.880  32.901  34.566  1.00  0.00     0.074 A 
ATOM     46  C   UNL A   1      37.824  33.889  34.529  1.00  0.00     0.031 C 
ATOM     47  C   UNL A   1      38.098  29.765  29.011  1.00  0.00     0.029 A 
ATOM     48  C   UNL A   1      39.130  29.539  30.022  1.00  0.00     0.049 A 
ATOM     49  H   UNL A   1      39.332  30.508  31.854  1.00  0.00     0.167 HD
ATOM     50  C   UNL A   1      39.733  32.732  35.605  1.00  0.00     0.037 A 
ATOM     51  C   UNL A   1      40.135  28.646  29.940  1.00  0.00     0.037 A 
ATOM     52  C   UNL A   1      40.793  31.762  35.636  1.00  0.00     0.049 A 
ATOM     53  C   UNL A   1      41.140  28.557  31.061  1.00  0.00     0.074 A 
ATOM     54  C   UNL A   1      41.710  31.516  36.642  1.00  0.00     0.029 A 
ATOM     55  N   UNL A   1      41.084  30.883  34.604  1.00  0.00    -0.354 N 
ATOM     56  N   UNL A   1      41.178  29.213  32.196  1.00  0.00    -0.248 NA
ATOM     57  C   UNL A   1      42.249  27.606  30.885  1.00  0.00     0.031 C 
ATOM     58  C   UNL A   1      42.585  30.518  36.201  1.00  0.00     0.029 A 
ATOM     59  C   UNL A   1      42.184  30.111  34.939  1.00  0.00     0.049 A 
ATOM     60  H   UNL A   1      40.585  30.818  33.758  1.00  0.00     0.167 HD
ATOM     61  C   UNL A   1      42.291  28.735  32.878  1.00  0.00     0.074 A 
ATOM     62  C   UNL A   1      42.897  27.727  32.036  1.00  0.00     0.031 C 
ATOM     63  C   UNL A   1      42.767  29.100  34.094  1.00  0.00     0.037 A 
BRANCH  50  64
ATOM     64  C   UNL A   1      39.562  33.637  36.789  1.00  0.00     0.064 A 
ATOM     65  C   UNL A   1      40.168  34.901  36.838  1.00  0.00     0.173 A 
ATOM     66  C   UNL A   1      38.757  33.251  37.870  1.00  0.00     0.173 A 
ATOM     67  F   UNL A   1      40.961  35.309  35.834  1.00  0.00    -0.203 F 
ATOM     68  C   UNL A   1      39.990  35.738  37.936  1.00  0.00     0.198 A 
ATOM     69  C   UNL A   1      38.561  34.101  38.955  1.00  0.00     0.198 A 
ATOM     70  F   UNL A   1      38.155  32.053  37.870  1.00  0.00    -0.203 F 
ATOM     71  F   UNL A   1      40.611  36.925  37.979  1.00  0.00    -0.200 F 
ATOM     72  C   UNL A   1      39.182  35.340  38.990  1.00  0.00     0.200 A 
ATOM     73  F   UNL A   1      37.771  33.718  39.969  1.00  0.00    -0.200 F 
ATOM     74  F   UNL A   1      39.005  36.149  40.043  1.00  0.00    -0.200 F 
ENDBRANCH  50  64
BRANCH  51  75
ATOM     75  C   UNL A   1      40.268  27.775  28.742  1.00  0.00     0.064 A 
ATOM     76  C   UNL A   1      39.667  26.510  28.700  1.00  0.00     0.173 A 
ATOM     77  C   UNL A   1      41.035  28.170  27.635  1.00  0.00     0.173 A 
ATOM     78  F   UNL A   1      38.952  26.074  29.748  1.00  0.00    -0.203 F 
ATOM     79  C   UNL A   1      39.842  25.665  27.606  1.00  0.00     0.198 A 
ATOM     80  C   UNL A   1      41.186  27.336  26.530  1.00  0.00     0.198 A 
ATOM     81  F   UNL A   1      41.641  29.367  27.631  1.00  0.00    -0.203 F 
ATOM     82  F   UNL A   1      39.301  24.439  27.615  1.00  0.00    -0.200 F 
ATOM     83  C   UNL A   1      40.598  26.081  26.520  1.00  0.00     0.200 A 
ATOM     84  F   UNL A   1      41.915  27.743  25.481  1.00  0.00    -0.200 F 
ATOM     85  F   UNL A   1      40.772  25.266  25.471  1.00  0.00    -0.200 F 
ENDBRANCH  51  75
BRANCH  63  86
ATOM     86  C   UNL A   1      43.981  28.382  34.607  1.00  0.00     0.064 A 
ATOM     87  C   UNL A   1      43.879  27.173  35.309  1.00  0.00     0.173 A 
ATOM     88  C   UNL A   1      45.265  28.882  34.339  1.00  0.00     0.173 A 
ATOM     89  F   UNL A   1      42.675  26.662  35.603  1.00  0.00    -0.203 F 
ATOM     90  C   UNL A   1      45.019  26.498  35.739  1.00  0.00     0.198 A 
ATOM     91  C   UNL A   1      46.402  28.191  34.746  1.00  0.00     0.198 A 
ATOM     92  F   UNL A   1      45.415  30.032  33.664  1.00  0.00    -0.203 F 
ATOM     93  F   UNL A   1      44.899  25.362  36.440  1.00  0.00    -0.200 F 
ATOM     94  C   UNL A   1      46.279  27.003  35.450  1.00  0.00     0.200 A 
ATOM     95  F   UNL A   1      47.618  28.674  34.454  1.00  0.00    -0.200 F 
ATOM     96  F   UNL A   1      47.374  26.345  35.852  1.00  0.00    -0.200 F 
ENDBRANCH  63  86
ENDBRANCH  37  38
ENDBRANCH  30  32
ENDBRANCH  29  30
ENDBRANCH  28  29
ENDBRANCH  27  28
ENDBRANCH  26  27
ENDBRANCH  25  26
ENDBRANCH   1  25
TORSDOF 20
ENDMDL
MODEL 3
REMARK VINA RESULT:     -10.7      1.630      7.388
REMARK SMILES C[C@@H]1CCC[C@H]1NC(=O)c1csc(/C=C/C(=O)OCCOCCOCCOC(=O)c2ccc(-c3c4nc(c(-c5c(F)c(F)c(F)c(F)c5F)c5ccc([nH]5)c(-c5c(F)c(F)c(F)c(F)c5F)c5nc(c(-c6c(F)c(F)c(F)c(F)c6F)c6ccc3[nH]6)C=C5)C=C4)cc2)c1
REMARK SMILES IDX 22 1 21 2 20 3 19 4 18 5 16 6 17 7 15 8 14 9 13 10 10 11
REMARK SMILES IDX 11 12 93 13 12 14 8 15 7 16 9 18 6 19 1 20 2 21 3 22 4 23
REMARK SMILES IDX 5 24 23 25 24 26 25 27 26 28 27 29 28 30 29 31 30 32 31 33
REMARK SMILES IDX 92 34 32 35 91 36 33 37 34 38 35 39 85 40 36 41 90 42 84 43
REMARK SMILES IDX 86 44 37 45 89 46 83 47 82 48 38 50 70 51 50 52 69 53 51 54
REMARK SMILES IDX 54 55 68 56 87 57 52 58 53 59 67 61 88 62 55 63 39 64 40 65
REMARK SMILES IDX 48 66 41 67 42 68 46 69 49 70 43 71 44 72 47 73 45 74 71 75
REMARK SMILES IDX 72 76 80 77 73 78 74 79 78 80 81 81 75 82 76 83 79 84 77 85
REMARK SMILES IDX 56 86 57 87 65 88 58 89 59 90 63 91 66 92 60 93 61 94 64 95
REMARK SMILES IDX 62 96
REMARK H PARENT 7 17 86 49 54 60
REMARK Flexibility Score: inf
ROOT
ATOM      1  C   UNL A   1      31.770  28.944  25.550  1.00  0.00     0.188 C 
ENDROOT
BRANCH   1   2
ATOM      2  O   UNL A   1      32.627  28.452  24.524  1.00  0.00    -0.376 OA
BRANCH   2   3
ATOM      3  C   UNL A   1      32.235  28.574  23.161  1.00  0.00     0.202 C 
BRANCH   3   4
ATOM      4  C   UNL A   1      30.882  27.994  22.730  1.00  0.00     0.261 C 
BRANCH   4   5
ATOM      5  O   UNL A   1      30.820  26.557  22.750  1.00  0.00    -0.460 OA
BRANCH   5   6
ATOM      6  C   UNL A   1      30.096  26.025  23.764  1.00  0.00     0.330 C 
ATOM      7  O   UNL A   1      28.969  26.356  24.102  1.00  0.00    -0.247 OA
BRANCH   6   8
ATOM      8  C   UNL A   1      30.763  24.873  24.403  1.00  0.00     0.095 C 
ATOM      9  C   UNL A   1      32.082  24.726  24.605  1.00  0.00     0.026 C 
BRANCH   9  10
ATOM     10  C   UNL A   1      32.628  23.573  25.252  1.00  0.00     0.028 A 
ATOM     11  C   UNL A   1      33.931  21.620  25.653  1.00  0.00     0.051 A 
ATOM     12  C   UNL A   1      33.340  21.837  26.882  1.00  0.00     0.079 A 
ATOM     13  C   UNL A   1      33.505  22.638  24.722  1.00  0.00     0.033 A 
ATOM     14  S   UNL A   1      32.232  23.132  26.871  1.00  0.00    -0.144 S 
BRANCH  11  15
ATOM     15  C   UNL A   1      34.945  20.614  25.345  1.00  0.00     0.252 C 
ATOM     16  N   UNL A   1      34.605  19.336  24.984  1.00  0.00    -0.349 N 
ATOM     17  H   UNL A   1      35.350  18.694  25.020  1.00  0.00     0.164 HD
ATOM     18  O   UNL A   1      36.143  20.891  25.400  1.00  0.00    -0.269 OA
BRANCH  16  19
ATOM     19  C   UNL A   1      33.334  18.757  24.553  1.00  0.00     0.085 C 
ATOM     20  C   UNL A   1      32.216  17.783  22.492  1.00  0.00     0.010 C 
ATOM     21  C   UNL A   1      33.525  17.929  23.272  1.00  0.00     0.008 C 
ATOM     22  C   UNL A   1      34.023  16.581  23.793  1.00  0.00     0.005 C 
ATOM     23  C   UNL A   1      33.294  16.365  25.114  1.00  0.00     0.002 C 
ATOM     24  C   UNL A   1      32.833  17.746  25.589  1.00  0.00     0.025 C 
ENDBRANCH  16  19
ENDBRANCH  11  15
ENDBRANCH   9  10
ENDBRANCH   6   8
ENDBRANCH   5   6
ENDBRANCH   4   5
ENDBRANCH   3   4
ENDBRANCH   2   3
ENDBRANCH   1   2
BRANCH   1  25
ATOM     25  C   UNL A   1      31.988  30.364  26.114  1.00  0.00     0.188 C 
BRANCH  25  26
ATOM     26  O   UNL A   1      32.768  30.391  27.288  1.00  0.00    -0.376 OA
BRANCH  26  27
ATOM     27  C   UNL A   1      33.471  31.573  27.626  1.00  0.00     0.202 C 
BRANCH  27  28
ATOM     28  C   UNL A   1      32.898  32.978  27.363  1.00  0.00     0.261 C 
BRANCH  28  29
ATOM     29  O   UNL A   1      32.422  33.722  28.490  1.00  0.00    -0.460 OA
BRANCH  29  30
ATOM     30  C   UNL A   1      33.130  34.816  28.847  1.00  0.00     0.338 C 
ATOM     31  O   UNL A   1      32.830  35.982  28.684  1.00  0.00    -0.246 OA
BRANCH  30  32
ATOM     32  C   UNL A   1      34.300  34.354  29.622  1.00  0.00     0.060 A 
ATOM     33  C   UNL A   1      35.585  34.659  29.159  1.00  0.00     0.016 A 
ATOM     34  C   UNL A   1      34.123  33.620  30.797  1.00  0.00     0.016 A 
ATOM     35  C   UNL A   1      36.703  34.216  29.868  1.00  0.00     0.010 A 
ATOM     36  C   UNL A   1      35.242  33.161  31.495  1.00  0.00     0.010 A 
ATOM     37  C   UNL A   1      36.537  33.439  31.024  1.00  0.00    -0.014 A 
BRANCH  37  38
ATOM     38  C   UNL A   1      37.704  32.790  31.667  1.00  0.00     0.031 A 
ATOM     39  C   UNL A   1      38.330  31.604  30.991  1.00  0.00     0.074 A 
ATOM     40  C   UNL A   1      38.193  33.239  32.836  1.00  0.00     0.049 A 
ATOM     41  N   UNL A   1      39.293  30.820  31.407  1.00  0.00    -0.248 NA
ATOM     42  C   UNL A   1      37.798  31.253  29.665  1.00  0.00     0.031 C 
ATOM     43  C   UNL A   1      37.704  34.407  33.564  1.00  0.00     0.029 A 
ATOM     44  N   UNL A   1      39.205  32.749  33.624  1.00  0.00    -0.354 N 
ATOM     45  C   UNL A   1      39.482  29.889  30.395  1.00  0.00     0.074 A 
ATOM     46  C   UNL A   1      38.518  30.185  29.357  1.00  0.00     0.031 C 
ATOM     47  C   UNL A   1      38.406  34.535  34.704  1.00  0.00     0.029 A 
ATOM     48  C   UNL A   1      39.366  33.436  34.803  1.00  0.00     0.049 A 
ATOM     49  H   UNL A   1      39.762  31.978  33.369  1.00  0.00     0.167 HD
ATOM     50  C   UNL A   1      40.384  28.881  30.335  1.00  0.00     0.037 A 
ATOM     51  C   UNL A   1      40.174  33.183  35.850  1.00  0.00     0.037 A 
ATOM     52  C   UNL A   1      41.330  28.576  31.374  1.00  0.00     0.049 A 
ATOM     53  C   UNL A   1      41.091  31.986  35.806  1.00  0.00     0.074 A 
ATOM     54  C   UNL A   1      42.284  27.575  31.407  1.00  0.00     0.029 A 
ATOM     55  N   UNL A   1      41.432  29.267  32.572  1.00  0.00    -0.354 N 
ATOM     56  N   UNL A   1      41.278  31.119  34.840  1.00  0.00    -0.248 NA
ATOM     57  C   UNL A   1      41.903  31.727  37.005  1.00  0.00     0.031 C 
ATOM     58  C   UNL A   1      42.933  27.631  32.645  1.00  0.00     0.029 A 
ATOM     59  C   UNL A   1      42.416  28.697  33.363  1.00  0.00     0.049 A 
ATOM     60  H   UNL A   1      40.886  30.046  32.824  1.00  0.00     0.167 HD
ATOM     61  C   UNL A   1      42.247  30.235  35.301  1.00  0.00     0.074 A 
ATOM     62  C   UNL A   1      42.616  30.674  36.629  1.00  0.00     0.031 C 
ATOM     63  C   UNL A   1      42.782  29.156  34.678  1.00  0.00     0.037 A 
BRANCH  50  64
ATOM     64  C   UNL A   1      40.375  28.020  29.108  1.00  0.00     0.064 A 
ATOM     65  C   UNL A   1      41.123  28.359  27.970  1.00  0.00     0.173 A 
ATOM     66  C   UNL A   1      39.639  26.827  29.080  1.00  0.00     0.173 A 
ATOM     67  F   UNL A   1      41.830  29.500  27.942  1.00  0.00    -0.203 F 
ATOM     68  C   UNL A   1      41.118  27.544  26.841  1.00  0.00     0.198 A 
ATOM     69  C   UNL A   1      39.658  26.001  27.959  1.00  0.00     0.198 A 
ATOM     70  F   UNL A   1      38.910  26.458  30.143  1.00  0.00    -0.203 F 
ATOM     71  F   UNL A   1      41.807  27.908  25.752  1.00  0.00    -0.200 F 
ATOM     72  C   UNL A   1      40.391  26.363  26.839  1.00  0.00     0.200 A 
ATOM     73  F   UNL A   1      38.961  24.855  27.963  1.00  0.00    -0.200 F 
ATOM     74  F   UNL A   1      40.392  25.576  25.756  1.00  0.00    -0.200 F 
ENDBRANCH  50  64
BRANCH  51  75
ATOM     75  C   UNL A   1      40.143  34.060  37.049  1.00  0.00     0.064 A 
ATOM     76  C   UNL A   1      39.225  33.835  38.084  1.00  0.00     0.173 A 
ATOM     77  C   UNL A   1      40.999  35.166  37.166  1.00  0.00     0.173 A 
ATOM     78  F   UNL A   1      38.364  32.810  38.004  1.00  0.00    -0.203 F 
ATOM     79  C   UNL A   1      39.151  34.693  39.180  1.00  0.00     0.198 A 
ATOM     80  C   UNL A   1      40.942  36.007  38.274  1.00  0.00     0.198 A 
ATOM     81  F   UNL A   1      41.888  35.432  36.197  1.00  0.00    -0.203 F 
ATOM     82  F   UNL A   1      38.227  34.486  40.129  1.00  0.00    -0.200 F 
ATOM     83  C   UNL A   1      40.013  35.776  39.276  1.00  0.00     0.200 A 
ATOM     84  F   UNL A   1      41.779  37.050  38.365  1.00  0.00    -0.200 F 
ATOM     85  F   UNL A   1      39.936  36.604  40.327  1.00  0.00    -0.200 F 
ENDBRANCH  51  75
BRANCH  63  86
ATOM     86  C   UNL A   1      43.850  28.394  35.407  1.00  0.00     0.064 A 
ATOM     87  C   UNL A   1      43.539  27.342  36.279  1.00  0.00     0.173 A 
ATOM     88  C   UNL A   1      45.205  28.684  35.182  1.00  0.00     0.173 A 
ATOM     89  F   UNL A   1      42.259  27.036  36.538  1.00  0.00    -0.203 F 
ATOM     90  C   UNL A   1      44.546  26.617  36.912  1.00  0.00     0.198 A 
ATOM     91  C   UNL A   1      46.208  27.940  35.794  1.00  0.00     0.198 A 
ATOM     92  F   UNL A   1      45.555  29.678  34.350  1.00  0.00    -0.203 F 
ATOM     93  F   UNL A   1      44.226  25.638  37.769  1.00  0.00    -0.200 F 
ATOM     94  C   UNL A   1      45.879  26.910  36.663  1.00  0.00     0.200 A 
ATOM     95  F   UNL A   1      47.495  28.217  35.542  1.00  0.00    -0.200 F 
ATOM     96  F   UNL A   1      46.845  26.203  37.262  1.00  0.00    -0.200 F 
ENDBRANCH  63  86
ENDBRANCH  37  38
ENDBRANCH  30  32
ENDBRANCH  29  30
ENDBRANCH  28  29
ENDBRANCH  27  28
ENDBRANCH  26  27
ENDBRANCH  25  26
ENDBRANCH   1  25
TORSDOF 20
ENDMDL
