MODEL 1
REMARK VINA RESULT:     -12.0      0.000      0.000
REMARK SMILES COc1cccc(/C=C(/CC(=O)OCCOCCOCCOC(=O)c2ccc(-c3c4nc(c(-c5c(F)c(F)c(F)c(F)c5F)c5ccc([nH]5)c(-c5c(F)c(F)c(F)c(F)c5F)c5nc(c(-c6c(F)c(F)c(F)c(F)c6F)c6ccc3[nH]6)C=C5)C=C4)cc2)c2nc3ccccc3o2)c1
REMARK SMILES IDX 17 1 16 2 15 3 14 4 13 5 11 6 12 7 10 8 9 9 8 10 7 11 3 12
REMARK SMILES IDX 4 13 97 14 5 15 6 16 2 17 1 18 88 19 89 20 96 21 90 22 95 23
REMARK SMILES IDX 91 24 94 25 92 26 93 27 18 28 19 29 20 30 21 31 22 32 23 33
REMARK SMILES IDX 24 34 25 35 26 36 87 37 27 38 86 39 28 40 29 41 30 42 80 43
REMARK SMILES IDX 31 44 85 45 79 46 81 47 32 48 84 49 78 50 77 51 33 53 65 54
REMARK SMILES IDX 45 55 64 56 46 57 49 58 63 59 82 60 47 61 48 62 62 64 83 65
REMARK SMILES IDX 50 66 34 67 35 68 43 69 36 70 37 71 41 72 44 73 38 74 39 75
REMARK SMILES IDX 42 76 40 77 66 78 67 79 75 80 68 81 69 82 73 83 76 84 70 85
REMARK SMILES IDX 71 86 74 87 72 88 51 89 52 90 60 91 53 92 54 93 58 94 61 95
REMARK SMILES IDX 55 96 56 97 59 98 57 99
REMARK H PARENT 81 52 49 63
REMARK Flexibility Score: inf
ROOT
ATOM      1  C   UNL A   1      30.454  28.202  23.408  1.00  0.00     0.188 C 
ENDROOT
BRANCH   1   2
ATOM      2  O   UNL A   1      29.546  27.198  23.863  1.00  0.00    -0.376 OA
BRANCH   2   3
ATOM      3  C   UNL A   1      30.112  25.982  24.341  1.00  0.00     0.202 C 
BRANCH   3   4
ATOM      4  C   UNL A   1      29.660  25.601  25.752  1.00  0.00     0.261 C 
BRANCH   4   5
ATOM      5  O   UNL A   1      30.708  24.889  26.444  1.00  0.00    -0.463 OA
BRANCH   5   6
ATOM      6  C   UNL A   1      30.489  23.569  26.654  1.00  0.00     0.310 C 
ATOM      7  O   UNL A   1      30.004  23.101  27.678  1.00  0.00    -0.252 OA
BRANCH   6   8
ATOM      8  C   UNL A   1      30.755  22.725  25.410  1.00  0.00     0.163 C 
BRANCH   8   9
ATOM      9  C   UNL A   1      32.176  22.425  24.956  1.00  0.00     0.026 C 
ATOM     10  C   UNL A   1      33.109  23.409  24.939  1.00  0.00     0.018 C 
BRANCH  10  11
ATOM     11  C   UNL A   1      34.566  23.352  24.663  1.00  0.00    -0.021 A 
ATOM     12  C   UNL A   1      36.829  23.643  25.538  1.00  0.00     0.119 A 
ATOM     13  C   UNL A   1      37.351  23.238  24.310  1.00  0.00     0.046 A 
ATOM     14  C   UNL A   1      35.442  23.696  25.710  1.00  0.00     0.054 A 
ATOM     15  C   UNL A   1      36.501  22.916  23.256  1.00  0.00     0.004 A 
ATOM     16  C   UNL A   1      35.117  23.005  23.423  1.00  0.00     0.008 A 
BRANCH  12  17
ATOM     17  O   UNL A   1      37.768  23.975  26.474  1.00  0.00    -0.497 OA
ATOM     18  C   UNL A   1      38.951  23.188  26.509  1.00  0.00     0.278 C 
ENDBRANCH  12  17
ENDBRANCH  10  11
BRANCH   9  19
ATOM     19  C   UNL A   1      32.566  21.072  24.643  1.00  0.00     0.223 A 
ATOM     20  N   UNL A   1      31.995  20.299  23.723  1.00  0.00    -0.210 NA
ATOM     21  O   UNL A   1      33.626  20.429  25.270  1.00  0.00    -0.436 OA
ATOM     22  C   UNL A   1      32.771  19.163  23.670  1.00  0.00     0.110 A 
ATOM     23  C   UNL A   1      33.768  19.241  24.619  1.00  0.00     0.155 A 
ATOM     24  C   UNL A   1      32.726  18.031  22.843  1.00  0.00     0.032 A 
ATOM     25  C   UNL A   1      34.748  18.274  24.817  1.00  0.00     0.049 A 
ATOM     26  C   UNL A   1      33.683  17.023  23.015  1.00  0.00     0.003 A 
ATOM     27  C   UNL A   1      34.681  17.149  23.983  1.00  0.00     0.004 A 
ENDBRANCH   9  19
ENDBRANCH   8   9
ENDBRANCH   6   8
ENDBRANCH   5   6
ENDBRANCH   4   5
ENDBRANCH   3   4
ENDBRANCH   2   3
ENDBRANCH   1   2
BRANCH   1  28
ATOM     28  C   UNL A   1      30.134  29.664  23.757  1.00  0.00     0.188 C 
BRANCH  28  29
ATOM     29  O   UNL A   1      30.895  30.098  24.885  1.00  0.00    -0.376 OA
BRANCH  29  30
ATOM     30  C   UNL A   1      31.966  29.218  25.206  1.00  0.00     0.202 C 
BRANCH  30  31
ATOM     31  C   UNL A   1      33.142  29.985  25.809  1.00  0.00     0.261 C 
BRANCH  31  32
ATOM     32  O   UNL A   1      32.828  30.499  27.123  1.00  0.00    -0.460 OA
BRANCH  32  33
ATOM     33  C   UNL A   1      33.573  31.527  27.561  1.00  0.00     0.338 C 
ATOM     34  O   UNL A   1      33.211  32.692  27.680  1.00  0.00    -0.246 OA
BRANCH  33  35
ATOM     35  C   UNL A   1      34.955  31.107  27.886  1.00  0.00     0.060 A 
ATOM     36  C   UNL A   1      35.261  29.810  28.316  1.00  0.00     0.016 A 
ATOM     37  C   UNL A   1      35.922  32.108  27.977  1.00  0.00     0.016 A 
ATOM     38  C   UNL A   1      36.491  29.546  28.936  1.00  0.00     0.010 A 
ATOM     39  C   UNL A   1      37.168  31.829  28.539  1.00  0.00     0.010 A 
ATOM     40  C   UNL A   1      37.452  30.558  29.064  1.00  0.00    -0.014 A 
BRANCH  40  41
ATOM     41  C   UNL A   1      38.769  30.351  29.724  1.00  0.00     0.031 A 
ATOM     42  C   UNL A   1      39.761  29.380  29.148  1.00  0.00     0.074 A 
ATOM     43  C   UNL A   1      39.029  30.936  30.906  1.00  0.00     0.049 A 
ATOM     44  N   UNL A   1      40.756  28.762  29.733  1.00  0.00    -0.248 NA
ATOM     45  C   UNL A   1      39.617  29.068  27.718  1.00  0.00     0.031 C 
ATOM     46  C   UNL A   1      38.209  31.964  31.542  1.00  0.00     0.029 A 
ATOM     47  N   UNL A   1      40.036  30.697  31.812  1.00  0.00    -0.354 N 
ATOM     48  C   UNL A   1      41.337  27.962  28.756  1.00  0.00     0.074 A 
ATOM     49  C   UNL A   1      40.589  28.182  27.535  1.00  0.00     0.031 C 
ATOM     50  C   UNL A   1      38.712  32.233  32.754  1.00  0.00     0.029 A 
ATOM     51  C   UNL A   1      39.831  31.330  33.013  1.00  0.00     0.049 A 
ATOM     52  H   UNL A   1      40.819  30.132  31.620  1.00  0.00     0.167 HD
ATOM     53  C   UNL A   1      42.389  27.118  28.880  1.00  0.00     0.037 A 
ATOM     54  C   UNL A   1      40.408  31.143  34.214  1.00  0.00     0.037 A 
ATOM     55  C   UNL A   1      43.136  26.919  30.098  1.00  0.00     0.049 A 
ATOM     56  C   UNL A   1      41.479  30.102  34.373  1.00  0.00     0.074 A 
ATOM     57  C   UNL A   1      44.224  26.093  30.322  1.00  0.00     0.029 A 
ATOM     58  N   UNL A   1      42.867  27.556  31.300  1.00  0.00    -0.354 N 
ATOM     59  N   UNL A   1      41.986  29.295  33.474  1.00  0.00    -0.248 NA
ATOM     60  C   UNL A   1      42.045  29.934  35.719  1.00  0.00     0.031 C 
ATOM     61  C   UNL A   1      44.585  26.195  31.669  1.00  0.00     0.029 A 
ATOM     62  C   UNL A   1      43.752  27.121  32.275  1.00  0.00     0.049 A 
ATOM     63  H   UNL A   1      42.153  28.219  31.441  1.00  0.00     0.167 HD
ATOM     64  C   UNL A   1      42.944  28.541  34.137  1.00  0.00     0.074 A 
ATOM     65  C   UNL A   1      42.951  28.987  35.514  1.00  0.00     0.031 C 
ATOM     66  C   UNL A   1      43.752  27.572  33.642  1.00  0.00     0.037 A 
BRANCH  53  67
ATOM     67  C   UNL A   1      42.790  26.303  27.685  1.00  0.00     0.064 A 
ATOM     68  C   UNL A   1      43.716  26.774  26.744  1.00  0.00     0.173 A 
ATOM     69  C   UNL A   1      42.312  24.991  27.536  1.00  0.00     0.173 A 
ATOM     70  F   UNL A   1      44.199  28.022  26.839  1.00  0.00    -0.203 F 
ATOM     71  C   UNL A   1      44.145  25.964  25.694  1.00  0.00     0.198 A 
ATOM     72  C   UNL A   1      42.758  24.177  26.498  1.00  0.00     0.198 A 
ATOM     73  F   UNL A   1      41.432  24.489  28.415  1.00  0.00    -0.203 F 
ATOM     74  F   UNL A   1      45.017  26.441  24.795  1.00  0.00    -0.200 F 
ATOM     75  C   UNL A   1      43.673  24.664  25.577  1.00  0.00     0.200 A 
ATOM     76  F   UNL A   1      42.311  22.917  26.396  1.00  0.00    -0.200 F 
ATOM     77  F   UNL A   1      44.101  23.881  24.577  1.00  0.00    -0.200 F 
ENDBRANCH  53  67
BRANCH  54  78
ATOM     78  C   UNL A   1      39.912  31.914  35.381  1.00  0.00     0.064 A 
ATOM     79  C   UNL A   1      40.455  33.163  35.702  1.00  0.00     0.173 A 
ATOM     80  C   UNL A   1      38.855  31.433  36.170  1.00  0.00     0.173 A 
ATOM     81  F   UNL A   1      41.484  33.647  34.994  1.00  0.00    -0.203 F 
ATOM     82  C   UNL A   1      39.956  33.906  36.770  1.00  0.00     0.198 A 
ATOM     83  C   UNL A   1      38.338  32.190  37.218  1.00  0.00     0.198 A 
ATOM     84  F   UNL A   1      38.304  30.239  35.901  1.00  0.00    -0.203 F 
ATOM     85  F   UNL A   1      40.508  35.088  37.075  1.00  0.00    -0.200 F 
ATOM     86  C   UNL A   1      38.891  33.425  37.518  1.00  0.00     0.200 A 
ATOM     87  F   UNL A   1      37.301  31.727  37.928  1.00  0.00    -0.200 F 
ATOM     88  F   UNL A   1      38.399  34.151  38.531  1.00  0.00    -0.200 F 
ENDBRANCH  54  78
BRANCH  66  89
ATOM     89  C   UNL A   1      44.743  26.958  34.585  1.00  0.00     0.064 A 
ATOM     90  C   UNL A   1      44.456  25.781  35.290  1.00  0.00     0.173 A 
ATOM     91  C   UNL A   1      46.006  27.542  34.764  1.00  0.00     0.173 A 
ATOM     92  F   UNL A   1      43.256  25.195  35.165  1.00  0.00    -0.203 F 
ATOM     93  C   UNL A   1      45.392  25.221  36.156  1.00  0.00     0.198 A 
ATOM     94  C   UNL A   1      46.947  26.966  35.613  1.00  0.00     0.198 A 
ATOM     95  F   UNL A   1      46.330  28.667  34.109  1.00  0.00    -0.203 F 
ATOM     96  F   UNL A   1      45.083  24.117  36.851  1.00  0.00    -0.200 F 
ATOM     97  C   UNL A   1      46.638  25.810  36.313  1.00  0.00     0.200 A 
ATOM     98  F   UNL A   1      48.153  27.534  35.756  1.00  0.00    -0.200 F 
ATOM     99  F   UNL A   1      47.538  25.269  37.145  1.00  0.00    -0.200 F 
ENDBRANCH  66  89
ENDBRANCH  40  41
ENDBRANCH  33  35
ENDBRANCH  32  33
ENDBRANCH  31  32
ENDBRANCH  30  31
ENDBRANCH  29  30
ENDBRANCH  28  29
ENDBRANCH   1  28
TORSDOF 21
ENDMDL
MODEL 2
REMARK VINA RESULT:     -11.3      1.028      3.039
REMARK SMILES COc1cccc(/C=C(/CC(=O)OCCOCCOCCOC(=O)c2ccc(-c3c4nc(c(-c5c(F)c(F)c(F)c(F)c5F)c5ccc([nH]5)c(-c5c(F)c(F)c(F)c(F)c5F)c5nc(c(-c6c(F)c(F)c(F)c(F)c6F)c6ccc3[nH]6)C=C5)C=C4)cc2)c2nc3ccccc3o2)c1
REMARK SMILES IDX 17 1 16 2 15 3 14 4 13 5 11 6 12 7 10 8 9 9 8 10 7 11 3 12
REMARK SMILES IDX 4 13 97 14 5 15 6 16 2 17 1 18 88 19 89 20 96 21 90 22 95 23
REMARK SMILES IDX 91 24 94 25 92 26 93 27 18 28 19 29 20 30 21 31 22 32 23 33
REMARK SMILES IDX 24 34 25 35 26 36 87 37 27 38 86 39 28 40 29 41 30 42 80 43
REMARK SMILES IDX 31 44 85 45 79 46 81 47 32 48 84 49 78 50 77 51 33 53 65 54
REMARK SMILES IDX 45 55 64 56 46 57 49 58 63 59 82 60 47 61 48 62 62 64 83 65
REMARK SMILES IDX 50 66 34 67 35 68 43 69 36 70 37 71 41 72 44 73 38 74 39 75
REMARK SMILES IDX 42 76 40 77 66 78 67 79 75 80 68 81 69 82 73 83 76 84 70 85
REMARK SMILES IDX 71 86 74 87 72 88 51 89 52 90 60 91 53 92 54 93 58 94 61 95
REMARK SMILES IDX 55 96 56 97 59 98 57 99
REMARK H PARENT 81 52 49 63
REMARK Flexibility Score: inf
ROOT
ATOM      1  C   UNL A   1      30.369  28.223  23.454  1.00  0.00     0.188 C 
ENDROOT
BRANCH   1   2
ATOM      2  O   UNL A   1      29.387  27.253  23.823  1.00  0.00    -0.376 OA
BRANCH   2   3
ATOM      3  C   UNL A   1      29.861  25.966  24.207  1.00  0.00     0.202 C 
BRANCH   3   4
ATOM      4  C   UNL A   1      30.283  25.874  25.675  1.00  0.00     0.261 C 
BRANCH   4   5
ATOM      5  O   UNL A   1      31.610  25.316  25.785  1.00  0.00    -0.463 OA
BRANCH   5   6
ATOM      6  C   UNL A   1      31.675  23.997  26.089  1.00  0.00     0.310 C 
ATOM      7  O   UNL A   1      31.611  23.544  27.226  1.00  0.00    -0.252 OA
BRANCH   6   8
ATOM      8  C   UNL A   1      31.669  23.108  24.847  1.00  0.00     0.163 C 
BRANCH   8   9
ATOM      9  C   UNL A   1      32.451  21.803  24.814  1.00  0.00     0.026 C 
ATOM     10  C   UNL A   1      31.845  20.654  24.425  1.00  0.00     0.018 C 
BRANCH  10  11
ATOM     11  C   UNL A   1      32.405  19.300  24.191  1.00  0.00    -0.021 A 
ATOM     12  C   UNL A   1      32.911  17.103  25.134  1.00  0.00     0.119 A 
ATOM     13  C   UNL A   1      33.382  16.683  23.890  1.00  0.00     0.046 A 
ATOM     14  C   UNL A   1      32.424  18.406  25.279  1.00  0.00     0.054 A 
ATOM     15  C   UNL A   1      33.391  17.560  22.809  1.00  0.00     0.004 A 
ATOM     16  C   UNL A   1      32.936  18.870  22.968  1.00  0.00     0.008 A 
BRANCH  12  17
ATOM     17  O   UNL A   1      32.999  16.163  26.123  1.00  0.00    -0.497 OA
ATOM     18  C   UNL A   1      32.691  14.822  25.766  1.00  0.00     0.278 C 
ENDBRANCH  12  17
ENDBRANCH  10  11
BRANCH   9  19
ATOM     19  C   UNL A   1      33.866  21.800  25.093  1.00  0.00     0.223 A 
ATOM     20  N   UNL A   1      34.692  20.779  24.878  1.00  0.00    -0.210 NA
ATOM     21  O   UNL A   1      34.536  22.905  25.604  1.00  0.00    -0.436 OA
ATOM     22  C   UNL A   1      35.950  21.265  25.151  1.00  0.00     0.110 A 
ATOM     23  C   UNL A   1      35.855  22.567  25.598  1.00  0.00     0.155 A 
ATOM     24  C   UNL A   1      37.226  20.695  25.029  1.00  0.00     0.032 A 
ATOM     25  C   UNL A   1      36.941  23.368  25.935  1.00  0.00     0.049 A 
ATOM     26  C   UNL A   1      38.349  21.458  25.372  1.00  0.00     0.003 A 
ATOM     27  C   UNL A   1      38.206  22.775  25.811  1.00  0.00     0.004 A 
ENDBRANCH   9  19
ENDBRANCH   8   9
ENDBRANCH   6   8
ENDBRANCH   5   6
ENDBRANCH   4   5
ENDBRANCH   3   4
ENDBRANCH   2   3
ENDBRANCH   1   2
BRANCH   1  28
ATOM     28  C   UNL A   1      30.088  29.692  23.806  1.00  0.00     0.188 C 
BRANCH  28  29
ATOM     29  O   UNL A   1      30.966  30.148  24.836  1.00  0.00    -0.376 OA
BRANCH  29  30
ATOM     30  C   UNL A   1      32.100  29.306  25.013  1.00  0.00     0.202 C 
BRANCH  30  31
ATOM     31  C   UNL A   1      33.147  29.979  25.899  1.00  0.00     0.261 C 
BRANCH  31  32
ATOM     32  O   UNL A   1      32.536  30.778  26.938  1.00  0.00    -0.460 OA
BRANCH  32  33
ATOM     33  C   UNL A   1      33.279  31.773  27.448  1.00  0.00     0.338 C 
ATOM     34  O   UNL A   1      32.924  32.933  27.626  1.00  0.00    -0.246 OA
BRANCH  33  35
ATOM     35  C   UNL A   1      34.652  31.324  27.775  1.00  0.00     0.060 A 
ATOM     36  C   UNL A   1      34.936  30.010  28.165  1.00  0.00     0.016 A 
ATOM     37  C   UNL A   1      35.631  32.309  27.909  1.00  0.00     0.016 A 
ATOM     38  C   UNL A   1      36.155  29.708  28.790  1.00  0.00     0.010 A 
ATOM     39  C   UNL A   1      36.867  31.994  28.477  1.00  0.00     0.010 A 
ATOM     40  C   UNL A   1      37.128  30.702  28.963  1.00  0.00    -0.014 A 
BRANCH  40  41
ATOM     41  C   UNL A   1      38.433  30.456  29.631  1.00  0.00     0.031 A 
ATOM     42  C   UNL A   1      39.415  29.483  29.040  1.00  0.00     0.074 A 
ATOM     43  C   UNL A   1      38.691  31.007  30.830  1.00  0.00     0.049 A 
ATOM     44  N   UNL A   1      40.393  28.833  29.619  1.00  0.00    -0.248 NA
ATOM     45  C   UNL A   1      39.281  29.211  27.601  1.00  0.00     0.031 C 
ATOM     46  C   UNL A   1      37.882  32.032  31.483  1.00  0.00     0.029 A 
ATOM     47  N   UNL A   1      39.684  30.728  31.739  1.00  0.00    -0.354 N 
ATOM     48  C   UNL A   1      40.970  28.049  28.628  1.00  0.00     0.074 A 
ATOM     49  C   UNL A   1      40.240  28.313  27.405  1.00  0.00     0.031 C 
ATOM     50  C   UNL A   1      38.376  32.262  32.707  1.00  0.00     0.029 A 
ATOM     51  C   UNL A   1      39.477  31.333  32.954  1.00  0.00     0.049 A 
ATOM     52  H   UNL A   1      40.459  30.154  31.542  1.00  0.00     0.167 HD
ATOM     53  C   UNL A   1      42.007  27.183  28.742  1.00  0.00     0.037 A 
ATOM     54  C   UNL A   1      40.038  31.105  34.156  1.00  0.00     0.037 A 
ATOM     55  C   UNL A   1      42.737  26.941  29.961  1.00  0.00     0.049 A 
ATOM     56  C   UNL A   1      41.089  30.043  34.299  1.00  0.00     0.074 A 
ATOM     57  C   UNL A   1      43.809  26.091  30.175  1.00  0.00     0.029 A 
ATOM     58  N   UNL A   1      42.467  27.552  31.177  1.00  0.00    -0.354 N 
ATOM     59  N   UNL A   1      41.592  29.250  33.385  1.00  0.00    -0.248 NA
ATOM     60  C   UNL A   1      41.638  29.831  35.646  1.00  0.00     0.031 C 
ATOM     61  C   UNL A   1      44.157  26.153  31.529  1.00  0.00     0.029 A 
ATOM     62  C   UNL A   1      43.334  27.077  32.149  1.00  0.00     0.049 A 
ATOM     63  H   UNL A   1      41.763  28.223  31.327  1.00  0.00     0.167 HD
ATOM     64  C   UNL A   1      42.530  28.463  34.038  1.00  0.00     0.074 A 
ATOM     65  C   UNL A   1      42.529  28.874  35.427  1.00  0.00     0.031 C 
ATOM     66  C   UNL A   1      43.326  27.493  33.527  1.00  0.00     0.037 A 
BRANCH  53  67
ATOM     67  C   UNL A   1      42.407  26.393  27.530  1.00  0.00     0.064 A 
ATOM     68  C   UNL A   1      43.421  26.825  26.664  1.00  0.00     0.173 A 
ATOM     69  C   UNL A   1      41.832  25.134  27.290  1.00  0.00     0.173 A 
ATOM     70  F   UNL A   1      43.999  28.022  26.847  1.00  0.00    -0.203 F 
ATOM     71  C   UNL A   1      43.840  26.030  25.600  1.00  0.00     0.198 A 
ATOM     72  C   UNL A   1      42.267  24.334  26.238  1.00  0.00     0.198 A 
ATOM     73  F   UNL A   1      40.864  24.670  28.095  1.00  0.00    -0.203 F 
ATOM     74  F   UNL A   1      44.798  26.471  24.773  1.00  0.00    -0.200 F 
ATOM     75  C   UNL A   1      43.270  24.782  25.392  1.00  0.00     0.200 A 
ATOM     76  F   UNL A   1      41.725  23.122  26.050  1.00  0.00    -0.200 F 
ATOM     77  F   UNL A   1      43.688  24.012  24.379  1.00  0.00    -0.200 F 
ENDBRANCH  53  67
BRANCH  54  78
ATOM     78  C   UNL A   1      39.542  31.855  35.337  1.00  0.00     0.064 A 
ATOM     79  C   UNL A   1      38.573  31.306  36.184  1.00  0.00     0.173 A 
ATOM     80  C   UNL A   1      40.061  33.119  35.661  1.00  0.00     0.173 A 
ATOM     81  F   UNL A   1      38.030  30.115  35.895  1.00  0.00    -0.203 F 
ATOM     82  C   UNL A   1      38.143  31.992  37.318  1.00  0.00     0.198 A 
ATOM     83  C   UNL A   1      39.651  33.790  36.810  1.00  0.00     0.198 A 
ATOM     84  F   UNL A   1      40.989  33.687  34.877  1.00  0.00    -0.203 F 
ATOM     85  F   UNL A   1      37.195  31.458  38.101  1.00  0.00    -0.200 F 
ATOM     86  C   UNL A   1      38.691  33.227  37.636  1.00  0.00     0.200 A 
ATOM     87  F   UNL A   1      40.193  34.975  37.121  1.00  0.00    -0.200 F 
ATOM     88  F   UNL A   1      38.290  33.875  38.738  1.00  0.00    -0.200 F 
ENDBRANCH  54  78
BRANCH  66  89
ATOM     89  C   UNL A   1      44.297  26.838  34.464  1.00  0.00     0.064 A 
ATOM     90  C   UNL A   1      45.557  27.395  34.725  1.00  0.00     0.173 A 
ATOM     91  C   UNL A   1      43.950  25.653  35.130  1.00  0.00     0.173 A 
ATOM     92  F   UNL A   1      45.941  28.518  34.099  1.00  0.00    -0.203 F 
ATOM     93  C   UNL A   1      46.443  26.776  35.603  1.00  0.00     0.198 A 
ATOM     94  C   UNL A   1      44.829  25.051  36.025  1.00  0.00     0.198 A 
ATOM     95  F   UNL A   1      42.754  25.084  34.917  1.00  0.00    -0.203 F 
ATOM     96  F   UNL A   1      47.659  27.303  35.808  1.00  0.00    -0.200 F 
ATOM     97  C   UNL A   1      46.076  25.609  36.257  1.00  0.00     0.200 A 
ATOM     98  F   UNL A   1      44.469  23.927  36.661  1.00  0.00    -0.200 F 
ATOM     99  F   UNL A   1      46.930  25.016  37.103  1.00  0.00    -0.200 F 
ENDBRANCH  66  89
ENDBRANCH  40  41
ENDBRANCH  33  35
ENDBRANCH  32  33
ENDBRANCH  31  32
ENDBRANCH  30  31
ENDBRANCH  29  30
ENDBRANCH  28  29
ENDBRANCH   1  28
TORSDOF 21
ENDMDL
MODEL 3
REMARK VINA RESULT:     -11.1      0.695      2.097
REMARK SMILES COc1cccc(/C=C(/CC(=O)OCCOCCOCCOC(=O)c2ccc(-c3c4nc(c(-c5c(F)c(F)c(F)c(F)c5F)c5ccc([nH]5)c(-c5c(F)c(F)c(F)c(F)c5F)c5nc(c(-c6c(F)c(F)c(F)c(F)c6F)c6ccc3[nH]6)C=C5)C=C4)cc2)c2nc3ccccc3o2)c1
REMARK SMILES IDX 17 1 16 2 15 3 14 4 13 5 11 6 12 7 10 8 9 9 8 10 7 11 3 12
REMARK SMILES IDX 4 13 97 14 5 15 6 16 2 17 1 18 88 19 89 20 96 21 90 22 95 23
REMARK SMILES IDX 91 24 94 25 92 26 93 27 18 28 19 29 20 30 21 31 22 32 23 33
REMARK SMILES IDX 24 34 25 35 26 36 87 37 27 38 86 39 28 40 29 41 30 42 80 43
REMARK SMILES IDX 31 44 85 45 79 46 81 47 32 48 84 49 78 50 77 51 33 53 65 54
REMARK SMILES IDX 45 55 64 56 46 57 49 58 63 59 82 60 47 61 48 62 62 64 83 65
REMARK SMILES IDX 50 66 34 67 35 68 43 69 36 70 37 71 41 72 44 73 38 74 39 75
REMARK SMILES IDX 42 76 40 77 66 78 67 79 75 80 68 81 69 82 73 83 76 84 70 85
REMARK SMILES IDX 71 86 74 87 72 88 51 89 52 90 60 91 53 92 54 93 58 94 61 95
REMARK SMILES IDX 55 96 56 97 59 98 57 99
REMARK H PARENT 81 52 49 63
REMARK Flexibility Score: inf
ROOT
ATOM      1  C   UNL A   1      30.818  27.948  23.870  1.00  0.00     0.188 C 
ENDROOT
BRANCH   1   2
ATOM      2  O   UNL A   1      29.633  27.377  23.314  1.00  0.00    -0.376 OA
BRANCH   2   3
ATOM      3  C   UNL A   1      29.030  26.307  24.035  1.00  0.00     0.202 C 
BRANCH   3   4
ATOM      4  C   UNL A   1      29.751  25.956  25.339  1.00  0.00     0.261 C 
BRANCH   4   5
ATOM      5  O   UNL A   1      30.493  24.726  25.190  1.00  0.00    -0.463 OA
BRANCH   5   6
ATOM      6  C   UNL A   1      30.321  23.808  26.172  1.00  0.00     0.310 C 
ATOM      7  O   UNL A   1      29.752  24.030  27.235  1.00  0.00    -0.252 OA
BRANCH   6   8
ATOM      8  C   UNL A   1      30.766  22.409  25.752  1.00  0.00     0.163 C 
BRANCH   8   9
ATOM      9  C   UNL A   1      32.187  22.150  25.271  1.00  0.00     0.026 C 
ATOM     10  C   UNL A   1      33.095  23.157  25.253  1.00  0.00     0.018 C 
BRANCH  10  11
ATOM     11  C   UNL A   1      34.549  23.140  24.953  1.00  0.00    -0.021 A 
ATOM     12  C   UNL A   1      36.820  23.415  25.811  1.00  0.00     0.119 A 
ATOM     13  C   UNL A   1      37.329  23.091  24.554  1.00  0.00     0.046 A 
ATOM     14  C   UNL A   1      35.435  23.436  26.006  1.00  0.00     0.054 A 
ATOM     15  C   UNL A   1      36.468  22.817  23.496  1.00  0.00     0.004 A 
ATOM     16  C   UNL A   1      35.086  22.873  23.687  1.00  0.00     0.008 A 
BRANCH  12  17
ATOM     17  O   UNL A   1      37.768  23.708  26.751  1.00  0.00    -0.497 OA
ATOM     18  C   UNL A   1      38.884  24.478  26.323  1.00  0.00     0.278 C 
ENDBRANCH  12  17
ENDBRANCH  10  11
BRANCH   9  19
ATOM     19  C   UNL A   1      32.604  20.812  24.934  1.00  0.00     0.223 A 
ATOM     20  N   UNL A   1      33.133  19.933  25.783  1.00  0.00    -0.210 NA
ATOM     21  O   UNL A   1      32.466  20.277  23.659  1.00  0.00    -0.436 OA
ATOM     22  C   UNL A   1      33.241  18.760  25.070  1.00  0.00     0.110 A 
ATOM     23  C   UNL A   1      32.835  18.971  23.769  1.00  0.00     0.155 A 
ATOM     24  C   UNL A   1      33.645  17.469  25.440  1.00  0.00     0.032 A 
ATOM     25  C   UNL A   1      32.789  17.988  22.786  1.00  0.00     0.049 A 
ATOM     26  C   UNL A   1      33.631  16.449  24.480  1.00  0.00     0.003 A 
ATOM     27  C   UNL A   1      33.203  16.706  23.177  1.00  0.00     0.004 A 
ENDBRANCH   9  19
ENDBRANCH   8   9
ENDBRANCH   6   8
ENDBRANCH   5   6
ENDBRANCH   4   5
ENDBRANCH   3   4
ENDBRANCH   2   3
ENDBRANCH   1   2
BRANCH   1  28
ATOM     28  C   UNL A   1      30.801  29.448  24.198  1.00  0.00     0.188 C 
BRANCH  28  29
ATOM     29  O   UNL A   1      31.938  29.813  24.983  1.00  0.00    -0.376 OA
BRANCH  29  30
ATOM     30  C   UNL A   1      33.078  29.003  24.719  1.00  0.00     0.202 C 
BRANCH  30  31
ATOM     31  C   UNL A   1      34.089  29.094  25.861  1.00  0.00     0.261 C 
BRANCH  31  32
ATOM     32  O   UNL A   1      33.492  29.632  27.063  1.00  0.00    -0.460 OA
BRANCH  32  33
ATOM     33  C   UNL A   1      33.785  30.908  27.362  1.00  0.00     0.338 C 
ATOM     34  O   UNL A   1      33.181  31.904  26.979  1.00  0.00    -0.246 OA
BRANCH  33  35
ATOM     35  C   UNL A   1      34.982  31.011  28.227  1.00  0.00     0.060 A 
ATOM     36  C   UNL A   1      35.977  31.972  28.016  1.00  0.00     0.016 A 
ATOM     37  C   UNL A   1      35.211  29.969  29.127  1.00  0.00     0.016 A 
ATOM     38  C   UNL A   1      37.236  31.827  28.617  1.00  0.00     0.010 A 
ATOM     39  C   UNL A   1      36.444  29.860  29.771  1.00  0.00     0.010 A 
ATOM     40  C   UNL A   1      37.484  30.761  29.493  1.00  0.00    -0.014 A 
BRANCH  40  41
ATOM     41  C   UNL A   1      38.799  30.538  30.151  1.00  0.00     0.031 A 
ATOM     42  C   UNL A   1      39.788  29.571  29.562  1.00  0.00     0.074 A 
ATOM     43  C   UNL A   1      39.062  31.106  31.341  1.00  0.00     0.049 A 
ATOM     44  N   UNL A   1      40.779  28.939  30.139  1.00  0.00    -0.248 NA
ATOM     45  C   UNL A   1      39.643  29.279  28.128  1.00  0.00     0.031 C 
ATOM     46  C   UNL A   1      38.246  32.129  31.990  1.00  0.00     0.029 A 
ATOM     47  N   UNL A   1      40.066  30.850  32.244  1.00  0.00    -0.354 N 
ATOM     48  C   UNL A   1      41.356  28.151  29.152  1.00  0.00     0.074 A 
ATOM     49  C   UNL A   1      40.610  28.391  27.933  1.00  0.00     0.031 C 
ATOM     50  C   UNL A   1      38.749  32.380  33.207  1.00  0.00     0.029 A 
ATOM     51  C   UNL A   1      39.863  31.468  33.453  1.00  0.00     0.049 A 
ATOM     52  H   UNL A   1      40.847  30.284  32.045  1.00  0.00     0.167 HD
ATOM     53  C   UNL A   1      42.405  27.299  29.266  1.00  0.00     0.037 A 
ATOM     54  C   UNL A   1      40.439  31.261  34.652  1.00  0.00     0.037 A 
ATOM     55  C   UNL A   1      43.149  27.080  30.481  1.00  0.00     0.049 A 
ATOM     56  C   UNL A   1      41.505  30.213  34.798  1.00  0.00     0.074 A 
ATOM     57  C   UNL A   1      44.233  26.246  30.694  1.00  0.00     0.029 A 
ATOM     58  N   UNL A   1      42.883  27.703  31.692  1.00  0.00    -0.354 N 
ATOM     59  N   UNL A   1      42.008  29.416  33.889  1.00  0.00    -0.248 NA
ATOM     60  C   UNL A   1      42.069  30.024  36.142  1.00  0.00     0.031 C 
ATOM     61  C   UNL A   1      44.594  26.328  32.043  1.00  0.00     0.029 A 
ATOM     62  C   UNL A   1      43.765  27.250  32.661  1.00  0.00     0.049 A 
ATOM     63  H   UNL A   1      42.172  28.366  31.841  1.00  0.00     0.167 HD
ATOM     64  C   UNL A   1      42.962  28.648  34.542  1.00  0.00     0.074 A 
ATOM     65  C   UNL A   1      42.970  29.075  35.925  1.00  0.00     0.031 C 
ATOM     66  C   UNL A   1      43.766  27.682  34.034  1.00  0.00     0.037 A 
BRANCH  53  67
ATOM     67  C   UNL A   1      42.803  26.499  28.060  1.00  0.00     0.064 A 
ATOM     68  C   UNL A   1      42.286  25.220  27.815  1.00  0.00     0.173 A 
ATOM     69  C   UNL A   1      43.640  27.066  27.085  1.00  0.00     0.173 A 
ATOM     70  F   UNL A   1      41.486  24.632  28.718  1.00  0.00    -0.203 F 
ATOM     71  C   UNL A   1      42.596  24.534  26.642  1.00  0.00     0.198 A 
ATOM     72  C   UNL A   1      43.931  26.387  25.904  1.00  0.00     0.198 A 
ATOM     73  F   UNL A   1      44.154  28.292  27.266  1.00  0.00    -0.203 F 
ATOM     74  F   UNL A   1      42.105  23.304  26.437  1.00  0.00    -0.200 F 
ATOM     75  C   UNL A   1      43.410  25.122  25.684  1.00  0.00     0.200 A 
ATOM     76  F   UNL A   1      44.706  26.964  24.975  1.00  0.00    -0.200 F 
ATOM     77  F   UNL A   1      43.692  24.468  24.549  1.00  0.00    -0.200 F 
ENDBRANCH  53  67
BRANCH  54  78
ATOM     78  C   UNL A   1      39.945  32.019  35.829  1.00  0.00     0.064 A 
ATOM     79  C   UNL A   1      38.818  31.591  36.540  1.00  0.00     0.173 A 
ATOM     80  C   UNL A   1      40.619  33.162  36.288  1.00  0.00     0.173 A 
ATOM     81  F   UNL A   1      38.128  30.522  36.119  1.00  0.00    -0.203 F 
ATOM     82  C   UNL A   1      38.384  32.278  37.672  1.00  0.00     0.198 A 
ATOM     83  C   UNL A   1      40.201  33.830  37.436  1.00  0.00     0.198 A 
ATOM     84  F   UNL A   1      41.703  33.611  35.637  1.00  0.00    -0.203 F 
ATOM     85  F   UNL A   1      37.287  31.866  38.321  1.00  0.00    -0.200 F 
ATOM     86  C   UNL A   1      39.082  33.388  38.125  1.00  0.00     0.200 A 
ATOM     87  F   UNL A   1      40.886  34.892  37.878  1.00  0.00    -0.200 F 
ATOM     88  F   UNL A   1      38.674  34.035  39.226  1.00  0.00    -0.200 F 
ENDBRANCH  54  78
BRANCH  66  89
ATOM     89  C   UNL A   1      44.753  27.050  34.969  1.00  0.00     0.064 A 
ATOM     90  C   UNL A   1      46.027  27.599  35.174  1.00  0.00     0.173 A 
ATOM     91  C   UNL A   1      44.409  25.896  35.689  1.00  0.00     0.173 A 
ATOM     92  F   UNL A   1      46.408  28.692  34.495  1.00  0.00    -0.203 F 
ATOM     93  C   UNL A   1      46.929  27.002  36.052  1.00  0.00     0.198 A 
ATOM     94  C   UNL A   1      45.305  25.317  36.583  1.00  0.00     0.198 A 
ATOM     95  F   UNL A   1      43.201  25.336  35.531  1.00  0.00    -0.203 F 
ATOM     96  F   UNL A   1      48.156  27.519  36.203  1.00  0.00    -0.200 F 
ATOM     97  C   UNL A   1      46.565  25.866  36.759  1.00  0.00     0.200 A 
ATOM     98  F   UNL A   1      44.948  24.223  37.272  1.00  0.00    -0.200 F 
ATOM     99  F   UNL A   1      47.434  25.295  37.605  1.00  0.00    -0.200 F 
ENDBRANCH  66  89
ENDBRANCH  40  41
ENDBRANCH  33  35
ENDBRANCH  32  33
ENDBRANCH  31  32
ENDBRANCH  30  31
ENDBRANCH  29  30
ENDBRANCH  28  29
ENDBRANCH   1  28
TORSDOF 21
ENDMDL
