MODEL 1
REMARK VINA RESULT:     -11.1      0.000      0.000
REMARK SMILES Cc1c[nH]c(C[N@H+]2C[C@@H]3CN(S(C)(=O)=O)C[C@@]3(C(=O)OCCOCCOCCOC(=O)c3ccc(-c4c5nc(c(-c6c(F)c(F)c(F)c(F)c6F)c6ccc([nH]6)c(-c6c(F)c(F)c(F)c(F)c6F)c6nc(c(-c7c(F)c(F)c(F)c(F)c7F)c7ccc4[nH]7)C=C6)C=C5)cc3)C2)n1
REMARK SMILES IDX 24 1 23 2 22 3 21 4 20 5 18 6 19 7 17 8 7 9 8 10 95 11 9 13
REMARK SMILES IDX 10 14 16 15 11 16 6 17 5 18 1 19 2 20 3 21 96 22 4 23 12 25
REMARK SMILES IDX 13 26 14 27 15 28 25 29 26 30 27 31 28 32 29 33 30 34 31 35
REMARK SMILES IDX 32 36 33 37 94 38 34 39 93 40 35 41 36 42 37 43 87 44 38 45
REMARK SMILES IDX 92 46 86 47 88 48 39 49 91 50 85 51 84 52 40 54 72 55 52 56
REMARK SMILES IDX 71 57 53 58 56 59 70 60 89 61 54 62 55 63 69 65 90 66 57 67
REMARK SMILES IDX 41 68 42 69 50 70 43 71 44 72 48 73 51 74 45 75 46 76 49 77
REMARK SMILES IDX 47 78 73 79 74 80 82 81 75 82 76 83 80 84 83 85 77 86 78 87
REMARK SMILES IDX 81 88 79 89 58 90 59 91 67 92 60 93 61 94 65 95 68 96 62 97
REMARK SMILES IDX 63 98 66 99 64 100
REMARK H PARENT 7 12 4 24 88 53 56 64
REMARK Flexibility Score: inf
ROOT
ATOM      1  C   UNL A   1      39.909  22.151  26.418  1.00  0.00     0.188 C 
ENDROOT
BRANCH   1   2
ATOM      2  O   UNL A   1      38.807  21.436  25.887  1.00  0.00    -0.376 OA
BRANCH   2   3
ATOM      3  C   UNL A   1      37.552  22.086  25.673  1.00  0.00     0.202 C 
BRANCH   3   4
ATOM      4  C   UNL A   1      37.457  23.469  24.991  1.00  0.00     0.261 C 
BRANCH   4   5
ATOM      5  O   UNL A   1      36.139  23.991  25.148  1.00  0.00    -0.463 OA
BRANCH   5   6
ATOM      6  C   UNL A   1      35.165  23.895  24.190  1.00  0.00     0.319 C 
ATOM      7  O   UNL A   1      35.349  23.609  23.021  1.00  0.00    -0.251 OA
BRANCH   6   8
ATOM      8  C   UNL A   1      33.842  24.238  24.956  1.00  0.00     0.140 C 
ATOM      9  N   UNL A   1      32.736  22.064  24.321  1.00  0.00    -0.327 N 
ATOM     10  C   UNL A   1      31.807  23.103  23.950  1.00  0.00     0.268 C 
ATOM     11  C   UNL A   1      33.726  22.683  25.215  1.00  0.00     0.283 C 
ATOM     12  H   UNL A   1      33.207  21.706  23.490  1.00  0.00     0.348 HD
ATOM     13  C   UNL A   1      32.282  24.270  24.781  1.00  0.00     0.084 C 
ATOM     14  C   UNL A   1      31.701  25.578  24.312  1.00  0.00     0.113 C 
ATOM     15  C   UNL A   1      34.067  25.693  24.405  1.00  0.00     0.127 C 
ATOM     16  N   UNL A   1      32.848  26.335  23.923  1.00  0.00    -0.200 NA
BRANCH   9  17
ATOM     17  C   UNL A   1      32.121  20.825  24.816  1.00  0.00     0.338 C 
BRANCH  17  18
ATOM     18  C   UNL A   1      32.461  19.561  24.071  1.00  0.00     0.161 A 
ATOM     19  C   UNL A   1      33.902  16.338  23.596  1.00  0.00     0.068 C 
ATOM     20  C   UNL A   1      33.203  17.631  23.459  1.00  0.00     0.056 A 
ATOM     21  C   UNL A   1      32.519  18.129  22.376  1.00  0.00     0.107 A 
ATOM     22  N   UNL A   1      33.163  18.527  24.501  1.00  0.00    -0.233 NA
ATOM     23  N   UNL A   1      32.062  19.354  22.770  1.00  0.00    -0.344 N 
ATOM     24  H   UNL A   1      31.538  19.980  22.219  1.00  0.00     0.167 HD
ENDBRANCH  17  18
ENDBRANCH   9  17
BRANCH  16  25
ATOM     25  S   UNL A   1      32.890  27.238  22.519  1.00  0.00     0.211 S 
ATOM     26  C   UNL A   1      33.753  28.701  23.055  1.00  0.00     0.176 C 
ATOM     27  O   UNL A   1      33.727  26.538  21.565  1.00  0.00    -0.213 OA
ATOM     28  O   UNL A   1      31.533  27.615  22.198  1.00  0.00    -0.213 OA
ENDBRANCH  16  25
ENDBRANCH   6   8
ENDBRANCH   5   6
ENDBRANCH   4   5
ENDBRANCH   3   4
ENDBRANCH   2   3
ENDBRANCH   1   2
BRANCH   1  29
ATOM     29  C   UNL A   1      40.850  21.483  27.439  1.00  0.00     0.188 C 
BRANCH  29  30
ATOM     30  O   UNL A   1      42.009  20.823  27.000  1.00  0.00    -0.376 OA
BRANCH  30  31
ATOM     31  C   UNL A   1      41.923  19.447  26.651  1.00  0.00     0.202 C 
BRANCH  31  32
ATOM     32  C   UNL A   1      42.998  18.663  25.856  1.00  0.00     0.261 C 
BRANCH  32  33
ATOM     33  O   UNL A   1      43.342  19.136  24.545  1.00  0.00    -0.460 OA
BRANCH  33  34
ATOM     34  C   UNL A   1      44.659  19.427  24.347  1.00  0.00     0.338 C 
ATOM     35  O   UNL A   1      45.504  18.725  23.823  1.00  0.00    -0.246 OA
BRANCH  34  36
ATOM     36  C   UNL A   1      44.881  20.854  24.664  1.00  0.00     0.060 A 
ATOM     37  C   UNL A   1      45.448  21.196  25.900  1.00  0.00     0.016 A 
ATOM     38  C   UNL A   1      44.529  21.848  23.756  1.00  0.00     0.016 A 
ATOM     39  C   UNL A   1      45.726  22.527  26.203  1.00  0.00     0.010 A 
ATOM     40  C   UNL A   1      44.750  23.190  24.092  1.00  0.00     0.010 A 
ATOM     41  C   UNL A   1      45.350  23.539  25.316  1.00  0.00    -0.014 A 
BRANCH  41  42
ATOM     42  C   UNL A   1      45.433  24.963  25.726  1.00  0.00     0.031 A 
ATOM     43  C   UNL A   1      46.755  25.664  25.621  1.00  0.00     0.074 A 
ATOM     44  C   UNL A   1      44.357  25.640  26.165  1.00  0.00     0.049 A 
ATOM     45  N   UNL A   1      47.122  26.829  26.088  1.00  0.00    -0.248 NA
ATOM     46  C   UNL A   1      47.807  24.950  24.881  1.00  0.00     0.031 C 
ATOM     47  C   UNL A   1      42.988  25.134  26.192  1.00  0.00     0.029 A 
ATOM     48  N   UNL A   1      44.259  26.910  26.684  1.00  0.00    -0.354 N 
ATOM     49  C   UNL A   1      48.455  26.974  25.731  1.00  0.00     0.074 A 
ATOM     50  C   UNL A   1      48.832  25.778  25.007  1.00  0.00     0.031 C 
ATOM     51  C   UNL A   1      42.188  26.075  26.723  1.00  0.00     0.029 A 
ATOM     52  C   UNL A   1      42.999  27.220  27.136  1.00  0.00     0.049 A 
ATOM     53  H   UNL A   1      45.017  27.536  26.727  1.00  0.00     0.167 HD
ATOM     54  C   UNL A   1      49.290  28.008  25.990  1.00  0.00     0.037 A 
ATOM     55  C   UNL A   1      42.565  28.279  27.849  1.00  0.00     0.037 A 
ATOM     56  C   UNL A   1      48.907  29.198  26.704  1.00  0.00     0.049 A 
ATOM     57  C   UNL A   1      43.545  29.355  28.252  1.00  0.00     0.074 A 
ATOM     58  C   UNL A   1      49.682  30.301  27.020  1.00  0.00     0.029 A 
ATOM     59  N   UNL A   1      47.643  29.439  27.222  1.00  0.00    -0.354 N 
ATOM     60  N   UNL A   1      44.813  29.480  27.947  1.00  0.00    -0.248 NA
ATOM     61  C   UNL A   1      43.034  30.429  29.120  1.00  0.00     0.031 C 
ATOM     62  C   UNL A   1      48.907  31.177  27.785  1.00  0.00     0.029 A 
ATOM     63  C   UNL A   1      47.628  30.653  27.890  1.00  0.00     0.049 A 
ATOM     64  H   UNL A   1      46.870  28.835  27.128  1.00  0.00     0.167 HD
ATOM     65  C   UNL A   1      45.244  30.651  28.562  1.00  0.00     0.074 A 
ATOM     66  C   UNL A   1      44.097  31.211  29.243  1.00  0.00     0.031 C 
ATOM     67  C   UNL A   1      46.480  31.208  28.563  1.00  0.00     0.037 A 
BRANCH  54  68
ATOM     68  C   UNL A   1      50.719  27.871  25.555  1.00  0.00     0.064 A 
ATOM     69  C   UNL A   1      51.741  27.522  26.449  1.00  0.00     0.173 A 
ATOM     70  C   UNL A   1      51.064  28.070  24.209  1.00  0.00     0.173 A 
ATOM     71  F   UNL A   1      51.466  27.335  27.749  1.00  0.00    -0.203 F 
ATOM     72  C   UNL A   1      53.060  27.408  26.019  1.00  0.00     0.198 A 
ATOM     73  C   UNL A   1      52.379  27.921  23.776  1.00  0.00     0.198 A 
ATOM     74  F   UNL A   1      50.125  28.401  23.310  1.00  0.00    -0.203 F 
ATOM     75  F   UNL A   1      54.029  27.127  26.902  1.00  0.00    -0.200 F 
ATOM     76  C   UNL A   1      53.377  27.599  24.682  1.00  0.00     0.200 A 
ATOM     77  F   UNL A   1      52.678  28.091  22.481  1.00  0.00    -0.200 F 
ATOM     78  F   UNL A   1      54.646  27.482  24.269  1.00  0.00    -0.200 F 
ENDBRANCH  54  68
BRANCH  55  79
ATOM     79  C   UNL A   1      41.145  28.354  28.287  1.00  0.00     0.064 A 
ATOM     80  C   UNL A   1      40.164  28.936  27.473  1.00  0.00     0.173 A 
ATOM     81  C   UNL A   1      40.745  27.878  29.546  1.00  0.00     0.173 A 
ATOM     82  F   UNL A   1      40.501  29.440  26.276  1.00  0.00    -0.203 F 
ATOM     83  C   UNL A   1      38.844  29.051  27.904  1.00  0.00     0.198 A 
ATOM     84  C   UNL A   1      39.418  27.963  29.963  1.00  0.00     0.198 A 
ATOM     85  F   UNL A   1      41.645  27.326  30.374  1.00  0.00    -0.203 F 
ATOM     86  F   UNL A   1      37.938  29.661  27.127  1.00  0.00    -0.200 F 
ATOM     87  C   UNL A   1      38.470  28.557  29.145  1.00  0.00     0.200 A 
ATOM     88  F   UNL A   1      39.061  27.477  31.159  1.00  0.00    -0.200 F 
ATOM     89  F   UNL A   1      37.201  28.665  29.558  1.00  0.00    -0.200 F 
ENDBRANCH  55  79
BRANCH  67  90
ATOM     90  C   UNL A   1      46.665  32.504  29.301  1.00  0.00     0.064 A 
ATOM     91  C   UNL A   1      46.418  33.742  28.689  1.00  0.00     0.173 A 
ATOM     92  C   UNL A   1      47.027  32.507  30.657  1.00  0.00     0.173 A 
ATOM     93  F   UNL A   1      46.083  33.798  27.391  1.00  0.00    -0.203 F 
ATOM     94  C   UNL A   1      46.539  34.933  29.402  1.00  0.00     0.198 A 
ATOM     95  C   UNL A   1      47.116  33.697  31.376  1.00  0.00     0.198 A 
ATOM     96  F   UNL A   1      47.269  31.352  31.295  1.00  0.00    -0.203 F 
ATOM     97  F   UNL A   1      46.335  36.105  28.786  1.00  0.00    -0.200 F 
ATOM     98  C   UNL A   1      46.877  34.908  30.747  1.00  0.00     0.200 A 
ATOM     99  F   UNL A   1      47.425  33.669  32.680  1.00  0.00    -0.200 F 
ATOM    100  F   UNL A   1      46.976  36.053  31.436  1.00  0.00    -0.200 F 
ENDBRANCH  67  90
ENDBRANCH  41  42
ENDBRANCH  34  36
ENDBRANCH  33  34
ENDBRANCH  32  33
ENDBRANCH  31  32
ENDBRANCH  30  31
ENDBRANCH  29  30
ENDBRANCH   1  29
TORSDOF 20
ENDMDL
MODEL 2
REMARK VINA RESULT:     -11.0      6.878     12.604
REMARK SMILES Cc1c[nH]c(C[N@H+]2C[C@@H]3CN(S(C)(=O)=O)C[C@@]3(C(=O)OCCOCCOCCOC(=O)c3ccc(-c4c5nc(c(-c6c(F)c(F)c(F)c(F)c6F)c6ccc([nH]6)c(-c6c(F)c(F)c(F)c(F)c6F)c6nc(c(-c7c(F)c(F)c(F)c(F)c7F)c7ccc4[nH]7)C=C6)C=C5)cc3)C2)n1
REMARK SMILES IDX 24 1 23 2 22 3 21 4 20 5 18 6 19 7 17 8 7 9 8 10 95 11 9 13
REMARK SMILES IDX 10 14 16 15 11 16 6 17 5 18 1 19 2 20 3 21 96 22 4 23 12 25
REMARK SMILES IDX 13 26 14 27 15 28 25 29 26 30 27 31 28 32 29 33 30 34 31 35
REMARK SMILES IDX 32 36 33 37 94 38 34 39 93 40 35 41 36 42 37 43 87 44 38 45
REMARK SMILES IDX 92 46 86 47 88 48 39 49 91 50 85 51 84 52 40 54 72 55 52 56
REMARK SMILES IDX 71 57 53 58 56 59 70 60 89 61 54 62 55 63 69 65 90 66 57 67
REMARK SMILES IDX 41 68 42 69 50 70 43 71 44 72 48 73 51 74 45 75 46 76 49 77
REMARK SMILES IDX 47 78 73 79 74 80 82 81 75 82 76 83 80 84 83 85 77 86 78 87
REMARK SMILES IDX 81 88 79 89 58 90 59 91 67 92 60 93 61 94 65 95 68 96 62 97
REMARK SMILES IDX 63 98 66 99 64 100
REMARK H PARENT 7 12 4 24 88 53 56 64
REMARK Flexibility Score: inf
ROOT
ATOM      1  C   UNL A   1      35.510  32.021  28.015  1.00  0.00     0.188 C 
ENDROOT
BRANCH   1   2
ATOM      2  O   UNL A   1      35.195  30.644  28.133  1.00  0.00    -0.376 OA
BRANCH   2   3
ATOM      3  C   UNL A   1      34.044  30.103  27.481  1.00  0.00     0.202 C 
BRANCH   3   4
ATOM      4  C   UNL A   1      33.902  28.591  27.199  1.00  0.00     0.261 C 
BRANCH   4   5
ATOM      5  O   UNL A   1      32.901  28.380  26.205  1.00  0.00    -0.463 OA
BRANCH   5   6
ATOM      6  C   UNL A   1      32.077  27.287  26.177  1.00  0.00     0.319 C 
ATOM      7  O   UNL A   1      31.166  27.068  26.955  1.00  0.00    -0.251 OA
BRANCH   6   8
ATOM      8  C   UNL A   1      32.596  26.449  24.961  1.00  0.00     0.140 C 
ATOM      9  N   UNL A   1      30.847  27.363  23.393  1.00  0.00    -0.327 N 
ATOM     10  C   UNL A   1      30.768  25.928  23.279  1.00  0.00     0.268 C 
ATOM     11  C   UNL A   1      32.118  27.663  24.068  1.00  0.00     0.283 C 
ATOM     12  H   UNL A   1      30.072  27.710  23.959  1.00  0.00     0.348 HD
ATOM     13  C   UNL A   1      32.107  25.489  23.818  1.00  0.00     0.084 C 
ATOM     14  C   UNL A   1      32.139  24.017  24.140  1.00  0.00     0.113 C 
ATOM     15  C   UNL A   1      32.801  25.304  26.018  1.00  0.00     0.127 C 
ATOM     16  N   UNL A   1      32.387  23.986  25.546  1.00  0.00    -0.200 NA
BRANCH   9  17
ATOM     17  C   UNL A   1      30.600  28.102  22.147  1.00  0.00     0.338 C 
BRANCH  17  18
ATOM     18  C   UNL A   1      29.625  29.247  22.227  1.00  0.00     0.161 A 
ATOM     19  C   UNL A   1      27.988  32.223  21.151  1.00  0.00     0.068 C 
ATOM     20  C   UNL A   1      28.456  31.025  21.877  1.00  0.00     0.056 A 
ATOM     21  C   UNL A   1      28.023  30.524  23.081  1.00  0.00     0.107 A 
ATOM     22  N   UNL A   1      29.451  30.228  21.359  1.00  0.00    -0.233 NA
ATOM     23  N   UNL A   1      28.775  29.406  23.298  1.00  0.00    -0.344 N 
ATOM     24  H   UNL A   1      28.719  28.815  24.084  1.00  0.00     0.167 HD
ENDBRANCH  17  18
ENDBRANCH   9  17
BRANCH  16  25
ATOM     25  S   UNL A   1      31.566  22.960  26.577  1.00  0.00     0.211 S 
ATOM     26  C   UNL A   1      32.863  22.450  27.687  1.00  0.00     0.176 C 
ATOM     27  O   UNL A   1      30.610  23.752  27.323  1.00  0.00    -0.213 OA
ATOM     28  O   UNL A   1      31.157  21.805  25.813  1.00  0.00    -0.213 OA
ENDBRANCH  16  25
ENDBRANCH   6   8
ENDBRANCH   5   6
ENDBRANCH   4   5
ENDBRANCH   3   4
ENDBRANCH   2   3
ENDBRANCH   1   2
BRANCH   1  29
ATOM     29  C   UNL A   1      34.398  33.083  28.118  1.00  0.00     0.188 C 
BRANCH  29  30
ATOM     30  O   UNL A   1      34.479  34.092  29.092  1.00  0.00    -0.376 OA
BRANCH  30  31
ATOM     31  C   UNL A   1      33.971  35.385  28.783  1.00  0.00     0.202 C 
BRANCH  31  32
ATOM     32  C   UNL A   1      32.857  36.114  29.576  1.00  0.00     0.261 C 
BRANCH  32  33
ATOM     33  O   UNL A   1      32.274  35.432  30.698  1.00  0.00    -0.460 OA
BRANCH  33  34
ATOM     34  C   UNL A   1      32.629  35.902  31.926  1.00  0.00     0.338 C 
ATOM     35  O   UNL A   1      32.029  36.705  32.617  1.00  0.00    -0.246 OA
BRANCH  34  36
ATOM     36  C   UNL A   1      33.770  35.105  32.425  1.00  0.00     0.060 A 
ATOM     37  C   UNL A   1      35.061  35.652  32.362  1.00  0.00     0.016 A 
ATOM     38  C   UNL A   1      33.575  33.830  32.946  1.00  0.00     0.016 A 
ATOM     39  C   UNL A   1      36.148  34.951  32.879  1.00  0.00     0.010 A 
ATOM     40  C   UNL A   1      34.681  33.103  33.405  1.00  0.00     0.010 A 
ATOM     41  C   UNL A   1      35.974  33.658  33.377  1.00  0.00    -0.014 A 
BRANCH  41  42
ATOM     42  C   UNL A   1      37.151  32.821  33.716  1.00  0.00     0.031 A 
ATOM     43  C   UNL A   1      37.845  33.058  35.026  1.00  0.00     0.074 A 
ATOM     44  C   UNL A   1      37.595  31.851  32.898  1.00  0.00     0.049 A 
ATOM     45  N   UNL A   1      38.990  32.597  35.460  1.00  0.00    -0.248 NA
ATOM     46  C   UNL A   1      37.145  33.933  35.978  1.00  0.00     0.031 C 
ATOM     47  C   UNL A   1      36.945  31.418  31.665  1.00  0.00     0.029 A 
ATOM     48  N   UNL A   1      38.715  31.058  32.987  1.00  0.00    -0.354 N 
ATOM     49  C   UNL A   1      39.165  33.153  36.719  1.00  0.00     0.074 A 
ATOM     50  C   UNL A   1      38.009  33.985  36.980  1.00  0.00     0.031 C 
ATOM     51  C   UNL A   1      37.689  30.452  31.098  1.00  0.00     0.029 A 
ATOM     52  C   UNL A   1      38.901  30.249  31.892  1.00  0.00     0.049 A 
ATOM     53  H   UNL A   1      39.324  31.068  33.760  1.00  0.00     0.167 HD
ATOM     54  C   UNL A   1      40.201  32.990  37.576  1.00  0.00     0.037 A 
ATOM     55  C   UNL A   1      39.952  29.479  31.546  1.00  0.00     0.037 A 
ATOM     56  C   UNL A   1      41.345  32.156  37.314  1.00  0.00     0.049 A 
ATOM     57  C   UNL A   1      41.161  29.423  32.449  1.00  0.00     0.074 A 
ATOM     58  C   UNL A   1      42.447  31.927  38.119  1.00  0.00     0.029 A 
ATOM     59  N   UNL A   1      41.537  31.418  36.155  1.00  0.00    -0.354 N 
ATOM     60  N   UNL A   1      41.347  29.973  33.624  1.00  0.00    -0.248 NA
ATOM     61  C   UNL A   1      42.318  28.651  31.965  1.00  0.00     0.031 C 
ATOM     62  C   UNL A   1      43.338  31.107  37.420  1.00  0.00     0.029 A 
ATOM     63  C   UNL A   1      42.761  30.768  36.206  1.00  0.00     0.049 A 
ATOM     64  H   UNL A   1      40.900  31.365  35.407  1.00  0.00     0.167 HD
ATOM     65  C   UNL A   1      42.624  29.599  34.027  1.00  0.00     0.074 A 
ATOM     66  C   UNL A   1      43.163  28.757  32.981  1.00  0.00     0.031 C 
ATOM     67  C   UNL A   1      43.290  29.927  35.162  1.00  0.00     0.037 A 
BRANCH  54  68
ATOM     68  C   UNL A   1      40.176  33.779  38.851  1.00  0.00     0.064 A 
ATOM     69  C   UNL A   1      40.813  35.023  38.971  1.00  0.00     0.173 A 
ATOM     70  C   UNL A   1      39.478  33.289  39.966  1.00  0.00     0.173 A 
ATOM     71  F   UNL A   1      41.505  35.529  37.940  1.00  0.00    -0.203 F 
ATOM     72  C   UNL A   1      40.779  35.731  40.170  1.00  0.00     0.198 A 
ATOM     73  C   UNL A   1      39.417  34.016  41.152  1.00  0.00     0.198 A 
ATOM     74  F   UNL A   1      38.846  32.107  39.904  1.00  0.00    -0.203 F 
ATOM     75  F   UNL A   1      41.441  36.891  40.279  1.00  0.00    -0.200 F 
ATOM     76  C   UNL A   1      40.075  35.231  41.256  1.00  0.00     0.200 A 
ATOM     77  F   UNL A   1      38.723  33.539  42.193  1.00  0.00    -0.200 F 
ATOM     78  F   UNL A   1      40.038  35.918  42.406  1.00  0.00    -0.200 F 
ENDBRANCH  54  68
BRANCH  55  79
ATOM     79  C   UNL A   1      39.944  28.741  30.253  1.00  0.00     0.064 A 
ATOM     80  C   UNL A   1      39.393  27.457  30.155  1.00  0.00     0.173 A 
ATOM     81  C   UNL A   1      40.524  29.290  29.098  1.00  0.00     0.173 A 
ATOM     82  F   UNL A   1      38.860  26.873  31.238  1.00  0.00    -0.203 F 
ATOM     83  C   UNL A   1      39.430  26.746  28.956  1.00  0.00     0.198 A 
ATOM     84  C   UNL A   1      40.531  28.592  27.892  1.00  0.00     0.198 A 
ATOM     85  F   UNL A   1      41.082  30.509  29.139  1.00  0.00    -0.203 F 
ATOM     86  F   UNL A   1      38.943  25.499  28.905  1.00  0.00    -0.200 F 
ATOM     87  C   UNL A   1      39.992  27.317  27.824  1.00  0.00     0.200 A 
ATOM     88  F   UNL A   1      41.067  29.152  26.799  1.00  0.00    -0.200 F 
ATOM     89  F   UNL A   1      40.025  26.634  26.672  1.00  0.00    -0.200 F 
ENDBRANCH  55  79
BRANCH  67  90
ATOM     90  C   UNL A   1      44.668  29.359  35.356  1.00  0.00     0.064 A 
ATOM     91  C   UNL A   1      44.872  28.107  35.954  1.00  0.00     0.173 A 
ATOM     92  C   UNL A   1      45.795  30.045  34.875  1.00  0.00     0.173 A 
ATOM     93  F   UNL A   1      43.831  27.416  36.444  1.00  0.00    -0.203 F 
ATOM     94  C   UNL A   1      46.151  27.569  36.077  1.00  0.00     0.198 A 
ATOM     95  C   UNL A   1      47.069  29.490  34.969  1.00  0.00     0.198 A 
ATOM     96  F   UNL A   1      45.658  31.243  34.288  1.00  0.00    -0.203 F 
ATOM     97  F   UNL A   1      46.325  26.388  36.686  1.00  0.00    -0.200 F 
ATOM     98  C   UNL A   1      47.246  28.255  35.574  1.00  0.00     0.200 A 
ATOM     99  F   UNL A   1      48.123  30.148  34.467  1.00  0.00    -0.200 F 
ATOM    100  F   UNL A   1      48.474  27.729  35.676  1.00  0.00    -0.200 F 
ENDBRANCH  67  90
ENDBRANCH  41  42
ENDBRANCH  34  36
ENDBRANCH  33  34
ENDBRANCH  32  33
ENDBRANCH  31  32
ENDBRANCH  30  31
ENDBRANCH  29  30
ENDBRANCH   1  29
TORSDOF 20
ENDMDL
MODEL 3
REMARK VINA RESULT:     -10.9      6.653     11.975
REMARK SMILES Cc1c[nH]c(C[N@H+]2C[C@@H]3CN(S(C)(=O)=O)C[C@@]3(C(=O)OCCOCCOCCOC(=O)c3ccc(-c4c5nc(c(-c6c(F)c(F)c(F)c(F)c6F)c6ccc([nH]6)c(-c6c(F)c(F)c(F)c(F)c6F)c6nc(c(-c7c(F)c(F)c(F)c(F)c7F)c7ccc4[nH]7)C=C6)C=C5)cc3)C2)n1
REMARK SMILES IDX 24 1 23 2 22 3 21 4 20 5 18 6 19 7 17 8 7 9 8 10 95 11 9 13
REMARK SMILES IDX 10 14 16 15 11 16 6 17 5 18 1 19 2 20 3 21 96 22 4 23 12 25
REMARK SMILES IDX 13 26 14 27 15 28 25 29 26 30 27 31 28 32 29 33 30 34 31 35
REMARK SMILES IDX 32 36 33 37 94 38 34 39 93 40 35 41 36 42 37 43 87 44 38 45
REMARK SMILES IDX 92 46 86 47 88 48 39 49 91 50 85 51 84 52 40 54 72 55 52 56
REMARK SMILES IDX 71 57 53 58 56 59 70 60 89 61 54 62 55 63 69 65 90 66 57 67
REMARK SMILES IDX 41 68 42 69 50 70 43 71 44 72 48 73 51 74 45 75 46 76 49 77
REMARK SMILES IDX 47 78 73 79 74 80 82 81 75 82 76 83 80 84 83 85 77 86 78 87
REMARK SMILES IDX 81 88 79 89 58 90 59 91 67 92 60 93 61 94 65 95 68 96 62 97
REMARK SMILES IDX 63 98 66 99 64 100
REMARK H PARENT 7 12 4 24 88 53 56 64
REMARK Flexibility Score: inf
ROOT
ATOM      1  C   UNL A   1      35.461  31.722  28.173  1.00  0.00     0.188 C 
ENDROOT
BRANCH   1   2
ATOM      2  O   UNL A   1      35.264  30.323  28.071  1.00  0.00    -0.376 OA
BRANCH   2   3
ATOM      3  C   UNL A   1      34.164  29.795  27.326  1.00  0.00     0.202 C 
BRANCH   3   4
ATOM      4  C   UNL A   1      34.333  28.609  26.352  1.00  0.00     0.261 C 
BRANCH   4   5
ATOM      5  O   UNL A   1      33.116  27.869  26.283  1.00  0.00    -0.463 OA
BRANCH   5   6
ATOM      6  C   UNL A   1      33.033  26.587  25.808  1.00  0.00     0.319 C 
ATOM      7  O   UNL A   1      33.969  25.919  25.408  1.00  0.00    -0.251 OA
BRANCH   6   8
ATOM      8  C   UNL A   1      31.508  26.242  25.906  1.00  0.00     0.140 C 
ATOM      9  N   UNL A   1      31.897  23.768  25.622  1.00  0.00    -0.327 N 
ATOM     10  C   UNL A   1      30.900  24.126  24.644  1.00  0.00     0.268 C 
ATOM     11  C   UNL A   1      31.976  24.887  26.573  1.00  0.00     0.283 C 
ATOM     12  H   UNL A   1      32.802  23.645  25.167  1.00  0.00     0.348 HD
ATOM     13  C   UNL A   1      30.372  25.431  25.185  1.00  0.00     0.084 C 
ATOM     14  C   UNL A   1      29.572  26.193  24.162  1.00  0.00     0.113 C 
ATOM     15  C   UNL A   1      31.303  27.545  25.052  1.00  0.00     0.127 C 
ATOM     16  N   UNL A   1      30.307  27.406  23.994  1.00  0.00    -0.200 NA
BRANCH   9  17
ATOM     17  C   UNL A   1      31.733  22.437  26.221  1.00  0.00     0.338 C 
BRANCH  17  18
ATOM     18  C   UNL A   1      32.491  21.309  25.572  1.00  0.00     0.161 A 
ATOM     19  C   UNL A   1      32.903  18.236  23.816  1.00  0.00     0.068 C 
ATOM     20  C   UNL A   1      33.084  19.505  24.549  1.00  0.00     0.056 A 
ATOM     21  C   UNL A   1      34.253  20.136  24.902  1.00  0.00     0.107 A 
ATOM     22  N   UNL A   1      32.000  20.239  24.971  1.00  0.00    -0.233 NA
ATOM     23  N   UNL A   1      33.867  21.270  25.557  1.00  0.00    -0.344 N 
ATOM     24  H   UNL A   1      34.468  21.944  25.950  1.00  0.00     0.167 HD
ENDBRANCH  17  18
ENDBRANCH   9  17
BRANCH  16  25
ATOM     25  S   UNL A   1      30.597  28.075  22.492  1.00  0.00     0.211 S 
ATOM     26  C   UNL A   1      32.078  29.017  22.796  1.00  0.00     0.176 C 
ATOM     27  O   UNL A   1      30.920  26.996  21.580  1.00  0.00    -0.213 OA
ATOM     28  O   UNL A   1      29.529  29.006  22.212  1.00  0.00    -0.213 OA
ENDBRANCH  16  25
ENDBRANCH   6   8
ENDBRANCH   5   6
ENDBRANCH   4   5
ENDBRANCH   3   4
ENDBRANCH   2   3
ENDBRANCH   1   2
BRANCH   1  29
ATOM     29  C   UNL A   1      34.255  32.665  28.357  1.00  0.00     0.188 C 
BRANCH  29  30
ATOM     30  O   UNL A   1      34.353  33.773  29.214  1.00  0.00    -0.376 OA
BRANCH  30  31
ATOM     31  C   UNL A   1      33.829  35.022  28.782  1.00  0.00     0.202 C 
BRANCH  31  32
ATOM     32  C   UNL A   1      32.930  35.952  29.637  1.00  0.00     0.261 C 
BRANCH  32  33
ATOM     33  O   UNL A   1      32.273  35.386  30.781  1.00  0.00    -0.460 OA
BRANCH  33  34
ATOM     34  C   UNL A   1      32.653  35.888  31.990  1.00  0.00     0.338 C 
ATOM     35  O   UNL A   1      32.073  36.717  32.665  1.00  0.00    -0.246 OA
BRANCH  34  36
ATOM     36  C   UNL A   1      33.792  35.091  32.496  1.00  0.00     0.060 A 
ATOM     37  C   UNL A   1      35.075  35.660  32.490  1.00  0.00     0.016 A 
ATOM     38  C   UNL A   1      33.603  33.796  32.965  1.00  0.00     0.016 A 
ATOM     39  C   UNL A   1      36.158  34.958  33.016  1.00  0.00     0.010 A 
ATOM     40  C   UNL A   1      34.706  33.070  33.433  1.00  0.00     0.010 A 
ATOM     41  C   UNL A   1      35.990  33.646  33.463  1.00  0.00    -0.014 A 
BRANCH  41  42
ATOM     42  C   UNL A   1      37.170  32.816  33.809  1.00  0.00     0.031 A 
ATOM     43  C   UNL A   1      37.858  33.060  35.121  1.00  0.00     0.074 A 
ATOM     44  C   UNL A   1      37.622  31.846  32.995  1.00  0.00     0.049 A 
ATOM     45  N   UNL A   1      39.003  32.606  35.560  1.00  0.00    -0.248 NA
ATOM     46  C   UNL A   1      37.150  33.934  36.068  1.00  0.00     0.031 C 
ATOM     47  C   UNL A   1      36.979  31.406  31.760  1.00  0.00     0.029 A 
ATOM     48  N   UNL A   1      38.745  31.059  33.090  1.00  0.00    -0.354 N 
ATOM     49  C   UNL A   1      39.171  33.166  36.818  1.00  0.00     0.074 A 
ATOM     50  C   UNL A   1      38.010  33.993  37.073  1.00  0.00     0.031 C 
ATOM     51  C   UNL A   1      37.730  30.443  31.199  1.00  0.00     0.029 A 
ATOM     52  C   UNL A   1      38.940  30.248  31.998  1.00  0.00     0.049 A 
ATOM     53  H   UNL A   1      39.352  31.074  33.865  1.00  0.00     0.167 HD
ATOM     54  C   UNL A   1      40.205  33.010  37.679  1.00  0.00     0.037 A 
ATOM     55  C   UNL A   1      39.996  29.483  31.658  1.00  0.00     0.037 A 
ATOM     56  C   UNL A   1      41.354  32.182  37.424  1.00  0.00     0.049 A 
ATOM     57  C   UNL A   1      41.202  29.435  32.565  1.00  0.00     0.074 A 
ATOM     58  C   UNL A   1      42.454  31.961  38.233  1.00  0.00     0.029 A 
ATOM     59  N   UNL A   1      41.554  31.442  36.268  1.00  0.00    -0.354 N 
ATOM     60  N   UNL A   1      41.381  29.990  33.739  1.00  0.00    -0.248 NA
ATOM     61  C   UNL A   1      42.364  28.668  32.088  1.00  0.00     0.031 C 
ATOM     62  C   UNL A   1      43.352  31.143  37.540  1.00  0.00     0.029 A 
ATOM     63  C   UNL A   1      42.781  30.798  36.325  1.00  0.00     0.049 A 
ATOM     64  H   UNL A   1      40.920  31.384  35.517  1.00  0.00     0.167 HD
ATOM     65  C   UNL A   1      42.658  29.623  34.149  1.00  0.00     0.074 A 
ATOM     66  C   UNL A   1      43.205  28.781  33.107  1.00  0.00     0.031 C 
ATOM     67  C   UNL A   1      43.318  29.957  35.285  1.00  0.00     0.037 A 
BRANCH  54  68
ATOM     68  C   UNL A   1      40.170  33.803  38.953  1.00  0.00     0.064 A 
ATOM     69  C   UNL A   1      39.528  33.333  40.107  1.00  0.00     0.173 A 
ATOM     70  C   UNL A   1      40.816  35.048  39.022  1.00  0.00     0.173 A 
ATOM     71  F   UNL A   1      38.883  32.156  40.089  1.00  0.00    -0.203 F 
ATOM     72  C   UNL A   1      39.505  34.093  41.273  1.00  0.00     0.198 A 
ATOM     73  C   UNL A   1      40.822  35.789  40.200  1.00  0.00     0.198 A 
ATOM     74  F   UNL A   1      41.451  35.542  37.948  1.00  0.00    -0.203 F 
ATOM     75  F   UNL A   1      38.838  33.649  42.348  1.00  0.00    -0.200 F 
ATOM     76  C   UNL A   1      40.159  35.316  41.321  1.00  0.00     0.200 A 
ATOM     77  F   UNL A   1      41.468  36.961  40.248  1.00  0.00    -0.200 F 
ATOM     78  F   UNL A   1      40.143  36.042  42.448  1.00  0.00    -0.200 F 
ENDBRANCH  54  68
BRANCH  55  79
ATOM     79  C   UNL A   1      39.997  28.742  30.367  1.00  0.00     0.064 A 
ATOM     80  C   UNL A   1      40.528  29.314  29.203  1.00  0.00     0.173 A 
ATOM     81  C   UNL A   1      39.432  27.461  30.262  1.00  0.00     0.173 A 
ATOM     82  F   UNL A   1      41.046  30.551  29.242  1.00  0.00    -0.203 F 
ATOM     83  C   UNL A   1      40.484  28.641  27.983  1.00  0.00     0.198 A 
ATOM     84  C   UNL A   1      39.418  26.775  29.049  1.00  0.00     0.198 A 
ATOM     85  F   UNL A   1      38.894  26.872  31.340  1.00  0.00    -0.203 F 
ATOM     86  F   UNL A   1      40.951  29.234  26.876  1.00  0.00    -0.200 F 
ATOM     87  C   UNL A   1      39.936  27.369  27.909  1.00  0.00     0.200 A 
ATOM     88  F   UNL A   1      38.896  25.543  28.984  1.00  0.00    -0.200 F 
ATOM     89  F   UNL A   1      39.897  26.721  26.737  1.00  0.00    -0.200 F 
ENDBRANCH  55  79
BRANCH  67  90
ATOM     90  C   UNL A   1      44.699  29.397  35.486  1.00  0.00     0.064 A 
ATOM     91  C   UNL A   1      45.847  30.128  35.144  1.00  0.00     0.173 A 
ATOM     92  C   UNL A   1      44.878  28.144  36.091  1.00  0.00     0.173 A 
ATOM     93  F   UNL A   1      45.732  31.326  34.550  1.00  0.00    -0.203 F 
ATOM     94  C   UNL A   1      47.120  29.619  35.388  1.00  0.00     0.198 A 
ATOM     95  C   UNL A   1      46.152  27.652  36.363  1.00  0.00     0.198 A 
ATOM     96  F   UNL A   1      43.816  27.405  36.445  1.00  0.00    -0.203 F 
ATOM     97  F   UNL A   1      48.202  30.319  35.019  1.00  0.00    -0.200 F 
ATOM     98  C   UNL A   1      47.272  28.388  36.008  1.00  0.00     0.200 A 
ATOM     99  F   UNL A   1      46.295  26.470  36.977  1.00  0.00    -0.200 F 
ATOM    100  F   UNL A   1      48.498  27.908  36.258  1.00  0.00    -0.200 F 
ENDBRANCH  67  90
ENDBRANCH  41  42
ENDBRANCH  34  36
ENDBRANCH  33  34
ENDBRANCH  32  33
ENDBRANCH  31  32
ENDBRANCH  30  31
ENDBRANCH  29  30
ENDBRANCH   1  29
TORSDOF 20
ENDMDL
