MODEL 1
REMARK VINA RESULT:     -12.0      0.000      0.000
REMARK SMILES Cc1ccc(C2=NN(C(=O)CCC(=O)OCCOCCOCCOC(=O)c3ccc(-c4c5nc(c(-c6c(F)c(F)c(F)c(F)c6F)c6ccc([nH]6)c(-c6c(F)c(F)c(F)c(F)c6F)c6nc(c(-c7c(F)c(F)c(F)c(F)c7F)c7ccc4[nH]7)C=C6)C=C5)cc3)[C@H](C[C@@H]3C=c4cccc(C)c4=NC3=O)C2)cc1
REMARK SMILES IDX 18 1 17 2 16 3 15 4 13 5 14 6 12 7 11 8 9 9 10 10 8 11 6 12
REMARK SMILES IDX 7 13 104 14 90 15 5 16 1 17 2 18 3 19 106 20 4 21 105 22
REMARK SMILES IDX 91 23 92 24 93 25 102 26 94 27 101 28 103 29 95 30 100 31
REMARK SMILES IDX 96 32 98 33 97 34 99 35 19 36 20 37 21 38 22 39 23 40 24 41
REMARK SMILES IDX 25 42 26 43 27 44 28 45 89 46 29 47 88 48 30 49 31 50 32 51
REMARK SMILES IDX 82 52 33 53 87 54 81 55 83 56 34 57 86 58 80 59 79 60 35 62
REMARK SMILES IDX 67 63 47 64 66 65 48 66 51 67 65 68 84 69 49 70 50 71 64 73
REMARK SMILES IDX 85 74 52 75 36 76 37 77 45 78 38 79 39 80 43 81 46 82 40 83
REMARK SMILES IDX 41 84 44 85 42 86 68 87 69 88 77 89 70 90 71 91 75 92 78 93
REMARK SMILES IDX 72 94 73 95 76 96 74 97 53 98 54 99 62 100 55 101 56 102
REMARK SMILES IDX 60 103 63 104 57 105 58 106 61 107 59 108
REMARK H PARENT 83 61 51 72
REMARK Flexibility Score: inf
ROOT
ATOM      1  O   UNL A   1      37.126  23.611  26.260  1.00  0.00    -0.376 OA
ENDROOT
BRANCH   1   2
ATOM      2  C   UNL A   1      36.309  23.550  25.071  1.00  0.00     0.202 C 
BRANCH   2   3
ATOM      3  C   UNL A   1      35.740  22.076  24.459  1.00  0.00     0.261 C 
BRANCH   3   4
ATOM      4  O   UNL A   1      34.252  21.622  24.189  1.00  0.00    -0.463 OA
BRANCH   4   5
ATOM      5  C   UNL A   1      33.304  22.519  24.561  1.00  0.00     0.306 C 
ATOM      6  O   UNL A   1      32.866  22.197  25.665  1.00  0.00    -0.252 OA
BRANCH   5   7
ATOM      7  C   UNL A   1      32.789  24.150  23.701  1.00  0.00     0.132 C 
BRANCH   7   8
ATOM      8  C   UNL A   1      32.873  25.558  24.200  1.00  0.00     0.114 C 
BRANCH   8   9
ATOM      9  C   UNL A   1      31.692  26.248  24.791  1.00  0.00     0.243 C 
ATOM     10  O   UNL A   1      30.696  25.516  24.910  1.00  0.00    -0.273 OA
BRANCH   9  11
ATOM     11  N   UNL A   1      31.624  27.610  25.059  1.00  0.00    -0.230 N 
ATOM     12  C   UNL A   1      30.710  29.382  24.255  1.00  0.00     0.070 C 
ATOM     13  N   UNL A   1      30.774  28.111  24.120  1.00  0.00    -0.174 NA
ATOM     14  C   UNL A   1      31.395  30.006  25.436  1.00  0.00     0.086 C 
ATOM     15  C   UNL A   1      32.393  28.880  25.715  1.00  0.00     0.118 C 
BRANCH  12  16
ATOM     16  C   UNL A   1      29.882  30.131  23.352  1.00  0.00    -0.002 A 
ATOM     17  C   UNL A   1      27.690  32.746  20.873  1.00  0.00     0.044 C 
ATOM     18  C   UNL A   1      28.393  31.762  21.750  1.00  0.00    -0.051 A 
ATOM     19  C   UNL A   1      28.634  32.128  23.082  1.00  0.00     0.004 A 
ATOM     20  C   UNL A   1      28.825  30.518  21.259  1.00  0.00     0.004 A 
ATOM     21  C   UNL A   1      29.368  31.296  23.896  1.00  0.00     0.010 A 
ATOM     22  C   UNL A   1      29.572  29.677  22.073  1.00  0.00     0.010 A 
ENDBRANCH  12  16
BRANCH  15  23
ATOM     23  C   UNL A   1      33.607  29.043  27.011  1.00  0.00     0.045 C 
BRANCH  23  24
ATOM     24  C   UNL A   1      35.088  30.156  27.429  1.00  0.00     0.106 C 
ATOM     25  C   UNL A   1      36.889  29.396  28.446  1.00  0.00    -0.003 C 
ATOM     26  C   UNL A   1      34.536  31.826  28.455  1.00  0.00     0.253 C 
ATOM     27  C   UNL A   1      37.285  29.845  29.796  1.00  0.00    -0.003 A 
ATOM     28  N   UNL A   1      35.343  32.069  30.001  1.00  0.00    -0.212 NA
ATOM     29  O   UNL A   1      33.840  32.711  27.972  1.00  0.00    -0.272 OA
ATOM     30  C   UNL A   1      37.855  28.809  30.635  1.00  0.00     0.010 A 
ATOM     31  C   UNL A   1      36.364  31.224  30.591  1.00  0.00     0.077 A 
ATOM     32  C   UNL A   1      37.687  28.841  31.956  1.00  0.00     0.001 A 
ATOM     33  C   UNL A   1      36.546  31.073  32.103  1.00  0.00    -0.025 A 
ATOM     34  C   UNL A   1      37.115  29.972  32.645  1.00  0.00     0.005 A 
ATOM     35  C   UNL A   1      35.890  32.066  33.001  1.00  0.00     0.047 C 
ENDBRANCH  23  24
ENDBRANCH  15  23
ENDBRANCH   9  11
ENDBRANCH   8   9
ENDBRANCH   7   8
ENDBRANCH   5   7
ENDBRANCH   4   5
ENDBRANCH   3   4
ENDBRANCH   2   3
ENDBRANCH   1   2
BRANCH   1  36
ATOM     36  C   UNL A   1      38.563  23.900  26.303  1.00  0.00     0.188 C 
BRANCH  36  37
ATOM     37  C   UNL A   1      39.707  23.354  27.259  1.00  0.00     0.188 C 
BRANCH  37  38
ATOM     38  O   UNL A   1      40.964  24.050  27.251  1.00  0.00    -0.376 OA
BRANCH  38  39
ATOM     39  C   UNL A   1      41.098  25.335  26.619  1.00  0.00     0.202 C 
BRANCH  39  40
ATOM     40  C   UNL A   1      42.366  25.333  25.663  1.00  0.00     0.261 C 
BRANCH  40  41
ATOM     41  O   UNL A   1      43.618  25.115  26.411  1.00  0.00    -0.460 OA
BRANCH  41  42
ATOM     42  C   UNL A   1      44.841  25.482  25.899  1.00  0.00     0.338 C 
ATOM     43  O   UNL A   1      45.161  25.206  24.761  1.00  0.00    -0.246 OA
BRANCH  42  44
ATOM     44  C   UNL A   1      45.733  26.189  27.199  1.00  0.00     0.060 A 
ATOM     45  C   UNL A   1      47.288  25.583  28.360  1.00  0.00     0.016 A 
ATOM     46  C   UNL A   1      44.632  27.165  27.910  1.00  0.00     0.016 A 
ATOM     47  C   UNL A   1      47.307  25.914  30.147  1.00  0.00     0.010 A 
ATOM     48  C   UNL A   1      44.828  27.248  29.673  1.00  0.00     0.010 A 
ATOM     49  C   UNL A   1      46.013  26.713  30.911  1.00  0.00    -0.014 A 
BRANCH  49  50
ATOM     50  C   UNL A   1      45.623  26.884  32.734  1.00  0.00     0.031 A 
ATOM     51  C   UNL A   1      44.879  28.247  33.790  1.00  0.00     0.074 A 
ATOM     52  C   UNL A   1      45.188  25.713  33.328  1.00  0.00     0.049 A 
ATOM     53  N   UNL A   1      44.956  28.472  35.109  1.00  0.00    -0.248 NA
ATOM     54  C   UNL A   1      43.903  29.470  33.446  1.00  0.00     0.031 C 
ATOM     55  C   UNL A   1      44.046  25.663  34.280  1.00  0.00     0.029 A 
ATOM     56  N   UNL A   1      45.343  24.340  33.029  1.00  0.00    -0.354 N 
ATOM     57  C   UNL A   1      44.109  29.655  35.340  1.00  0.00     0.074 A 
ATOM     58  C   UNL A   1      44.351  30.451  34.221  1.00  0.00     0.031 C 
ATOM     59  C   UNL A   1      43.745  24.399  34.617  1.00  0.00     0.029 A 
ATOM     60  C   UNL A   1      44.868  23.623  34.178  1.00  0.00     0.049 A 
ATOM     61  H   UNL A   1      45.704  23.952  32.200  1.00  0.00     0.167 HD
ATOM     62  C   UNL A   1      42.793  29.688  35.847  1.00  0.00     0.037 A 
ATOM     63  C   UNL A   1      45.724  23.026  35.067  1.00  0.00     0.037 A 
ATOM     64  C   UNL A   1      42.499  28.423  36.446  1.00  0.00     0.049 A 
ATOM     65  C   UNL A   1      45.704  23.679  36.451  1.00  0.00     0.074 A 
ATOM     66  C   UNL A   1      41.551  27.423  36.436  1.00  0.00     0.029 A 
ATOM     67  N   UNL A   1      43.552  27.943  37.160  1.00  0.00    -0.354 N 
ATOM     68  N   UNL A   1      45.125  24.833  36.667  1.00  0.00    -0.248 NA
ATOM     69  C   UNL A   1      46.212  23.123  37.704  1.00  0.00     0.031 C 
ATOM     70  C   UNL A   1      42.115  26.320  37.181  1.00  0.00     0.029 A 
ATOM     71  C   UNL A   1      43.357  26.709  37.661  1.00  0.00     0.049 A 
ATOM     72  H   UNL A   1      44.383  28.451  37.297  1.00  0.00     0.167 HD
ATOM     73  C   UNL A   1      45.118  25.148  37.991  1.00  0.00     0.074 A 
ATOM     74  C   UNL A   1      45.854  24.069  38.600  1.00  0.00     0.031 C 
ATOM     75  C   UNL A   1      44.468  26.249  38.469  1.00  0.00     0.037 A 
BRANCH  62  76
ATOM     76  C   UNL A   1      41.707  30.836  35.691  1.00  0.00     0.064 A 
ATOM     77  C   UNL A   1      41.616  31.829  36.695  1.00  0.00     0.173 A 
ATOM     78  C   UNL A   1      40.757  31.041  34.644  1.00  0.00     0.173 A 
ATOM     79  F   UNL A   1      42.356  31.738  37.808  1.00  0.00    -0.203 F 
ATOM     80  C   UNL A   1      40.764  32.953  36.607  1.00  0.00     0.198 A 
ATOM     81  C   UNL A   1      39.954  32.195  34.523  1.00  0.00     0.198 A 
ATOM     82  F   UNL A   1      40.478  30.109  33.725  1.00  0.00    -0.203 F 
ATOM     83  F   UNL A   1      40.728  33.842  37.609  1.00  0.00    -0.200 F 
ATOM     84  C   UNL A   1      39.967  33.159  35.501  1.00  0.00     0.200 A 
ATOM     85  F   UNL A   1      39.156  32.346  33.454  1.00  0.00    -0.200 F 
ATOM     86  F   UNL A   1      39.197  34.253  35.393  1.00  0.00    -0.200 F 
ENDBRANCH  62  76
BRANCH  63  87
ATOM     87  C   UNL A   1      46.790  22.296  34.315  1.00  0.00     0.064 A 
ATOM     88  C   UNL A   1      48.057  22.930  34.357  1.00  0.00     0.173 A 
ATOM     89  C   UNL A   1      46.781  20.893  34.347  1.00  0.00     0.173 A 
ATOM     90  F   UNL A   1      48.134  24.268  34.260  1.00  0.00    -0.203 F 
ATOM     91  C   UNL A   1      49.200  22.228  34.740  1.00  0.00     0.198 A 
ATOM     92  C   UNL A   1      47.944  20.188  34.681  1.00  0.00     0.198 A 
ATOM     93  F   UNL A   1      45.618  20.228  34.300  1.00  0.00    -0.203 F 
ATOM     94  F   UNL A   1      50.334  22.892  35.011  1.00  0.00    -0.200 F 
ATOM     95  C   UNL A   1      49.126  20.865  34.960  1.00  0.00     0.200 A 
ATOM     96  F   UNL A   1      47.889  18.860  34.854  1.00  0.00    -0.200 F 
ATOM     97  F   UNL A   1      50.167  20.211  35.498  1.00  0.00    -0.200 F 
ENDBRANCH  63  87
BRANCH  75  98
ATOM     98  C   UNL A   1      44.988  27.175  39.594  1.00  0.00     0.064 A 
ATOM     99  C   UNL A   1      45.651  28.386  39.355  1.00  0.00     0.173 A 
ATOM    100  C   UNL A   1      44.652  26.967  40.974  1.00  0.00     0.173 A 
ATOM    101  F   UNL A   1      45.915  28.809  38.115  1.00  0.00    -0.203 F 
ATOM    102  C   UNL A   1      46.031  29.251  40.390  1.00  0.00     0.198 A 
ATOM    103  C   UNL A   1      44.932  27.887  41.984  1.00  0.00     0.198 A 
ATOM    104  F   UNL A   1      43.996  25.880  41.405  1.00  0.00    -0.203 F 
ATOM    105  F   UNL A   1      46.746  30.345  40.096  1.00  0.00    -0.200 F 
ATOM    106  C   UNL A   1      45.665  29.009  41.698  1.00  0.00     0.200 A 
ATOM    107  F   UNL A   1      44.476  27.673  43.228  1.00  0.00    -0.200 F 
ATOM    108  F   UNL A   1      46.013  29.856  42.676  1.00  0.00    -0.200 F 
ENDBRANCH  75  98
ENDBRANCH  49  50
ENDBRANCH  42  44
ENDBRANCH  41  42
ENDBRANCH  40  41
ENDBRANCH  39  40
ENDBRANCH  38  39
ENDBRANCH  37  38
ENDBRANCH  36  37
ENDBRANCH   1  36
TORSDOF 23
ENDMDL
MODEL 2
REMARK VINA RESULT:     -12.0      6.301     11.447
REMARK SMILES Cc1ccc(C2=NN(C(=O)CCC(=O)OCCOCCOCCOC(=O)c3ccc(-c4c5nc(c(-c6c(F)c(F)c(F)c(F)c6F)c6ccc([nH]6)c(-c6c(F)c(F)c(F)c(F)c6F)c6nc(c(-c7c(F)c(F)c(F)c(F)c7F)c7ccc4[nH]7)C=C6)C=C5)cc3)[C@H](C[C@@H]3C=c4cccc(C)c4=NC3=O)C2)cc1
REMARK SMILES IDX 18 1 17 2 16 3 15 4 13 5 14 6 12 7 11 8 9 9 10 10 8 11 6 12
REMARK SMILES IDX 7 13 104 14 90 15 5 16 1 17 2 18 3 19 106 20 4 21 105 22
REMARK SMILES IDX 91 23 92 24 93 25 102 26 94 27 101 28 103 29 95 30 100 31
REMARK SMILES IDX 96 32 98 33 97 34 99 35 19 36 20 37 21 38 22 39 23 40 24 41
REMARK SMILES IDX 25 42 26 43 27 44 28 45 89 46 29 47 88 48 30 49 31 50 32 51
REMARK SMILES IDX 82 52 33 53 87 54 81 55 83 56 34 57 86 58 80 59 79 60 35 62
REMARK SMILES IDX 67 63 47 64 66 65 48 66 51 67 65 68 84 69 49 70 50 71 64 73
REMARK SMILES IDX 85 74 52 75 36 76 37 77 45 78 38 79 39 80 43 81 46 82 40 83
REMARK SMILES IDX 41 84 44 85 42 86 68 87 69 88 77 89 70 90 71 91 75 92 78 93
REMARK SMILES IDX 72 94 73 95 76 96 74 97 53 98 54 99 62 100 55 101 56 102
REMARK SMILES IDX 60 103 63 104 57 105 58 106 61 107 59 108
REMARK H PARENT 83 61 51 72
REMARK Flexibility Score: inf
ROOT
ATOM      1  O   UNL A   1      33.383  23.816  26.255  1.00  0.00    -0.376 OA
ENDROOT
BRANCH   1   2
ATOM      2  C   UNL A   1      34.067  23.034  27.258  1.00  0.00     0.202 C 
BRANCH   2   3
ATOM      3  C   UNL A   1      35.197  21.845  26.838  1.00  0.00     0.261 C 
BRANCH   3   4
ATOM      4  O   UNL A   1      36.738  22.003  26.536  1.00  0.00    -0.463 OA
BRANCH   4   5
ATOM      5  C   UNL A   1      37.060  23.054  25.741  1.00  0.00     0.306 C 
ATOM      6  O   UNL A   1      37.534  23.948  26.441  1.00  0.00    -0.252 OA
BRANCH   5   7
ATOM      7  C   UNL A   1      37.020  23.174  23.831  1.00  0.00     0.132 C 
BRANCH   7   8
ATOM      8  C   UNL A   1      35.965  22.722  22.870  1.00  0.00     0.114 C 
BRANCH   8   9
ATOM      9  C   UNL A   1      34.560  23.209  22.968  1.00  0.00     0.243 C 
ATOM     10  O   UNL A   1      34.408  24.374  22.566  1.00  0.00    -0.273 OA
BRANCH   9  11
ATOM     11  N   UNL A   1      33.523  22.514  23.579  1.00  0.00    -0.230 N 
ATOM     12  C   UNL A   1      33.103  20.541  24.321  1.00  0.00     0.070 C 
ATOM     13  N   UNL A   1      34.026  21.271  23.819  1.00  0.00    -0.174 NA
ATOM     14  C   UNL A   1      31.799  21.191  24.679  1.00  0.00     0.086 C 
ATOM     15  C   UNL A   1      31.913  22.406  23.757  1.00  0.00     0.118 C 
BRANCH  12  16
ATOM     16  C   UNL A   1      33.402  19.173  24.637  1.00  0.00    -0.002 A 
ATOM     17  C   UNL A   1      33.831  15.038  25.355  1.00  0.00     0.044 C 
ATOM     18  C   UNL A   1      33.733  16.518  25.177  1.00  0.00    -0.051 A 
ATOM     19  C   UNL A   1      32.488  17.123  25.401  1.00  0.00     0.004 A 
ATOM     20  C   UNL A   1      34.839  17.284  24.771  1.00  0.00     0.004 A 
ATOM     21  C   UNL A   1      32.326  18.466  25.149  1.00  0.00     0.010 A 
ATOM     22  C   UNL A   1      34.681  18.638  24.508  1.00  0.00     0.010 A 
ENDBRANCH  12  16
BRANCH  15  23
ATOM     23  C   UNL A   1      30.585  23.592  23.648  1.00  0.00     0.045 C 
BRANCH  23  24
ATOM     24  C   UNL A   1      30.220  25.226  22.751  1.00  0.00     0.106 C 
ATOM     25  C   UNL A   1      31.802  26.440  21.815  1.00  0.00    -0.003 C 
ATOM     26  C   UNL A   1      29.140  26.514  23.899  1.00  0.00     0.253 C 
ATOM     27  C   UNL A   1      32.151  27.792  22.295  1.00  0.00    -0.003 A 
ATOM     28  N   UNL A   1      29.861  28.102  24.143  1.00  0.00    -0.212 NA
ATOM     29  O   UNL A   1      27.985  26.296  24.248  1.00  0.00    -0.272 OA
ATOM     30  C   UNL A   1      33.567  28.106  22.244  1.00  0.00     0.010 A 
ATOM     31  C   UNL A   1      31.115  28.580  23.594  1.00  0.00     0.077 A 
ATOM     32  C   UNL A   1      34.109  28.927  23.141  1.00  0.00     0.001 A 
ATOM     33  C   UNL A   1      31.993  29.615  24.303  1.00  0.00    -0.025 A 
ATOM     34  C   UNL A   1      33.324  29.693  24.078  1.00  0.00     0.005 A 
ATOM     35  C   UNL A   1      31.398  30.406  25.418  1.00  0.00     0.047 C 
ENDBRANCH  23  24
ENDBRANCH  15  23
ENDBRANCH   9  11
ENDBRANCH   8   9
ENDBRANCH   7   8
ENDBRANCH   5   7
ENDBRANCH   4   5
ENDBRANCH   3   4
ENDBRANCH   2   3
ENDBRANCH   1   2
BRANCH   1  36
ATOM     36  C   UNL A   1      32.588  25.024  26.502  1.00  0.00     0.188 C 
BRANCH  36  37
ATOM     37  C   UNL A   1      32.755  26.508  25.962  1.00  0.00     0.188 C 
BRANCH  37  38
ATOM     38  O   UNL A   1      33.104  27.523  26.917  1.00  0.00    -0.376 OA
BRANCH  38  39
ATOM     39  C   UNL A   1      34.370  28.202  26.851  1.00  0.00     0.202 C 
BRANCH  39  40
ATOM     40  C   UNL A   1      34.257  29.618  27.560  1.00  0.00     0.261 C 
BRANCH  40  41
ATOM     41  O   UNL A   1      35.582  30.209  27.823  1.00  0.00    -0.460 OA
BRANCH  41  42
ATOM     42  C   UNL A   1      35.743  31.276  28.677  1.00  0.00     0.338 C 
ATOM     43  O   UNL A   1      35.014  32.245  28.625  1.00  0.00    -0.246 OA
BRANCH  42  44
ATOM     44  C   UNL A   1      37.176  30.970  29.592  1.00  0.00     0.060 A 
ATOM     45  C   UNL A   1      38.640  32.134  30.386  1.00  0.00     0.016 A 
ATOM     46  C   UNL A   1      37.626  29.485  29.080  1.00  0.00     0.016 A 
ATOM     47  C   UNL A   1      40.385  31.634  30.299  1.00  0.00     0.010 A 
ATOM     48  C   UNL A   1      39.390  29.288  29.012  1.00  0.00     0.010 A 
ATOM     49  C   UNL A   1      40.854  30.193  29.524  1.00  0.00    -0.014 A 
BRANCH  49  50
ATOM     50  C   UNL A   1      42.556  29.614  29.005  1.00  0.00     0.031 A 
ATOM     51  C   UNL A   1      43.323  27.929  28.687  1.00  0.00     0.074 A 
ATOM     52  C   UNL A   1      43.186  30.454  28.105  1.00  0.00     0.049 A 
ATOM     53  N   UNL A   1      44.606  27.540  28.679  1.00  0.00    -0.248 NA
ATOM     54  C   UNL A   1      42.694  26.515  28.272  1.00  0.00     0.031 C 
ATOM     55  C   UNL A   1      43.931  29.958  26.917  1.00  0.00     0.029 A 
ATOM     56  N   UNL A   1      43.062  31.825  27.785  1.00  0.00    -0.354 N 
ATOM     57  C   UNL A   1      44.566  26.117  28.300  1.00  0.00     0.074 A 
ATOM     58  C   UNL A   1      43.428  25.640  28.949  1.00  0.00     0.031 C 
ATOM     59  C   UNL A   1      44.340  30.971  26.138  1.00  0.00     0.029 A 
ATOM     60  C   UNL A   1      44.181  32.144  26.946  1.00  0.00     0.049 A 
ATOM     61  H   UNL A   1      42.350  32.439  28.077  1.00  0.00     0.167 HD
ATOM     62  C   UNL A   1      44.836  25.554  27.035  1.00  0.00     0.037 A 
ATOM     63  C   UNL A   1      45.260  32.852  27.411  1.00  0.00     0.037 A 
ATOM     64  C   UNL A   1      45.505  26.529  26.231  1.00  0.00     0.049 A 
ATOM     65  C   UNL A   1      46.545  32.023  27.462  1.00  0.00     0.074 A 
ATOM     66  C   UNL A   1      45.438  27.129  24.992  1.00  0.00     0.029 A 
ATOM     67  N   UNL A   1      46.432  27.223  26.941  1.00  0.00    -0.354 N 
ATOM     68  N   UNL A   1      46.539  30.721  27.322  1.00  0.00    -0.248 NA
ATOM     69  C   UNL A   1      47.917  32.514  27.577  1.00  0.00     0.031 C 
ATOM     70  C   UNL A   1      46.378  28.227  25.021  1.00  0.00     0.029 A 
ATOM     71  C   UNL A   1      47.018  28.219  26.252  1.00  0.00     0.049 A 
ATOM     72  H   UNL A   1      46.656  27.017  27.878  1.00  0.00     0.167 HD
ATOM     73  C   UNL A   1      47.802  30.218  27.269  1.00  0.00     0.074 A 
ATOM     74  C   UNL A   1      48.636  31.375  27.482  1.00  0.00     0.031 C 
ATOM     75  C   UNL A   1      48.047  28.900  27.012  1.00  0.00     0.037 A 
BRANCH  62  76
ATOM     76  C   UNL A   1      44.380  24.142  26.469  1.00  0.00     0.064 A 
ATOM     77  C   UNL A   1      45.354  23.130  26.297  1.00  0.00     0.173 A 
ATOM     78  C   UNL A   1      43.076  23.703  26.087  1.00  0.00     0.173 A 
ATOM     79  F   UNL A   1      46.651  23.395  26.501  1.00  0.00    -0.203 F 
ATOM     80  C   UNL A   1      45.046  21.808  25.904  1.00  0.00     0.198 A 
ATOM     81  C   UNL A   1      42.757  22.369  25.759  1.00  0.00     0.198 A 
ATOM     82  F   UNL A   1      42.048  24.544  25.920  1.00  0.00    -0.203 F 
ATOM     83  F   UNL A   1      46.030  20.911  25.750  1.00  0.00    -0.200 F 
ATOM     84  C   UNL A   1      43.743  21.415  25.679  1.00  0.00     0.200 A 
ATOM     85  F   UNL A   1      41.484  22.027  25.504  1.00  0.00    -0.200 F 
ATOM     86  F   UNL A   1      43.444  20.148  25.358  1.00  0.00    -0.200 F 
ENDBRANCH  62  76
BRANCH  63  87
ATOM     87  C   UNL A   1      44.779  34.013  28.221  1.00  0.00     0.064 A 
ATOM     88  C   UNL A   1      44.046  34.968  27.473  1.00  0.00     0.173 A 
ATOM     89  C   UNL A   1      44.351  33.771  29.535  1.00  0.00     0.173 A 
ATOM     90  F   UNL A   1      44.449  35.292  26.233  1.00  0.00    -0.203 F 
ATOM     91  C   UNL A   1      42.786  35.396  27.892  1.00  0.00     0.198 A 
ATOM     92  C   UNL A   1      43.108  34.248  29.970  1.00  0.00     0.198 A 
ATOM     93  F   UNL A   1      45.005  32.888  30.302  1.00  0.00    -0.203 F 
ATOM     94  F   UNL A   1      42.007  36.103  27.058  1.00  0.00    -0.200 F 
ATOM     95  C   UNL A   1      42.294  34.984  29.117  1.00  0.00     0.200 A 
ATOM     96  F   UNL A   1      42.644  33.887  31.175  1.00  0.00    -0.200 F 
ATOM     97  F   UNL A   1      41.021  35.241  29.454  1.00  0.00    -0.200 F 
ENDBRANCH  63  87
BRANCH  75  98
ATOM     98  C   UNL A   1      49.141  28.045  27.693  1.00  0.00     0.064 A 
ATOM     99  C   UNL A   1      49.252  27.893  29.082  1.00  0.00     0.173 A 
ATOM    100  C   UNL A   1      50.006  27.174  26.949  1.00  0.00     0.173 A 
ATOM    101  F   UNL A   1      48.427  28.520  29.925  1.00  0.00    -0.203 F 
ATOM    102  C   UNL A   1      50.195  27.040  29.670  1.00  0.00     0.198 A 
ATOM    103  C   UNL A   1      50.861  26.244  27.541  1.00  0.00     0.198 A 
ATOM    104  F   UNL A   1      50.033  27.150  25.609  1.00  0.00    -0.203 F 
ATOM    105  F   UNL A   1      50.310  27.016  31.004  1.00  0.00    -0.200 F 
ATOM    106  C   UNL A   1      50.990  26.211  28.905  1.00  0.00     0.200 A 
ATOM    107  F   UNL A   1      51.546  25.382  26.773  1.00  0.00    -0.200 F 
ATOM    108  F   UNL A   1      51.871  25.382  29.480  1.00  0.00    -0.200 F 
ENDBRANCH  75  98
ENDBRANCH  49  50
ENDBRANCH  42  44
ENDBRANCH  41  42
ENDBRANCH  40  41
ENDBRANCH  39  40
ENDBRANCH  38  39
ENDBRANCH  37  38
ENDBRANCH  36  37
ENDBRANCH   1  36
TORSDOF 23
ENDMDL
MODEL 3
REMARK VINA RESULT:     -11.6      5.207      9.540
REMARK SMILES Cc1ccc(C2=NN(C(=O)CCC(=O)OCCOCCOCCOC(=O)c3ccc(-c4c5nc(c(-c6c(F)c(F)c(F)c(F)c6F)c6ccc([nH]6)c(-c6c(F)c(F)c(F)c(F)c6F)c6nc(c(-c7c(F)c(F)c(F)c(F)c7F)c7ccc4[nH]7)C=C6)C=C5)cc3)[C@H](C[C@@H]3C=c4cccc(C)c4=NC3=O)C2)cc1
REMARK SMILES IDX 18 1 17 2 16 3 15 4 13 5 14 6 12 7 11 8 9 9 10 10 8 11 6 12
REMARK SMILES IDX 7 13 104 14 90 15 5 16 1 17 2 18 3 19 106 20 4 21 105 22
REMARK SMILES IDX 91 23 92 24 93 25 102 26 94 27 101 28 103 29 95 30 100 31
REMARK SMILES IDX 96 32 98 33 97 34 99 35 19 36 20 37 21 38 22 39 23 40 24 41
REMARK SMILES IDX 25 42 26 43 27 44 28 45 89 46 29 47 88 48 30 49 31 50 32 51
REMARK SMILES IDX 82 52 33 53 87 54 81 55 83 56 34 57 86 58 80 59 79 60 35 62
REMARK SMILES IDX 67 63 47 64 66 65 48 66 51 67 65 68 84 69 49 70 50 71 64 73
REMARK SMILES IDX 85 74 52 75 36 76 37 77 45 78 38 79 39 80 43 81 46 82 40 83
REMARK SMILES IDX 41 84 44 85 42 86 68 87 69 88 77 89 70 90 71 91 75 92 78 93
REMARK SMILES IDX 72 94 73 95 76 96 74 97 53 98 54 99 62 100 55 101 56 102
REMARK SMILES IDX 60 103 63 104 57 105 58 106 61 107 59 108
REMARK H PARENT 83 61 51 72
REMARK Flexibility Score: inf
ROOT
ATOM      1  O   UNL A   1      31.542  24.372  27.094  1.00  0.00    -0.376 OA
ENDROOT
BRANCH   1   2
ATOM      2  C   UNL A   1      32.144  23.098  26.777  1.00  0.00     0.202 C 
BRANCH   2   3
ATOM      3  C   UNL A   1      31.500  22.084  25.582  1.00  0.00     0.261 C 
BRANCH   3   4
ATOM      4  O   UNL A   1      32.195  21.512  24.286  1.00  0.00    -0.463 OA
BRANCH   4   5
ATOM      5  C   UNL A   1      32.754  20.284  24.431  1.00  0.00     0.306 C 
ATOM      6  O   UNL A   1      32.122  19.479  23.748  1.00  0.00    -0.252 OA
BRANCH   5   7
ATOM      7  C   UNL A   1      34.361  19.796  25.348  1.00  0.00     0.132 C 
BRANCH   7   8
ATOM      8  C   UNL A   1      35.675  19.341  24.794  1.00  0.00     0.114 C 
BRANCH   8   9
ATOM      9  C   UNL A   1      36.918  20.142  24.975  1.00  0.00     0.243 C 
ATOM     10  O   UNL A   1      37.955  19.458  24.976  1.00  0.00    -0.273 OA
BRANCH   9  11
ATOM     11  N   UNL A   1      36.948  21.501  25.264  1.00  0.00    -0.230 N 
ATOM     12  C   UNL A   1      35.903  23.301  24.726  1.00  0.00     0.070 C 
ATOM     13  N   UNL A   1      35.904  22.031  24.568  1.00  0.00    -0.174 NA
ATOM     14  C   UNL A   1      36.872  23.895  25.707  1.00  0.00     0.086 C 
ATOM     15  C   UNL A   1      37.883  22.746  25.721  1.00  0.00     0.118 C 
BRANCH  12  16
ATOM     16  C   UNL A   1      34.896  24.078  24.062  1.00  0.00    -0.002 A 
ATOM     17  C   UNL A   1      31.692  25.921  22.028  1.00  0.00     0.044 C 
ATOM     18  C   UNL A   1      32.882  25.339  22.718  1.00  0.00    -0.051 A 
ATOM     19  C   UNL A   1      33.408  24.139  22.218  1.00  0.00     0.004 A 
ATOM     20  C   UNL A   1      33.447  25.951  23.850  1.00  0.00     0.004 A 
ATOM     21  C   UNL A   1      34.437  23.514  22.882  1.00  0.00     0.010 A 
ATOM     22  C   UNL A   1      34.481  25.322  24.531  1.00  0.00     0.010 A 
ENDBRANCH  12  16
BRANCH  15  23
ATOM     23  C   UNL A   1      39.383  22.867  26.679  1.00  0.00     0.045 C 
BRANCH  23  24
ATOM     24  C   UNL A   1      41.207  23.316  26.399  1.00  0.00     0.106 C 
ATOM     25  C   UNL A   1      42.819  22.583  27.709  1.00  0.00    -0.003 C 
ATOM     26  C   UNL A   1      41.494  25.325  26.238  1.00  0.00     0.253 C 
ATOM     27  C   UNL A   1      43.630  23.487  28.548  1.00  0.00    -0.003 A 
ATOM     28  N   UNL A   1      42.655  26.018  27.366  1.00  0.00    -0.212 NA
ATOM     29  O   UNL A   1      41.052  25.995  25.312  1.00  0.00    -0.272 OA
ATOM     30  C   UNL A   1      43.985  22.951  29.848  1.00  0.00     0.010 A 
ATOM     31  C   UNL A   1      43.431  25.306  28.362  1.00  0.00     0.077 A 
ATOM     32  C   UNL A   1      44.133  23.762  30.895  1.00  0.00     0.001 A 
ATOM     33  C   UNL A   1      43.879  25.943  29.680  1.00  0.00    -0.025 A 
ATOM     34  C   UNL A   1      44.144  25.199  30.777  1.00  0.00     0.005 A 
ATOM     35  C   UNL A   1      43.813  27.427  29.809  1.00  0.00     0.047 C 
ENDBRANCH  23  24
ENDBRANCH  15  23
ENDBRANCH   9  11
ENDBRANCH   8   9
ENDBRANCH   7   8
ENDBRANCH   5   7
ENDBRANCH   4   5
ENDBRANCH   3   4
ENDBRANCH   2   3
ENDBRANCH   1   2
BRANCH   1  36
ATOM     36  C   UNL A   1      30.660  25.148  26.217  1.00  0.00     0.188 C 
BRANCH  36  37
ATOM     37  C   UNL A   1      30.608  26.704  25.905  1.00  0.00     0.188 C 
BRANCH  37  38
ATOM     38  O   UNL A   1      31.464  27.562  26.677  1.00  0.00    -0.376 OA
BRANCH  38  39
ATOM     39  C   UNL A   1      32.559  28.266  26.064  1.00  0.00     0.202 C 
BRANCH  39  40
ATOM     40  C   UNL A   1      32.441  29.818  26.378  1.00  0.00     0.261 C 
BRANCH  40  41
ATOM     41  O   UNL A   1      33.236  30.201  27.559  1.00  0.00    -0.460 OA
BRANCH  41  42
ATOM     42  C   UNL A   1      34.610  30.257  27.520  1.00  0.00     0.338 C 
ATOM     43  O   UNL A   1      35.269  29.343  27.069  1.00  0.00    -0.246 OA
BRANCH  42  44
ATOM     44  C   UNL A   1      35.073  31.706  28.339  1.00  0.00     0.060 A 
ATOM     45  C   UNL A   1      36.250  33.296  27.873  1.00  0.00     0.016 A 
ATOM     46  C   UNL A   1      35.036  31.266  29.912  1.00  0.00     0.016 A 
ATOM     47  C   UNL A   1      37.377  34.019  29.101  1.00  0.00     0.010 A 
ATOM     48  C   UNL A   1      36.297  32.062  30.876  1.00  0.00     0.010 A 
ATOM     49  C   UNL A   1      37.508  33.371  30.669  1.00  0.00    -0.014 A 
BRANCH  49  50
ATOM     50  C   UNL A   1      38.792  33.692  31.992  1.00  0.00     0.031 A 
ATOM     51  C   UNL A   1      38.716  33.975  33.847  1.00  0.00     0.074 A 
ATOM     52  C   UNL A   1      39.983  33.017  31.796  1.00  0.00     0.049 A 
ATOM     53  N   UNL A   1      39.592  34.554  34.680  1.00  0.00    -0.248 NA
ATOM     54  C   UNL A   1      37.645  33.554  34.962  1.00  0.00     0.031 C 
ATOM     55  C   UNL A   1      40.716  32.330  32.893  1.00  0.00     0.029 A 
ATOM     56  N   UNL A   1      40.632  32.472  30.664  1.00  0.00    -0.354 N 
ATOM     57  C   UNL A   1      38.992  34.411  36.018  1.00  0.00     0.074 A 
ATOM     58  C   UNL A   1      37.630  34.596  35.785  1.00  0.00     0.031 C 
ATOM     59  C   UNL A   1      41.772  31.646  32.423  1.00  0.00     0.029 A 
ATOM     60  C   UNL A   1      41.959  32.131  31.088  1.00  0.00     0.049 A 
ATOM     61  H   UNL A   1      40.250  32.350  29.765  1.00  0.00     0.167 HD
ATOM     62  C   UNL A   1      39.324  33.469  37.015  1.00  0.00     0.037 A 
ATOM     63  C   UNL A   1      43.050  32.888  30.741  1.00  0.00     0.037 A 
ATOM     64  C   UNL A   1      40.583  32.875  36.686  1.00  0.00     0.049 A 
ATOM     65  C   UNL A   1      43.700  33.587  31.937  1.00  0.00     0.074 A 
ATOM     66  C   UNL A   1      41.184  31.644  36.538  1.00  0.00     0.029 A 
ATOM     67  N   UNL A   1      41.469  33.792  36.215  1.00  0.00    -0.354 N 
ATOM     68  N   UNL A   1      43.114  33.654  33.106  1.00  0.00    -0.248 NA
ATOM     69  C   UNL A   1      45.033  34.182  32.003  1.00  0.00     0.031 C 
ATOM     70  C   UNL A   1      42.477  31.893  35.940  1.00  0.00     0.029 A 
ATOM     71  C   UNL A   1      42.634  33.264  35.799  1.00  0.00     0.049 A 
ATOM     72  H   UNL A   1      41.274  34.756  36.179  1.00  0.00     0.167 HD
ATOM     73  C   UNL A   1      43.934  34.202  34.045  1.00  0.00     0.074 A 
ATOM     74  C   UNL A   1      45.111  34.563  33.296  1.00  0.00     0.031 C 
ATOM     75  C   UNL A   1      43.582  34.269  35.362  1.00  0.00     0.037 A 
BRANCH  62  76
ATOM     76  C   UNL A   1      38.442  32.985  38.243  1.00  0.00     0.064 A 
ATOM     77  C   UNL A   1      37.718  31.774  38.128  1.00  0.00     0.173 A 
ATOM     78  C   UNL A   1      38.250  33.606  39.515  1.00  0.00     0.173 A 
ATOM     79  F   UNL A   1      37.691  31.108  36.965  1.00  0.00    -0.203 F 
ATOM     80  C   UNL A   1      36.990  31.195  39.191  1.00  0.00     0.198 A 
ATOM     81  C   UNL A   1      37.580  32.997  40.597  1.00  0.00     0.198 A 
ATOM     82  F   UNL A   1      38.619  34.867  39.769  1.00  0.00    -0.203 F 
ATOM     83  F   UNL A   1      36.320  30.050  38.995  1.00  0.00    -0.200 F 
ATOM     84  C   UNL A   1      36.958  31.783  40.438  1.00  0.00     0.200 A 
ATOM     85  F   UNL A   1      37.530  33.616  41.788  1.00  0.00    -0.200 F 
ATOM     86  F   UNL A   1      36.310  31.207  41.462  1.00  0.00    -0.200 F 
ENDBRANCH  62  76
BRANCH  63  87
ATOM     87  C   UNL A   1      42.966  33.243  29.292  1.00  0.00     0.064 A 
ATOM     88  C   UNL A   1      42.735  34.621  29.053  1.00  0.00     0.173 A 
ATOM     89  C   UNL A   1      43.817  32.578  28.396  1.00  0.00     0.173 A 
ATOM     90  F   UNL A   1      41.876  35.296  29.835  1.00  0.00    -0.203 F 
ATOM     91  C   UNL A   1      43.554  35.348  28.188  1.00  0.00     0.198 A 
ATOM     92  C   UNL A   1      44.599  33.308  27.493  1.00  0.00     0.198 A 
ATOM     93  F   UNL A   1      44.071  31.272  28.557  1.00  0.00    -0.203 F 
ATOM     94  F   UNL A   1      43.478  36.688  28.163  1.00  0.00    -0.200 F 
ATOM     95  C   UNL A   1      44.527  34.696  27.454  1.00  0.00     0.200 A 
ATOM     96  F   UNL A   1      45.515  32.676  26.745  1.00  0.00    -0.200 F 
ATOM     97  F   UNL A   1      45.432  35.400  26.758  1.00  0.00    -0.200 F 
ENDBRANCH  63  87
BRANCH  75  98
ATOM     98  C   UNL A   1      43.874  35.460  36.305  1.00  0.00     0.064 A 
ATOM     99  C   UNL A   1      44.536  35.331  37.533  1.00  0.00     0.173 A 
ATOM    100  C   UNL A   1      43.671  36.823  35.901  1.00  0.00     0.173 A 
ATOM    101  F   UNL A   1      44.933  34.142  37.995  1.00  0.00    -0.203 F 
ATOM    102  C   UNL A   1      44.870  36.438  38.325  1.00  0.00     0.198 A 
ATOM    103  C   UNL A   1      44.108  37.921  36.642  1.00  0.00     0.198 A 
ATOM    104  F   UNL A   1      43.076  37.158  34.748  1.00  0.00    -0.203 F 
ATOM    105  F   UNL A   1      45.416  36.235  39.531  1.00  0.00    -0.200 F 
ATOM    106  C   UNL A   1      44.667  37.728  37.879  1.00  0.00     0.200 A 
ATOM    107  F   UNL A   1      43.989  39.159  36.138  1.00  0.00    -0.200 F 
ATOM    108  F   UNL A   1      45.013  38.778  38.636  1.00  0.00    -0.200 F 
ENDBRANCH  75  98
ENDBRANCH  49  50
ENDBRANCH  42  44
ENDBRANCH  41  42
ENDBRANCH  40  41
ENDBRANCH  39  40
ENDBRANCH  38  39
ENDBRANCH  37  38
ENDBRANCH  36  37
ENDBRANCH   1  36
TORSDOF 23
ENDMDL
