MODEL 1
REMARK VINA RESULT:     -11.2      0.000      0.000
REMARK SMILES C[C@H]1[C@@H](C(=O)OCCOCCOCCOC(=O)c2ccc(-c3c4nc(c(-c5c(F)c(F)c(F)c(F)c5F)c5ccc([nH]5)c(-c5c(F)c(F)c(F)c(F)c5F)c5nc(c(-c6c(F)c(F)c(F)c(F)c6F)c6ccc3[nH]6)C=C5)C=C4)cc2)CCN1C(=O)NC1CCCCC1
REMARK SMILES IDX 10 1 9 2 8 3 7 4 6 5 4 6 5 7 3 8 1 9 2 10 83 11 81 12 82 13
REMARK SMILES IDX 84 14 85 15 86 16 87 18 88 19 92 20 89 21 91 22 90 23 11 24
REMARK SMILES IDX 12 25 13 26 14 27 15 28 16 29 17 30 18 31 19 32 80 33 20 34
REMARK SMILES IDX 79 35 21 36 22 37 23 38 73 39 24 40 78 41 72 42 74 43 25 44
REMARK SMILES IDX 77 45 71 46 70 47 26 49 58 50 38 51 57 52 39 53 42 54 56 55
REMARK SMILES IDX 75 56 40 57 41 58 55 60 76 61 43 62 27 63 28 64 36 65 29 66
REMARK SMILES IDX 30 67 34 68 37 69 31 70 32 71 35 72 33 73 59 74 60 75 68 76
REMARK SMILES IDX 61 77 62 78 66 79 69 80 63 81 64 82 67 83 65 84 44 85 45 86
REMARK SMILES IDX 53 87 46 88 47 89 51 90 54 91 48 92 49 93 52 94 50 95
REMARK H PARENT 86 17 74 48 42 59
REMARK Flexibility Score: inf
ROOT
ATOM      1  C   UNL A   1      34.108  32.918  29.055  1.00  0.00     0.188 C 
ENDROOT
BRANCH   1   2
ATOM      2  O   UNL A   1      34.614  31.693  28.558  1.00  0.00    -0.376 OA
BRANCH   2   3
ATOM      3  C   UNL A   1      34.153  31.189  27.311  1.00  0.00     0.202 C 
BRANCH   3   4
ATOM      4  C   UNL A   1      33.542  29.788  27.286  1.00  0.00     0.261 C 
BRANCH   4   5
ATOM      5  O   UNL A   1      33.969  29.066  26.122  1.00  0.00    -0.463 OA
BRANCH   5   6
ATOM      6  C   UNL A   1      33.096  28.878  25.112  1.00  0.00     0.311 C 
ATOM      7  O   UNL A   1      33.273  29.264  23.962  1.00  0.00    -0.252 OA
BRANCH   6   8
ATOM      8  C   UNL A   1      31.871  28.085  25.519  1.00  0.00     0.123 C 
ATOM      9  C   UNL A   1      33.284  25.851  26.003  1.00  0.00     0.032 C 
ATOM     10  C   UNL A   1      31.981  26.663  26.092  1.00  0.00     0.098 C 
ATOM     11  N   UNL A   1      30.834  25.907  25.612  1.00  0.00    -0.321 N 
ATOM     12  C   UNL A   1      30.775  28.017  24.458  1.00  0.00     0.039 C 
ATOM     13  C   UNL A   1      30.203  26.606  24.508  1.00  0.00     0.122 C 
BRANCH  11  14
ATOM     14  C   UNL A   1      30.296  24.717  26.005  1.00  0.00     0.317 C 
ATOM     15  O   UNL A   1      29.416  24.700  26.877  1.00  0.00    -0.249 OA
ATOM     16  N   UNL A   1      30.653  23.497  25.556  1.00  0.00    -0.335 N 
ATOM     17  H   UNL A   1      30.151  22.817  26.059  1.00  0.00     0.165 HD
BRANCH  16  18
ATOM     18  C   UNL A   1      31.534  22.806  24.575  1.00  0.00     0.083 C 
ATOM     19  C   UNL A   1      31.892  23.628  23.354  1.00  0.00     0.025 C 
ATOM     20  C   UNL A   1      32.844  22.350  25.253  1.00  0.00     0.025 C 
ATOM     21  C   UNL A   1      32.937  23.119  22.399  1.00  0.00     0.002 C 
ATOM     22  C   UNL A   1      33.857  21.773  24.252  1.00  0.00     0.002 C 
ATOM     23  C   UNL A   1      34.192  22.753  23.132  1.00  0.00     0.000 C 
ENDBRANCH  16  18
ENDBRANCH  11  14
ENDBRANCH   6   8
ENDBRANCH   5   6
ENDBRANCH   4   5
ENDBRANCH   3   4
ENDBRANCH   2   3
ENDBRANCH   1   2
BRANCH   1  24
ATOM     24  C   UNL A   1      33.281  33.846  28.151  1.00  0.00     0.188 C 
BRANCH  24  25
ATOM     25  O   UNL A   1      32.606  34.978  28.656  1.00  0.00    -0.376 OA
BRANCH  25  26
ATOM     26  C   UNL A   1      33.330  36.184  28.818  1.00  0.00     0.202 C 
BRANCH  26  27
ATOM     27  C   UNL A   1      33.170  36.971  30.124  1.00  0.00     0.261 C 
BRANCH  27  28
ATOM     28  O   UNL A   1      32.156  36.455  31.000  1.00  0.00    -0.460 OA
BRANCH  28  29
ATOM     29  C   UNL A   1      32.493  36.371  32.312  1.00  0.00     0.338 C 
ATOM     30  O   UNL A   1      31.928  36.891  33.261  1.00  0.00    -0.246 OA
BRANCH  29  31
ATOM     31  C   UNL A   1      33.561  35.363  32.461  1.00  0.00     0.060 A 
ATOM     32  C   UNL A   1      33.228  34.065  32.883  1.00  0.00     0.016 A 
ATOM     33  C   UNL A   1      34.884  35.704  32.195  1.00  0.00     0.016 A 
ATOM     34  C   UNL A   1      34.221  33.098  33.040  1.00  0.00     0.010 A 
ATOM     35  C   UNL A   1      35.881  34.751  32.396  1.00  0.00     0.010 A 
ATOM     36  C   UNL A   1      35.557  33.454  32.838  1.00  0.00    -0.014 A 
BRANCH  36  37
ATOM     37  C   UNL A   1      36.657  32.576  33.299  1.00  0.00     0.031 A 
ATOM     38  C   UNL A   1      37.269  32.878  34.635  1.00  0.00     0.074 A 
ATOM     39  C   UNL A   1      37.144  31.590  32.529  1.00  0.00     0.049 A 
ATOM     40  N   UNL A   1      38.397  32.465  35.148  1.00  0.00    -0.248 NA
ATOM     41  C   UNL A   1      36.505  33.789  35.504  1.00  0.00     0.031 C 
ATOM     42  C   UNL A   1      36.577  31.146  31.260  1.00  0.00     0.029 A 
ATOM     43  N   UNL A   1      38.260  30.808  32.697  1.00  0.00    -0.354 N 
ATOM     44  C   UNL A   1      38.496  33.093  36.382  1.00  0.00     0.074 A 
ATOM     45  C   UNL A   1      37.319  33.918  36.540  1.00  0.00     0.031 C 
ATOM     46  C   UNL A   1      37.373  30.194  30.740  1.00  0.00     0.029 A 
ATOM     47  C   UNL A   1      38.534  30.012  31.612  1.00  0.00     0.049 A 
ATOM     48  H   UNL A   1      38.809  30.816  33.515  1.00  0.00     0.167 HD
ATOM     49  C   UNL A   1      39.492  32.996  37.293  1.00  0.00     0.037 A 
ATOM     50  C   UNL A   1      39.626  29.272  31.334  1.00  0.00     0.037 A 
ATOM     51  C   UNL A   1      40.656  32.171  37.117  1.00  0.00     0.049 A 
ATOM     52  C   UNL A   1      40.773  29.255  32.319  1.00  0.00     0.074 A 
ATOM     53  C   UNL A   1      41.727  31.998  37.974  1.00  0.00     0.029 A 
ATOM     54  N   UNL A   1      40.902  31.387  35.999  1.00  0.00    -0.354 N 
ATOM     55  N   UNL A   1      40.882  29.864  33.475  1.00  0.00    -0.248 NA
ATOM     56  C   UNL A   1      41.953  28.457  31.953  1.00  0.00     0.031 C 
ATOM     57  C   UNL A   1      42.651  31.156  37.349  1.00  0.00     0.029 A 
ATOM     58  C   UNL A   1      42.121  30.746  36.135  1.00  0.00     0.049 A 
ATOM     59  H   UNL A   1      40.300  31.300  35.226  1.00  0.00     0.167 HD
ATOM     60  C   UNL A   1      42.116  29.488  33.993  1.00  0.00     0.074 A 
ATOM     61  C   UNL A   1      42.723  28.602  33.023  1.00  0.00     0.031 C 
ATOM     62  C   UNL A   1      42.690  29.839  35.170  1.00  0.00     0.037 A 
BRANCH  49  63
ATOM     63  C   UNL A   1      39.388  33.839  38.529  1.00  0.00     0.064 A 
ATOM     64  C   UNL A   1      39.948  35.122  38.603  1.00  0.00     0.173 A 
ATOM     65  C   UNL A   1      38.696  33.360  39.652  1.00  0.00     0.173 A 
ATOM     66  F   UNL A   1      40.633  35.621  37.563  1.00  0.00    -0.203 F 
ATOM     67  C   UNL A   1      39.842  35.884  39.765  1.00  0.00     0.198 A 
ATOM     68  C   UNL A   1      38.564  34.136  40.799  1.00  0.00     0.198 A 
ATOM     69  F   UNL A   1      38.142  32.138  39.636  1.00  0.00    -0.203 F 
ATOM     70  F   UNL A   1      40.430  37.086  39.831  1.00  0.00    -0.200 F 
ATOM     71  C   UNL A   1      39.144  35.393  40.858  1.00  0.00     0.200 A 
ATOM     72  F   UNL A   1      37.876  33.666  41.850  1.00  0.00    -0.200 F 
ATOM     73  F   UNL A   1      39.036  36.130  41.972  1.00  0.00    -0.200 F 
ENDBRANCH  49  63
BRANCH  50  74
ATOM     74  C   UNL A   1      39.715  28.520  30.054  1.00  0.00     0.064 A 
ATOM     75  C   UNL A   1      39.221  27.213  29.949  1.00  0.00     0.173 A 
ATOM     76  C   UNL A   1      40.317  29.080  28.916  1.00  0.00     0.173 A 
ATOM     77  F   UNL A   1      38.663  26.621  31.016  1.00  0.00    -0.203 F 
ATOM     78  C   UNL A   1      39.342  26.488  28.765  1.00  0.00     0.198 A 
ATOM     79  C   UNL A   1      40.409  28.366  27.723  1.00  0.00     0.198 A 
ATOM     80  F   UNL A   1      40.814  30.325  28.962  1.00  0.00    -0.203 F 
ATOM     81  F   UNL A   1      38.908  25.221  28.711  1.00  0.00    -0.200 F 
ATOM     82  C   UNL A   1      39.929  27.067  27.651  1.00  0.00     0.200 A 
ATOM     83  F   UNL A   1      40.968  28.934  26.646  1.00  0.00    -0.200 F 
ATOM     84  F   UNL A   1      40.044  26.370  26.512  1.00  0.00    -0.200 F 
ENDBRANCH  50  74
BRANCH  62  85
ATOM     85  C   UNL A   1      44.007  29.210  35.527  1.00  0.00     0.064 A 
ATOM     86  C   UNL A   1      45.230  29.820  35.219  1.00  0.00     0.173 A 
ATOM     87  C   UNL A   1      44.034  28.028  36.283  1.00  0.00     0.173 A 
ATOM     88  F   UNL A   1      45.260  30.945  34.487  1.00  0.00    -0.203 F 
ATOM     89  C   UNL A   1      46.433  29.265  35.650  1.00  0.00     0.198 A 
ATOM     90  C   UNL A   1      45.235  27.493  36.739  1.00  0.00     0.198 A 
ATOM     91  F   UNL A   1      42.889  27.410  36.613  1.00  0.00    -0.203 F 
ATOM     92  F   UNL A   1      47.594  29.849  35.322  1.00  0.00    -0.200 F 
ATOM     93  C   UNL A   1      46.434  28.111  36.420  1.00  0.00     0.200 A 
ATOM     94  F   UNL A   1      45.230  26.390  37.501  1.00  0.00    -0.200 F 
ATOM     95  F   UNL A   1      47.591  27.595  36.857  1.00  0.00    -0.200 F 
ENDBRANCH  62  85
ENDBRANCH  36  37
ENDBRANCH  29  31
ENDBRANCH  28  29
ENDBRANCH  27  28
ENDBRANCH  26  27
ENDBRANCH  25  26
ENDBRANCH  24  25
ENDBRANCH   1  24
TORSDOF 19
ENDMDL
MODEL 2
REMARK VINA RESULT:     -11.1      1.386      2.410
REMARK SMILES C[C@H]1[C@@H](C(=O)OCCOCCOCCOC(=O)c2ccc(-c3c4nc(c(-c5c(F)c(F)c(F)c(F)c5F)c5ccc([nH]5)c(-c5c(F)c(F)c(F)c(F)c5F)c5nc(c(-c6c(F)c(F)c(F)c(F)c6F)c6ccc3[nH]6)C=C5)C=C4)cc2)CCN1C(=O)NC1CCCCC1
REMARK SMILES IDX 10 1 9 2 8 3 7 4 6 5 4 6 5 7 3 8 1 9 2 10 83 11 81 12 82 13
REMARK SMILES IDX 84 14 85 15 86 16 87 18 88 19 92 20 89 21 91 22 90 23 11 24
REMARK SMILES IDX 12 25 13 26 14 27 15 28 16 29 17 30 18 31 19 32 80 33 20 34
REMARK SMILES IDX 79 35 21 36 22 37 23 38 73 39 24 40 78 41 72 42 74 43 25 44
REMARK SMILES IDX 77 45 71 46 70 47 26 49 58 50 38 51 57 52 39 53 42 54 56 55
REMARK SMILES IDX 75 56 40 57 41 58 55 60 76 61 43 62 27 63 28 64 36 65 29 66
REMARK SMILES IDX 30 67 34 68 37 69 31 70 32 71 35 72 33 73 59 74 60 75 68 76
REMARK SMILES IDX 61 77 62 78 66 79 69 80 63 81 64 82 67 83 65 84 44 85 45 86
REMARK SMILES IDX 53 87 46 88 47 89 51 90 54 91 48 92 49 93 52 94 50 95
REMARK H PARENT 86 17 74 48 42 59
REMARK Flexibility Score: inf
ROOT
ATOM      1  C   UNL A   1      35.430  32.113  28.157  1.00  0.00     0.188 C 
ENDROOT
BRANCH   1   2
ATOM      2  O   UNL A   1      35.409  30.747  28.527  1.00  0.00    -0.376 OA
BRANCH   2   3
ATOM      3  C   UNL A   1      35.358  29.741  27.523  1.00  0.00     0.202 C 
BRANCH   3   4
ATOM      4  C   UNL A   1      33.999  29.126  27.194  1.00  0.00     0.261 C 
BRANCH   4   5
ATOM      5  O   UNL A   1      33.326  29.887  26.180  1.00  0.00    -0.463 OA
BRANCH   5   6
ATOM      6  C   UNL A   1      32.339  29.304  25.471  1.00  0.00     0.311 C 
ATOM      7  O   UNL A   1      31.298  29.862  25.144  1.00  0.00    -0.252 OA
BRANCH   6   8
ATOM      8  C   UNL A   1      32.656  27.880  25.062  1.00  0.00     0.123 C 
ATOM      9  C   UNL A   1      33.834  28.637  22.767  1.00  0.00     0.032 C 
ATOM     10  C   UNL A   1      33.511  27.566  23.823  1.00  0.00     0.098 C 
ATOM     11  N   UNL A   1      32.983  26.351  23.221  1.00  0.00    -0.321 N 
ATOM     12  C   UNL A   1      31.442  26.959  24.966  1.00  0.00     0.039 C 
ATOM     13  C   UNL A   1      31.663  26.066  23.752  1.00  0.00     0.122 C 
BRANCH  11  14
ATOM     14  C   UNL A   1      33.495  25.495  22.292  1.00  0.00     0.317 C 
ATOM     15  O   UNL A   1      33.273  25.692  21.089  1.00  0.00    -0.249 OA
ATOM     16  N   UNL A   1      34.224  24.389  22.547  1.00  0.00    -0.335 N 
ATOM     17  H   UNL A   1      34.401  23.927  21.696  1.00  0.00     0.165 HD
BRANCH  16  18
ATOM     18  C   UNL A   1      34.854  23.613  23.649  1.00  0.00     0.083 C 
ATOM     19  C   UNL A   1      36.202  23.011  23.310  1.00  0.00     0.025 C 
ATOM     20  C   UNL A   1      35.018  24.495  24.905  1.00  0.00     0.025 C 
ATOM     21  C   UNL A   1      37.028  22.384  24.400  1.00  0.00     0.002 C 
ATOM     22  C   UNL A   1      35.808  23.791  26.021  1.00  0.00     0.002 C 
ATOM     23  C   UNL A   1      37.184  23.327  25.556  1.00  0.00     0.000 C 
ENDBRANCH  16  18
ENDBRANCH  11  14
ENDBRANCH   6   8
ENDBRANCH   5   6
ENDBRANCH   4   5
ENDBRANCH   3   4
ENDBRANCH   2   3
ENDBRANCH   1   2
BRANCH   1  24
ATOM     24  C   UNL A   1      34.133  32.938  28.138  1.00  0.00     0.188 C 
BRANCH  24  25
ATOM     25  O   UNL A   1      34.095  34.265  27.658  1.00  0.00    -0.376 OA
BRANCH  25  26
ATOM     26  C   UNL A   1      34.231  35.326  28.586  1.00  0.00     0.202 C 
BRANCH  26  27
ATOM     27  C   UNL A   1      32.969  35.900  29.240  1.00  0.00     0.261 C 
BRANCH  27  28
ATOM     28  O   UNL A   1      32.531  35.181  30.404  1.00  0.00    -0.460 OA
BRANCH  28  29
ATOM     29  C   UNL A   1      32.785  35.775  31.597  1.00  0.00     0.338 C 
ATOM     30  O   UNL A   1      32.148  36.665  32.138  1.00  0.00    -0.246 OA
BRANCH  29  31
ATOM     31  C   UNL A   1      33.867  35.031  32.272  1.00  0.00     0.060 A 
ATOM     32  C   UNL A   1      35.165  35.568  32.290  1.00  0.00     0.016 A 
ATOM     33  C   UNL A   1      33.600  33.804  32.874  1.00  0.00     0.016 A 
ATOM     34  C   UNL A   1      36.204  34.879  32.914  1.00  0.00     0.010 A 
ATOM     35  C   UNL A   1      34.647  33.094  33.457  1.00  0.00     0.010 A 
ATOM     36  C   UNL A   1      35.955  33.617  33.461  1.00  0.00    -0.014 A 
BRANCH  36  37
ATOM     37  C   UNL A   1      37.068  32.717  33.837  1.00  0.00     0.031 A 
ATOM     38  C   UNL A   1      37.753  32.974  35.147  1.00  0.00     0.074 A 
ATOM     39  C   UNL A   1      37.504  31.750  33.014  1.00  0.00     0.049 A 
ATOM     40  N   UNL A   1      38.902  32.535  35.588  1.00  0.00    -0.248 NA
ATOM     41  C   UNL A   1      37.045  33.865  36.081  1.00  0.00     0.031 C 
ATOM     42  C   UNL A   1      36.867  31.349  31.764  1.00  0.00     0.029 A 
ATOM     43  N   UNL A   1      38.620  30.954  33.100  1.00  0.00    -0.354 N 
ATOM     44  C   UNL A   1      39.073  33.126  36.832  1.00  0.00     0.074 A 
ATOM     45  C   UNL A   1      37.914  33.955  37.077  1.00  0.00     0.031 C 
ATOM     46  C   UNL A   1      37.625  30.406  31.176  1.00  0.00     0.029 A 
ATOM     47  C   UNL A   1      38.828  30.188  31.979  1.00  0.00     0.049 A 
ATOM     48  H   UNL A   1      39.211  30.933  33.887  1.00  0.00     0.167 HD
ATOM     49  C   UNL A   1      40.113  32.992  37.687  1.00  0.00     0.037 A 
ATOM     50  C   UNL A   1      39.897  29.447  31.622  1.00  0.00     0.037 A 
ATOM     51  C   UNL A   1      41.259  32.163  37.426  1.00  0.00     0.049 A 
ATOM     52  C   UNL A   1      41.093  29.391  32.544  1.00  0.00     0.074 A 
ATOM     53  C   UNL A   1      42.371  31.955  38.220  1.00  0.00     0.029 A 
ATOM     54  N   UNL A   1      41.437  31.411  36.273  1.00  0.00    -0.354 N 
ATOM     55  N   UNL A   1      41.269  29.964  33.710  1.00  0.00    -0.248 NA
ATOM     56  C   UNL A   1      42.244  28.594  32.094  1.00  0.00     0.031 C 
ATOM     57  C   UNL A   1      43.252  31.124  37.522  1.00  0.00     0.029 A 
ATOM     58  C   UNL A   1      42.655  30.755  36.326  1.00  0.00     0.049 A 
ATOM     59  H   UNL A   1      40.794  31.353  35.531  1.00  0.00     0.167 HD
ATOM     60  C   UNL A   1      42.524  29.563  34.151  1.00  0.00     0.074 A 
ATOM     61  C   UNL A   1      43.071  28.701  33.125  1.00  0.00     0.031 C 
ATOM     62  C   UNL A   1      43.164  29.873  35.306  1.00  0.00     0.037 A 
BRANCH  49  63
ATOM     63  C   UNL A   1      40.083  33.799  38.951  1.00  0.00     0.064 A 
ATOM     64  C   UNL A   1      39.456  33.335  40.116  1.00  0.00     0.173 A 
ATOM     65  C   UNL A   1      40.713  35.053  39.000  1.00  0.00     0.173 A 
ATOM     66  F   UNL A   1      38.826  32.151  40.117  1.00  0.00    -0.203 F 
ATOM     67  C   UNL A   1      39.437  34.107  41.275  1.00  0.00     0.198 A 
ATOM     68  C   UNL A   1      40.721  35.807  40.170  1.00  0.00     0.198 A 
ATOM     69  F   UNL A   1      41.327  35.545  37.914  1.00  0.00    -0.203 F 
ATOM     70  F   UNL A   1      38.787  33.666  42.361  1.00  0.00    -0.200 F 
ATOM     71  C   UNL A   1      40.077  35.337  41.303  1.00  0.00     0.200 A 
ATOM     72  F   UNL A   1      41.352  36.989  40.199  1.00  0.00    -0.200 F 
ATOM     73  F   UNL A   1      40.065  36.075  42.422  1.00  0.00    -0.200 F 
ENDBRANCH  49  63
BRANCH  50  74
ATOM     74  C   UNL A   1      39.911  28.733  30.317  1.00  0.00     0.064 A 
ATOM     75  C   UNL A   1      39.365  27.449  30.192  1.00  0.00     0.173 A 
ATOM     76  C   UNL A   1      40.490  29.307  29.175  1.00  0.00     0.173 A 
ATOM     77  F   UNL A   1      38.825  26.844  31.262  1.00  0.00    -0.203 F 
ATOM     78  C   UNL A   1      39.416  26.757  28.983  1.00  0.00     0.198 A 
ATOM     79  C   UNL A   1      40.511  28.628  27.958  1.00  0.00     0.198 A 
ATOM     80  F   UNL A   1      41.034  30.532  29.239  1.00  0.00    -0.203 F 
ATOM     81  F   UNL A   1      38.934  25.509  28.907  1.00  0.00    -0.200 F 
ATOM     82  C   UNL A   1      39.982  27.350  27.866  1.00  0.00     0.200 A 
ATOM     83  F   UNL A   1      41.051  29.210  26.878  1.00  0.00    -0.200 F 
ATOM     84  F   UNL A   1      40.029  26.686  26.702  1.00  0.00    -0.200 F 
ENDBRANCH  50  74
BRANCH  62  85
ATOM     85  C   UNL A   1      44.491  29.222  35.575  1.00  0.00     0.064 A 
ATOM     86  C   UNL A   1      44.595  27.983  36.220  1.00  0.00     0.173 A 
ATOM     87  C   UNL A   1      45.668  29.807  35.081  1.00  0.00     0.173 A 
ATOM     88  F   UNL A   1      43.501  27.388  36.722  1.00  0.00    -0.203 F 
ATOM     89  C   UNL A   1      45.830  27.356  36.367  1.00  0.00     0.198 A 
ATOM     90  C   UNL A   1      46.895  29.164  35.201  1.00  0.00     0.198 A 
ATOM     91  F   UNL A   1      45.620  30.989  34.446  1.00  0.00    -0.203 F 
ATOM     92  F   UNL A   1      45.912  26.183  37.011  1.00  0.00    -0.200 F 
ATOM     93  C   UNL A   1      46.976  27.939  35.846  1.00  0.00     0.200 A 
ATOM     94  F   UNL A   1      47.996  29.720  34.678  1.00  0.00    -0.200 F 
ATOM     95  F   UNL A   1      48.159  27.320  35.963  1.00  0.00    -0.200 F 
ENDBRANCH  62  85
ENDBRANCH  36  37
ENDBRANCH  29  31
ENDBRANCH  28  29
ENDBRANCH  27  28
ENDBRANCH  26  27
ENDBRANCH  25  26
ENDBRANCH  24  25
ENDBRANCH   1  24
TORSDOF 19
ENDMDL
MODEL 3
REMARK VINA RESULT:     -11.1      1.589      2.830
REMARK SMILES C[C@H]1[C@@H](C(=O)OCCOCCOCCOC(=O)c2ccc(-c3c4nc(c(-c5c(F)c(F)c(F)c(F)c5F)c5ccc([nH]5)c(-c5c(F)c(F)c(F)c(F)c5F)c5nc(c(-c6c(F)c(F)c(F)c(F)c6F)c6ccc3[nH]6)C=C5)C=C4)cc2)CCN1C(=O)NC1CCCCC1
REMARK SMILES IDX 10 1 9 2 8 3 7 4 6 5 4 6 5 7 3 8 1 9 2 10 83 11 81 12 82 13
REMARK SMILES IDX 84 14 85 15 86 16 87 18 88 19 92 20 89 21 91 22 90 23 11 24
REMARK SMILES IDX 12 25 13 26 14 27 15 28 16 29 17 30 18 31 19 32 80 33 20 34
REMARK SMILES IDX 79 35 21 36 22 37 23 38 73 39 24 40 78 41 72 42 74 43 25 44
REMARK SMILES IDX 77 45 71 46 70 47 26 49 58 50 38 51 57 52 39 53 42 54 56 55
REMARK SMILES IDX 75 56 40 57 41 58 55 60 76 61 43 62 27 63 28 64 36 65 29 66
REMARK SMILES IDX 30 67 34 68 37 69 31 70 32 71 35 72 33 73 59 74 60 75 68 76
REMARK SMILES IDX 61 77 62 78 66 79 69 80 63 81 64 82 67 83 65 84 44 85 45 86
REMARK SMILES IDX 53 87 46 88 47 89 51 90 54 91 48 92 49 93 52 94 50 95
REMARK H PARENT 86 17 74 48 42 59
REMARK Flexibility Score: inf
ROOT
ATOM      1  C   UNL A   1      33.199  32.208  27.979  1.00  0.00     0.188 C 
ENDROOT
BRANCH   1   2
ATOM      2  O   UNL A   1      34.057  31.233  27.416  1.00  0.00    -0.376 OA
BRANCH   2   3
ATOM      3  C   UNL A   1      33.555  29.939  27.108  1.00  0.00     0.202 C 
BRANCH   3   4
ATOM      4  C   UNL A   1      34.424  29.018  26.253  1.00  0.00     0.261 C 
BRANCH   4   5
ATOM      5  O   UNL A   1      34.109  27.641  26.503  1.00  0.00    -0.463 OA
BRANCH   5   6
ATOM      6  C   UNL A   1      33.746  26.854  25.471  1.00  0.00     0.311 C 
ATOM      7  O   UNL A   1      34.181  25.726  25.272  1.00  0.00    -0.252 OA
BRANCH   6   8
ATOM      8  C   UNL A   1      32.691  27.482  24.582  1.00  0.00     0.123 C 
ATOM      9  C   UNL A   1      30.659  26.578  26.090  1.00  0.00     0.032 C 
ATOM     10  C   UNL A   1      31.202  27.473  24.964  1.00  0.00     0.098 C 
ATOM     11  N   UNL A   1      30.435  27.328  23.736  1.00  0.00    -0.321 N 
ATOM     12  C   UNL A   1      32.743  27.039  23.122  1.00  0.00     0.039 C 
ATOM     13  C   UNL A   1      31.300  26.888  22.657  1.00  0.00     0.122 C 
BRANCH  11  14
ATOM     14  C   UNL A   1      29.114  27.520  23.456  1.00  0.00     0.317 C 
ATOM     15  O   UNL A   1      28.296  26.627  23.716  1.00  0.00    -0.249 OA
ATOM     16  N   UNL A   1      28.577  28.611  22.872  1.00  0.00    -0.335 N 
ATOM     17  H   UNL A   1      27.617  28.450  22.731  1.00  0.00     0.165 HD
BRANCH  16  18
ATOM     18  C   UNL A   1      28.911  29.967  22.361  1.00  0.00     0.083 C 
ATOM     19  C   UNL A   1      28.057  30.436  21.201  1.00  0.00     0.025 C 
ATOM     20  C   UNL A   1      28.808  31.012  23.492  1.00  0.00     0.025 C 
ATOM     21  C   UNL A   1      28.159  31.864  20.735  1.00  0.00     0.002 C 
ATOM     22  C   UNL A   1      28.987  32.452  22.986  1.00  0.00     0.002 C 
ATOM     23  C   UNL A   1      27.992  32.810  21.886  1.00  0.00     0.000 C 
ENDBRANCH  16  18
ENDBRANCH  11  14
ENDBRANCH   6   8
ENDBRANCH   5   6
ENDBRANCH   4   5
ENDBRANCH   3   4
ENDBRANCH   2   3
ENDBRANCH   1   2
BRANCH   1  24
ATOM     24  C   UNL A   1      33.730  33.606  28.332  1.00  0.00     0.188 C 
BRANCH  24  25
ATOM     25  O   UNL A   1      32.900  34.606  28.884  1.00  0.00    -0.376 OA
BRANCH  25  26
ATOM     26  C   UNL A   1      33.358  35.946  28.879  1.00  0.00     0.202 C 
BRANCH  26  27
ATOM     27  C   UNL A   1      32.859  36.900  29.971  1.00  0.00     0.261 C 
BRANCH  27  28
ATOM     28  O   UNL A   1      32.119  36.256  31.020  1.00  0.00    -0.460 OA
BRANCH  28  29
ATOM     29  C   UNL A   1      32.646  36.359  32.266  1.00  0.00     0.338 C 
ATOM     30  O   UNL A   1      32.229  37.026  33.200  1.00  0.00    -0.246 OA
BRANCH  29  31
ATOM     31  C   UNL A   1      33.723  35.358  32.406  1.00  0.00     0.060 A 
ATOM     32  C   UNL A   1      33.394  34.036  32.747  1.00  0.00     0.016 A 
ATOM     33  C   UNL A   1      35.051  35.730  32.212  1.00  0.00     0.016 A 
ATOM     34  C   UNL A   1      34.395  33.076  32.895  1.00  0.00     0.010 A 
ATOM     35  C   UNL A   1      36.054  34.782  32.404  1.00  0.00     0.010 A 
ATOM     36  C   UNL A   1      35.733  33.459  32.766  1.00  0.00    -0.014 A 
BRANCH  36  37
ATOM     37  C   UNL A   1      36.826  32.574  33.225  1.00  0.00     0.031 A 
ATOM     38  C   UNL A   1      37.445  32.874  34.558  1.00  0.00     0.074 A 
ATOM     39  C   UNL A   1      37.303  31.583  32.455  1.00  0.00     0.049 A 
ATOM     40  N   UNL A   1      38.571  32.452  35.069  1.00  0.00    -0.248 NA
ATOM     41  C   UNL A   1      36.691  33.792  35.427  1.00  0.00     0.031 C 
ATOM     42  C   UNL A   1      36.730  31.141  31.188  1.00  0.00     0.029 A 
ATOM     43  N   UNL A   1      38.414  30.792  32.621  1.00  0.00    -0.354 N 
ATOM     44  C   UNL A   1      38.679  33.082  36.301  1.00  0.00     0.074 A 
ATOM     45  C   UNL A   1      37.509  33.916  36.461  1.00  0.00     0.031 C 
ATOM     46  C   UNL A   1      37.516  30.182  30.668  1.00  0.00     0.029 A 
ATOM     47  C   UNL A   1      38.679  29.992  31.536  1.00  0.00     0.049 A 
ATOM     48  H   UNL A   1      38.966  30.798  33.437  1.00  0.00     0.167 HD
ATOM     49  C   UNL A   1      39.676  32.978  37.210  1.00  0.00     0.037 A 
ATOM     50  C   UNL A   1      39.764  29.243  31.257  1.00  0.00     0.037 A 
ATOM     51  C   UNL A   1      40.834  32.144  37.032  1.00  0.00     0.049 A 
ATOM     52  C   UNL A   1      40.913  29.218  32.238  1.00  0.00     0.074 A 
ATOM     53  C   UNL A   1      41.905  31.964  37.886  1.00  0.00     0.029 A 
ATOM     54  N   UNL A   1      41.070  31.356  35.914  1.00  0.00    -0.354 N 
ATOM     55  N   UNL A   1      41.031  29.829  33.393  1.00  0.00    -0.248 NA
ATOM     56  C   UNL A   1      42.086  28.411  31.871  1.00  0.00     0.031 C 
ATOM     57  C   UNL A   1      42.821  31.113  37.259  1.00  0.00     0.029 A 
ATOM     58  C   UNL A   1      42.284  30.705  36.047  1.00  0.00     0.049 A 
ATOM     59  H   UNL A   1      40.465  31.273  35.143  1.00  0.00     0.167 HD
ATOM     60  C   UNL A   1      42.263  29.444  33.908  1.00  0.00     0.074 A 
ATOM     61  C   UNL A   1      42.861  28.552  32.938  1.00  0.00     0.031 C 
ATOM     62  C   UNL A   1      42.844  29.792  35.083  1.00  0.00     0.037 A 
BRANCH  49  63
ATOM     63  C   UNL A   1      39.583  33.824  38.444  1.00  0.00     0.064 A 
ATOM     64  C   UNL A   1      40.197  35.082  38.532  1.00  0.00     0.173 A 
ATOM     65  C   UNL A   1      38.847  33.375  39.551  1.00  0.00     0.173 A 
ATOM     66  F   UNL A   1      40.925  35.551  37.509  1.00  0.00    -0.203 F 
ATOM     67  C   UNL A   1      40.099  35.846  39.693  1.00  0.00     0.198 A 
ATOM     68  C   UNL A   1      38.723  34.156  40.697  1.00  0.00     0.198 A 
ATOM     69  F   UNL A   1      38.239  32.179  39.521  1.00  0.00    -0.203 F 
ATOM     70  F   UNL A   1      40.738  37.022  39.774  1.00  0.00    -0.200 F 
ATOM     71  C   UNL A   1      39.356  35.386  40.770  1.00  0.00     0.200 A 
ATOM     72  F   UNL A   1      37.993  33.715  41.731  1.00  0.00    -0.200 F 
ATOM     73  F   UNL A   1      39.257  36.127  41.882  1.00  0.00    -0.200 F 
ENDBRANCH  49  63
BRANCH  50  74
ATOM     74  C   UNL A   1      39.843  28.488  29.977  1.00  0.00     0.064 A 
ATOM     75  C   UNL A   1      39.326  27.190  29.872  1.00  0.00     0.173 A 
ATOM     76  C   UNL A   1      40.458  29.036  28.841  1.00  0.00     0.173 A 
ATOM     77  F   UNL A   1      38.754  26.610  30.939  1.00  0.00    -0.203 F 
ATOM     78  C   UNL A   1      39.438  26.462  28.690  1.00  0.00     0.198 A 
ATOM     79  C   UNL A   1      40.541  28.319  27.649  1.00  0.00     0.198 A 
ATOM     80  F   UNL A   1      40.977  30.272  28.887  1.00  0.00    -0.203 F 
ATOM     81  F   UNL A   1      38.982  25.203  28.635  1.00  0.00    -0.200 F 
ATOM     82  C   UNL A   1      40.038  27.029  27.577  1.00  0.00     0.200 A 
ATOM     83  F   UNL A   1      41.113  28.876  26.573  1.00  0.00    -0.200 F 
ATOM     84  F   UNL A   1      40.144  26.329  26.439  1.00  0.00    -0.200 F 
ENDBRANCH  50  74
BRANCH  62  85
ATOM     85  C   UNL A   1      44.157  29.154  35.437  1.00  0.00     0.064 A 
ATOM     86  C   UNL A   1      45.382  29.783  35.181  1.00  0.00     0.173 A 
ATOM     87  C   UNL A   1      44.175  27.938  36.139  1.00  0.00     0.173 A 
ATOM     88  F   UNL A   1      45.420  30.940  34.502  1.00  0.00    -0.203 F 
ATOM     89  C   UNL A   1      46.579  29.214  35.610  1.00  0.00     0.198 A 
ATOM     90  C   UNL A   1      45.369  27.389  36.594  1.00  0.00     0.198 A 
ATOM     91  F   UNL A   1      43.026  27.302  36.418  1.00  0.00    -0.203 F 
ATOM     92  F   UNL A   1      47.744  29.818  35.332  1.00  0.00    -0.200 F 
ATOM     93  C   UNL A   1      46.571  28.027  36.328  1.00  0.00     0.200 A 
ATOM     94  F   UNL A   1      45.355  26.253  37.305  1.00  0.00    -0.200 F 
ATOM     95  F   UNL A   1      47.722  27.496  36.764  1.00  0.00    -0.200 F 
ENDBRANCH  62  85
ENDBRANCH  36  37
ENDBRANCH  29  31
ENDBRANCH  28  29
ENDBRANCH  27  28
ENDBRANCH  26  27
ENDBRANCH  25  26
ENDBRANCH  24  25
ENDBRANCH   1  24
TORSDOF 19
ENDMDL
