MODEL 1
REMARK VINA RESULT:     -12.3      0.000      0.000
REMARK SMILES COC(=O)C[C@H](NC(=O)N1CC[N@H+]2CCC[C@@H]2C1)C(=O)OCCOCCOCCOC(=O)c1ccc(-c2c3nc(c(-c4c(F)c(F)c(F)c(F)c4F)c4ccc([nH]4)c(-c4c(F)c(F)c(F)c(F)c4F)c4nc(c(-c5c(F)c(F)c(F)c(F)c5F)c5ccc2[nH]5)C=C4)C=C3)cc1
REMARK SMILES IDX 25 1 24 2 23 3 22 4 21 5 19 6 20 7 6 8 5 9 3 10 4 11 2 12
REMARK SMILES IDX 1 13 7 14 8 15 9 17 10 18 11 19 18 20 12 21 17 22 13 23
REMARK SMILES IDX 16 24 14 25 15 27 26 28 27 29 28 30 29 31 30 32 31 33 32 34
REMARK SMILES IDX 33 35 34 36 95 37 35 38 94 39 36 40 37 41 38 42 88 43 39 44
REMARK SMILES IDX 93 45 87 46 89 47 40 48 92 49 86 50 85 51 41 53 73 54 53 55
REMARK SMILES IDX 72 56 54 57 57 58 71 59 90 60 55 61 56 62 70 64 91 65 58 66
REMARK SMILES IDX 42 67 43 68 51 69 44 70 45 71 49 72 52 73 46 74 47 75 50 76
REMARK SMILES IDX 48 77 74 78 75 79 83 80 76 81 77 82 81 83 84 84 78 85 79 86
REMARK SMILES IDX 82 87 80 88 59 89 60 90 68 91 61 92 62 93 66 94 69 95 63 96
REMARK SMILES IDX 64 97 67 98 65 99
REMARK H PARENT 7 16 13 26 89 52 57 63
REMARK Flexibility Score: inf
ROOT
ATOM      1  C   UNL A   1      40.504  20.593  26.869  1.00  0.00     0.188 C 
ENDROOT
BRANCH   1   2
ATOM      2  O   UNL A   1      39.470  20.665  25.888  1.00  0.00    -0.376 OA
BRANCH   2   3
ATOM      3  C   UNL A   1      38.571  21.751  25.751  1.00  0.00     0.202 C 
BRANCH   3   4
ATOM      4  C   UNL A   1      37.435  21.372  24.766  1.00  0.00     0.261 C 
BRANCH   4   5
ATOM      5  O   UNL A   1      36.172  21.076  25.424  1.00  0.00    -0.462 OA
BRANCH   5   6
ATOM      6  C   UNL A   1      35.064  21.638  24.863  1.00  0.00     0.329 C 
ATOM      7  O   UNL A   1      35.065  22.738  24.312  1.00  0.00    -0.250 OA
BRANCH   6   8
ATOM      8  C   UNL A   1      33.733  20.896  25.179  1.00  0.00     0.204 C 
BRANCH   8   9
ATOM      9  C   UNL A   1      34.163  19.502  24.652  1.00  0.00     0.159 C 
BRANCH   9  10
ATOM     10  C   UNL A   1      33.224  18.397  24.951  1.00  0.00     0.308 C 
ATOM     11  O   UNL A   1      32.146  18.545  25.505  1.00  0.00    -0.252 OA
BRANCH  10  12
ATOM     12  O   UNL A   1      33.794  17.218  24.604  1.00  0.00    -0.469 OA
ATOM     13  C   UNL A   1      33.738  16.956  23.206  1.00  0.00     0.282 C 
ENDBRANCH  10  12
ENDBRANCH   9  10
ENDBRANCH   8   9
BRANCH   8  14
ATOM     14  N   UNL A   1      32.332  21.365  24.757  1.00  0.00    -0.324 N 
ATOM     15  C   UNL A   1      31.467  22.276  25.359  1.00  0.00     0.318 C 
ATOM     16  H   UNL A   1      31.990  20.956  23.929  1.00  0.00     0.166 HD
ATOM     17  O   UNL A   1      30.495  21.837  25.973  1.00  0.00    -0.249 OA
BRANCH  15  18
ATOM     18  N   UNL A   1      31.623  23.638  25.104  1.00  0.00    -0.313 N 
ATOM     19  C   UNL A   1      32.933  24.583  26.317  1.00  0.00     0.183 C 
ATOM     20  C   UNL A   1      30.669  24.419  23.527  1.00  0.00     0.186 C 
ATOM     21  C   UNL A   1      32.701  26.665  26.016  1.00  0.00     0.284 C 
ATOM     22  C   UNL A   1      30.543  26.563  23.190  1.00  0.00     0.204 C 
ATOM     23  N   UNL A   1      31.468  27.423  24.736  1.00  0.00    -0.330 N 
ATOM     24  C   UNL A   1      29.528  27.777  23.256  1.00  0.00     0.073 C 
ATOM     25  C   UNL A   1      31.359  28.847  24.648  1.00  0.00     0.262 C 
ATOM     26  H   UNL A   1      31.089  26.757  25.409  1.00  0.00     0.348 HD
ATOM     27  C   UNL A   1      30.376  29.062  23.493  1.00  0.00     0.068 C 
ENDBRANCH  15  18
ENDBRANCH   8  14
ENDBRANCH   6   8
ENDBRANCH   5   6
ENDBRANCH   4   5
ENDBRANCH   3   4
ENDBRANCH   2   3
ENDBRANCH   1   2
BRANCH   1  28
ATOM     28  C   UNL A   1      41.995  20.376  26.487  1.00  0.00     0.188 C 
BRANCH  28  29
ATOM     29  O   UNL A   1      42.619  21.325  25.515  1.00  0.00    -0.376 OA
BRANCH  29  30
ATOM     30  C   UNL A   1      44.186  22.471  25.154  1.00  0.00     0.202 C 
BRANCH  30  31
ATOM     31  C   UNL A   1      43.407  23.376  24.614  1.00  0.00     0.261 C 
BRANCH  31  32
ATOM     32  O   UNL A   1      44.577  25.026  24.789  1.00  0.00    -0.460 OA
BRANCH  32  33
ATOM     33  C   UNL A   1      44.590  26.408  25.244  1.00  0.00     0.338 C 
ATOM     34  O   UNL A   1      45.479  27.227  24.963  1.00  0.00    -0.246 OA
BRANCH  33  35
ATOM     35  C   UNL A   1      43.547  26.982  26.085  1.00  0.00     0.060 A 
ATOM     36  C   UNL A   1      43.616  28.360  26.337  1.00  0.00     0.016 A 
ATOM     37  C   UNL A   1      42.850  26.130  26.950  1.00  0.00     0.016 A 
ATOM     38  C   UNL A   1      42.952  28.892  27.432  1.00  0.00     0.010 A 
ATOM     39  C   UNL A   1      42.196  26.658  28.050  1.00  0.00     0.010 A 
ATOM     40  C   UNL A   1      42.270  28.032  28.302  1.00  0.00    -0.014 A 
BRANCH  40  41
ATOM     41  C   UNL A   1      41.681  28.548  29.543  1.00  0.00     0.031 A 
ATOM     42  C   UNL A   1      40.393  29.305  29.478  1.00  0.00     0.074 A 
ATOM     43  C   UNL A   1      42.368  28.372  30.680  1.00  0.00     0.049 A 
ATOM     44  N   UNL A   1      39.770  29.956  30.422  1.00  0.00    -0.248 NA
ATOM     45  C   UNL A   1      39.725  29.354  28.166  1.00  0.00     0.031 C 
ATOM     46  C   UNL A   1      43.632  27.641  30.787  1.00  0.00     0.029 A 
ATOM     47  N   UNL A   1      42.121  28.812  31.948  1.00  0.00    -0.354 N 
ATOM     48  C   UNL A   1      38.643  30.499  29.821  1.00  0.00     0.074 A 
ATOM     49  C   UNL A   1      38.688  30.140  28.421  1.00  0.00     0.031 C 
ATOM     50  C   UNL A   1      44.058  27.692  32.057  1.00  0.00     0.029 A 
ATOM     51  C   UNL A   1      43.123  28.501  32.830  1.00  0.00     0.049 A 
ATOM     52  H   UNL A   1      41.305  29.302  32.202  1.00  0.00     0.167 HD
ATOM     53  C   UNL A   1      37.662  31.224  30.407  1.00  0.00     0.037 A 
ATOM     54  C   UNL A   1      43.274  28.872  34.112  1.00  0.00     0.037 A 
ATOM     55  C   UNL A   1      37.679  31.574  31.804  1.00  0.00     0.049 A 
ATOM     56  C   UNL A   1      42.199  29.729  34.721  1.00  0.00     0.074 A 
ATOM     57  C   UNL A   1      36.747  32.288  32.532  1.00  0.00     0.029 A 
ATOM     58  N   UNL A   1      38.705  31.238  32.683  1.00  0.00    -0.354 N 
ATOM     59  N   UNL A   1      41.109  30.210  34.167  1.00  0.00    -0.248 NA
ATOM     60  C   UNL A   1      42.364  30.087  36.131  1.00  0.00     0.031 C 
ATOM     61  C   UNL A   1      37.244  32.448  33.829  1.00  0.00     0.029 A 
ATOM     62  C   UNL A   1      38.444  31.759  33.938  1.00  0.00     0.049 A 
ATOM     63  H   UNL A   1      39.501  30.708  32.446  1.00  0.00     0.167 HD
ATOM     64  C   UNL A   1      40.442  30.900  35.166  1.00  0.00     0.074 A 
ATOM     65  C   UNL A   1      41.245  30.757  36.367  1.00  0.00     0.031 C 
ATOM     66  C   UNL A   1      39.274  31.588  35.107  1.00  0.00     0.037 A 
BRANCH  53  67
ATOM     67  C   UNL A   1      36.531  31.704  29.541  1.00  0.00     0.064 A 
ATOM     68  C   UNL A   1      36.400  33.052  29.169  1.00  0.00     0.173 A 
ATOM     69  C   UNL A   1      35.569  30.802  29.060  1.00  0.00     0.173 A 
ATOM     70  F   UNL A   1      37.284  33.963  29.604  1.00  0.00    -0.203 F 
ATOM     71  C   UNL A   1      35.332  33.483  28.384  1.00  0.00     0.198 A 
ATOM     72  C   UNL A   1      34.525  31.230  28.243  1.00  0.00     0.198 A 
ATOM     73  F   UNL A   1      35.641  29.501  29.378  1.00  0.00    -0.203 F 
ATOM     74  F   UNL A   1      35.197  34.785  28.095  1.00  0.00    -0.200 F 
ATOM     75  C   UNL A   1      34.401  32.571  27.915  1.00  0.00     0.200 A 
ATOM     76  F   UNL A   1      33.634  30.342  27.777  1.00  0.00    -0.200 F 
ATOM     77  F   UNL A   1      33.378  32.984  27.153  1.00  0.00    -0.200 F 
ENDBRANCH  53  67
BRANCH  54  78
ATOM     78  C   UNL A   1      44.470  28.438  34.874  1.00  0.00     0.064 A 
ATOM     79  C   UNL A   1      45.631  29.222  34.902  1.00  0.00     0.173 A 
ATOM     80  C   UNL A   1      44.476  27.241  35.608  1.00  0.00     0.173 A 
ATOM     81  F   UNL A   1      45.679  30.372  34.214  1.00  0.00    -0.203 F 
ATOM     82  C   UNL A   1      46.761  28.811  35.606  1.00  0.00     0.198 A 
ATOM     83  C   UNL A   1      45.592  26.850  36.343  1.00  0.00     0.198 A 
ATOM     84  F   UNL A   1      43.384  26.461  35.630  1.00  0.00    -0.203 F 
ATOM     85  F   UNL A   1      47.876  29.554  35.571  1.00  0.00    -0.200 F 
ATOM     86  C   UNL A   1      46.738  27.628  36.331  1.00  0.00     0.200 A 
ATOM     87  F   UNL A   1      45.555  25.720  37.062  1.00  0.00    -0.200 F 
ATOM     88  F   UNL A   1      47.824  27.237  37.011  1.00  0.00    -0.200 F 
ENDBRANCH  54  78
BRANCH  66  89
ATOM     89  C   UNL A   1      38.780  32.191  36.391  1.00  0.00     0.064 A 
ATOM     90  C   UNL A   1      37.978  31.471  37.289  1.00  0.00     0.173 A 
ATOM     91  C   UNL A   1      39.148  33.499  36.739  1.00  0.00     0.173 A 
ATOM     92  F   UNL A   1      37.588  30.221  36.995  1.00  0.00    -0.203 F 
ATOM     93  C   UNL A   1      37.529  32.055  38.469  1.00  0.00     0.198 A 
ATOM     94  C   UNL A   1      38.737  34.062  37.942  1.00  0.00     0.198 A 
ATOM     95  F   UNL A   1      39.924  34.226  35.921  1.00  0.00    -0.203 F 
ATOM     96  F   UNL A   1      36.704  31.374  39.277  1.00  0.00    -0.200 F 
ATOM     97  C   UNL A   1      37.917  33.344  38.799  1.00  0.00     0.200 A 
ATOM     98  F   UNL A   1      39.135  35.298  38.271  1.00  0.00    -0.200 F 
ATOM     99  F   UNL A   1      37.493  33.900  39.942  1.00  0.00    -0.200 F 
ENDBRANCH  66  89
ENDBRANCH  40  41
ENDBRANCH  33  35
ENDBRANCH  32  33
ENDBRANCH  31  32
ENDBRANCH  30  31
ENDBRANCH  29  30
ENDBRANCH  28  29
ENDBRANCH   1  28
TORSDOF 22
ENDMDL
MODEL 2
REMARK VINA RESULT:     -12.0      4.449      9.294
REMARK SMILES COC(=O)C[C@H](NC(=O)N1CC[N@H+]2CCC[C@@H]2C1)C(=O)OCCOCCOCCOC(=O)c1ccc(-c2c3nc(c(-c4c(F)c(F)c(F)c(F)c4F)c4ccc([nH]4)c(-c4c(F)c(F)c(F)c(F)c4F)c4nc(c(-c5c(F)c(F)c(F)c(F)c5F)c5ccc2[nH]5)C=C4)C=C3)cc1
REMARK SMILES IDX 25 1 24 2 23 3 22 4 21 5 19 6 20 7 6 8 5 9 3 10 4 11 2 12
REMARK SMILES IDX 1 13 7 14 8 15 9 17 10 18 11 19 18 20 12 21 17 22 13 23
REMARK SMILES IDX 16 24 14 25 15 27 26 28 27 29 28 30 29 31 30 32 31 33 32 34
REMARK SMILES IDX 33 35 34 36 95 37 35 38 94 39 36 40 37 41 38 42 88 43 39 44
REMARK SMILES IDX 93 45 87 46 89 47 40 48 92 49 86 50 85 51 41 53 73 54 53 55
REMARK SMILES IDX 72 56 54 57 57 58 71 59 90 60 55 61 56 62 70 64 91 65 58 66
REMARK SMILES IDX 42 67 43 68 51 69 44 70 45 71 49 72 52 73 46 74 47 75 50 76
REMARK SMILES IDX 48 77 74 78 75 79 83 80 76 81 77 82 81 83 84 84 78 85 79 86
REMARK SMILES IDX 82 87 80 88 59 89 60 90 68 91 61 92 62 93 66 94 69 95 63 96
REMARK SMILES IDX 64 97 67 98 65 99
REMARK H PARENT 7 16 13 26 89 52 57 63
REMARK Flexibility Score: inf
ROOT
ATOM      1  C   UNL A   1      34.088  22.993  26.889  1.00  0.00     0.188 C 
ENDROOT
BRANCH   1   2
ATOM      2  O   UNL A   1      34.275  23.908  25.810  1.00  0.00    -0.376 OA
BRANCH   2   3
ATOM      3  C   UNL A   1      33.570  23.851  24.582  1.00  0.00     0.202 C 
BRANCH   3   4
ATOM      4  C   UNL A   1      33.953  25.067  23.699  1.00  0.00     0.261 C 
BRANCH   4   5
ATOM      5  O   UNL A   1      34.082  26.308  24.446  1.00  0.00    -0.462 OA
BRANCH   5   6
ATOM      6  C   UNL A   1      33.369  27.366  23.967  1.00  0.00     0.329 C 
ATOM      7  O   UNL A   1      33.884  28.342  23.422  1.00  0.00    -0.250 OA
BRANCH   6   8
ATOM      8  C   UNL A   1      31.867  27.370  24.373  1.00  0.00     0.204 C 
BRANCH   8   9
ATOM      9  C   UNL A   1      31.290  27.673  22.966  1.00  0.00     0.159 C 
BRANCH   9  10
ATOM     10  C   UNL A   1      29.828  27.901  22.918  1.00  0.00     0.308 C 
ATOM     11  O   UNL A   1      29.015  27.269  23.574  1.00  0.00    -0.252 OA
BRANCH  10  12
ATOM     12  O   UNL A   1      29.550  28.835  21.977  1.00  0.00    -0.469 OA
ATOM     13  C   UNL A   1      29.410  30.147  22.511  1.00  0.00     0.282 C 
ENDBRANCH  10  12
ENDBRANCH   9  10
ENDBRANCH   8   9
BRANCH   8  14
ATOM     14  N   UNL A   1      31.261  28.180  25.531  1.00  0.00    -0.324 N 
ATOM     15  C   UNL A   1      31.779  28.483  26.787  1.00  0.00     0.318 C 
ATOM     16  H   UNL A   1      30.362  28.542  25.356  1.00  0.00     0.166 HD
ATOM     17  O   UNL A   1      31.340  27.871  27.760  1.00  0.00    -0.249 OA
BRANCH  15  18
ATOM     18  N   UNL A   1      32.636  29.573  26.928  1.00  0.00    -0.313 N 
ATOM     19  C   UNL A   1      34.593  29.100  27.086  1.00  0.00     0.183 C 
ATOM     20  C   UNL A   1      31.851  31.411  26.813  1.00  0.00     0.186 C 
ATOM     21  C   UNL A   1      35.629  30.845  27.689  1.00  0.00     0.284 C 
ATOM     22  C   UNL A   1      32.981  33.194  27.337  1.00  0.00     0.204 C 
ATOM     23  N   UNL A   1      34.769  32.554  27.954  1.00  0.00    -0.330 N 
ATOM     24  C   UNL A   1      33.107  34.304  28.459  1.00  0.00     0.073 C 
ATOM     25  C   UNL A   1      35.559  33.658  28.407  1.00  0.00     0.262 C 
ATOM     26  H   UNL A   1      34.378  31.755  28.451  1.00  0.00     0.348 HD
ATOM     27  C   UNL A   1      34.572  34.830  28.411  1.00  0.00     0.068 C 
ENDBRANCH  15  18
ENDBRANCH   8  14
ENDBRANCH   6   8
ENDBRANCH   5   6
ENDBRANCH   4   5
ENDBRANCH   3   4
ENDBRANCH   2   3
ENDBRANCH   1   2
BRANCH   1  28
ATOM     28  C   UNL A   1      34.469  21.490  26.776  1.00  0.00     0.188 C 
BRANCH  28  29
ATOM     29  O   UNL A   1      35.402  21.080  25.683  1.00  0.00    -0.376 OA
BRANCH  29  30
ATOM     30  C   UNL A   1      36.955  21.629  24.592  1.00  0.00     0.202 C 
BRANCH  30  31
ATOM     31  C   UNL A   1      37.485  20.439  24.740  1.00  0.00     0.261 C 
BRANCH  31  32
ATOM     32  O   UNL A   1      38.741  20.785  26.298  1.00  0.00    -0.460 OA
BRANCH  32  33
ATOM     33  C   UNL A   1      40.041  21.333  26.653  1.00  0.00     0.338 C 
ATOM     34  O   UNL A   1      41.119  20.749  26.466  1.00  0.00    -0.246 OA
BRANCH  33  35
ATOM     35  C   UNL A   1      40.214  22.642  27.271  1.00  0.00     0.060 A 
ATOM     36  C   UNL A   1      39.599  23.733  26.639  1.00  0.00     0.016 A 
ATOM     37  C   UNL A   1      41.307  22.833  28.125  1.00  0.00     0.016 A 
ATOM     38  C   UNL A   1      40.051  25.019  26.895  1.00  0.00     0.010 A 
ATOM     39  C   UNL A   1      41.767  24.115  28.373  1.00  0.00     0.010 A 
ATOM     40  C   UNL A   1      41.155  25.201  27.737  1.00  0.00    -0.014 A 
BRANCH  40  41
ATOM     41  C   UNL A   1      41.743  26.534  27.911  1.00  0.00     0.031 A 
ATOM     42  C   UNL A   1      43.109  26.803  27.367  1.00  0.00     0.074 A 
ATOM     43  C   UNL A   1      41.046  27.437  28.615  1.00  0.00     0.049 A 
ATOM     44  N   UNL A   1      43.866  27.855  27.520  1.00  0.00    -0.248 NA
ATOM     45  C   UNL A   1      43.717  25.733  26.557  1.00  0.00     0.031 C 
ATOM     46  C   UNL A   1      39.708  27.214  29.167  1.00  0.00     0.029 A 
ATOM     47  N   UNL A   1      41.370  28.702  29.009  1.00  0.00    -0.354 N 
ATOM     48  C   UNL A   1      45.040  27.575  26.836  1.00  0.00     0.074 A 
ATOM     49  C   UNL A   1      44.917  26.237  26.302  1.00  0.00     0.031 C 
ATOM     50  C   UNL A   1      39.328  28.308  29.841  1.00  0.00     0.029 A 
ATOM     51  C   UNL A   1      40.417  29.278  29.809  1.00  0.00     0.049 A 
ATOM     52  H   UNL A   1      42.204  29.155  28.746  1.00  0.00     0.167 HD
ATOM     53  C   UNL A   1      46.114  28.381  26.670  1.00  0.00     0.037 A 
ATOM     54  C   UNL A   1      40.452  30.447  30.469  1.00  0.00     0.037 A 
ATOM     55  C   UNL A   1      46.194  29.700  27.245  1.00  0.00     0.049 A 
ATOM     56  C   UNL A   1      41.683  31.297  30.316  1.00  0.00     0.074 A 
ATOM     57  C   UNL A   1      47.211  30.630  27.146  1.00  0.00     0.029 A 
ATOM     58  N   UNL A   1      45.207  30.266  28.047  1.00  0.00    -0.354 N 
ATOM     59  N   UNL A   1      42.779  31.053  29.635  1.00  0.00    -0.248 NA
ATOM     60  C   UNL A   1      41.681  32.585  31.012  1.00  0.00     0.031 C 
ATOM     61  C   UNL A   1      46.873  31.725  27.947  1.00  0.00     0.029 A 
ATOM     62  C   UNL A   1      45.606  31.520  28.475  1.00  0.00     0.049 A 
ATOM     63  H   UNL A   1      44.351  29.837  28.275  1.00  0.00     0.167 HD
ATOM     64  C   UNL A   1      43.585  32.170  29.792  1.00  0.00     0.074 A 
ATOM     65  C   UNL A   1      42.839  33.098  30.620  1.00  0.00     0.031 C 
ATOM     66  C   UNL A   1      44.826  32.413  29.299  1.00  0.00     0.037 A 
BRANCH  53  67
ATOM     67  C   UNL A   1      47.276  27.851  25.879  1.00  0.00     0.064 A 
ATOM     68  C   UNL A   1      47.276  27.840  24.475  1.00  0.00     0.173 A 
ATOM     69  C   UNL A   1      48.418  27.360  26.531  1.00  0.00     0.173 A 
ATOM     70  F   UNL A   1      46.210  28.289  23.794  1.00  0.00    -0.203 F 
ATOM     71  C   UNL A   1      48.354  27.323  23.757  1.00  0.00     0.198 A 
ATOM     72  C   UNL A   1      49.510  26.881  25.810  1.00  0.00     0.198 A 
ATOM     73  F   UNL A   1      48.481  27.347  27.871  1.00  0.00    -0.203 F 
ATOM     74  F   UNL A   1      48.301  27.267  22.419  1.00  0.00    -0.200 F 
ATOM     75  C   UNL A   1      49.472  26.852  24.426  1.00  0.00     0.200 A 
ATOM     76  F   UNL A   1      50.598  26.441  26.460  1.00  0.00    -0.200 F 
ATOM     77  F   UNL A   1      50.512  26.363  23.735  1.00  0.00    -0.200 F 
ENDBRANCH  53  67
BRANCH  54  78
ATOM     78  C   UNL A   1      39.302  30.857  31.311  1.00  0.00     0.064 A 
ATOM     79  C   UNL A   1      39.232  30.494  32.663  1.00  0.00     0.173 A 
ATOM     80  C   UNL A   1      38.257  31.638  30.793  1.00  0.00     0.173 A 
ATOM     81  F   UNL A   1      40.203  29.745  33.206  1.00  0.00    -0.203 F 
ATOM     82  C   UNL A   1      38.148  30.867  33.454  1.00  0.00     0.198 A 
ATOM     83  C   UNL A   1      37.193  32.044  31.594  1.00  0.00     0.198 A 
ATOM     84  F   UNL A   1      38.282  32.029  29.509  1.00  0.00    -0.203 F 
ATOM     85  F   UNL A   1      38.081  30.460  34.729  1.00  0.00    -0.200 F 
ATOM     86  C   UNL A   1      37.132  31.647  32.921  1.00  0.00     0.200 A 
ATOM     87  F   UNL A   1      36.227  32.818  31.081  1.00  0.00    -0.200 F 
ATOM     88  F   UNL A   1      36.092  32.009  33.684  1.00  0.00    -0.200 F 
ENDBRANCH  54  78
BRANCH  66  89
ATOM     89  C   UNL A   1      45.422  33.756  29.608  1.00  0.00     0.064 A 
ATOM     90  C   UNL A   1      45.215  34.869  28.779  1.00  0.00     0.173 A 
ATOM     91  C   UNL A   1      46.185  33.935  30.772  1.00  0.00     0.173 A 
ATOM     92  F   UNL A   1      44.504  34.745  27.647  1.00  0.00    -0.203 F 
ATOM     93  C   UNL A   1      45.783  36.101  29.084  1.00  0.00     0.198 A 
ATOM     94  C   UNL A   1      46.711  35.180  31.099  1.00  0.00     0.198 A 
ATOM     95  F   UNL A   1      46.403  32.906  31.604  1.00  0.00    -0.203 F 
ATOM     96  F   UNL A   1      45.632  37.132  28.241  1.00  0.00    -0.200 F 
ATOM     97  C   UNL A   1      46.521  36.258  30.247  1.00  0.00     0.200 A 
ATOM     98  F   UNL A   1      47.401  35.335  32.236  1.00  0.00    -0.200 F 
ATOM     99  F   UNL A   1      47.058  37.449  30.546  1.00  0.00    -0.200 F 
ENDBRANCH  66  89
ENDBRANCH  40  41
ENDBRANCH  33  35
ENDBRANCH  32  33
ENDBRANCH  31  32
ENDBRANCH  30  31
ENDBRANCH  29  30
ENDBRANCH  28  29
ENDBRANCH   1  28
TORSDOF 22
ENDMDL
MODEL 3
REMARK VINA RESULT:     -11.8      1.615      2.610
REMARK SMILES COC(=O)C[C@H](NC(=O)N1CC[N@H+]2CCC[C@@H]2C1)C(=O)OCCOCCOCCOC(=O)c1ccc(-c2c3nc(c(-c4c(F)c(F)c(F)c(F)c4F)c4ccc([nH]4)c(-c4c(F)c(F)c(F)c(F)c4F)c4nc(c(-c5c(F)c(F)c(F)c(F)c5F)c5ccc2[nH]5)C=C4)C=C3)cc1
REMARK SMILES IDX 25 1 24 2 23 3 22 4 21 5 19 6 20 7 6 8 5 9 3 10 4 11 2 12
REMARK SMILES IDX 1 13 7 14 8 15 9 17 10 18 11 19 18 20 12 21 17 22 13 23
REMARK SMILES IDX 16 24 14 25 15 27 26 28 27 29 28 30 29 31 30 32 31 33 32 34
REMARK SMILES IDX 33 35 34 36 95 37 35 38 94 39 36 40 37 41 38 42 88 43 39 44
REMARK SMILES IDX 93 45 87 46 89 47 40 48 92 49 86 50 85 51 41 53 73 54 53 55
REMARK SMILES IDX 72 56 54 57 57 58 71 59 90 60 55 61 56 62 70 64 91 65 58 66
REMARK SMILES IDX 42 67 43 68 51 69 44 70 45 71 49 72 52 73 46 74 47 75 50 76
REMARK SMILES IDX 48 77 74 78 75 79 83 80 76 81 77 82 81 83 84 84 78 85 79 86
REMARK SMILES IDX 82 87 80 88 59 89 60 90 68 91 61 92 62 93 66 94 69 95 63 96
REMARK SMILES IDX 64 97 67 98 65 99
REMARK H PARENT 7 16 13 26 89 52 57 63
REMARK Flexibility Score: inf
ROOT
ATOM      1  C   UNL A   1      38.152  20.099  24.966  1.00  0.00     0.188 C 
ENDROOT
BRANCH   1   2
ATOM      2  O   UNL A   1      37.217  21.109  25.343  1.00  0.00    -0.376 OA
BRANCH   2   3
ATOM      3  C   UNL A   1      37.573  22.426  25.726  1.00  0.00     0.202 C 
BRANCH   3   4
ATOM      4  C   UNL A   1      36.523  23.432  25.188  1.00  0.00     0.261 C 
BRANCH   4   5
ATOM      5  O   UNL A   1      35.212  22.841  24.969  1.00  0.00    -0.462 OA
BRANCH   5   6
ATOM      6  C   UNL A   1      34.160  23.508  25.521  1.00  0.00     0.329 C 
ATOM      7  O   UNL A   1      34.042  23.712  26.728  1.00  0.00    -0.250 OA
BRANCH   6   8
ATOM      8  C   UNL A   1      32.987  23.790  24.538  1.00  0.00     0.204 C 
BRANCH   8   9
ATOM      9  C   UNL A   1      33.725  24.830  23.655  1.00  0.00     0.159 C 
BRANCH   9  10
ATOM     10  C   UNL A   1      33.491  24.702  22.199  1.00  0.00     0.308 C 
ATOM     11  O   UNL A   1      33.276  23.643  21.631  1.00  0.00    -0.252 OA
BRANCH  10  12
ATOM     12  O   UNL A   1      33.650  25.912  21.610  1.00  0.00    -0.469 OA
ATOM     13  C   UNL A   1      33.056  26.977  22.345  1.00  0.00     0.282 C 
ENDBRANCH  10  12
ENDBRANCH   9  10
ENDBRANCH   8   9
BRANCH   8  14
ATOM     14  N   UNL A   1      31.552  24.160  24.947  1.00  0.00    -0.324 N 
ATOM     15  C   UNL A   1      31.080  25.214  25.726  1.00  0.00     0.318 C 
ATOM     16  H   UNL A   1      30.855  23.555  24.604  1.00  0.00     0.166 HD
ATOM     17  O   UNL A   1      30.720  24.970  26.877  1.00  0.00    -0.249 OA
BRANCH  15  18
ATOM     18  N   UNL A   1      30.865  26.457  25.135  1.00  0.00    -0.313 N 
ATOM     19  C   UNL A   1      32.158  27.901  25.701  1.00  0.00     0.183 C 
ATOM     20  C   UNL A   1      29.439  26.604  23.737  1.00  0.00     0.186 C 
ATOM     21  C   UNL A   1      31.400  29.752  25.006  1.00  0.00     0.284 C 
ATOM     22  C   UNL A   1      28.759  28.521  22.966  1.00  0.00     0.204 C 
ATOM     23  N   UNL A   1      29.780  29.914  23.968  1.00  0.00    -0.330 N 
ATOM     24  C   UNL A   1      27.535  29.524  23.024  1.00  0.00     0.073 C 
ATOM     25  C   UNL A   1      29.334  31.221  23.590  1.00  0.00     0.262 C 
ATOM     26  H   UNL A   1      29.717  29.409  24.852  1.00  0.00     0.348 HD
ATOM     27  C   UNL A   1      28.101  30.944  22.724  1.00  0.00     0.068 C 
ENDBRANCH  15  18
ENDBRANCH   8  14
ENDBRANCH   6   8
ENDBRANCH   5   6
ENDBRANCH   4   5
ENDBRANCH   3   4
ENDBRANCH   2   3
ENDBRANCH   1   2
BRANCH   1  28
ATOM     28  C   UNL A   1      39.458  19.840  25.768  1.00  0.00     0.188 C 
BRANCH  28  29
ATOM     29  O   UNL A   1      40.558  20.847  25.668  1.00  0.00    -0.376 OA
BRANCH  29  30
ATOM     30  C   UNL A   1      41.792  22.001  26.692  1.00  0.00     0.202 C 
BRANCH  30  31
ATOM     31  C   UNL A   1      42.688  21.893  25.741  1.00  0.00     0.261 C 
BRANCH  31  32
ATOM     32  O   UNL A   1      42.702  23.796  25.029  1.00  0.00    -0.460 OA
BRANCH  32  33
ATOM     33  C   UNL A   1      43.132  25.153  25.327  1.00  0.00     0.338 C 
ATOM     34  O   UNL A   1      44.199  25.649  24.935  1.00  0.00    -0.246 OA
BRANCH  33  35
ATOM     35  C   UNL A   1      42.343  26.083  26.126  1.00  0.00     0.060 A 
ATOM     36  C   UNL A   1      42.940  27.310  26.452  1.00  0.00     0.016 A 
ATOM     37  C   UNL A   1      41.296  25.569  26.900  1.00  0.00     0.016 A 
ATOM     38  C   UNL A   1      42.459  28.044  27.526  1.00  0.00     0.010 A 
ATOM     39  C   UNL A   1      40.823  26.295  27.980  1.00  0.00     0.010 A 
ATOM     40  C   UNL A   1      41.422  27.517  28.305  1.00  0.00    -0.014 A 
BRANCH  40  41
ATOM     41  C   UNL A   1      40.993  28.202  29.529  1.00  0.00     0.031 A 
ATOM     42  C   UNL A   1      39.812  29.117  29.475  1.00  0.00     0.074 A 
ATOM     43  C   UNL A   1      41.729  28.025  30.635  1.00  0.00     0.049 A 
ATOM     44  N   UNL A   1      39.345  29.917  30.394  1.00  0.00    -0.248 NA
ATOM     45  C   UNL A   1      39.065  29.153  28.205  1.00  0.00     0.031 C 
ATOM     46  C   UNL A   1      42.894  27.142  30.730  1.00  0.00     0.029 A 
ATOM     47  N   UNL A   1      41.630  28.591  31.872  1.00  0.00    -0.354 N 
ATOM     48  C   UNL A   1      38.258  30.558  29.816  1.00  0.00     0.074 A 
ATOM     49  C   UNL A   1      38.158  30.088  28.453  1.00  0.00     0.031 C 
ATOM     50  C   UNL A   1      43.410  27.234  31.964  1.00  0.00     0.029 A 
ATOM     51  C   UNL A   1      42.643  28.219  32.717  1.00  0.00     0.049 A 
ATOM     52  H   UNL A   1      40.904  29.205  32.131  1.00  0.00     0.167 HD
ATOM     53  C   UNL A   1      37.422  31.451  30.394  1.00  0.00     0.037 A 
ATOM     54  C   UNL A   1      42.930  28.666  33.951  1.00  0.00     0.037 A 
ATOM     55  C   UNL A   1      37.581  31.904  31.752  1.00  0.00     0.049 A 
ATOM     56  C   UNL A   1      42.018  29.703  34.546  1.00  0.00     0.074 A 
ATOM     57  C   UNL A   1      36.802  32.790  32.469  1.00  0.00     0.029 A 
ATOM     58  N   UNL A   1      38.615  31.503  32.594  1.00  0.00    -0.354 N 
ATOM     59  N   UNL A   1      40.964  30.281  34.017  1.00  0.00    -0.248 NA
ATOM     60  C   UNL A   1      42.327  30.145  35.908  1.00  0.00     0.031 C 
ATOM     61  C   UNL A   1      37.405  32.984  33.716  1.00  0.00     0.029 A 
ATOM     62  C   UNL A   1      38.511  32.150  33.813  1.00  0.00     0.049 A 
ATOM     63  H   UNL A   1      39.317  30.855  32.358  1.00  0.00     0.167 HD
ATOM     64  C   UNL A   1      40.462  31.130  34.991  1.00  0.00     0.074 A 
ATOM     65  C   UNL A   1      41.322  30.975  36.150  1.00  0.00     0.031 C 
ATOM     66  C   UNL A   1      39.391  31.962  34.942  1.00  0.00     0.037 A 
BRANCH  53  67
ATOM     67  C   UNL A   1      36.304  32.009  29.558  1.00  0.00     0.064 A 
ATOM     68  C   UNL A   1      36.259  33.362  29.184  1.00  0.00     0.173 A 
ATOM     69  C   UNL A   1      35.267  31.177  29.107  1.00  0.00     0.173 A 
ATOM     70  F   UNL A   1      37.218  34.209  29.592  1.00  0.00    -0.203 F 
ATOM     71  C   UNL A   1      35.204  33.867  28.427  1.00  0.00     0.198 A 
ATOM     72  C   UNL A   1      34.234  31.678  28.317  1.00  0.00     0.198 A 
ATOM     73  F   UNL A   1      35.254  29.875  29.427  1.00  0.00    -0.203 F 
ATOM     74  F   UNL A   1      35.154  35.176  28.138  1.00  0.00    -0.200 F 
ATOM     75  C   UNL A   1      34.196  33.023  27.989  1.00  0.00     0.200 A 
ATOM     76  F   UNL A   1      33.269  30.855  27.880  1.00  0.00    -0.200 F 
ATOM     77  F   UNL A   1      33.185  33.508  27.254  1.00  0.00    -0.200 F 
ENDBRANCH  53  67
BRANCH  54  78
ATOM     78  C   UNL A   1      44.111  28.136  34.676  1.00  0.00     0.064 A 
ATOM     79  C   UNL A   1      44.004  27.010  35.503  1.00  0.00     0.173 A 
ATOM     80  C   UNL A   1      45.377  28.729  34.544  1.00  0.00     0.173 A 
ATOM     81  F   UNL A   1      42.816  26.409  35.666  1.00  0.00    -0.203 F 
ATOM     82  C   UNL A   1      45.108  26.518  36.196  1.00  0.00     0.198 A 
ATOM     83  C   UNL A   1      46.488  28.213  35.206  1.00  0.00     0.198 A 
ATOM     84  F   UNL A   1      45.539  29.799  33.750  1.00  0.00    -0.203 F 
ATOM     85  F   UNL A   1      44.965  25.473  37.022  1.00  0.00    -0.200 F 
ATOM     86  C   UNL A   1      46.351  27.116  36.041  1.00  0.00     0.200 A 
ATOM     87  F   UNL A   1      47.690  28.778  35.033  1.00  0.00    -0.200 F 
ATOM     88  F   UNL A   1      47.412  26.638  36.704  1.00  0.00    -0.200 F 
ENDBRANCH  54  78
BRANCH  66  89
ATOM     89  C   UNL A   1      39.070  32.724  36.195  1.00  0.00     0.064 A 
ATOM     90  C   UNL A   1      38.292  32.169  37.222  1.00  0.00     0.173 A 
ATOM     91  C   UNL A   1      39.582  34.017  36.381  1.00  0.00     0.173 A 
ATOM     92  F   UNL A   1      37.769  30.941  37.086  1.00  0.00    -0.203 F 
ATOM     93  C   UNL A   1      38.004  32.898  38.371  1.00  0.00     0.198 A 
ATOM     94  C   UNL A   1      39.332  34.724  37.552  1.00  0.00     0.198 A 
ATOM     95  F   UNL A   1      40.341  34.588  35.434  1.00  0.00    -0.203 F 
ATOM     96  F   UNL A   1      37.199  32.377  39.307  1.00  0.00    -0.200 F 
ATOM     97  C   UNL A   1      38.532  34.169  38.540  1.00  0.00     0.200 A 
ATOM     98  F   UNL A   1      39.865  35.941  37.724  1.00  0.00    -0.200 F 
ATOM     99  F   UNL A   1      38.263  34.865  39.653  1.00  0.00    -0.200 F 
ENDBRANCH  66  89
ENDBRANCH  40  41
ENDBRANCH  33  35
ENDBRANCH  32  33
ENDBRANCH  31  32
ENDBRANCH  30  31
ENDBRANCH  29  30
ENDBRANCH  28  29
ENDBRANCH   1  28
TORSDOF 22
ENDMDL
