MODEL 1
REMARK VINA RESULT:     -11.0      0.000      0.000
REMARK SMILES COc1cccc2c(C)cc(S[C@H](C)C(=O)Nc3ccc(C(=O)OCCOCCOCCOC(=O)c4ccc(-c5c6nc(c(-c7c(F)c(F)c(F)c(F)c7F)c7ccc([nH]7)c(-c7c(F)c(F)c(F)c(F)c7F)c7nc(c(-c8c(F)c(F)c(F)c(F)c8F)c8ccc5[nH]8)C=C7)C=C6)cc4)cc3)nc12
REMARK SMILES IDX 27 1 26 2 25 3 24 4 22 5 23 6 21 7 18 8 19 9 100 10 20 11
REMARK SMILES IDX 99 12 17 13 15 14 16 15 13 17 14 18 12 19 11 20 3 21 4 22
REMARK SMILES IDX 102 23 5 24 7 25 101 26 6 27 8 28 9 29 10 30 2 31 1 32 28 33
REMARK SMILES IDX 29 34 30 35 31 36 32 37 33 38 34 39 35 40 36 41 37 42 98 43
REMARK SMILES IDX 38 44 97 45 39 46 40 47 41 48 91 49 42 50 96 51 90 52 92 53
REMARK SMILES IDX 43 54 95 55 89 56 88 57 44 59 76 60 56 61 75 62 57 63 60 64
REMARK SMILES IDX 74 65 93 66 58 67 59 68 73 70 94 71 61 72 45 73 46 74 54 75
REMARK SMILES IDX 47 76 48 77 52 78 55 79 49 80 50 81 53 82 51 83 77 84 78 85
REMARK SMILES IDX 86 86 79 87 80 88 84 89 87 90 81 91 82 92 85 93 83 94 62 95
REMARK SMILES IDX 63 96 71 97 64 98 65 99 69 100 72 101 66 102 67 103 70 104
REMARK SMILES IDX 68 105
REMARK H PARENT 17 16 92 58 60 69
REMARK Flexibility Score: inf
ROOT
ATOM      1  O   UNL A   1      30.310  29.382  23.535  1.00  0.00    -0.376 OA
ENDROOT
BRANCH   1   2
ATOM      2  C   UNL A   1      30.562  28.613  22.375  1.00  0.00     0.202 C 
BRANCH   2   3
ATOM      3  C   UNL A   1      30.985  27.138  22.357  1.00  0.00     0.261 C 
BRANCH   3   4
ATOM      4  O   UNL A   1      32.125  26.779  21.577  1.00  0.00    -0.460 OA
BRANCH   4   5
ATOM      5  C   UNL A   1      33.317  27.160  22.104  1.00  0.00     0.338 C 
ATOM      6  O   UNL A   1      34.002  28.096  21.722  1.00  0.00    -0.246 OA
BRANCH   5   7
ATOM      7  C   UNL A   1      33.613  26.399  23.342  1.00  0.00     0.060 A 
ATOM      8  C   UNL A   1      33.958  24.797  25.582  1.00  0.00     0.041 A 
ATOM      9  C   UNL A   1      34.265  24.287  24.324  1.00  0.00     0.027 A 
ATOM     10  C   UNL A   1      33.689  26.150  25.744  1.00  0.00     0.027 A 
ATOM     11  C   UNL A   1      34.066  25.083  23.200  1.00  0.00     0.018 A 
ATOM     12  C   UNL A   1      33.495  26.952  24.622  1.00  0.00     0.018 A 
BRANCH   8  13
ATOM     13  N   UNL A   1      33.885  23.899  26.642  1.00  0.00    -0.325 N 
ATOM     14  C   UNL A   1      32.956  22.916  26.844  1.00  0.00     0.237 C 
ATOM     15  O   UNL A   1      33.167  22.162  27.806  1.00  0.00    -0.273 OA
ATOM     16  H   UNL A   1      34.585  23.981  27.328  1.00  0.00     0.169 HD
BRANCH  14  17
ATOM     17  C   UNL A   1      31.700  22.700  25.978  1.00  0.00     0.139 C 
ATOM     18  C   UNL A   1      30.741  23.876  26.019  1.00  0.00     0.030 C 
BRANCH  17  19
ATOM     19  S   UNL A   1      31.999  21.641  24.479  1.00  0.00    -0.093 SA
BRANCH  19  20
ATOM     20  C   UNL A   1      33.488  20.673  24.637  1.00  0.00     0.098 A 
ATOM     21  C   UNL A   1      37.037  21.567  25.038  1.00  0.00     0.145 A 
ATOM     22  C   UNL A   1      38.296  20.953  25.102  1.00  0.00     0.049 A 
ATOM     23  C   UNL A   1      35.841  20.825  24.897  1.00  0.00     0.114 A 
ATOM     24  C   UNL A   1      38.402  19.575  25.072  1.00  0.00     0.005 A 
ATOM     25  C   UNL A   1      35.969  19.418  24.847  1.00  0.00     0.007 A 
ATOM     26  N   UNL A   1      34.618  21.412  24.759  1.00  0.00    -0.238 NA
ATOM     27  C   UNL A   1      37.247  18.815  24.941  1.00  0.00     0.011 A 
ATOM     28  C   UNL A   1      34.794  18.655  24.684  1.00  0.00    -0.039 A 
ATOM     29  C   UNL A   1      34.828  17.168  24.441  1.00  0.00     0.045 C 
ATOM     30  C   UNL A   1      33.552  19.298  24.676  1.00  0.00     0.039 A 
BRANCH  21  31
ATOM     31  O   UNL A   1      37.117  22.943  25.039  1.00  0.00    -0.494 OA
ATOM     32  C   UNL A   1      37.662  23.494  26.231  1.00  0.00     0.278 C 
ENDBRANCH  21  31
ENDBRANCH  19  20
ENDBRANCH  17  19
ENDBRANCH  14  17
ENDBRANCH   8  13
ENDBRANCH   5   7
ENDBRANCH   4   5
ENDBRANCH   3   4
ENDBRANCH   2   3
ENDBRANCH   1   2
BRANCH   1  33
ATOM     33  C   UNL A   1      31.302  29.557  24.518  1.00  0.00     0.188 C 
BRANCH  33  34
ATOM     34  C   UNL A   1      31.160  30.733  25.506  1.00  0.00     0.188 C 
BRANCH  34  35
ATOM     35  O   UNL A   1      31.574  30.589  26.846  1.00  0.00    -0.376 OA
BRANCH  35  36
ATOM     36  C   UNL A   1      32.309  29.436  27.220  1.00  0.00     0.202 C 
BRANCH  36  37
ATOM     37  C   UNL A   1      33.823  29.431  27.517  1.00  0.00     0.261 C 
BRANCH  37  38
ATOM     38  O   UNL A   1      34.537  30.665  27.362  1.00  0.00    -0.460 OA
BRANCH  38  39
ATOM     39  C   UNL A   1      35.125  31.161  28.480  1.00  0.00     0.338 C 
ATOM     40  O   UNL A   1      34.651  31.956  29.276  1.00  0.00    -0.246 OA
BRANCH  39  41
ATOM     41  C   UNL A   1      36.378  30.418  28.722  1.00  0.00     0.060 A 
ATOM     42  C   UNL A   1      36.536  29.698  29.920  1.00  0.00     0.016 A 
ATOM     43  C   UNL A   1      37.388  30.422  27.762  1.00  0.00     0.016 A 
ATOM     44  C   UNL A   1      37.707  28.977  30.159  1.00  0.00     0.010 A 
ATOM     45  C   UNL A   1      38.575  29.734  28.020  1.00  0.00     0.010 A 
ATOM     46  C   UNL A   1      38.749  29.027  29.225  1.00  0.00    -0.014 A 
BRANCH  46  47
ATOM     47  C   UNL A   1      40.103  28.531  29.568  1.00  0.00     0.031 A 
ATOM     48  C   UNL A   1      40.992  29.432  30.377  1.00  0.00     0.074 A 
ATOM     49  C   UNL A   1      40.558  27.346  29.126  1.00  0.00     0.049 A 
ATOM     50  N   UNL A   1      42.270  29.331  30.635  1.00  0.00    -0.248 NA
ATOM     51  C   UNL A   1      40.349  30.619  30.963  1.00  0.00     0.031 C 
ATOM     52  C   UNL A   1      39.775  26.360  28.387  1.00  0.00     0.029 A 
ATOM     53  N   UNL A   1      41.811  26.791  29.213  1.00  0.00    -0.354 N 
ATOM     54  C   UNL A   1      42.587  30.451  31.391  1.00  0.00     0.074 A 
ATOM     55  C   UNL A   1      41.375  31.227  31.535  1.00  0.00     0.031 C 
ATOM     56  C   UNL A   1      40.576  25.330  28.058  1.00  0.00     0.029 A 
ATOM     57  C   UNL A   1      41.935  25.612  28.519  1.00  0.00     0.049 A 
ATOM     58  H   UNL A   1      42.548  27.198  29.724  1.00  0.00     0.167 HD
ATOM     59  C   UNL A   1      43.784  30.801  31.915  1.00  0.00     0.037 A 
ATOM     60  C   UNL A   1      43.032  24.875  28.251  1.00  0.00     0.037 A 
ATOM     61  C   UNL A   1      44.987  30.028  31.759  1.00  0.00     0.049 A 
ATOM     62  C   UNL A   1      44.377  25.333  28.764  1.00  0.00     0.074 A 
ATOM     63  C   UNL A   1      46.251  30.289  32.259  1.00  0.00     0.029 A 
ATOM     64  N   UNL A   1      45.076  28.847  31.037  1.00  0.00    -0.354 N 
ATOM     65  N   UNL A   1      44.676  26.386  29.487  1.00  0.00    -0.248 NA
ATOM     66  C   UNL A   1      45.542  24.505  28.415  1.00  0.00     0.031 C 
ATOM     67  C   UNL A   1      47.117  29.299  31.790  1.00  0.00     0.029 A 
ATOM     68  C   UNL A   1      46.380  28.382  31.055  1.00  0.00     0.049 A 
ATOM     69  H   UNL A   1      44.325  28.405  30.579  1.00  0.00     0.167 HD
ATOM     70  C   UNL A   1      46.045  26.322  29.715  1.00  0.00     0.074 A 
ATOM     71  C   UNL A   1      46.523  25.128  29.052  1.00  0.00     0.031 C 
ATOM     72  C   UNL A   1      46.835  27.175  30.413  1.00  0.00     0.037 A 
BRANCH  59  73
ATOM     73  C   UNL A   1      43.859  32.095  32.671  1.00  0.00     0.064 A 
ATOM     74  C   UNL A   1      44.276  33.286  32.060  1.00  0.00     0.173 A 
ATOM     75  C   UNL A   1      43.483  32.147  34.023  1.00  0.00     0.173 A 
ATOM     76  F   UNL A   1      44.662  33.287  30.775  1.00  0.00    -0.203 F 
ATOM     77  C   UNL A   1      44.342  34.476  32.781  1.00  0.00     0.198 A 
ATOM     78  C   UNL A   1      43.516  33.345  34.730  1.00  0.00     0.198 A 
ATOM     79  F   UNL A   1      43.074  31.038  34.655  1.00  0.00    -0.203 F 
ATOM     80  F   UNL A   1      44.794  35.591  32.190  1.00  0.00    -0.200 F 
ATOM     81  C   UNL A   1      43.954  34.506  34.112  1.00  0.00     0.200 A 
ATOM     82  F   UNL A   1      43.128  33.374  36.012  1.00  0.00    -0.200 F 
ATOM     83  F   UNL A   1      44.009  35.654  34.801  1.00  0.00    -0.200 F 
ENDBRANCH  59  73
BRANCH  60  84
ATOM     84  C   UNL A   1      42.919  23.636  27.435  1.00  0.00     0.064 A 
ATOM     85  C   UNL A   1      42.443  22.443  27.998  1.00  0.00     0.173 A 
ATOM     86  C   UNL A   1      43.314  23.607  26.089  1.00  0.00     0.173 A 
ATOM     87  F   UNL A   1      42.084  22.410  29.290  1.00  0.00    -0.203 F 
ATOM     88  C   UNL A   1      42.385  21.266  27.253  1.00  0.00     0.198 A 
ATOM     89  C   UNL A   1      43.224  22.438  25.336  1.00  0.00     0.198 A 
ATOM     90  F   UNL A   1      43.786  24.717  25.504  1.00  0.00    -0.203 F 
ATOM     91  F   UNL A   1      41.979  20.129  27.833  1.00  0.00    -0.200 F 
ATOM     92  C   UNL A   1      42.769  21.266  25.921  1.00  0.00     0.200 A 
ATOM     93  F   UNL A   1      43.591  22.444  24.047  1.00  0.00    -0.200 F 
ATOM     94  F   UNL A   1      42.714  20.134  25.205  1.00  0.00    -0.200 F 
ENDBRANCH  60  84
BRANCH  72  95
ATOM     95  C   UNL A   1      48.289  26.825  30.563  1.00  0.00     0.064 A 
ATOM     96  C   UNL A   1      49.268  27.330  29.697  1.00  0.00     0.173 A 
ATOM     97  C   UNL A   1      48.714  26.040  31.648  1.00  0.00     0.173 A 
ATOM     98  F   UNL A   1      48.914  28.074  28.638  1.00  0.00    -0.203 F 
ATOM     99  C   UNL A   1      50.617  27.053  29.903  1.00  0.00     0.198 A 
ATOM    100  C   UNL A   1      50.066  25.792  31.870  1.00  0.00     0.198 A 
ATOM    101  F   UNL A   1      47.818  25.541  32.513  1.00  0.00    -0.203 F 
ATOM    102  F   UNL A   1      51.534  27.519  29.043  1.00  0.00    -0.200 F 
ATOM    103  C   UNL A   1      51.016  26.295  30.996  1.00  0.00     0.200 A 
ATOM    104  F   UNL A   1      50.448  25.077  32.937  1.00  0.00    -0.200 F 
ATOM    105  F   UNL A   1      52.317  26.050  31.204  1.00  0.00    -0.200 F 
ENDBRANCH  72  95
ENDBRANCH  46  47
ENDBRANCH  39  41
ENDBRANCH  38  39
ENDBRANCH  37  38
ENDBRANCH  36  37
ENDBRANCH  35  36
ENDBRANCH  34  35
ENDBRANCH  33  34
ENDBRANCH   1  33
TORSDOF 22
ENDMDL
MODEL 2
REMARK VINA RESULT:     -10.8      0.915      2.077
REMARK SMILES COc1cccc2c(C)cc(S[C@H](C)C(=O)Nc3ccc(C(=O)OCCOCCOCCOC(=O)c4ccc(-c5c6nc(c(-c7c(F)c(F)c(F)c(F)c7F)c7ccc([nH]7)c(-c7c(F)c(F)c(F)c(F)c7F)c7nc(c(-c8c(F)c(F)c(F)c(F)c8F)c8ccc5[nH]8)C=C7)C=C6)cc4)cc3)nc12
REMARK SMILES IDX 27 1 26 2 25 3 24 4 22 5 23 6 21 7 18 8 19 9 100 10 20 11
REMARK SMILES IDX 99 12 17 13 15 14 16 15 13 17 14 18 12 19 11 20 3 21 4 22
REMARK SMILES IDX 102 23 5 24 7 25 101 26 6 27 8 28 9 29 10 30 2 31 1 32 28 33
REMARK SMILES IDX 29 34 30 35 31 36 32 37 33 38 34 39 35 40 36 41 37 42 98 43
REMARK SMILES IDX 38 44 97 45 39 46 40 47 41 48 91 49 42 50 96 51 90 52 92 53
REMARK SMILES IDX 43 54 95 55 89 56 88 57 44 59 76 60 56 61 75 62 57 63 60 64
REMARK SMILES IDX 74 65 93 66 58 67 59 68 73 70 94 71 61 72 45 73 46 74 54 75
REMARK SMILES IDX 47 76 48 77 52 78 55 79 49 80 50 81 53 82 51 83 77 84 78 85
REMARK SMILES IDX 86 86 79 87 80 88 84 89 87 90 81 91 82 92 85 93 83 94 62 95
REMARK SMILES IDX 63 96 71 97 64 98 65 99 69 100 72 101 66 102 67 103 70 104
REMARK SMILES IDX 68 105
REMARK H PARENT 17 16 92 58 60 69
REMARK Flexibility Score: inf
ROOT
ATOM      1  O   UNL A   1      29.979  29.179  23.278  1.00  0.00    -0.376 OA
ENDROOT
BRANCH   1   2
ATOM      2  C   UNL A   1      30.230  28.208  22.280  1.00  0.00     0.202 C 
BRANCH   2   3
ATOM      3  C   UNL A   1      30.923  26.858  22.503  1.00  0.00     0.261 C 
BRANCH   3   4
ATOM      4  O   UNL A   1      32.072  26.557  21.712  1.00  0.00    -0.460 OA
BRANCH   4   5
ATOM      5  C   UNL A   1      33.249  26.993  22.230  1.00  0.00     0.338 C 
ATOM      6  O   UNL A   1      33.875  27.974  21.860  1.00  0.00    -0.246 OA
BRANCH   5   7
ATOM      7  C   UNL A   1      33.606  26.223  23.447  1.00  0.00     0.060 A 
ATOM      8  C   UNL A   1      34.054  24.612  25.662  1.00  0.00     0.041 A 
ATOM      9  C   UNL A   1      34.249  24.090  24.387  1.00  0.00     0.027 A 
ATOM     10  C   UNL A   1      33.848  25.975  25.838  1.00  0.00     0.027 A 
ATOM     11  C   UNL A   1      33.998  24.891  23.277  1.00  0.00     0.018 A 
ATOM     12  C   UNL A   1      33.603  26.782  24.729  1.00  0.00     0.018 A 
BRANCH   8  13
ATOM     13  N   UNL A   1      34.026  23.720  26.728  1.00  0.00    -0.325 N 
ATOM     14  C   UNL A   1      33.021  22.858  27.072  1.00  0.00     0.237 C 
ATOM     15  O   UNL A   1      33.274  22.073  27.998  1.00  0.00    -0.273 OA
ATOM     16  H   UNL A   1      34.824  23.705  27.303  1.00  0.00     0.169 HD
BRANCH  14  17
ATOM     17  C   UNL A   1      31.634  22.810  26.402  1.00  0.00     0.139 C 
ATOM     18  C   UNL A   1      30.868  24.114  26.528  1.00  0.00     0.030 C 
BRANCH  17  19
ATOM     19  S   UNL A   1      31.558  21.687  24.921  1.00  0.00    -0.093 SA
BRANCH  19  20
ATOM     20  C   UNL A   1      32.924  20.542  24.887  1.00  0.00     0.098 A 
ATOM     21  C   UNL A   1      33.140  16.878  25.182  1.00  0.00     0.145 A 
ATOM     22  C   UNL A   1      34.106  15.863  25.247  1.00  0.00     0.049 A 
ATOM     23  C   UNL A   1      33.486  18.241  25.033  1.00  0.00     0.114 A 
ATOM     24  C   UNL A   1      35.448  16.169  25.121  1.00  0.00     0.005 A 
ATOM     25  C   UNL A   1      34.864  18.539  24.927  1.00  0.00     0.007 A 
ATOM     26  N   UNL A   1      32.562  19.244  25.043  1.00  0.00    -0.238 NA
ATOM     27  C   UNL A   1      35.822  17.498  24.966  1.00  0.00     0.011 A 
ATOM     28  C   UNL A   1      35.237  19.893  24.799  1.00  0.00    -0.039 A 
ATOM     29  C   UNL A   1      36.676  20.339  24.857  1.00  0.00     0.045 C 
ATOM     30  C   UNL A   1      34.245  20.873  24.686  1.00  0.00     0.039 A 
BRANCH  21  31
ATOM     31  O   UNL A   1      31.859  16.403  25.367  1.00  0.00    -0.494 OA
ATOM     32  C   UNL A   1      31.796  15.113  25.961  1.00  0.00     0.278 C 
ENDBRANCH  21  31
ENDBRANCH  19  20
ENDBRANCH  17  19
ENDBRANCH  14  17
ENDBRANCH   8  13
ENDBRANCH   5   7
ENDBRANCH   4   5
ENDBRANCH   3   4
ENDBRANCH   2   3
ENDBRANCH   1   2
BRANCH   1  33
ATOM     33  C   UNL A   1      30.980  29.553  24.194  1.00  0.00     0.188 C 
BRANCH  33  34
ATOM     34  C   UNL A   1      30.733  30.779  25.095  1.00  0.00     0.188 C 
BRANCH  34  35
ATOM     35  O   UNL A   1      31.653  31.113  26.110  1.00  0.00    -0.376 OA
BRANCH  35  36
ATOM     36  C   UNL A   1      32.073  30.107  27.017  1.00  0.00     0.202 C 
BRANCH  36  37
ATOM     37  C   UNL A   1      33.539  29.661  27.198  1.00  0.00     0.261 C 
BRANCH  37  38
ATOM     38  O   UNL A   1      34.555  30.669  27.132  1.00  0.00    -0.460 OA
BRANCH  38  39
ATOM     39  C   UNL A   1      35.055  31.094  28.320  1.00  0.00     0.338 C 
ATOM     40  O   UNL A   1      34.509  31.819  29.137  1.00  0.00    -0.246 OA
BRANCH  39  41
ATOM     41  C   UNL A   1      36.309  30.363  28.593  1.00  0.00     0.060 A 
ATOM     42  C   UNL A   1      36.464  29.687  29.817  1.00  0.00     0.016 A 
ATOM     43  C   UNL A   1      37.321  30.333  27.637  1.00  0.00     0.016 A 
ATOM     44  C   UNL A   1      37.635  28.978  30.086  1.00  0.00     0.010 A 
ATOM     45  C   UNL A   1      38.508  29.656  27.923  1.00  0.00     0.010 A 
ATOM     46  C   UNL A   1      38.680  28.994  29.154  1.00  0.00    -0.014 A 
BRANCH  46  47
ATOM     47  C   UNL A   1      40.033  28.513  29.519  1.00  0.00     0.031 A 
ATOM     48  C   UNL A   1      40.902  29.427  30.335  1.00  0.00     0.074 A 
ATOM     49  C   UNL A   1      40.505  27.331  29.091  1.00  0.00     0.049 A 
ATOM     50  N   UNL A   1      42.177  29.340  30.612  1.00  0.00    -0.248 NA
ATOM     51  C   UNL A   1      40.240  30.612  30.905  1.00  0.00     0.031 C 
ATOM     52  C   UNL A   1      39.743  26.332  28.346  1.00  0.00     0.029 A 
ATOM     53  N   UNL A   1      41.762  26.787  29.199  1.00  0.00    -0.354 N 
ATOM     54  C   UNL A   1      42.473  30.467  31.365  1.00  0.00     0.074 A 
ATOM     55  C   UNL A   1      41.252  31.233  31.488  1.00  0.00     0.031 C 
ATOM     56  C   UNL A   1      40.557  25.309  28.034  1.00  0.00     0.029 A 
ATOM     57  C   UNL A   1      41.908  25.606  28.513  1.00  0.00     0.049 A 
ATOM     58  H   UNL A   1      42.488  27.204  29.717  1.00  0.00     0.167 HD
ATOM     59  C   UNL A   1      43.659  30.831  31.904  1.00  0.00     0.037 A 
ATOM     60  C   UNL A   1      43.015  24.877  28.265  1.00  0.00     0.037 A 
ATOM     61  C   UNL A   1      44.871  30.069  31.770  1.00  0.00     0.049 A 
ATOM     62  C   UNL A   1      44.348  25.352  28.794  1.00  0.00     0.074 A 
ATOM     63  C   UNL A   1      46.125  30.345  32.287  1.00  0.00     0.029 A 
ATOM     64  N   UNL A   1      44.982  28.885  31.057  1.00  0.00    -0.354 N 
ATOM     65  N   UNL A   1      44.627  26.412  29.515  1.00  0.00    -0.248 NA
ATOM     66  C   UNL A   1      45.526  24.532  28.466  1.00  0.00     0.031 C 
ATOM     67  C   UNL A   1      47.008  29.360  31.835  1.00  0.00     0.029 A 
ATOM     68  C   UNL A   1      46.290  28.432  31.096  1.00  0.00     0.049 A 
ATOM     69  H   UNL A   1      44.241  28.433  30.591  1.00  0.00     0.167 HD
ATOM     70  C   UNL A   1      45.993  26.362  29.762  1.00  0.00     0.074 A 
ATOM     71  C   UNL A   1      46.491  25.169  29.114  1.00  0.00     0.031 C 
ATOM     72  C   UNL A   1      46.765  27.225  30.467  1.00  0.00     0.037 A 
BRANCH  59  73
ATOM     73  C   UNL A   1      43.711  32.130  32.654  1.00  0.00     0.064 A 
ATOM     74  C   UNL A   1      43.517  32.193  34.041  1.00  0.00     0.173 A 
ATOM     75  C   UNL A   1      43.983  33.328  31.974  1.00  0.00     0.173 A 
ATOM     76  F   UNL A   1      43.238  31.079  34.735  1.00  0.00    -0.203 F 
ATOM     77  C   UNL A   1      43.566  33.410  34.717  1.00  0.00     0.198 A 
ATOM     78  C   UNL A   1      44.065  34.538  32.658  1.00  0.00     0.198 A 
ATOM     79  F   UNL A   1      44.178  33.325  30.648  1.00  0.00    -0.203 F 
ATOM     80  F   UNL A   1      43.325  33.452  36.034  1.00  0.00    -0.200 F 
ATOM     81  C   UNL A   1      43.848  34.579  34.027  1.00  0.00     0.200 A 
ATOM     82  F   UNL A   1      44.352  35.664  31.991  1.00  0.00    -0.200 F 
ATOM     83  F   UNL A   1      43.903  35.747  34.680  1.00  0.00    -0.200 F 
ENDBRANCH  59  73
BRANCH  60  84
ATOM     84  C   UNL A   1      42.925  23.633  27.455  1.00  0.00     0.064 A 
ATOM     85  C   UNL A   1      42.505  22.425  28.032  1.00  0.00     0.173 A 
ATOM     86  C   UNL A   1      43.287  23.614  26.099  1.00  0.00     0.173 A 
ATOM     87  F   UNL A   1      42.180  22.384  29.332  1.00  0.00    -0.203 F 
ATOM     88  C   UNL A   1      42.470  21.246  27.291  1.00  0.00     0.198 A 
ATOM     89  C   UNL A   1      43.220  22.440  25.351  1.00  0.00     0.198 A 
ATOM     90  F   UNL A   1      43.706  24.738  25.500  1.00  0.00    -0.203 F 
ATOM     91  F   UNL A   1      42.119  20.096  27.883  1.00  0.00    -0.200 F 
ATOM     92  C   UNL A   1      42.821  21.255  25.950  1.00  0.00     0.200 A 
ATOM     93  F   UNL A   1      43.554  22.455  24.053  1.00  0.00    -0.200 F 
ATOM     94  F   UNL A   1      42.788  20.120  25.238  1.00  0.00    -0.200 F 
ENDBRANCH  60  84
BRANCH  72  95
ATOM     95  C   UNL A   1      48.220  26.890  30.639  1.00  0.00     0.064 A 
ATOM     96  C   UNL A   1      49.218  27.484  29.854  1.00  0.00     0.173 A 
ATOM     97  C   UNL A   1      48.624  26.025  31.670  1.00  0.00     0.173 A 
ATOM     98  F   UNL A   1      48.885  28.309  28.849  1.00  0.00    -0.203 F 
ATOM     99  C   UNL A   1      50.564  27.215  30.085  1.00  0.00     0.198 A 
ATOM    100  C   UNL A   1      49.972  25.784  31.919  1.00  0.00     0.198 A 
ATOM    101  F   UNL A   1      47.709  25.439  32.457  1.00  0.00    -0.203 F 
ATOM    102  F   UNL A   1      51.501  27.768  29.301  1.00  0.00    -0.200 F 
ATOM    103  C   UNL A   1      50.941  26.375  31.124  1.00  0.00     0.200 A 
ATOM    104  F   UNL A   1      50.332  24.988  32.936  1.00  0.00    -0.200 F 
ATOM    105  F   UNL A   1      52.238  26.137  31.359  1.00  0.00    -0.200 F 
ENDBRANCH  72  95
ENDBRANCH  46  47
ENDBRANCH  39  41
ENDBRANCH  38  39
ENDBRANCH  37  38
ENDBRANCH  36  37
ENDBRANCH  35  36
ENDBRANCH  34  35
ENDBRANCH  33  34
ENDBRANCH   1  33
TORSDOF 22
ENDMDL
MODEL 3
REMARK VINA RESULT:      -9.9      5.252      8.930
REMARK SMILES COc1cccc2c(C)cc(S[C@H](C)C(=O)Nc3ccc(C(=O)OCCOCCOCCOC(=O)c4ccc(-c5c6nc(c(-c7c(F)c(F)c(F)c(F)c7F)c7ccc([nH]7)c(-c7c(F)c(F)c(F)c(F)c7F)c7nc(c(-c8c(F)c(F)c(F)c(F)c8F)c8ccc5[nH]8)C=C7)C=C6)cc4)cc3)nc12
REMARK SMILES IDX 27 1 26 2 25 3 24 4 22 5 23 6 21 7 18 8 19 9 100 10 20 11
REMARK SMILES IDX 99 12 17 13 15 14 16 15 13 17 14 18 12 19 11 20 3 21 4 22
REMARK SMILES IDX 102 23 5 24 7 25 101 26 6 27 8 28 9 29 10 30 2 31 1 32 28 33
REMARK SMILES IDX 29 34 30 35 31 36 32 37 33 38 34 39 35 40 36 41 37 42 98 43
REMARK SMILES IDX 38 44 97 45 39 46 40 47 41 48 91 49 42 50 96 51 90 52 92 53
REMARK SMILES IDX 43 54 95 55 89 56 88 57 44 59 76 60 56 61 75 62 57 63 60 64
REMARK SMILES IDX 74 65 93 66 58 67 59 68 73 70 94 71 61 72 45 73 46 74 54 75
REMARK SMILES IDX 47 76 48 77 52 78 55 79 49 80 50 81 53 82 51 83 77 84 78 85
REMARK SMILES IDX 86 86 79 87 80 88 84 89 87 90 81 91 82 92 85 93 83 94 62 95
REMARK SMILES IDX 63 96 71 97 64 98 65 99 69 100 72 101 66 102 67 103 70 104
REMARK SMILES IDX 68 105
REMARK H PARENT 17 16 92 58 60 69
REMARK Flexibility Score: inf
ROOT
ATOM      1  O   UNL A   1      36.362  35.100  33.163  1.00  0.00    -0.376 OA
ENDROOT
BRANCH   1   2
ATOM      2  C   UNL A   1      35.046  34.622  33.370  1.00  0.00     0.202 C 
BRANCH   2   3
ATOM      3  C   UNL A   1      34.257  33.733  32.400  1.00  0.00     0.261 C 
BRANCH   3   4
ATOM      4  O   UNL A   1      34.816  32.469  32.046  1.00  0.00    -0.460 OA
BRANCH   4   5
ATOM      5  C   UNL A   1      34.921  32.248  30.710  1.00  0.00     0.338 C 
ATOM      6  O   UNL A   1      34.163  32.674  29.852  1.00  0.00    -0.246 OA
BRANCH   5   7
ATOM      7  C   UNL A   1      36.195  31.560  30.389  1.00  0.00     0.060 A 
ATOM      8  C   UNL A   1      38.649  30.306  30.061  1.00  0.00     0.041 A 
ATOM      9  C   UNL A   1      37.669  29.697  30.840  1.00  0.00     0.027 A 
ATOM     10  C   UNL A   1      38.338  31.415  29.284  1.00  0.00     0.027 A 
ATOM     11  C   UNL A   1      36.449  30.340  31.024  1.00  0.00     0.018 A 
ATOM     12  C   UNL A   1      37.116  32.058  29.461  1.00  0.00     0.018 A 
BRANCH   8  13
ATOM     13  N   UNL A   1      39.941  29.795  30.133  1.00  0.00    -0.325 N 
ATOM     14  C   UNL A   1      40.586  29.016  29.212  1.00  0.00     0.237 C 
ATOM     15  O   UNL A   1      41.780  28.780  29.445  1.00  0.00    -0.273 OA
ATOM     16  H   UNL A   1      40.452  30.022  30.942  1.00  0.00     0.169 HD
BRANCH  14  17
ATOM     17  C   UNL A   1      39.934  28.428  27.945  1.00  0.00     0.139 C 
ATOM     18  C   UNL A   1      40.508  29.000  26.662  1.00  0.00     0.030 C 
BRANCH  17  19
ATOM     19  S   UNL A   1      39.362  26.669  28.148  1.00  0.00    -0.093 SA
BRANCH  19  20
ATOM     20  C   UNL A   1      40.731  25.530  28.213  1.00  0.00     0.098 A 
ATOM     21  C   UNL A   1      44.375  25.989  28.473  1.00  0.00     0.145 A 
ATOM     22  C   UNL A   1      45.554  25.230  28.464  1.00  0.00     0.049 A 
ATOM     23  C   UNL A   1      43.094  25.397  28.369  1.00  0.00     0.114 A 
ATOM     24  C   UNL A   1      45.495  23.851  28.395  1.00  0.00     0.005 A 
ATOM     25  C   UNL A   1      43.052  23.986  28.278  1.00  0.00     0.007 A 
ATOM     26  N   UNL A   1      41.945  26.127  28.302  1.00  0.00    -0.238 NA
ATOM     27  C   UNL A   1      44.253  23.236  28.298  1.00  0.00     0.011 A 
ATOM     28  C   UNL A   1      41.790  23.372  28.151  1.00  0.00    -0.039 A 
ATOM     29  C   UNL A   1      41.637  21.899  27.870  1.00  0.00     0.045 C 
ATOM     30  C   UNL A   1      40.633  24.156  28.216  1.00  0.00     0.039 A 
BRANCH  21  31
ATOM     31  O   UNL A   1      44.618  27.345  28.504  1.00  0.00    -0.494 OA
ATOM     32  C   UNL A   1      45.163  27.867  27.299  1.00  0.00     0.278 C 
ENDBRANCH  21  31
ENDBRANCH  19  20
ENDBRANCH  17  19
ENDBRANCH  14  17
ENDBRANCH   8  13
ENDBRANCH   5   7
ENDBRANCH   4   5
ENDBRANCH   3   4
ENDBRANCH   2   3
ENDBRANCH   1   2
BRANCH   1  33
ATOM     33  C   UNL A   1      37.419  34.213  32.886  1.00  0.00     0.188 C 
BRANCH  33  34
ATOM     34  C   UNL A   1      38.849  34.624  33.289  1.00  0.00     0.188 C 
BRANCH  34  35
ATOM     35  O   UNL A   1      39.069  35.376  34.462  1.00  0.00    -0.376 OA
BRANCH  35  36
ATOM     36  C   UNL A   1      39.209  34.697  35.699  1.00  0.00     0.202 C 
BRANCH  36  37
ATOM     37  C   UNL A   1      38.044  34.024  36.455  1.00  0.00     0.261 C 
BRANCH  37  38
ATOM     38  O   UNL A   1      37.570  32.763  35.964  1.00  0.00    -0.460 OA
BRANCH  38  39
ATOM     39  C   UNL A   1      38.035  31.660  36.602  1.00  0.00     0.338 C 
ATOM     40  O   UNL A   1      37.552  31.110  37.580  1.00  0.00    -0.246 OA
BRANCH  39  41
ATOM     41  C   UNL A   1      39.125  31.072  35.796  1.00  0.00     0.060 A 
ATOM     42  C   UNL A   1      40.455  31.190  36.239  1.00  0.00     0.016 A 
ATOM     43  C   UNL A   1      38.831  30.394  34.615  1.00  0.00     0.016 A 
ATOM     44  C   UNL A   1      41.496  30.628  35.498  1.00  0.00     0.010 A 
ATOM     45  C   UNL A   1      39.877  29.867  33.855  1.00  0.00     0.010 A 
ATOM     46  C   UNL A   1      41.213  29.999  34.281  1.00  0.00    -0.014 A 
BRANCH  46  47
ATOM     47  C   UNL A   1      42.297  29.657  33.330  1.00  0.00     0.031 A 
ATOM     48  C   UNL A   1      43.066  28.390  33.575  1.00  0.00     0.074 A 
ATOM     49  C   UNL A   1      42.636  30.472  32.317  1.00  0.00     0.049 A 
ATOM     50  N   UNL A   1      44.175  27.967  33.028  1.00  0.00    -0.248 NA
ATOM     51  C   UNL A   1      42.509  27.481  34.591  1.00  0.00     0.031 C 
ATOM     52  C   UNL A   1      41.933  31.695  31.941  1.00  0.00     0.029 A 
ATOM     53  N   UNL A   1      43.689  30.400  31.438  1.00  0.00    -0.354 N 
ATOM     54  C   UNL A   1      44.461  26.759  33.648  1.00  0.00     0.074 A 
ATOM     55  C   UNL A   1      43.420  26.524  34.626  1.00  0.00     0.031 C 
ATOM     56  C   UNL A   1      42.593  32.279  30.925  1.00  0.00     0.029 A 
ATOM     57  C   UNL A   1      43.791  31.498  30.617  1.00  0.00     0.049 A 
ATOM     58  H   UNL A   1      44.310  29.637  31.399  1.00  0.00     0.167 HD
ATOM     59  C   UNL A   1      45.500  25.922  33.423  1.00  0.00     0.037 A 
ATOM     60  C   UNL A   1      44.765  31.846  29.753  1.00  0.00     0.037 A 
ATOM     61  C   UNL A   1      46.535  26.168  32.456  1.00  0.00     0.049 A 
ATOM     62  C   UNL A   1      45.967  30.945  29.586  1.00  0.00     0.074 A 
ATOM     63  C   UNL A   1      47.628  25.378  32.143  1.00  0.00     0.029 A 
ATOM     64  N   UNL A   1      46.611  27.297  31.653  1.00  0.00    -0.354 N 
ATOM     65  N   UNL A   1      46.231  29.798  30.165  1.00  0.00    -0.248 NA
ATOM     66  C   UNL A   1      47.011  31.393  28.652  1.00  0.00     0.031 C 
ATOM     67  C   UNL A   1      48.397  26.058  31.194  1.00  0.00     0.029 A 
ATOM     68  C   UNL A   1      47.748  27.237  30.865  1.00  0.00     0.049 A 
ATOM     69  H   UNL A   1      45.956  28.031  31.646  1.00  0.00     0.167 HD
ATOM     70  C   UNL A   1      47.443  29.370  29.635  1.00  0.00     0.074 A 
ATOM     71  C   UNL A   1      47.865  30.379  28.689  1.00  0.00     0.031 C 
ATOM     72  C   UNL A   1      48.141  28.239  29.906  1.00  0.00     0.037 A 
BRANCH  59  73
ATOM     73  C   UNL A   1      45.589  24.684  34.266  1.00  0.00     0.064 A 
ATOM     74  C   UNL A   1      46.264  24.672  35.496  1.00  0.00     0.173 A 
ATOM     75  C   UNL A   1      44.966  23.497  33.849  1.00  0.00     0.173 A 
ATOM     76  F   UNL A   1      46.889  25.776  35.932  1.00  0.00    -0.203 F 
ATOM     77  C   UNL A   1      46.338  23.511  36.261  1.00  0.00     0.198 A 
ATOM     78  C   UNL A   1      45.013  22.348  34.633  1.00  0.00     0.198 A 
ATOM     79  F   UNL A   1      44.305  23.453  32.682  1.00  0.00    -0.203 F 
ATOM     80  F   UNL A   1      47.033  23.510  37.407  1.00  0.00    -0.200 F 
ATOM     81  C   UNL A   1      45.705  22.354  35.834  1.00  0.00     0.200 A 
ATOM     82  F   UNL A   1      44.389  21.235  34.224  1.00  0.00    -0.200 F 
ATOM     83  F   UNL A   1      45.770  21.241  36.576  1.00  0.00    -0.200 F 
ENDBRANCH  59  73
BRANCH  60  84
ATOM     84  C   UNL A   1      44.668  33.120  28.992  1.00  0.00     0.064 A 
ATOM     85  C   UNL A   1      45.061  34.337  29.568  1.00  0.00     0.173 A 
ATOM     86  C   UNL A   1      44.150  33.157  27.688  1.00  0.00     0.173 A 
ATOM     87  F   UNL A   1      45.531  34.360  30.824  1.00  0.00    -0.203 F 
ATOM     88  C   UNL A   1      44.922  35.541  28.879  1.00  0.00     0.198 A 
ATOM     89  C   UNL A   1      44.043  34.358  26.987  1.00  0.00     0.198 A 
ATOM     90  F   UNL A   1      43.750  32.024  27.092  1.00  0.00    -0.203 F 
ATOM     91  F   UNL A   1      45.254  36.693  29.477  1.00  0.00    -0.200 F 
ATOM     92  C   UNL A   1      44.420  35.549  27.588  1.00  0.00     0.200 A 
ATOM     93  F   UNL A   1      43.562  34.360  25.737  1.00  0.00    -0.200 F 
ATOM     94  F   UNL A   1      44.286  36.707  26.926  1.00  0.00    -0.200 F 
ENDBRANCH  60  84
BRANCH  72  95
ATOM     95  C   UNL A   1      49.401  27.986  29.128  1.00  0.00     0.064 A 
ATOM     96  C   UNL A   1      49.396  27.291  27.911  1.00  0.00     0.173 A 
ATOM     97  C   UNL A   1      50.620  28.528  29.570  1.00  0.00     0.173 A 
ATOM     98  F   UNL A   1      48.261  26.743  27.450  1.00  0.00    -0.203 F 
ATOM     99  C   UNL A   1      50.566  27.137  27.171  1.00  0.00     0.198 A 
ATOM    100  C   UNL A   1      51.780  28.401  28.812  1.00  0.00     0.198 A 
ATOM    101  F   UNL A   1      50.677  29.212  30.723  1.00  0.00    -0.203 F 
ATOM    102  F   UNL A   1      50.546  26.440  26.026  1.00  0.00    -0.200 F 
ATOM    103  C   UNL A   1      51.753  27.702  27.615  1.00  0.00     0.200 A 
ATOM    104  F   UNL A   1      52.920  28.964  29.234  1.00  0.00    -0.200 F 
ATOM    105  F   UNL A   1      52.872  27.571  26.889  1.00  0.00    -0.200 F 
ENDBRANCH  72  95
ENDBRANCH  46  47
ENDBRANCH  39  41
ENDBRANCH  38  39
ENDBRANCH  37  38
ENDBRANCH  36  37
ENDBRANCH  35  36
ENDBRANCH  34  35
ENDBRANCH  33  34
ENDBRANCH   1  33
TORSDOF 22
ENDMDL
