MODEL 1
REMARK VINA RESULT:     -10.9      0.000      0.000
REMARK SMILES C[C@@H]1C[N@@H+]2CCCC[C@@H]2CN1C(=O)NC(=O)CCC(=O)OCCOCCOCCOC(=O)c1ccc(-c2c3nc(c(-c4c(F)c(F)c(F)c(F)c4F)c4ccc([nH]4)c(-c4c(F)c(F)c(F)c(F)c4F)c4nc(c(-c5c(F)c(F)c(F)c(F)c5F)c5ccc2[nH]5)C=C4)C=C3)cc1
REMARK SMILES IDX 25 1 24 2 23 3 22 4 21 5 19 6 20 7 18 8 17 9 15 10 12 11
REMARK SMILES IDX 13 12 14 13 16 15 11 16 1 17 2 18 3 19 4 20 10 21 5 22 9 23
REMARK SMILES IDX 6 25 8 26 7 27 26 28 27 29 28 30 29 31 30 32 31 33 32 34
REMARK SMILES IDX 33 35 34 36 95 37 35 38 94 39 36 40 37 41 38 42 88 43 39 44
REMARK SMILES IDX 93 45 87 46 89 47 40 48 92 49 86 50 85 51 41 53 73 54 53 55
REMARK SMILES IDX 72 56 54 57 57 58 71 59 90 60 55 61 56 62 70 64 91 65 58 66
REMARK SMILES IDX 42 67 43 68 51 69 44 70 45 71 49 72 52 73 46 74 47 75 50 76
REMARK SMILES IDX 48 77 74 78 75 79 83 80 76 81 77 82 81 83 84 84 78 85 79 86
REMARK SMILES IDX 82 87 80 88 59 89 60 90 68 91 61 92 62 93 66 94 69 95 63 96
REMARK SMILES IDX 64 97 67 98 65 99
REMARK H PARENT 14 14 4 24 89 52 57 63
REMARK Flexibility Score: inf
ROOT
ATOM      1  C   UNL A   1      34.350  31.175  27.624  1.00  0.00     0.188 C 
ENDROOT
BRANCH   1   2
ATOM      2  O   UNL A   1      32.968  30.843  27.357  1.00  0.00    -0.376 OA
BRANCH   2   3
ATOM      3  C   UNL A   1      32.456  29.495  27.257  1.00  0.00     0.202 C 
BRANCH   3   4
ATOM      4  C   UNL A   1      33.462  28.328  26.893  1.00  0.00     0.261 C 
BRANCH   4   5
ATOM      5  O   UNL A   1      33.366  27.783  25.519  1.00  0.00    -0.463 OA
BRANCH   5   6
ATOM      6  C   UNL A   1      32.179  27.207  25.198  1.00  0.00     0.306 C 
ATOM      7  O   UNL A   1      31.446  27.651  24.313  1.00  0.00    -0.252 OA
BRANCH   6   8
ATOM      8  C   UNL A   1      31.704  25.980  25.987  1.00  0.00     0.132 C 
BRANCH   8   9
ATOM      9  C   UNL A   1      30.791  24.816  25.617  1.00  0.00     0.112 C 
BRANCH   9  10
ATOM     10  C   UNL A   1      30.392  23.758  26.594  1.00  0.00     0.228 C 
ATOM     11  C   UNL A   1      32.396  22.595  26.611  1.00  0.00     0.324 C 
ATOM     12  O   UNL A   1      32.830  22.431  27.731  1.00  0.00    -0.248 OA
ATOM     13  N   UNL A   1      31.054  22.577  26.515  1.00  0.00    -0.278 N 
ATOM     14  H   UNL A   1      30.566  21.730  26.391  1.00  0.00     0.174 HD
ATOM     15  O   UNL A   1      29.459  23.898  27.380  1.00  0.00    -0.275 OA
BRANCH  11  16
ATOM     16  N   UNL A   1      33.173  22.600  25.466  1.00  0.00    -0.310 N 
ATOM     17  C   UNL A   1      35.130  24.054  24.683  1.00  0.00     0.037 C 
ATOM     18  C   UNL A   1      34.650  22.888  25.553  1.00  0.00     0.139 C 
ATOM     19  C   UNL A   1      35.536  21.662  25.173  1.00  0.00     0.287 C 
ATOM     20  N   UNL A   1      35.024  20.354  25.595  1.00  0.00    -0.329 N 
ATOM     21  C   UNL A   1      32.843  21.506  24.591  1.00  0.00     0.186 C 
ATOM     22  C   UNL A   1      36.099  19.042  24.844  1.00  0.00     0.262 C 
ATOM     23  C   UNL A   1      33.307  20.235  25.369  1.00  0.00     0.203 C 
ATOM     24  H   UNL A   1      35.098  20.212  26.603  1.00  0.00     0.348 HD
ATOM     25  C   UNL A   1      35.116  17.227  24.116  1.00  0.00     0.062 C 
ATOM     26  C   UNL A   1      32.358  18.771  24.782  1.00  0.00     0.067 C 
ATOM     27  C   UNL A   1      33.178  17.264  24.184  1.00  0.00     0.012 C 
ENDBRANCH  11  16
ENDBRANCH   9  10
ENDBRANCH   8   9
ENDBRANCH   6   8
ENDBRANCH   5   6
ENDBRANCH   4   5
ENDBRANCH   3   4
ENDBRANCH   2   3
ENDBRANCH   1   2
BRANCH   1  28
ATOM     28  C   UNL A   1      34.795  32.435  28.418  1.00  0.00     0.188 C 
BRANCH  28  29
ATOM     29  O   UNL A   1      34.007  32.825  29.542  1.00  0.00    -0.376 OA
BRANCH  29  30
ATOM     30  C   UNL A   1      34.508  33.867  30.368  1.00  0.00     0.202 C 
BRANCH  30  31
ATOM     31  C   UNL A   1      34.406  33.719  31.897  1.00  0.00     0.261 C 
BRANCH  31  32
ATOM     32  O   UNL A   1      35.459  32.960  32.524  1.00  0.00    -0.460 OA
BRANCH  32  33
ATOM     33  C   UNL A   1      36.590  33.644  32.896  1.00  0.00     0.338 C 
ATOM     34  O   UNL A   1      36.642  34.822  33.195  1.00  0.00    -0.246 OA
BRANCH  33  35
ATOM     35  C   UNL A   1      37.808  32.757  32.593  1.00  0.00     0.060 A 
ATOM     36  C   UNL A   1      38.982  31.477  33.488  1.00  0.00     0.016 A 
ATOM     37  C   UNL A   1      37.999  32.906  30.833  1.00  0.00     0.016 A 
ATOM     38  C   UNL A   1      40.147  30.555  32.600  1.00  0.00     0.010 A 
ATOM     39  C   UNL A   1      39.188  31.913  30.058  1.00  0.00     0.010 A 
ATOM     40  C   UNL A   1      40.218  30.807  30.900  1.00  0.00    -0.014 A 
BRANCH  40  41
ATOM     41  C   UNL A   1      41.443  30.235  30.309  1.00  0.00     0.031 A 
ATOM     42  C   UNL A   1      41.331  28.904  29.625  1.00  0.00     0.074 A 
ATOM     43  C   UNL A   1      42.477  31.075  30.109  1.00  0.00     0.049 A 
ATOM     44  N   UNL A   1      42.160  28.327  28.799  1.00  0.00    -0.248 NA
ATOM     45  C   UNL A   1      40.103  28.128  29.858  1.00  0.00     0.031 C 
ATOM     46  C   UNL A   1      42.578  32.435  30.654  1.00  0.00     0.029 A 
ATOM     47  N   UNL A   1      43.590  30.962  29.320  1.00  0.00    -0.354 N 
ATOM     48  C   UNL A   1      41.550  27.133  28.431  1.00  0.00     0.074 A 
ATOM     49  C   UNL A   1      40.285  27.060  29.106  1.00  0.00     0.031 C 
ATOM     50  C   UNL A   1      43.631  33.058  30.107  1.00  0.00     0.029 A 
ATOM     51  C   UNL A   1      44.346  32.111  29.264  1.00  0.00     0.049 A 
ATOM     52  H   UNL A   1      43.828  30.137  28.839  1.00  0.00     0.167 HD
ATOM     53  C   UNL A   1      42.024  26.168  27.614  1.00  0.00     0.037 A 
ATOM     54  C   UNL A   1      45.507  32.349  28.625  1.00  0.00     0.037 A 
ATOM     55  C   UNL A   1      43.318  26.256  27.005  1.00  0.00     0.049 A 
ATOM     56  C   UNL A   1      46.073  31.211  27.821  1.00  0.00     0.074 A 
ATOM     57  C   UNL A   1      44.000  25.310  26.271  1.00  0.00     0.029 A 
ATOM     58  N   UNL A   1      44.134  27.379  27.090  1.00  0.00    -0.354 N 
ATOM     59  N   UNL A   1      45.531  30.044  27.553  1.00  0.00    -0.248 NA
ATOM     60  C   UNL A   1      47.414  31.396  27.262  1.00  0.00     0.031 C 
ATOM     61  C   UNL A   1      45.260  25.838  25.969  1.00  0.00     0.029 A 
ATOM     62  C   UNL A   1      45.332  27.140  26.449  1.00  0.00     0.049 A 
ATOM     63  H   UNL A   1      43.894  28.221  27.541  1.00  0.00     0.167 HD
ATOM     64  C   UNL A   1      46.465  29.348  26.804  1.00  0.00     0.074 A 
ATOM     65  C   UNL A   1      47.594  30.246  26.627  1.00  0.00     0.031 C 
ATOM     66  C   UNL A   1      46.416  28.083  26.316  1.00  0.00     0.037 A 
BRANCH  53  67
ATOM     67  C   UNL A   1      41.194  24.924  27.476  1.00  0.00     0.064 A 
ATOM     68  C   UNL A   1      41.540  23.716  28.103  1.00  0.00     0.173 A 
ATOM     69  C   UNL A   1      40.083  24.919  26.619  1.00  0.00     0.173 A 
ATOM     70  F   UNL A   1      42.626  23.650  28.890  1.00  0.00    -0.203 F 
ATOM     71  C   UNL A   1      40.823  22.547  27.854  1.00  0.00     0.198 A 
ATOM     72  C   UNL A   1      39.351  23.755  26.395  1.00  0.00     0.198 A 
ATOM     73  F   UNL A   1      39.725  26.037  25.971  1.00  0.00    -0.203 F 
ATOM     74  F   UNL A   1      41.218  21.389  28.404  1.00  0.00    -0.200 F 
ATOM     75  C   UNL A   1      39.727  22.568  27.004  1.00  0.00     0.200 A 
ATOM     76  F   UNL A   1      38.298  23.778  25.567  1.00  0.00    -0.200 F 
ATOM     77  F   UNL A   1      39.049  21.440  26.752  1.00  0.00    -0.200 F 
ENDBRANCH  53  67
BRANCH  54  78
ATOM     78  C   UNL A   1      46.223  33.647  28.800  1.00  0.00     0.064 A 
ATOM     79  C   UNL A   1      47.117  33.874  29.856  1.00  0.00     0.173 A 
ATOM     80  C   UNL A   1      46.027  34.704  27.893  1.00  0.00     0.173 A 
ATOM     81  F   UNL A   1      47.332  32.917  30.769  1.00  0.00    -0.203 F 
ATOM     82  C   UNL A   1      47.781  35.096  29.996  1.00  0.00     0.198 A 
ATOM     83  C   UNL A   1      46.718  35.908  28.010  1.00  0.00     0.198 A 
ATOM     84  F   UNL A   1      45.174  34.560  26.867  1.00  0.00    -0.203 F 
ATOM     85  F   UNL A   1      48.600  35.297  31.037  1.00  0.00    -0.200 F 
ATOM     86  C   UNL A   1      47.591  36.107  29.065  1.00  0.00     0.200 A 
ATOM     87  F   UNL A   1      46.542  36.870  27.093  1.00  0.00    -0.200 F 
ATOM     88  F   UNL A   1      48.241  37.272  29.189  1.00  0.00    -0.200 F 
ENDBRANCH  54  78
BRANCH  66  89
ATOM     89  C   UNL A   1      47.604  27.624  25.534  1.00  0.00     0.064 A 
ATOM     90  C   UNL A   1      47.650  27.737  24.138  1.00  0.00     0.173 A 
ATOM     91  C   UNL A   1      48.730  27.124  26.203  1.00  0.00     0.173 A 
ATOM     92  F   UNL A   1      46.589  28.202  23.461  1.00  0.00    -0.203 F 
ATOM     93  C   UNL A   1      48.778  27.335  23.434  1.00  0.00     0.198 A 
ATOM     94  C   UNL A   1      49.869  26.757  25.497  1.00  0.00     0.198 A 
ATOM     95  F   UNL A   1      48.730  27.013  27.539  1.00  0.00    -0.203 F 
ATOM     96  F   UNL A   1      48.788  27.401  22.096  1.00  0.00    -0.200 F 
ATOM     97  C   UNL A   1      49.889  26.854  24.115  1.00  0.00     0.200 A 
ATOM     98  F   UNL A   1      50.948  26.314  26.158  1.00  0.00    -0.200 F 
ATOM     99  F   UNL A   1      50.979  26.478  23.433  1.00  0.00    -0.200 F 
ENDBRANCH  66  89
ENDBRANCH  40  41
ENDBRANCH  33  35
ENDBRANCH  32  33
ENDBRANCH  31  32
ENDBRANCH  30  31
ENDBRANCH  29  30
ENDBRANCH  28  29
ENDBRANCH   1  28
TORSDOF 20
ENDMDL
MODEL 2
REMARK VINA RESULT:     -10.4      5.567     10.488
REMARK SMILES C[C@@H]1C[N@@H+]2CCCC[C@@H]2CN1C(=O)NC(=O)CCC(=O)OCCOCCOCCOC(=O)c1ccc(-c2c3nc(c(-c4c(F)c(F)c(F)c(F)c4F)c4ccc([nH]4)c(-c4c(F)c(F)c(F)c(F)c4F)c4nc(c(-c5c(F)c(F)c(F)c(F)c5F)c5ccc2[nH]5)C=C4)C=C3)cc1
REMARK SMILES IDX 25 1 24 2 23 3 22 4 21 5 19 6 20 7 18 8 17 9 15 10 12 11
REMARK SMILES IDX 13 12 14 13 16 15 11 16 1 17 2 18 3 19 4 20 10 21 5 22 9 23
REMARK SMILES IDX 6 25 8 26 7 27 26 28 27 29 28 30 29 31 30 32 31 33 32 34
REMARK SMILES IDX 33 35 34 36 95 37 35 38 94 39 36 40 37 41 38 42 88 43 39 44
REMARK SMILES IDX 93 45 87 46 89 47 40 48 92 49 86 50 85 51 41 53 73 54 53 55
REMARK SMILES IDX 72 56 54 57 57 58 71 59 90 60 55 61 56 62 70 64 91 65 58 66
REMARK SMILES IDX 42 67 43 68 51 69 44 70 45 71 49 72 52 73 46 74 47 75 50 76
REMARK SMILES IDX 48 77 74 78 75 79 83 80 76 81 77 82 81 83 84 84 78 85 79 86
REMARK SMILES IDX 82 87 80 88 59 89 60 90 68 91 61 92 62 93 66 94 69 95 63 96
REMARK SMILES IDX 64 97 67 98 65 99
REMARK H PARENT 14 14 4 24 89 52 57 63
REMARK Flexibility Score: inf
ROOT
ATOM      1  C   UNL A   1      33.505  21.972  27.270  1.00  0.00     0.188 C 
ENDROOT
BRANCH   1   2
ATOM      2  O   UNL A   1      33.977  20.690  26.795  1.00  0.00    -0.376 OA
BRANCH   2   3
ATOM      3  C   UNL A   1      33.280  19.868  25.832  1.00  0.00     0.202 C 
BRANCH   3   4
ATOM      4  C   UNL A   1      33.055  20.436  24.373  1.00  0.00     0.261 C 
BRANCH   4   5
ATOM      5  O   UNL A   1      31.995  21.461  24.223  1.00  0.00    -0.463 OA
BRANCH   5   6
ATOM      6  C   UNL A   1      31.938  22.071  23.012  1.00  0.00     0.306 C 
ATOM      7  O   UNL A   1      32.021  21.448  21.952  1.00  0.00    -0.252 OA
BRANCH   6   8
ATOM      8  C   UNL A   1      31.804  23.598  22.948  1.00  0.00     0.132 C 
BRANCH   8   9
ATOM      9  C   UNL A   1      32.837  24.709  22.797  1.00  0.00     0.112 C 
BRANCH   9  10
ATOM     10  C   UNL A   1      32.898  25.599  21.597  1.00  0.00     0.228 C 
ATOM     11  C   UNL A   1      32.944  27.622  22.727  1.00  0.00     0.324 C 
ATOM     12  O   UNL A   1      33.869  28.326  22.384  1.00  0.00    -0.248 OA
ATOM     13  N   UNL A   1      32.419  26.859  21.750  1.00  0.00    -0.278 N 
ATOM     14  H   UNL A   1      31.708  27.205  21.162  1.00  0.00     0.174 HD
ATOM     15  O   UNL A   1      33.278  25.206  20.497  1.00  0.00    -0.275 OA
BRANCH  11  16
ATOM     16  N   UNL A   1      32.311  27.707  23.954  1.00  0.00    -0.310 N 
ATOM     17  C   UNL A   1      33.169  27.971  26.352  1.00  0.00     0.037 C 
ATOM     18  C   UNL A   1      32.838  28.640  25.015  1.00  0.00     0.139 C 
ATOM     19  C   UNL A   1      31.861  29.811  25.339  1.00  0.00     0.287 C 
ATOM     20  N   UNL A   1      31.118  30.354  24.196  1.00  0.00    -0.329 N 
ATOM     21  C   UNL A   1      30.879  27.729  23.817  1.00  0.00     0.186 C 
ATOM     22  C   UNL A   1      29.863  31.558  24.841  1.00  0.00     0.262 C 
ATOM     23  C   UNL A   1      30.576  29.097  23.129  1.00  0.00     0.203 C 
ATOM     24  H   UNL A   1      31.711  30.900  23.570  1.00  0.00     0.348 HD
ATOM     25  C   UNL A   1      27.898  31.578  23.876  1.00  0.00     0.062 C 
ATOM     26  C   UNL A   1      28.965  29.002  22.246  1.00  0.00     0.067 C 
ATOM     27  C   UNL A   1      27.627  30.195  22.543  1.00  0.00     0.012 C 
ENDBRANCH  11  16
ENDBRANCH   9  10
ENDBRANCH   8   9
ENDBRANCH   6   8
ENDBRANCH   5   6
ENDBRANCH   4   5
ENDBRANCH   3   4
ENDBRANCH   2   3
ENDBRANCH   1   2
BRANCH   1  28
ATOM     28  C   UNL A   1      34.156  23.328  26.876  1.00  0.00     0.188 C 
BRANCH  28  29
ATOM     29  O   UNL A   1      34.435  23.556  25.496  1.00  0.00    -0.376 OA
BRANCH  29  30
ATOM     30  C   UNL A   1      35.781  23.837  25.134  1.00  0.00     0.202 C 
BRANCH  30  31
ATOM     31  C   UNL A   1      36.920  23.235  25.978  1.00  0.00     0.261 C 
BRANCH  31  32
ATOM     32  O   UNL A   1      38.255  23.474  25.488  1.00  0.00    -0.460 OA
BRANCH  32  33
ATOM     33  C   UNL A   1      39.289  23.303  26.376  1.00  0.00     0.338 C 
ATOM     34  O   UNL A   1      39.646  22.242  26.854  1.00  0.00    -0.246 OA
BRANCH  33  35
ATOM     35  C   UNL A   1      39.721  24.689  26.880  1.00  0.00     0.060 A 
ATOM     36  C   UNL A   1      40.674  26.275  26.254  1.00  0.00     0.016 A 
ATOM     37  C   UNL A   1      38.905  24.828  28.453  1.00  0.00     0.016 A 
ATOM     38  C   UNL A   1      40.719  27.725  27.197  1.00  0.00     0.010 A 
ATOM     39  C   UNL A   1      39.009  26.340  29.291  1.00  0.00     0.010 A 
ATOM     40  C   UNL A   1      39.883  27.711  28.700  1.00  0.00    -0.014 A 
BRANCH  40  41
ATOM     41  C   UNL A   1      40.263  28.854  29.552  1.00  0.00     0.031 A 
ATOM     42  C   UNL A   1      39.251  29.945  29.746  1.00  0.00     0.074 A 
ATOM     43  C   UNL A   1      41.323  28.686  30.367  1.00  0.00     0.049 A 
ATOM     44  N   UNL A   1      39.217  30.891  30.645  1.00  0.00    -0.248 NA
ATOM     45  C   UNL A   1      38.090  29.957  28.842  1.00  0.00     0.031 C 
ATOM     46  C   UNL A   1      42.273  27.569  30.297  1.00  0.00     0.029 A 
ATOM     47  N   UNL A   1      41.729  29.385  31.472  1.00  0.00    -0.354 N 
ATOM     48  C   UNL A   1      38.044  31.596  30.402  1.00  0.00     0.074 A 
ATOM     49  C   UNL A   1      37.385  30.979  29.285  1.00  0.00     0.031 C 
ATOM     50  C   UNL A   1      43.082  27.604  31.366  1.00  0.00     0.029 A 
ATOM     51  C   UNL A   1      42.788  28.805  32.133  1.00  0.00     0.049 A 
ATOM     52  H   UNL A   1      41.305  30.224  31.764  1.00  0.00     0.167 HD
ATOM     53  C   UNL A   1      37.573  32.686  31.046  1.00  0.00     0.037 A 
ATOM     54  C   UNL A   1      43.460  29.226  33.221  1.00  0.00     0.037 A 
ATOM     55  C   UNL A   1      38.294  33.304  32.119  1.00  0.00     0.049 A 
ATOM     56  C   UNL A   1      42.987  30.512  33.843  1.00  0.00     0.074 A 
ATOM     57  C   UNL A   1      38.027  34.484  32.779  1.00  0.00     0.029 A 
ATOM     58  N   UNL A   1      39.454  32.774  32.674  1.00  0.00    -0.354 N 
ATOM     59  N   UNL A   1      41.925  31.227  33.546  1.00  0.00    -0.248 NA
ATOM     60  C   UNL A   1      43.810  31.070  34.918  1.00  0.00     0.031 C 
ATOM     61  C   UNL A   1      39.067  34.703  33.688  1.00  0.00     0.029 A 
ATOM     62  C   UNL A   1      39.939  33.621  33.649  1.00  0.00     0.049 A 
ATOM     63  H   UNL A   1      39.869  31.921  32.410  1.00  0.00     0.167 HD
ATOM     64  C   UNL A   1      41.955  32.327  34.387  1.00  0.00     0.074 A 
ATOM     65  C   UNL A   1      43.122  32.159  35.235  1.00  0.00     0.031 C 
ATOM     66  C   UNL A   1      41.113  33.389  34.453  1.00  0.00     0.037 A 
BRANCH  53  67
ATOM     67  C   UNL A   1      36.323  33.313  30.498  1.00  0.00     0.064 A 
ATOM     68  C   UNL A   1      36.251  33.834  29.197  1.00  0.00     0.173 A 
ATOM     69  C   UNL A   1      35.206  33.481  31.330  1.00  0.00     0.173 A 
ATOM     70  F   UNL A   1      37.310  33.750  28.375  1.00  0.00    -0.203 F 
ATOM     71  C   UNL A   1      35.121  34.525  28.761  1.00  0.00     0.198 A 
ATOM     72  C   UNL A   1      34.067  34.145  30.882  1.00  0.00     0.198 A 
ATOM     73  F   UNL A   1      35.231  33.029  32.593  1.00  0.00    -0.203 F 
ATOM     74  F   UNL A   1      35.104  35.080  27.540  1.00  0.00    -0.200 F 
ATOM     75  C   UNL A   1      34.028  34.675  29.602  1.00  0.00     0.200 A 
ATOM     76  F   UNL A   1      33.017  34.297  31.701  1.00  0.00    -0.200 F 
ATOM     77  F   UNL A   1      32.949  35.353  29.189  1.00  0.00    -0.200 F 
ENDBRANCH  53  67
BRANCH  54  78
ATOM     78  C   UNL A   1      44.667  28.493  33.704  1.00  0.00     0.064 A 
ATOM     79  C   UNL A   1      44.597  27.508  34.701  1.00  0.00     0.173 A 
ATOM     80  C   UNL A   1      45.937  28.763  33.164  1.00  0.00     0.173 A 
ATOM     81  F   UNL A   1      43.421  27.218  35.275  1.00  0.00    -0.203 F 
ATOM     82  C   UNL A   1      45.740  26.830  35.133  1.00  0.00     0.198 A 
ATOM     83  C   UNL A   1      47.070  28.059  33.567  1.00  0.00     0.198 A 
ATOM     84  F   UNL A   1      46.078  29.703  32.217  1.00  0.00    -0.203 F 
ATOM     85  F   UNL A   1      45.647  25.921  36.114  1.00  0.00    -0.200 F 
ATOM     86  C   UNL A   1      46.973  27.097  34.557  1.00  0.00     0.200 A 
ATOM     87  F   UNL A   1      48.253  28.311  32.988  1.00  0.00    -0.200 F 
ATOM     88  F   UNL A   1      48.066  26.433  34.959  1.00  0.00    -0.200 F 
ENDBRANCH  54  78
BRANCH  66  89
ATOM     89  C   UNL A   1      41.425  34.422  35.487  1.00  0.00     0.064 A 
ATOM     90  C   UNL A   1      42.220  35.537  35.192  1.00  0.00     0.173 A 
ATOM     91  C   UNL A   1      40.866  34.318  36.769  1.00  0.00     0.173 A 
ATOM     92  F   UNL A   1      42.780  35.667  33.980  1.00  0.00    -0.203 F 
ATOM     93  C   UNL A   1      42.470  36.503  36.159  1.00  0.00     0.198 A 
ATOM     94  C   UNL A   1      41.090  35.305  37.721  1.00  0.00     0.198 A 
ATOM     95  F   UNL A   1      40.089  33.273  37.086  1.00  0.00    -0.203 F 
ATOM     96  F   UNL A   1      43.273  37.537  35.877  1.00  0.00    -0.200 F 
ATOM     97  C   UNL A   1      41.898  36.390  37.419  1.00  0.00     0.200 A 
ATOM     98  F   UNL A   1      40.519  35.206  38.930  1.00  0.00    -0.200 F 
ATOM     99  F   UNL A   1      42.131  37.329  38.346  1.00  0.00    -0.200 F 
ENDBRANCH  66  89
ENDBRANCH  40  41
ENDBRANCH  33  35
ENDBRANCH  32  33
ENDBRANCH  31  32
ENDBRANCH  30  31
ENDBRANCH  29  30
ENDBRANCH  28  29
ENDBRANCH   1  28
TORSDOF 20
ENDMDL
MODEL 3
REMARK VINA RESULT:     -10.2      5.669     10.943
REMARK SMILES C[C@@H]1C[N@@H+]2CCCC[C@@H]2CN1C(=O)NC(=O)CCC(=O)OCCOCCOCCOC(=O)c1ccc(-c2c3nc(c(-c4c(F)c(F)c(F)c(F)c4F)c4ccc([nH]4)c(-c4c(F)c(F)c(F)c(F)c4F)c4nc(c(-c5c(F)c(F)c(F)c(F)c5F)c5ccc2[nH]5)C=C4)C=C3)cc1
REMARK SMILES IDX 25 1 24 2 23 3 22 4 21 5 19 6 20 7 18 8 17 9 15 10 12 11
REMARK SMILES IDX 13 12 14 13 16 15 11 16 1 17 2 18 3 19 4 20 10 21 5 22 9 23
REMARK SMILES IDX 6 25 8 26 7 27 26 28 27 29 28 30 29 31 30 32 31 33 32 34
REMARK SMILES IDX 33 35 34 36 95 37 35 38 94 39 36 40 37 41 38 42 88 43 39 44
REMARK SMILES IDX 93 45 87 46 89 47 40 48 92 49 86 50 85 51 41 53 73 54 53 55
REMARK SMILES IDX 72 56 54 57 57 58 71 59 90 60 55 61 56 62 70 64 91 65 58 66
REMARK SMILES IDX 42 67 43 68 51 69 44 70 45 71 49 72 52 73 46 74 47 75 50 76
REMARK SMILES IDX 48 77 74 78 75 79 83 80 76 81 77 82 81 83 84 84 78 85 79 86
REMARK SMILES IDX 82 87 80 88 59 89 60 90 68 91 61 92 62 93 66 94 69 95 63 96
REMARK SMILES IDX 64 97 67 98 65 99
REMARK H PARENT 14 14 4 24 89 52 57 63
REMARK Flexibility Score: inf
ROOT
ATOM      1  C   UNL A   1      42.943  23.331  27.274  1.00  0.00     0.188 C 
ENDROOT
BRANCH   1   2
ATOM      2  O   UNL A   1      42.018  24.016  28.149  1.00  0.00    -0.376 OA
BRANCH   2   3
ATOM      3  C   UNL A   1      40.832  24.710  27.702  1.00  0.00     0.202 C 
BRANCH   3   4
ATOM      4  C   UNL A   1      40.313  25.944  28.546  1.00  0.00     0.261 C 
BRANCH   4   5
ATOM      5  O   UNL A   1      40.847  27.273  28.163  1.00  0.00    -0.463 OA
BRANCH   5   6
ATOM      6  C   UNL A   1      40.572  28.285  29.024  1.00  0.00     0.306 C 
ATOM      7  O   UNL A   1      40.638  29.471  28.693  1.00  0.00    -0.252 OA
BRANCH   6   8
ATOM      8  C   UNL A   1      40.205  27.955  30.476  1.00  0.00     0.132 C 
BRANCH   8   9
ATOM      9  C   UNL A   1      39.709  28.823  31.628  1.00  0.00     0.112 C 
BRANCH   9  10
ATOM     10  C   UNL A   1      38.557  28.432  32.498  1.00  0.00     0.228 C 
ATOM     11  C   UNL A   1      37.043  29.998  31.708  1.00  0.00     0.324 C 
ATOM     12  O   UNL A   1      35.996  29.497  31.356  1.00  0.00    -0.248 OA
ATOM     13  N   UNL A   1      37.636  29.395  32.754  1.00  0.00    -0.278 N 
ATOM     14  H   UNL A   1      37.408  29.644  33.679  1.00  0.00     0.174 HD
ATOM     15  O   UNL A   1      38.473  27.331  33.033  1.00  0.00    -0.275 OA
BRANCH  11  16
ATOM     16  N   UNL A   1      37.525  31.207  31.240  1.00  0.00    -0.310 N 
ATOM     17  C   UNL A   1      38.147  32.060  28.907  1.00  0.00     0.037 C 
ATOM     18  C   UNL A   1      37.041  31.758  29.922  1.00  0.00     0.139 C 
ATOM     19  C   UNL A   1      36.214  33.071  30.075  1.00  0.00     0.287 C 
ATOM     20  N   UNL A   1      35.346  33.140  31.256  1.00  0.00    -0.329 N 
ATOM     21  C   UNL A   1      37.610  32.190  32.287  1.00  0.00     0.186 C 
ATOM     22  C   UNL A   1      34.648  34.855  31.361  1.00  0.00     0.262 C 
ATOM     23  C   UNL A   1      36.124  32.485  32.663  1.00  0.00     0.203 C 
ATOM     24  H   UNL A   1      34.533  32.528  31.180  1.00  0.00     0.348 HD
ATOM     25  C   UNL A   1      34.463  35.749  33.351  1.00  0.00     0.062 C 
ATOM     26  C   UNL A   1      36.038  33.126  34.386  1.00  0.00     0.067 C 
ATOM     27  C   UNL A   1      35.219  34.696  34.793  1.00  0.00     0.012 C 
ENDBRANCH  11  16
ENDBRANCH   9  10
ENDBRANCH   8   9
ENDBRANCH   6   8
ENDBRANCH   5   6
ENDBRANCH   4   5
ENDBRANCH   3   4
ENDBRANCH   2   3
ENDBRANCH   1   2
BRANCH   1  28
ATOM     28  C   UNL A   1      42.500  22.487  26.045  1.00  0.00     0.188 C 
BRANCH  28  29
ATOM     29  O   UNL A   1      43.516  22.019  25.159  1.00  0.00    -0.376 OA
BRANCH  29  30
ATOM     30  C   UNL A   1      44.136  22.972  24.306  1.00  0.00     0.202 C 
BRANCH  30  31
ATOM     31  C   UNL A   1      45.672  22.986  24.199  1.00  0.00     0.261 C 
BRANCH  31  32
ATOM     32  O   UNL A   1      46.359  23.814  25.161  1.00  0.00    -0.460 OA
BRANCH  32  33
ATOM     33  C   UNL A   1      46.786  25.047  24.735  1.00  0.00     0.338 C 
ATOM     34  O   UNL A   1      47.498  25.259  23.771  1.00  0.00    -0.246 OA
BRANCH  33  35
ATOM     35  C   UNL A   1      46.460  26.072  25.833  1.00  0.00     0.060 A 
ATOM     36  C   UNL A   1      47.373  27.211  27.131  1.00  0.00     0.016 A 
ATOM     37  C   UNL A   1      44.711  26.329  25.651  1.00  0.00     0.016 A 
ATOM     38  C   UNL A   1      46.509  28.394  28.052  1.00  0.00     0.010 A 
ATOM     39  C   UNL A   1      43.965  27.558  26.618  1.00  0.00     0.010 A 
ATOM     40  C   UNL A   1      44.818  28.528  27.768  1.00  0.00    -0.014 A 
BRANCH  40  41
ATOM     41  C   UNL A   1      44.143  29.310  28.822  1.00  0.00     0.031 A 
ATOM     42  C   UNL A   1      44.003  28.679  30.176  1.00  0.00     0.074 A 
ATOM     43  C   UNL A   1      44.014  30.635  28.615  1.00  0.00     0.049 A 
ATOM     44  N   UNL A   1      43.719  29.235  31.322  1.00  0.00    -0.248 NA
ATOM     45  C   UNL A   1      44.263  27.234  30.277  1.00  0.00     0.031 C 
ATOM     46  C   UNL A   1      44.259  31.319  27.339  1.00  0.00     0.029 A 
ATOM     47  N   UNL A   1      43.748  31.660  29.483  1.00  0.00    -0.354 N 
ATOM     48  C   UNL A   1      43.763  28.208  32.258  1.00  0.00     0.074 A 
ATOM     49  C   UNL A   1      44.107  26.998  31.565  1.00  0.00     0.031 C 
ATOM     50  C   UNL A   1      44.230  32.645  27.531  1.00  0.00     0.029 A 
ATOM     51  C   UNL A   1      43.852  32.908  28.912  1.00  0.00     0.049 A 
ATOM     52  H   UNL A   1      43.504  31.518  30.426  1.00  0.00     0.167 HD
ATOM     53  C   UNL A   1      43.512  28.271  33.583  1.00  0.00     0.037 A 
ATOM     54  C   UNL A   1      43.629  34.123  29.448  1.00  0.00     0.037 A 
ATOM     55  C   UNL A   1      43.116  29.490  34.223  1.00  0.00     0.049 A 
ATOM     56  C   UNL A   1      43.230  34.151  30.898  1.00  0.00     0.074 A 
ATOM     57  C   UNL A   1      42.693  29.694  35.519  1.00  0.00     0.029 A 
ATOM     58  N   UNL A   1      43.083  30.723  33.581  1.00  0.00    -0.354 N 
ATOM     59  N   UNL A   1      43.183  33.158  31.757  1.00  0.00    -0.248 NA
ATOM     60  C   UNL A   1      42.820  35.445  31.448  1.00  0.00     0.031 C 
ATOM     61  C   UNL A   1      42.337  31.041  35.640  1.00  0.00     0.029 A 
ATOM     62  C   UNL A   1      42.613  31.691  34.443  1.00  0.00     0.049 A 
ATOM     63  H   UNL A   1      43.355  30.882  32.647  1.00  0.00     0.167 HD
ATOM     64  C   UNL A   1      42.728  33.700  32.948  1.00  0.00     0.074 A 
ATOM     65  C   UNL A   1      42.554  35.122  32.706  1.00  0.00     0.031 C 
ATOM     66  C   UNL A   1      42.461  33.091  34.131  1.00  0.00     0.037 A 
BRANCH  53  67
ATOM     67  C   UNL A   1      43.529  26.975  34.342  1.00  0.00     0.064 A 
ATOM     68  C   UNL A   1      44.724  26.338  34.714  1.00  0.00     0.173 A 
ATOM     69  C   UNL A   1      42.324  26.311  34.614  1.00  0.00     0.173 A 
ATOM     70  F   UNL A   1      45.908  26.902  34.429  1.00  0.00    -0.203 F 
ATOM     71  C   UNL A   1      44.710  25.074  35.304  1.00  0.00     0.198 A 
ATOM     72  C   UNL A   1      42.312  25.062  35.230  1.00  0.00     0.198 A 
ATOM     73  F   UNL A   1      41.154  26.860  34.254  1.00  0.00    -0.203 F 
ATOM     74  F   UNL A   1      45.865  24.452  35.582  1.00  0.00    -0.200 F 
ATOM     75  C   UNL A   1      43.504  24.440  35.565  1.00  0.00     0.200 A 
ATOM     76  F   UNL A   1      41.146  24.448  35.473  1.00  0.00    -0.200 F 
ATOM     77  F   UNL A   1      43.493  23.218  36.116  1.00  0.00    -0.200 F 
ENDBRANCH  53  67
BRANCH  54  78
ATOM     78  C   UNL A   1      43.687  35.352  28.604  1.00  0.00     0.064 A 
ATOM     79  C   UNL A   1      42.537  35.943  28.059  1.00  0.00     0.173 A 
ATOM     80  C   UNL A   1      44.916  35.975  28.323  1.00  0.00     0.173 A 
ATOM     81  F   UNL A   1      41.336  35.386  28.267  1.00  0.00    -0.203 F 
ATOM     82  C   UNL A   1      42.615  37.097  27.276  1.00  0.00     0.198 A 
ATOM     83  C   UNL A   1      44.990  37.149  27.576  1.00  0.00     0.198 A 
ATOM     84  F   UNL A   1      46.057  35.455  28.801  1.00  0.00    -0.203 F 
ATOM     85  F   UNL A   1      41.503  37.617  26.738  1.00  0.00    -0.200 F 
ATOM     86  C   UNL A   1      43.840  37.707  27.046  1.00  0.00     0.200 A 
ATOM     87  F   UNL A   1      46.177  37.740  27.378  1.00  0.00    -0.200 F 
ATOM     88  F   UNL A   1      43.913  38.825  26.310  1.00  0.00    -0.200 F 
ENDBRANCH  54  78
BRANCH  66  89
ATOM     89  C   UNL A   1      41.979  33.971  35.238  1.00  0.00     0.064 A 
ATOM     90  C   UNL A   1      42.872  34.705  36.031  1.00  0.00     0.173 A 
ATOM     91  C   UNL A   1      40.604  34.123  35.462  1.00  0.00     0.173 A 
ATOM     92  F   UNL A   1      44.195  34.579  35.854  1.00  0.00    -0.203 F 
ATOM     93  C   UNL A   1      42.400  35.543  37.034  1.00  0.00     0.198 A 
ATOM     94  C   UNL A   1      40.137  34.990  36.442  1.00  0.00     0.198 A 
ATOM     95  F   UNL A   1      39.718  33.449  34.715  1.00  0.00    -0.203 F 
ATOM     96  F   UNL A   1      43.267  36.199  37.818  1.00  0.00    -0.200 F 
ATOM     97  C   UNL A   1      41.034  35.691  37.232  1.00  0.00     0.200 A 
ATOM     98  F   UNL A   1      38.817  35.148  36.617  1.00  0.00    -0.200 F 
ATOM     99  F   UNL A   1      40.582  36.509  38.192  1.00  0.00    -0.200 F 
ENDBRANCH  66  89
ENDBRANCH  40  41
ENDBRANCH  33  35
ENDBRANCH  32  33
ENDBRANCH  31  32
ENDBRANCH  30  31
ENDBRANCH  29  30
ENDBRANCH  28  29
ENDBRANCH   1  28
TORSDOF 20
ENDMDL
