MODEL 1
REMARK VINA RESULT:     -11.6      0.000      0.000
REMARK SMILES O=C(OCCOCCOCCOC(=O)[C@@H]1[C@@H](C(=O)NCc2ccccc2Br)[C@H]2C=C[C@@H]1O2)c1ccc(-c2c3nc(c(-c4c(F)c(F)c(F)c(F)c4F)c4ccc([nH]4)c(-c4c(F)c(F)c(F)c(F)c4F)c4nc(c(-c5c(F)c(F)c(F)c(F)c5F)c5ccc2[nH]5)C=C4)C=C3)cc1
REMARK SMILES IDX 8 1 7 2 6 3 5 4 4 5 3 6 2 7 1 8 33 9 34 10 95 11 35 12 94 13
REMARK SMILES IDX 36 14 37 15 38 16 88 17 39 18 93 19 87 20 89 21 40 22 92 23
REMARK SMILES IDX 86 24 85 25 41 27 73 28 53 29 72 30 54 31 57 32 71 33 90 34
REMARK SMILES IDX 55 35 56 36 70 38 91 39 58 40 42 41 43 42 51 43 44 44 45 45
REMARK SMILES IDX 49 46 52 47 46 48 47 49 50 50 48 51 74 52 75 53 83 54 76 55
REMARK SMILES IDX 77 56 81 57 84 58 78 59 79 60 82 61 80 62 59 63 60 64 68 65
REMARK SMILES IDX 61 66 62 67 66 68 69 69 63 70 64 71 67 72 65 73 9 74 10 75
REMARK SMILES IDX 11 76 12 77 13 78 14 79 15 80 16 81 31 82 28 83 30 84 32 85
REMARK SMILES IDX 29 86 17 87 18 88 19 89 20 91 21 92 22 93 26 94 23 95 25 96
REMARK SMILES IDX 27 97 24 98
REMARK H PARENT 89 26 57 37 19 90
REMARK Flexibility Score: inf
ROOT
ATOM      1  C   UNL A   1      38.823  22.213  25.875  1.00  0.00     0.188 C 
ENDROOT
BRANCH   1   2
ATOM      2  C   UNL A   1      39.519  20.875  26.104  1.00  0.00     0.188 C 
BRANCH   2   3
ATOM      3  O   UNL A   1      40.751  20.958  26.834  1.00  0.00    -0.376 OA
BRANCH   3   4
ATOM      4  C   UNL A   1      41.835  20.279  26.185  1.00  0.00     0.202 C 
BRANCH   4   5
ATOM      5  C   UNL A   1      43.024  21.157  25.751  1.00  0.00     0.261 C 
BRANCH   5   6
ATOM      6  O   UNL A   1      42.651  22.359  25.061  1.00  0.00    -0.460 OA
BRANCH   6   7
ATOM      7  C   UNL A   1      43.205  23.595  25.121  1.00  0.00     0.338 C 
ATOM      8  O   UNL A   1      44.206  23.808  24.437  1.00  0.00    -0.246 OA
BRANCH   7   9
ATOM      9  C   UNL A   1      42.687  24.720  25.969  1.00  0.00     0.060 A 
ATOM     10  C   UNL A   1      43.184  26.026  26.004  1.00  0.00     0.016 A 
ATOM     11  C   UNL A   1      41.586  24.426  26.794  1.00  0.00     0.016 A 
ATOM     12  C   UNL A   1      42.687  26.984  26.882  1.00  0.00     0.010 A 
ATOM     13  C   UNL A   1      41.057  25.388  27.658  1.00  0.00     0.010 A 
ATOM     14  C   UNL A   1      41.641  26.660  27.735  1.00  0.00    -0.014 A 
BRANCH  14  15
ATOM     15  C   UNL A   1      41.292  27.568  28.840  1.00  0.00     0.031 A 
ATOM     16  C   UNL A   1      42.084  27.452  30.091  1.00  0.00     0.074 A 
ATOM     17  C   UNL A   1      40.341  28.508  28.722  1.00  0.00     0.049 A 
ATOM     18  N   UNL A   1      41.915  28.065  31.227  1.00  0.00    -0.248 NA
ATOM     19  C   UNL A   1      43.259  26.568  30.037  1.00  0.00     0.031 C 
ATOM     20  C   UNL A   1      39.697  28.873  27.475  1.00  0.00     0.029 A 
ATOM     21  N   UNL A   1      39.728  29.306  29.650  1.00  0.00    -0.354 N 
ATOM     22  C   UNL A   1      42.973  27.657  32.018  1.00  0.00     0.074 A 
ATOM     23  C   UNL A   1      43.748  26.703  31.257  1.00  0.00     0.031 C 
ATOM     24  C   UNL A   1      38.677  29.703  27.726  1.00  0.00     0.029 A 
ATOM     25  C   UNL A   1      38.620  29.949  29.150  1.00  0.00     0.049 A 
ATOM     26  H   UNL A   1      40.048  29.409  30.576  1.00  0.00     0.167 HD
ATOM     27  C   UNL A   1      43.268  28.075  33.268  1.00  0.00     0.037 A 
ATOM     28  C   UNL A   1      37.652  30.648  29.764  1.00  0.00     0.037 A 
ATOM     29  C   UNL A   1      42.437  28.993  33.998  1.00  0.00     0.049 A 
ATOM     30  C   UNL A   1      37.870  30.946  31.210  1.00  0.00     0.074 A 
ATOM     31  C   UNL A   1      42.580  29.450  35.292  1.00  0.00     0.029 A 
ATOM     32  N   UNL A   1      41.278  29.577  33.488  1.00  0.00    -0.354 N 
ATOM     33  N   UNL A   1      38.857  30.544  31.977  1.00  0.00    -0.248 NA
ATOM     34  C   UNL A   1      36.911  31.837  31.864  1.00  0.00     0.031 C 
ATOM     35  C   UNL A   1      41.472  30.251  35.589  1.00  0.00     0.029 A 
ATOM     36  C   UNL A   1      40.675  30.360  34.457  1.00  0.00     0.049 A 
ATOM     37  H   UNL A   1      40.939  29.452  32.572  1.00  0.00     0.167 HD
ATOM     38  C   UNL A   1      38.681  31.182  33.187  1.00  0.00     0.074 A 
ATOM     39  C   UNL A   1      37.473  31.981  33.058  1.00  0.00     0.031 C 
ATOM     40  C   UNL A   1      39.466  31.133  34.290  1.00  0.00     0.037 A 
BRANCH  27  41
ATOM     41  C   UNL A   1      44.474  27.453  33.902  1.00  0.00     0.064 A 
ATOM     42  C   UNL A   1      44.395  26.256  34.634  1.00  0.00     0.173 A 
ATOM     43  C   UNL A   1      45.700  28.130  33.881  1.00  0.00     0.173 A 
ATOM     44  F   UNL A   1      43.232  25.592  34.721  1.00  0.00    -0.203 F 
ATOM     45  C   UNL A   1      45.486  25.792  35.365  1.00  0.00     0.198 A 
ATOM     46  C   UNL A   1      46.798  27.643  34.584  1.00  0.00     0.198 A 
ATOM     47  F   UNL A   1      45.824  29.286  33.211  1.00  0.00    -0.203 F 
ATOM     48  F   UNL A   1      45.359  24.701  36.134  1.00  0.00    -0.200 F 
ATOM     49  C   UNL A   1      46.686  26.486  35.339  1.00  0.00     0.200 A 
ATOM     50  F   UNL A   1      47.957  28.317  34.561  1.00  0.00    -0.200 F 
ATOM     51  F   UNL A   1      47.726  26.054  36.064  1.00  0.00    -0.200 F 
ENDBRANCH  27  41
BRANCH  28  52
ATOM     52  C   UNL A   1      36.475  31.129  28.995  1.00  0.00     0.064 A 
ATOM     53  C   UNL A   1      35.434  30.267  28.633  1.00  0.00     0.173 A 
ATOM     54  C   UNL A   1      36.334  32.489  28.663  1.00  0.00     0.173 A 
ATOM     55  F   UNL A   1      35.514  28.962  28.931  1.00  0.00    -0.203 F 
ATOM     56  C   UNL A   1      34.307  30.736  27.957  1.00  0.00     0.198 A 
ATOM     57  C   UNL A   1      35.201  32.961  28.001  1.00  0.00     0.198 A 
ATOM     58  F   UNL A   1      37.299  33.362  28.994  1.00  0.00    -0.203 F 
ATOM     59  F   UNL A   1      33.335  29.882  27.606  1.00  0.00    -0.200 F 
ATOM     60  C   UNL A   1      34.190  32.083  27.645  1.00  0.00     0.200 A 
ATOM     61  F   UNL A   1      35.089  34.263  27.703  1.00  0.00    -0.200 F 
ATOM     62  F   UNL A   1      33.105  32.530  26.996  1.00  0.00    -0.200 F 
ENDBRANCH  28  52
BRANCH  40  63
ATOM     63  C   UNL A   1      39.058  32.005  35.434  1.00  0.00     0.064 A 
ATOM     64  C   UNL A   1      38.270  31.518  36.485  1.00  0.00     0.173 A 
ATOM     65  C   UNL A   1      39.523  33.326  35.504  1.00  0.00     0.173 A 
ATOM     66  F   UNL A   1      37.787  30.267  36.445  1.00  0.00    -0.203 F 
ATOM     67  C   UNL A   1      37.951  32.332  37.565  1.00  0.00     0.198 A 
ATOM     68  C   UNL A   1      39.231  34.124  36.602  1.00  0.00     0.198 A 
ATOM     69  F   UNL A   1      40.278  33.831  34.516  1.00  0.00    -0.203 F 
ATOM     70  F   UNL A   1      37.163  31.865  38.543  1.00  0.00    -0.200 F 
ATOM     71  C   UNL A   1      38.443  33.629  37.629  1.00  0.00     0.200 A 
ATOM     72  F   UNL A   1      39.720  35.370  36.669  1.00  0.00    -0.200 F 
ATOM     73  F   UNL A   1      38.154  34.403  38.683  1.00  0.00    -0.200 F 
ENDBRANCH  40  63
ENDBRANCH  14  15
ENDBRANCH   7   9
ENDBRANCH   6   7
ENDBRANCH   5   6
ENDBRANCH   4   5
ENDBRANCH   3   4
ENDBRANCH   2   3
ENDBRANCH   1   2
BRANCH   1  74
ATOM     74  O   UNL A   1      37.431  22.193  25.585  1.00  0.00    -0.376 OA
BRANCH  74  75
ATOM     75  C   UNL A   1      37.043  22.062  24.226  1.00  0.00     0.202 C 
BRANCH  75  76
ATOM     76  C   UNL A   1      36.269  23.212  23.564  1.00  0.00     0.261 C 
BRANCH  76  77
ATOM     77  O   UNL A   1      34.966  22.894  23.049  1.00  0.00    -0.463 OA
BRANCH  77  78
ATOM     78  C   UNL A   1      34.027  23.866  23.187  1.00  0.00     0.312 C 
ATOM     79  O   UNL A   1      34.077  24.964  22.635  1.00  0.00    -0.252 OA
BRANCH  78  80
ATOM     80  C   UNL A   1      32.891  23.508  24.106  1.00  0.00     0.147 C 
ATOM     81  C   UNL A   1      31.977  24.670  24.558  1.00  0.00     0.128 C 
ATOM     82  C   UNL A   1      33.398  22.958  25.448  1.00  0.00     0.157 C 
ATOM     83  C   UNL A   1      31.934  24.430  26.076  1.00  0.00     0.155 C 
ATOM     84  C   UNL A   1      32.291  22.193  26.114  1.00  0.00     0.004 C 
ATOM     85  O   UNL A   1      33.355  24.157  26.271  1.00  0.00    -0.365 OA
ATOM     86  C   UNL A   1      31.383  23.102  26.489  1.00  0.00     0.004 C 
BRANCH  81  87
ATOM     87  C   UNL A   1      30.650  24.583  23.840  1.00  0.00     0.227 C 
ATOM     88  O   UNL A   1      30.329  23.634  23.126  1.00  0.00    -0.275 OA
ATOM     89  N   UNL A   1      29.761  25.610  23.938  1.00  0.00    -0.352 N 
ATOM     90  H   UNL A   1      28.891  25.435  23.512  1.00  0.00     0.163 HD
BRANCH  89  91
ATOM     91  C   UNL A   1      29.870  26.920  24.558  1.00  0.00     0.152 C 
BRANCH  91  92
ATOM     92  C   UNL A   1      29.573  28.026  23.573  1.00  0.00    -0.015 A 
ATOM     93  C   UNL A   1      28.239  28.369  23.279  1.00  0.00     0.007 A 
ATOM     94  C   UNL A   1      30.590  28.716  22.892  1.00  0.00     0.022 A 
ATOM     95  C   UNL A   1      27.929  29.382  22.374  1.00  0.00     0.000 A 
ATOM     96  C   UNL A   1      30.277  29.743  21.993  1.00  0.00     0.016 A 
ATOM     97  Br  UNL A   1      32.431  28.304  23.125  1.00  0.00    -0.050 Br
ATOM     98  C   UNL A   1      28.948  30.077  21.740  1.00  0.00     0.001 A 
ENDBRANCH  91  92
ENDBRANCH  89  91
ENDBRANCH  81  87
ENDBRANCH  78  80
ENDBRANCH  77  78
ENDBRANCH  76  77
ENDBRANCH  75  76
ENDBRANCH  74  75
ENDBRANCH   1  74
TORSDOF 20
ENDMDL
MODEL 2
REMARK VINA RESULT:     -11.4      1.010      2.038
REMARK SMILES O=C(OCCOCCOCCOC(=O)[C@@H]1[C@@H](C(=O)NCc2ccccc2Br)[C@H]2C=C[C@@H]1O2)c1ccc(-c2c3nc(c(-c4c(F)c(F)c(F)c(F)c4F)c4ccc([nH]4)c(-c4c(F)c(F)c(F)c(F)c4F)c4nc(c(-c5c(F)c(F)c(F)c(F)c5F)c5ccc2[nH]5)C=C4)C=C3)cc1
REMARK SMILES IDX 8 1 7 2 6 3 5 4 4 5 3 6 2 7 1 8 33 9 34 10 95 11 35 12 94 13
REMARK SMILES IDX 36 14 37 15 38 16 88 17 39 18 93 19 87 20 89 21 40 22 92 23
REMARK SMILES IDX 86 24 85 25 41 27 73 28 53 29 72 30 54 31 57 32 71 33 90 34
REMARK SMILES IDX 55 35 56 36 70 38 91 39 58 40 42 41 43 42 51 43 44 44 45 45
REMARK SMILES IDX 49 46 52 47 46 48 47 49 50 50 48 51 74 52 75 53 83 54 76 55
REMARK SMILES IDX 77 56 81 57 84 58 78 59 79 60 82 61 80 62 59 63 60 64 68 65
REMARK SMILES IDX 61 66 62 67 66 68 69 69 63 70 64 71 67 72 65 73 9 74 10 75
REMARK SMILES IDX 11 76 12 77 13 78 14 79 15 80 16 81 31 82 28 83 30 84 32 85
REMARK SMILES IDX 29 86 17 87 18 88 19 89 20 91 21 92 22 93 26 94 23 95 25 96
REMARK SMILES IDX 27 97 24 98
REMARK H PARENT 89 26 57 37 19 90
REMARK Flexibility Score: inf
ROOT
ATOM      1  C   UNL A   1      39.328  21.924  26.084  1.00  0.00     0.188 C 
ENDROOT
BRANCH   1   2
ATOM      2  C   UNL A   1      40.395  21.038  26.722  1.00  0.00     0.188 C 
BRANCH   2   3
ATOM      3  O   UNL A   1      41.282  20.405  25.790  1.00  0.00    -0.376 OA
BRANCH   3   4
ATOM      4  C   UNL A   1      42.649  20.410  26.224  1.00  0.00     0.202 C 
BRANCH   4   5
ATOM      5  C   UNL A   1      43.605  21.336  25.448  1.00  0.00     0.261 C 
BRANCH   5   6
ATOM      6  O   UNL A   1      43.006  22.559  24.996  1.00  0.00    -0.460 OA
BRANCH   6   7
ATOM      7  C   UNL A   1      43.481  23.827  25.059  1.00  0.00     0.338 C 
ATOM      8  O   UNL A   1      44.446  24.113  24.348  1.00  0.00    -0.246 OA
BRANCH   7   9
ATOM      9  C   UNL A   1      42.920  24.904  25.941  1.00  0.00     0.060 A 
ATOM     10  C   UNL A   1      43.221  26.267  25.875  1.00  0.00     0.016 A 
ATOM     11  C   UNL A   1      41.991  24.494  26.913  1.00  0.00     0.016 A 
ATOM     12  C   UNL A   1      42.708  27.183  26.789  1.00  0.00     0.010 A 
ATOM     13  C   UNL A   1      41.444  25.409  27.817  1.00  0.00     0.010 A 
ATOM     14  C   UNL A   1      41.840  26.753  27.782  1.00  0.00    -0.014 A 
BRANCH  14  15
ATOM     15  C   UNL A   1      41.509  27.650  28.901  1.00  0.00     0.031 A 
ATOM     16  C   UNL A   1      42.323  27.525  30.138  1.00  0.00     0.074 A 
ATOM     17  C   UNL A   1      40.555  28.590  28.808  1.00  0.00     0.049 A 
ATOM     18  N   UNL A   1      42.173  28.128  31.282  1.00  0.00    -0.248 NA
ATOM     19  C   UNL A   1      43.498  26.643  30.055  1.00  0.00     0.031 C 
ATOM     20  C   UNL A   1      39.889  28.965  27.576  1.00  0.00     0.029 A 
ATOM     21  N   UNL A   1      39.957  29.379  29.753  1.00  0.00    -0.354 N 
ATOM     22  C   UNL A   1      43.244  27.714  32.051  1.00  0.00     0.074 A 
ATOM     23  C   UNL A   1      44.007  26.768  31.268  1.00  0.00     0.031 C 
ATOM     24  C   UNL A   1      38.872  29.791  27.852  1.00  0.00     0.029 A 
ATOM     25  C   UNL A   1      38.840  30.024  29.279  1.00  0.00     0.049 A 
ATOM     26  H   UNL A   1      40.292  29.474  30.675  1.00  0.00     0.167 HD
ATOM     27  C   UNL A   1      43.560  28.121  33.299  1.00  0.00     0.037 A 
ATOM     28  C   UNL A   1      37.882  30.717  29.915  1.00  0.00     0.037 A 
ATOM     29  C   UNL A   1      42.741  29.031  34.051  1.00  0.00     0.049 A 
ATOM     30  C   UNL A   1      38.124  31.002  31.360  1.00  0.00     0.074 A 
ATOM     31  C   UNL A   1      42.906  29.477  35.346  1.00  0.00     0.029 A 
ATOM     32  N   UNL A   1      41.572  29.618  33.566  1.00  0.00    -0.354 N 
ATOM     33  N   UNL A   1      39.124  30.595  32.106  1.00  0.00    -0.248 NA
ATOM     34  C   UNL A   1      37.175  31.885  32.039  1.00  0.00     0.031 C 
ATOM     35  C   UNL A   1      41.802  30.274  35.670  1.00  0.00     0.029 A 
ATOM     36  C   UNL A   1      40.985  30.391  34.553  1.00  0.00     0.049 A 
ATOM     37  H   UNL A   1      41.218  29.500  32.656  1.00  0.00     0.167 HD
ATOM     38  C   UNL A   1      38.968  31.221  33.325  1.00  0.00     0.074 A 
ATOM     39  C   UNL A   1      37.757  32.019  33.224  1.00  0.00     0.031 C 
ATOM     40  C   UNL A   1      39.773  31.164  34.414  1.00  0.00     0.037 A 
BRANCH  27  41
ATOM     41  C   UNL A   1      44.778  27.495  33.906  1.00  0.00     0.064 A 
ATOM     42  C   UNL A   1      44.711  26.299  34.642  1.00  0.00     0.173 A 
ATOM     43  C   UNL A   1      46.006  28.167  33.857  1.00  0.00     0.173 A 
ATOM     44  F   UNL A   1      43.548  25.640  34.757  1.00  0.00    -0.203 F 
ATOM     45  C   UNL A   1      45.816  25.832  35.349  1.00  0.00     0.198 A 
ATOM     46  C   UNL A   1      47.117  27.678  34.536  1.00  0.00     0.198 A 
ATOM     47  F   UNL A   1      46.119  29.322  33.183  1.00  0.00    -0.203 F 
ATOM     48  F   UNL A   1      45.703  24.743  36.122  1.00  0.00    -0.200 F 
ATOM     49  C   UNL A   1      47.018  26.521  35.294  1.00  0.00     0.200 A 
ATOM     50  F   UNL A   1      48.278  28.347  34.486  1.00  0.00    -0.200 F 
ATOM     51  F   UNL A   1      48.073  26.087  35.997  1.00  0.00    -0.200 F 
ENDBRANCH  27  41
BRANCH  28  52
ATOM     52  C   UNL A   1      36.690  31.203  29.171  1.00  0.00     0.064 A 
ATOM     53  C   UNL A   1      36.572  32.538  28.770  1.00  0.00     0.173 A 
ATOM     54  C   UNL A   1      35.668  30.317  28.785  1.00  0.00     0.173 A 
ATOM     55  F   UNL A   1      37.521  33.423  29.105  1.00  0.00    -0.203 F 
ATOM     56  C   UNL A   1      35.475  32.975  28.027  1.00  0.00     0.198 A 
ATOM     57  C   UNL A   1      34.578  30.751  28.029  1.00  0.00     0.198 A 
ATOM     58  F   UNL A   1      35.735  29.023  29.137  1.00  0.00    -0.203 F 
ATOM     59  F   UNL A   1      35.379  34.265  27.673  1.00  0.00    -0.200 F 
ATOM     60  C   UNL A   1      34.481  32.082  27.654  1.00  0.00     0.200 A 
ATOM     61  F   UNL A   1      33.622  29.885  27.668  1.00  0.00    -0.200 F 
ATOM     62  F   UNL A   1      33.430  32.506  26.938  1.00  0.00    -0.200 F 
ENDBRANCH  28  52
BRANCH  40  63
ATOM     63  C   UNL A   1      39.383  32.025  35.573  1.00  0.00     0.064 A 
ATOM     64  C   UNL A   1      39.812  33.354  35.680  1.00  0.00     0.173 A 
ATOM     65  C   UNL A   1      38.513  31.522  36.551  1.00  0.00     0.173 A 
ATOM     66  F   UNL A   1      40.663  33.864  34.777  1.00  0.00    -0.203 F 
ATOM     67  C   UNL A   1      39.390  34.150  36.737  1.00  0.00     0.198 A 
ATOM     68  C   UNL A   1      38.065  32.332  37.586  1.00  0.00     0.198 A 
ATOM     69  F   UNL A   1      38.080  30.254  36.485  1.00  0.00    -0.203 F 
ATOM     70  F   UNL A   1      39.841  35.406  36.848  1.00  0.00    -0.200 F 
ATOM     71  C   UNL A   1      38.507  33.643  37.681  1.00  0.00     0.200 A 
ATOM     72  F   UNL A   1      37.201  31.846  38.487  1.00  0.00    -0.200 F 
ATOM     73  F   UNL A   1      38.082  34.420  38.686  1.00  0.00    -0.200 F 
ENDBRANCH  40  63
ENDBRANCH  14  15
ENDBRANCH   7   9
ENDBRANCH   6   7
ENDBRANCH   5   6
ENDBRANCH   4   5
ENDBRANCH   3   4
ENDBRANCH   2   3
ENDBRANCH   1   2
BRANCH   1  74
ATOM     74  O   UNL A   1      38.855  23.035  26.835  1.00  0.00    -0.376 OA
BRANCH  74  75
ATOM     75  C   UNL A   1      37.797  23.801  26.280  1.00  0.00     0.202 C 
BRANCH  75  76
ATOM     76  C   UNL A   1      37.187  23.358  24.942  1.00  0.00     0.261 C 
BRANCH  76  77
ATOM     77  O   UNL A   1      35.779  23.594  24.771  1.00  0.00    -0.463 OA
BRANCH  77  78
ATOM     78  C   UNL A   1      35.220  23.029  23.669  1.00  0.00     0.312 C 
ATOM     79  O   UNL A   1      35.537  23.301  22.512  1.00  0.00    -0.252 OA
BRANCH  78  80
ATOM     80  C   UNL A   1      34.136  22.029  23.964  1.00  0.00     0.147 C 
ATOM     81  C   UNL A   1      32.967  22.518  24.849  1.00  0.00     0.128 C 
ATOM     82  C   UNL A   1      34.670  20.834  24.769  1.00  0.00     0.157 C 
ATOM     83  C   UNL A   1      32.888  21.378  25.878  1.00  0.00     0.155 C 
ATOM     84  C   UNL A   1      33.718  19.682  24.627  1.00  0.00     0.004 C 
ATOM     85  O   UNL A   1      34.319  21.236  26.123  1.00  0.00    -0.365 OA
ATOM     86  C   UNL A   1      32.614  20.026  25.302  1.00  0.00     0.004 C 
BRANCH  81  87
ATOM     87  C   UNL A   1      31.736  22.723  23.998  1.00  0.00     0.227 C 
ATOM     88  O   UNL A   1      31.506  22.080  22.974  1.00  0.00    -0.275 OA
ATOM     89  N   UNL A   1      30.835  23.688  24.334  1.00  0.00    -0.352 N 
ATOM     90  H   UNL A   1      30.022  23.696  23.779  1.00  0.00     0.163 HD
BRANCH  89  91
ATOM     91  C   UNL A   1      30.862  24.709  25.368  1.00  0.00     0.152 C 
BRANCH  91  92
ATOM     92  C   UNL A   1      30.623  26.085  24.793  1.00  0.00    -0.015 A 
ATOM     93  C   UNL A   1      29.526  26.311  23.937  1.00  0.00     0.007 A 
ATOM     94  C   UNL A   1      31.486  27.165  25.047  1.00  0.00     0.022 A 
ATOM     95  C   UNL A   1      29.276  27.567  23.388  1.00  0.00     0.000 A 
ATOM     96  C   UNL A   1      31.225  28.430  24.505  1.00  0.00     0.016 A 
ATOM     97  Br  UNL A   1      33.049  26.988  26.114  1.00  0.00    -0.050 Br
ATOM     98  C   UNL A   1      30.119  28.629  23.681  1.00  0.00     0.001 A 
ENDBRANCH  91  92
ENDBRANCH  89  91
ENDBRANCH  81  87
ENDBRANCH  78  80
ENDBRANCH  77  78
ENDBRANCH  76  77
ENDBRANCH  75  76
ENDBRANCH  74  75
ENDBRANCH   1  74
TORSDOF 20
ENDMDL
MODEL 3
REMARK VINA RESULT:     -11.3      2.936      8.338
REMARK SMILES O=C(OCCOCCOCCOC(=O)[C@@H]1[C@@H](C(=O)NCc2ccccc2Br)[C@H]2C=C[C@@H]1O2)c1ccc(-c2c3nc(c(-c4c(F)c(F)c(F)c(F)c4F)c4ccc([nH]4)c(-c4c(F)c(F)c(F)c(F)c4F)c4nc(c(-c5c(F)c(F)c(F)c(F)c5F)c5ccc2[nH]5)C=C4)C=C3)cc1
REMARK SMILES IDX 8 1 7 2 6 3 5 4 4 5 3 6 2 7 1 8 33 9 34 10 95 11 35 12 94 13
REMARK SMILES IDX 36 14 37 15 38 16 88 17 39 18 93 19 87 20 89 21 40 22 92 23
REMARK SMILES IDX 86 24 85 25 41 27 73 28 53 29 72 30 54 31 57 32 71 33 90 34
REMARK SMILES IDX 55 35 56 36 70 38 91 39 58 40 42 41 43 42 51 43 44 44 45 45
REMARK SMILES IDX 49 46 52 47 46 48 47 49 50 50 48 51 74 52 75 53 83 54 76 55
REMARK SMILES IDX 77 56 81 57 84 58 78 59 79 60 82 61 80 62 59 63 60 64 68 65
REMARK SMILES IDX 61 66 62 67 66 68 69 69 63 70 64 71 67 72 65 73 9 74 10 75
REMARK SMILES IDX 11 76 12 77 13 78 14 79 15 80 16 81 31 82 28 83 30 84 32 85
REMARK SMILES IDX 29 86 17 87 18 88 19 89 20 91 21 92 22 93 26 94 23 95 25 96
REMARK SMILES IDX 27 97 24 98
REMARK H PARENT 89 26 57 37 19 90
REMARK Flexibility Score: inf
ROOT
ATOM      1  C   UNL A   1      32.873  29.482  24.989  1.00  0.00     0.188 C 
ENDROOT
BRANCH   1   2
ATOM      2  C   UNL A   1      31.564  30.164  25.376  1.00  0.00     0.188 C 
BRANCH   2   3
ATOM      3  O   UNL A   1      31.541  30.705  26.704  1.00  0.00    -0.376 OA
BRANCH   3   4
ATOM      4  C   UNL A   1      31.387  32.131  26.726  1.00  0.00     0.202 C 
BRANCH   4   5
ATOM      5  C   UNL A   1      32.598  32.938  27.231  1.00  0.00     0.261 C 
BRANCH   5   6
ATOM      6  O   UNL A   1      32.257  34.169  27.885  1.00  0.00    -0.460 OA
BRANCH   6   7
ATOM      7  C   UNL A   1      32.983  34.913  28.755  1.00  0.00     0.338 C 
ATOM      8  O   UNL A   1      32.622  36.073  28.956  1.00  0.00    -0.246 OA
BRANCH   7   9
ATOM      9  C   UNL A   1      34.200  34.425  29.484  1.00  0.00     0.060 A 
ATOM     10  C   UNL A   1      35.512  34.428  28.999  1.00  0.00     0.016 A 
ATOM     11  C   UNL A   1      33.996  33.933  30.785  1.00  0.00     0.016 A 
ATOM     12  C   UNL A   1      36.569  33.881  29.719  1.00  0.00     0.010 A 
ATOM     13  C   UNL A   1      35.054  33.409  31.532  1.00  0.00     0.010 A 
ATOM     14  C   UNL A   1      36.339  33.342  30.977  1.00  0.00    -0.014 A 
BRANCH  14  15
ATOM     15  C   UNL A   1      37.382  32.531  31.625  1.00  0.00     0.031 A 
ATOM     16  C   UNL A   1      37.898  33.005  32.936  1.00  0.00     0.074 A 
ATOM     17  C   UNL A   1      37.821  31.375  31.101  1.00  0.00     0.049 A 
ATOM     18  N   UNL A   1      38.870  32.526  33.656  1.00  0.00    -0.248 NA
ATOM     19  C   UNL A   1      37.183  34.140  33.542  1.00  0.00     0.031 C 
ATOM     20  C   UNL A   1      37.207  30.699  29.975  1.00  0.00     0.029 A 
ATOM     21  N   UNL A   1      38.890  30.580  31.414  1.00  0.00    -0.354 N 
ATOM     22  C   UNL A   1      38.874  33.286  34.810  1.00  0.00     0.074 A 
ATOM     23  C   UNL A   1      37.846  34.294  34.675  1.00  0.00     0.031 C 
ATOM     24  C   UNL A   1      37.986  29.681  29.587  1.00  0.00     0.029 A 
ATOM     25  C   UNL A   1      39.136  29.621  30.461  1.00  0.00     0.049 A 
ATOM     26  H   UNL A   1      39.425  30.684  32.235  1.00  0.00     0.167 HD
ATOM     27  C   UNL A   1      39.664  33.125  35.893  1.00  0.00     0.037 A 
ATOM     28  C   UNL A   1      40.177  28.789  30.292  1.00  0.00     0.037 A 
ATOM     29  C   UNL A   1      40.702  32.134  35.957  1.00  0.00     0.049 A 
ATOM     30  C   UNL A   1      41.176  28.749  31.401  1.00  0.00     0.074 A 
ATOM     31  C   UNL A   1      41.618  31.903  36.963  1.00  0.00     0.029 A 
ATOM     32  N   UNL A   1      40.975  31.216  34.943  1.00  0.00    -0.354 N 
ATOM     33  N   UNL A   1      41.203  29.483  32.489  1.00  0.00    -0.248 NA
ATOM     34  C   UNL A   1      42.234  27.742  31.316  1.00  0.00     0.031 C 
ATOM     35  C   UNL A   1      42.488  30.896  36.529  1.00  0.00     0.029 A 
ATOM     36  C   UNL A   1      42.071  30.443  35.284  1.00  0.00     0.049 A 
ATOM     37  H   UNL A   1      40.462  31.130  34.108  1.00  0.00     0.167 HD
ATOM     38  C   UNL A   1      42.238  28.988  33.254  1.00  0.00     0.074 A 
ATOM     39  C   UNL A   1      42.831  27.903  32.490  1.00  0.00     0.031 C 
ATOM     40  C   UNL A   1      42.636  29.377  34.490  1.00  0.00     0.037 A 
BRANCH  27  41
ATOM     41  C   UNL A   1      39.463  34.107  37.006  1.00  0.00     0.064 A 
ATOM     42  C   UNL A   1      40.108  35.355  37.021  1.00  0.00     0.173 A 
ATOM     43  C   UNL A   1      38.713  33.742  38.132  1.00  0.00     0.173 A 
ATOM     44  F   UNL A   1      40.874  35.733  35.986  1.00  0.00    -0.203 F 
ATOM     45  C   UNL A   1      40.053  36.175  38.146  1.00  0.00     0.198 A 
ATOM     46  C   UNL A   1      38.631  34.580  39.239  1.00  0.00     0.198 A 
ATOM     47  F   UNL A   1      38.092  32.554  38.174  1.00  0.00    -0.203 F 
ATOM     48  F   UNL A   1      40.756  37.316  38.176  1.00  0.00    -0.200 F 
ATOM     49  C   UNL A   1      39.314  35.787  39.253  1.00  0.00     0.200 A 
ATOM     50  F   UNL A   1      37.920  34.202  40.310  1.00  0.00    -0.200 F 
ATOM     51  F   UNL A   1      39.284  36.562  40.345  1.00  0.00    -0.200 F 
ENDBRANCH  27  41
BRANCH  28  52
ATOM     52  C   UNL A   1      40.261  27.931  29.081  1.00  0.00     0.064 A 
ATOM     53  C   UNL A   1      39.585  26.708  29.001  1.00  0.00     0.173 A 
ATOM     54  C   UNL A   1      40.971  28.354  27.943  1.00  0.00     0.173 A 
ATOM     55  F   UNL A   1      38.887  26.261  30.055  1.00  0.00    -0.203 F 
ATOM     56  C   UNL A   1      39.626  25.934  27.842  1.00  0.00     0.198 A 
ATOM     57  C   UNL A   1      41.000  27.587  26.778  1.00  0.00     0.198 A 
ATOM     58  F   UNL A   1      41.631  29.523  27.962  1.00  0.00    -0.203 F 
ATOM     59  F   UNL A   1      38.985  24.757  27.802  1.00  0.00    -0.200 F 
ATOM     60  C   UNL A   1      40.330  26.375  26.730  1.00  0.00     0.200 A 
ATOM     61  F   UNL A   1      41.679  28.017  25.705  1.00  0.00    -0.200 F 
ATOM     62  F   UNL A   1      40.366  25.627  25.618  1.00  0.00    -0.200 F 
ENDBRANCH  28  52
BRANCH  40  63
ATOM     63  C   UNL A   1      43.748  28.591  35.106  1.00  0.00     0.064 A 
ATOM     64  C   UNL A   1      43.503  27.440  35.867  1.00  0.00     0.173 A 
ATOM     65  C   UNL A   1      45.079  28.965  34.871  1.00  0.00     0.173 A 
ATOM     66  F   UNL A   1      42.244  27.062  36.134  1.00  0.00    -0.203 F 
ATOM     67  C   UNL A   1      44.557  26.695  36.382  1.00  0.00     0.198 A 
ATOM     68  C   UNL A   1      46.129  28.197  35.358  1.00  0.00     0.198 A 
ATOM     69  F   UNL A   1      45.356  30.062  34.149  1.00  0.00    -0.203 F 
ATOM     70  F   UNL A   1      44.305  25.620  37.141  1.00  0.00    -0.200 F 
ATOM     71  C   UNL A   1      45.868  27.066  36.116  1.00  0.00     0.200 A 
ATOM     72  F   UNL A   1      47.393  28.549  35.086  1.00  0.00    -0.200 F 
ATOM     73  F   UNL A   1      46.881  26.333  36.593  1.00  0.00    -0.200 F 
ENDBRANCH  40  63
ENDBRANCH  14  15
ENDBRANCH   7   9
ENDBRANCH   6   7
ENDBRANCH   5   6
ENDBRANCH   4   5
ENDBRANCH   3   4
ENDBRANCH   2   3
ENDBRANCH   1   2
BRANCH   1  74
ATOM     74  O   UNL A   1      32.878  28.063  24.895  1.00  0.00    -0.376 OA
BRANCH  74  75
ATOM     75  C   UNL A   1      33.836  27.356  25.668  1.00  0.00     0.202 C 
BRANCH  75  76
ATOM     76  C   UNL A   1      33.977  25.841  25.465  1.00  0.00     0.261 C 
BRANCH  76  77
ATOM     77  O   UNL A   1      33.463  25.003  26.513  1.00  0.00    -0.463 OA
BRANCH  77  78
ATOM     78  C   UNL A   1      33.989  23.752  26.576  1.00  0.00     0.312 C 
ATOM     79  O   UNL A   1      33.719  22.928  27.449  1.00  0.00    -0.252 OA
BRANCH  78  80
ATOM     80  C   UNL A   1      34.971  23.433  25.483  1.00  0.00     0.147 C 
ATOM     81  C   UNL A   1      34.584  22.286  24.521  1.00  0.00     0.128 C 
ATOM     82  C   UNL A   1      36.310  22.938  26.050  1.00  0.00     0.157 C 
ATOM     83  C   UNL A   1      35.878  21.456  24.527  1.00  0.00     0.155 C 
ATOM     84  C   UNL A   1      37.374  23.090  25.001  1.00  0.00     0.004 C 
ATOM     85  O   UNL A   1      36.130  21.496  25.964  1.00  0.00    -0.365 OA
ATOM     86  C   UNL A   1      37.097  22.183  24.056  1.00  0.00     0.004 C 
BRANCH  81  87
ATOM     87  C   UNL A   1      34.177  22.860  23.183  1.00  0.00     0.227 C 
ATOM     88  O   UNL A   1      34.984  23.223  22.329  1.00  0.00    -0.275 OA
ATOM     89  N   UNL A   1      32.856  23.031  22.896  1.00  0.00    -0.352 N 
ATOM     90  H   UNL A   1      32.677  23.326  21.974  1.00  0.00     0.163 HD
BRANCH  89  91
ATOM     91  C   UNL A   1      31.665  22.854  23.710  1.00  0.00     0.152 C 
BRANCH  91  92
ATOM     92  C   UNL A   1      31.000  24.176  24.011  1.00  0.00    -0.015 A 
ATOM     93  C   UNL A   1      31.033  25.216  23.060  1.00  0.00     0.007 A 
ATOM     94  C   UNL A   1      30.370  24.436  25.240  1.00  0.00     0.022 A 
ATOM     95  C   UNL A   1      30.432  26.448  23.305  1.00  0.00     0.000 A 
ATOM     96  C   UNL A   1      29.753  25.670  25.479  1.00  0.00     0.016 A 
ATOM     97  Br  UNL A   1      30.319  23.159  26.647  1.00  0.00    -0.050 Br
ATOM     98  C   UNL A   1      29.782  26.672  24.510  1.00  0.00     0.001 A 
ENDBRANCH  91  92
ENDBRANCH  89  91
ENDBRANCH  81  87
ENDBRANCH  78  80
ENDBRANCH  77  78
ENDBRANCH  76  77
ENDBRANCH  75  76
ENDBRANCH  74  75
ENDBRANCH   1  74
TORSDOF 20
ENDMDL
