MODEL 1
REMARK VINA RESULT:     -11.5      0.000      0.000
REMARK SMILES C[C@H]1[C@@H](C(=O)OCCOCCOCCOC(=O)c2ccc(-c3c4nc(c(-c5c(F)c(F)c(F)c(F)c5F)c5ccc([nH]5)c(-c5c(F)c(F)c(F)c(F)c5F)c5nc(c(-c6c(F)c(F)c(F)c(F)c6F)c6ccc3[nH]6)C=C5)C=C4)cc2)CCN1C(=O)c1cc2cc(F)ccc2s1
REMARK SMILES IDX 10 1 9 2 8 3 7 4 6 5 4 6 5 7 3 8 1 9 2 10 83 11 81 12 82 13
REMARK SMILES IDX 84 14 85 15 86 16 87 17 95 18 88 19 94 20 89 21 93 22 90 23
REMARK SMILES IDX 92 24 91 25 11 26 12 27 13 28 14 29 15 30 16 31 17 32 18 33
REMARK SMILES IDX 19 34 80 35 20 36 79 37 21 38 22 39 23 40 73 41 24 42 78 43
REMARK SMILES IDX 72 44 74 45 25 46 77 47 71 48 70 49 26 51 58 52 38 53 57 54
REMARK SMILES IDX 39 55 42 56 56 57 75 58 40 59 41 60 55 62 76 63 43 64 27 65
REMARK SMILES IDX 28 66 36 67 29 68 30 69 34 70 37 71 31 72 32 73 35 74 33 75
REMARK SMILES IDX 59 76 60 77 68 78 61 79 62 80 66 81 69 82 63 83 64 84 67 85
REMARK SMILES IDX 65 86 44 87 45 88 53 89 46 90 47 91 51 92 54 93 48 94 49 95
REMARK SMILES IDX 52 96 50 97
REMARK H PARENT 74 50 42 61
REMARK Flexibility Score: inf
ROOT
ATOM      1  C   UNL A   1      40.188  19.685  26.098  1.00  0.00     0.188 C 
ENDROOT
BRANCH   1   2
ATOM      2  O   UNL A   1      39.719  21.017  26.137  1.00  0.00    -0.376 OA
BRANCH   2   3
ATOM      3  C   UNL A   1      38.623  21.389  25.316  1.00  0.00     0.202 C 
BRANCH   3   4
ATOM      4  C   UNL A   1      37.562  22.345  25.867  1.00  0.00     0.261 C 
BRANCH   4   5
ATOM      5  O   UNL A   1      36.241  22.117  25.330  1.00  0.00    -0.463 OA
BRANCH   5   6
ATOM      6  C   UNL A   1      35.955  22.755  24.174  1.00  0.00     0.311 C 
ATOM      7  O   UNL A   1      36.797  23.323  23.482  1.00  0.00    -0.252 OA
BRANCH   6   8
ATOM      8  C   UNL A   1      34.518  22.650  23.690  1.00  0.00     0.123 C 
ATOM      9  C   UNL A   1      34.166  25.240  23.405  1.00  0.00     0.032 C 
ATOM     10  C   UNL A   1      33.577  23.838  23.379  1.00  0.00     0.096 C 
ATOM     11  N   UNL A   1      32.385  23.620  24.208  1.00  0.00    -0.334 N 
ATOM     12  C   UNL A   1      33.750  21.721  24.643  1.00  0.00     0.039 C 
ATOM     13  C   UNL A   1      32.475  22.429  25.015  1.00  0.00     0.121 C 
BRANCH  11  14
ATOM     14  C   UNL A   1      31.113  24.158  24.065  1.00  0.00     0.264 C 
ATOM     15  O   UNL A   1      30.369  23.735  23.175  1.00  0.00    -0.268 OA
BRANCH  14  16
ATOM     16  C   UNL A   1      30.604  25.126  25.015  1.00  0.00     0.093 A 
ATOM     17  C   UNL A   1      31.244  25.528  26.180  1.00  0.00     0.034 A 
ATOM     18  S   UNL A   1      29.888  26.544  24.323  1.00  0.00    -0.130 S 
ATOM     19  C   UNL A   1      31.907  26.783  25.884  1.00  0.00    -0.004 A 
ATOM     20  C   UNL A   1      31.313  27.419  24.784  1.00  0.00     0.035 A 
ATOM     21  C   UNL A   1      33.082  27.351  26.429  1.00  0.00     0.048 A 
ATOM     22  C   UNL A   1      31.868  28.563  24.185  1.00  0.00     0.022 A 
ATOM     23  C   UNL A   1      33.667  28.443  25.790  1.00  0.00     0.123 A 
ATOM     24  C   UNL A   1      33.086  29.035  24.679  1.00  0.00     0.041 A 
ATOM     25  F   UNL A   1      34.845  28.903  26.235  1.00  0.00    -0.207 F 
ENDBRANCH  14  16
ENDBRANCH  11  14
ENDBRANCH   6   8
ENDBRANCH   5   6
ENDBRANCH   4   5
ENDBRANCH   3   4
ENDBRANCH   2   3
ENDBRANCH   1   2
BRANCH   1  26
ATOM     26  C   UNL A   1      41.674  19.377  26.363  1.00  0.00     0.188 C 
BRANCH  26  27
ATOM     27  O   UNL A   1      42.661  19.551  25.373  1.00  0.00    -0.376 OA
BRANCH  27  28
ATOM     28  C   UNL A   1      43.558  20.644  25.430  1.00  0.00     0.202 C 
BRANCH  28  29
ATOM     29  C   UNL A   1      43.309  21.861  26.329  1.00  0.00     0.261 C 
BRANCH  29  30
ATOM     30  O   UNL A   1      42.384  22.829  25.825  1.00  0.00    -0.460 OA
BRANCH  30  31
ATOM     31  C   UNL A   1      42.940  24.007  25.439  1.00  0.00     0.338 C 
ATOM     32  O   UNL A   1      43.639  24.221  24.471  1.00  0.00    -0.246 OA
BRANCH  31  33
ATOM     33  C   UNL A   1      42.423  25.071  26.317  1.00  0.00     0.060 A 
ATOM     34  C   UNL A   1      42.960  26.362  26.218  1.00  0.00     0.016 A 
ATOM     35  C   UNL A   1      41.442  24.775  27.260  1.00  0.00     0.016 A 
ATOM     36  C   UNL A   1      42.512  27.373  27.068  1.00  0.00     0.010 A 
ATOM     37  C   UNL A   1      41.018  25.777  28.130  1.00  0.00     0.010 A 
ATOM     38  C   UNL A   1      41.564  27.072  28.051  1.00  0.00    -0.014 A 
BRANCH  38  39
ATOM     39  C   UNL A   1      41.257  28.032  29.135  1.00  0.00     0.031 A 
ATOM     40  C   UNL A   1      42.041  27.925  30.409  1.00  0.00     0.074 A 
ATOM     41  C   UNL A   1      40.264  28.928  29.016  1.00  0.00     0.049 A 
ATOM     42  N   UNL A   1      41.809  28.461  31.578  1.00  0.00    -0.248 NA
ATOM     43  C   UNL A   1      43.248  27.084  30.356  1.00  0.00     0.031 C 
ATOM     44  C   UNL A   1      39.486  29.175  27.805  1.00  0.00     0.029 A 
ATOM     45  N   UNL A   1      39.718  29.774  29.950  1.00  0.00    -0.354 N 
ATOM     46  C   UNL A   1      42.821  27.996  32.408  1.00  0.00     0.074 A 
ATOM     47  C   UNL A   1      43.662  27.128  31.614  1.00  0.00     0.031 C 
ATOM     48  C   UNL A   1      38.537  30.087  28.078  1.00  0.00     0.029 A 
ATOM     49  C   UNL A   1      38.605  30.438  29.496  1.00  0.00     0.049 A 
ATOM     50  H   UNL A   1      40.087  29.893  30.854  1.00  0.00     0.167 HD
ATOM     51  C   UNL A   1      43.018  28.267  33.719  1.00  0.00     0.037 A 
ATOM     52  C   UNL A   1      37.715  31.196  30.168  1.00  0.00     0.037 A 
ATOM     53  C   UNL A   1      42.170  29.132  34.494  1.00  0.00     0.049 A 
ATOM     54  C   UNL A   1      37.899  31.408  31.652  1.00  0.00     0.074 A 
ATOM     55  C   UNL A   1      42.281  29.478  35.829  1.00  0.00     0.029 A 
ATOM     56  N   UNL A   1      41.046  29.779  34.002  1.00  0.00    -0.354 N 
ATOM     57  N   UNL A   1      38.846  30.961  32.442  1.00  0.00    -0.248 NA
ATOM     58  C   UNL A   1      36.886  32.221  32.339  1.00  0.00     0.031 C 
ATOM     59  C   UNL A   1      41.190  30.286  36.159  1.00  0.00     0.029 A 
ATOM     60  C   UNL A   1      40.441  30.504  35.014  1.00  0.00     0.049 A 
ATOM     61  H   UNL A   1      40.727  29.731  33.072  1.00  0.00     0.167 HD
ATOM     62  C   UNL A   1      38.569  31.473  33.703  1.00  0.00     0.074 A 
ATOM     63  C   UNL A   1      37.361  32.261  33.577  1.00  0.00     0.031 C 
ATOM     64  C   UNL A   1      39.256  31.312  34.860  1.00  0.00     0.037 A 
BRANCH  51  65
ATOM     65  C   UNL A   1      44.164  27.583  34.406  1.00  0.00     0.064 A 
ATOM     66  C   UNL A   1      44.044  26.296  34.948  1.00  0.00     0.173 A 
ATOM     67  C   UNL A   1      45.412  28.219  34.497  1.00  0.00     0.173 A 
ATOM     68  F   UNL A   1      42.869  25.650  34.901  1.00  0.00    -0.203 F 
ATOM     69  C   UNL A   1      45.121  25.683  35.583  1.00  0.00     0.198 A 
ATOM     70  C   UNL A   1      46.496  27.590  35.101  1.00  0.00     0.198 A 
ATOM     71  F   UNL A   1      45.582  29.451  33.993  1.00  0.00    -0.203 F 
ATOM     72  F   UNL A   1      44.969  24.473  36.141  1.00  0.00    -0.200 F 
ATOM     73  C   UNL A   1      46.348  26.326  35.651  1.00  0.00     0.200 A 
ATOM     74  F   UNL A   1      47.684  28.208  35.151  1.00  0.00    -0.200 F 
ATOM     75  F   UNL A   1      47.387  25.731  36.254  1.00  0.00    -0.200 F 
ENDBRANCH  51  65
BRANCH  52  76
ATOM     76  C   UNL A   1      36.547  31.783  29.457  1.00  0.00     0.064 A 
ATOM     77  C   UNL A   1      35.463  30.984  29.067  1.00  0.00     0.173 A 
ATOM     78  C   UNL A   1      36.498  33.147  29.132  1.00  0.00     0.173 A 
ATOM     79  F   UNL A   1      35.474  29.668  29.330  1.00  0.00    -0.203 F 
ATOM     80  C   UNL A   1      34.388  31.521  28.363  1.00  0.00     0.198 A 
ATOM     81  C   UNL A   1      35.407  33.690  28.456  1.00  0.00     0.198 A 
ATOM     82  F   UNL A   1      37.510  33.958  29.477  1.00  0.00    -0.203 F 
ATOM     83  F   UNL A   1      33.392  30.723  27.955  1.00  0.00    -0.200 F 
ATOM     84  C   UNL A   1      34.357  32.874  28.064  1.00  0.00     0.200 A 
ATOM     85  F   UNL A   1      35.376  35.001  28.180  1.00  0.00    -0.200 F 
ATOM     86  F   UNL A   1      33.321  33.390  27.387  1.00  0.00    -0.200 F 
ENDBRANCH  52  76
BRANCH  64  87
ATOM     87  C   UNL A   1      38.781  32.058  36.074  1.00  0.00     0.064 A 
ATOM     88  C   UNL A   1      38.019  31.442  37.075  1.00  0.00     0.173 A 
ATOM     89  C   UNL A   1      39.187  33.387  36.279  1.00  0.00     0.173 A 
ATOM     90  F   UNL A   1      37.596  30.178  36.921  1.00  0.00    -0.203 F 
ATOM     91  C   UNL A   1      37.676  32.130  38.237  1.00  0.00     0.198 A 
ATOM     92  C   UNL A   1      38.869  34.061  37.454  1.00  0.00     0.198 A 
ATOM     93  F   UNL A   1      39.924  34.020  35.354  1.00  0.00    -0.203 F 
ATOM     94  F   UNL A   1      36.923  31.532  39.170  1.00  0.00    -0.200 F 
ATOM     95  C   UNL A   1      38.112  33.433  38.430  1.00  0.00     0.200 A 
ATOM     96  F   UNL A   1      39.308  35.313  37.647  1.00  0.00    -0.200 F 
ATOM     97  F   UNL A   1      37.802  34.084  39.561  1.00  0.00    -0.200 F 
ENDBRANCH  64  87
ENDBRANCH  38  39
ENDBRANCH  31  33
ENDBRANCH  30  31
ENDBRANCH  29  30
ENDBRANCH  28  29
ENDBRANCH  27  28
ENDBRANCH  26  27
ENDBRANCH   1  26
TORSDOF 19
ENDMDL
MODEL 2
REMARK VINA RESULT:     -11.4      1.077      1.984
REMARK SMILES C[C@H]1[C@@H](C(=O)OCCOCCOCCOC(=O)c2ccc(-c3c4nc(c(-c5c(F)c(F)c(F)c(F)c5F)c5ccc([nH]5)c(-c5c(F)c(F)c(F)c(F)c5F)c5nc(c(-c6c(F)c(F)c(F)c(F)c6F)c6ccc3[nH]6)C=C5)C=C4)cc2)CCN1C(=O)c1cc2cc(F)ccc2s1
REMARK SMILES IDX 10 1 9 2 8 3 7 4 6 5 4 6 5 7 3 8 1 9 2 10 83 11 81 12 82 13
REMARK SMILES IDX 84 14 85 15 86 16 87 17 95 18 88 19 94 20 89 21 93 22 90 23
REMARK SMILES IDX 92 24 91 25 11 26 12 27 13 28 14 29 15 30 16 31 17 32 18 33
REMARK SMILES IDX 19 34 80 35 20 36 79 37 21 38 22 39 23 40 73 41 24 42 78 43
REMARK SMILES IDX 72 44 74 45 25 46 77 47 71 48 70 49 26 51 58 52 38 53 57 54
REMARK SMILES IDX 39 55 42 56 56 57 75 58 40 59 41 60 55 62 76 63 43 64 27 65
REMARK SMILES IDX 28 66 36 67 29 68 30 69 34 70 37 71 31 72 32 73 35 74 33 75
REMARK SMILES IDX 59 76 60 77 68 78 61 79 62 80 66 81 69 82 63 83 64 84 67 85
REMARK SMILES IDX 65 86 44 87 45 88 53 89 46 90 47 91 51 92 54 93 48 94 49 95
REMARK SMILES IDX 52 96 50 97
REMARK H PARENT 74 50 42 61
REMARK Flexibility Score: inf
ROOT
ATOM      1  C   UNL A   1      40.303  19.931  26.114  1.00  0.00     0.188 C 
ENDROOT
BRANCH   1   2
ATOM      2  O   UNL A   1      39.799  21.162  26.592  1.00  0.00    -0.376 OA
BRANCH   2   3
ATOM      3  C   UNL A   1      38.818  21.850  25.831  1.00  0.00     0.202 C 
BRANCH   3   4
ATOM      4  C   UNL A   1      37.534  21.121  25.426  1.00  0.00     0.261 C 
BRANCH   4   5
ATOM      5  O   UNL A   1      37.065  21.464  24.105  1.00  0.00    -0.463 OA
BRANCH   5   6
ATOM      6  C   UNL A   1      36.253  22.541  24.027  1.00  0.00     0.311 C 
ATOM      7  O   UNL A   1      36.191  23.278  23.046  1.00  0.00    -0.252 OA
BRANCH   6   8
ATOM      8  C   UNL A   1      35.308  22.754  25.199  1.00  0.00     0.123 C 
ATOM      9  C   UNL A   1      33.218  21.671  24.028  1.00  0.00     0.032 C 
ATOM     10  C   UNL A   1      33.798  22.420  25.218  1.00  0.00     0.096 C 
ATOM     11  N   UNL A   1      33.125  23.671  25.587  1.00  0.00    -0.334 N 
ATOM     12  C   UNL A   1      35.441  24.210  25.672  1.00  0.00     0.039 C 
ATOM     13  C   UNL A   1      34.046  24.762  25.794  1.00  0.00     0.121 C 
BRANCH  11  14
ATOM     14  C   UNL A   1      31.846  23.858  26.093  1.00  0.00     0.264 C 
ATOM     15  O   UNL A   1      31.572  23.445  27.224  1.00  0.00    -0.268 OA
BRANCH  14  16
ATOM     16  C   UNL A   1      30.862  24.630  25.362  1.00  0.00     0.093 A 
ATOM     17  C   UNL A   1      30.351  25.862  25.750  1.00  0.00     0.034 A 
ATOM     18  S   UNL A   1      31.098  24.705  23.647  1.00  0.00    -0.130 S 
ATOM     19  C   UNL A   1      31.086  26.873  25.014  1.00  0.00    -0.004 A 
ATOM     20  C   UNL A   1      31.657  26.334  23.852  1.00  0.00     0.035 A 
ATOM     21  C   UNL A   1      31.403  28.208  25.356  1.00  0.00     0.048 A 
ATOM     22  C   UNL A   1      32.559  27.056  23.051  1.00  0.00     0.022 A 
ATOM     23  C   UNL A   1      32.351  28.895  24.600  1.00  0.00     0.123 A 
ATOM     24  C   UNL A   1      32.934  28.332  23.475  1.00  0.00     0.041 A 
ATOM     25  F   UNL A   1      32.741  30.115  24.997  1.00  0.00    -0.207 F 
ENDBRANCH  14  16
ENDBRANCH  11  14
ENDBRANCH   6   8
ENDBRANCH   5   6
ENDBRANCH   4   5
ENDBRANCH   3   4
ENDBRANCH   2   3
ENDBRANCH   1   2
BRANCH   1  26
ATOM     26  C   UNL A   1      41.775  19.549  26.357  1.00  0.00     0.188 C 
BRANCH  26  27
ATOM     27  O   UNL A   1      42.724  19.534  25.315  1.00  0.00    -0.376 OA
BRANCH  27  28
ATOM     28  C   UNL A   1      43.880  20.345  25.379  1.00  0.00     0.202 C 
BRANCH  28  29
ATOM     29  C   UNL A   1      43.935  21.743  24.749  1.00  0.00     0.261 C 
BRANCH  29  30
ATOM     30  O   UNL A   1      43.490  22.819  25.579  1.00  0.00    -0.460 OA
BRANCH  30  31
ATOM     31  C   UNL A   1      44.058  24.023  25.310  1.00  0.00     0.338 C 
ATOM     32  O   UNL A   1      44.867  24.292  24.446  1.00  0.00    -0.246 OA
BRANCH  31  33
ATOM     33  C   UNL A   1      43.406  25.040  26.154  1.00  0.00     0.060 A 
ATOM     34  C   UNL A   1      43.680  26.396  25.928  1.00  0.00     0.016 A 
ATOM     35  C   UNL A   1      42.563  24.644  27.188  1.00  0.00     0.016 A 
ATOM     36  C   UNL A   1      43.105  27.371  26.741  1.00  0.00     0.010 A 
ATOM     37  C   UNL A   1      42.014  25.616  28.021  1.00  0.00     0.010 A 
ATOM     38  C   UNL A   1      42.297  26.979  27.815  1.00  0.00    -0.014 A 
BRANCH  38  39
ATOM     39  C   UNL A   1      41.884  27.949  28.853  1.00  0.00     0.031 A 
ATOM     40  C   UNL A   1      42.673  27.989  30.128  1.00  0.00     0.074 A 
ATOM     41  C   UNL A   1      40.798  28.723  28.697  1.00  0.00     0.049 A 
ATOM     42  N   UNL A   1      42.382  28.551  31.271  1.00  0.00    -0.248 NA
ATOM     43  C   UNL A   1      43.966  27.286  30.110  1.00  0.00     0.031 C 
ATOM     44  C   UNL A   1      39.999  28.825  27.478  1.00  0.00     0.029 A 
ATOM     45  N   UNL A   1      40.160  29.546  29.592  1.00  0.00    -0.354 N 
ATOM     46  C   UNL A   1      43.438  28.240  32.118  1.00  0.00     0.074 A 
ATOM     47  C   UNL A   1      44.371  27.434  31.362  1.00  0.00     0.031 C 
ATOM     48  C   UNL A   1      38.954  29.639  27.712  1.00  0.00     0.029 A 
ATOM     49  C   UNL A   1      38.981  30.061  29.112  1.00  0.00     0.049 A 
ATOM     50  H   UNL A   1      40.513  29.747  30.488  1.00  0.00     0.167 HD
ATOM     51  C   UNL A   1      43.602  28.592  33.414  1.00  0.00     0.037 A 
ATOM     52  C   UNL A   1      38.011  30.746  29.751  1.00  0.00     0.037 A 
ATOM     53  C   UNL A   1      42.662  29.393  34.152  1.00  0.00     0.049 A 
ATOM     54  C   UNL A   1      38.169  31.046  31.223  1.00  0.00     0.074 A 
ATOM     55  C   UNL A   1      42.733  29.812  35.469  1.00  0.00     0.029 A 
ATOM     56  N   UNL A   1      41.474  29.888  33.634  1.00  0.00    -0.354 N 
ATOM     57  N   UNL A   1      39.159  30.744  32.029  1.00  0.00    -0.248 NA
ATOM     58  C   UNL A   1      37.071  31.774  31.875  1.00  0.00     0.031 C 
ATOM     59  C   UNL A   1      41.558  30.508  35.765  1.00  0.00     0.029 A 
ATOM     60  C   UNL A   1      40.791  30.588  34.614  1.00  0.00     0.049 A 
ATOM     61  H   UNL A   1      41.164  29.762  32.708  1.00  0.00     0.167 HD
ATOM     62  C   UNL A   1      38.825  31.281  33.266  1.00  0.00     0.074 A 
ATOM     63  C   UNL A   1      37.538  31.924  33.108  1.00  0.00     0.031 C 
ATOM     64  C   UNL A   1      39.525  31.252  34.427  1.00  0.00     0.037 A 
BRANCH  51  65
ATOM     65  C   UNL A   1      44.816  28.072  34.128  1.00  0.00     0.064 A 
ATOM     66  C   UNL A   1      46.005  28.811  34.206  1.00  0.00     0.173 A 
ATOM     67  C   UNL A   1      44.776  26.823  34.767  1.00  0.00     0.173 A 
ATOM     68  F   UNL A   1      46.100  30.004  33.600  1.00  0.00    -0.203 F 
ATOM     69  C   UNL A   1      47.118  28.306  34.873  1.00  0.00     0.198 A 
ATOM     70  C   UNL A   1      45.880  26.337  35.462  1.00  0.00     0.198 A 
ATOM     71  F   UNL A   1      43.663  26.076  34.725  1.00  0.00    -0.203 F 
ATOM     72  F   UNL A   1      48.261  29.007  34.890  1.00  0.00    -0.200 F 
ATOM     73  C   UNL A   1      47.053  27.074  35.507  1.00  0.00     0.200 A 
ATOM     74  F   UNL A   1      45.808  25.153  36.086  1.00  0.00    -0.200 F 
ATOM     75  F   UNL A   1      48.122  26.594  36.155  1.00  0.00    -0.200 F 
ENDBRANCH  51  65
BRANCH  52  76
ATOM     76  C   UNL A   1      36.786  31.166  29.018  1.00  0.00     0.064 A 
ATOM     77  C   UNL A   1      36.590  32.504  28.649  1.00  0.00     0.173 A 
ATOM     78  C   UNL A   1      35.777  30.247  28.692  1.00  0.00     0.173 A 
ATOM     79  F   UNL A   1      37.513  33.427  28.961  1.00  0.00    -0.203 F 
ATOM     80  C   UNL A   1      35.425  32.910  28.001  1.00  0.00     0.198 A 
ATOM     81  C   UNL A   1      34.627  30.648  28.016  1.00  0.00     0.198 A 
ATOM     82  F   UNL A   1      35.911  28.955  29.026  1.00  0.00    -0.203 F 
ATOM     83  F   UNL A   1      35.240  34.204  27.710  1.00  0.00    -0.200 F 
ATOM     84  C   UNL A   1      34.447  31.981  27.680  1.00  0.00     0.200 A 
ATOM     85  F   UNL A   1      33.690  29.744  27.697  1.00  0.00    -0.200 F 
ATOM     86  F   UNL A   1      33.326  32.371  27.056  1.00  0.00    -0.200 F 
ENDBRANCH  52  76
BRANCH  64  87
ATOM     87  C   UNL A   1      38.968  31.997  35.606  1.00  0.00     0.064 A 
ATOM     88  C   UNL A   1      38.198  31.364  36.590  1.00  0.00     0.173 A 
ATOM     89  C   UNL A   1      39.303  33.347  35.800  1.00  0.00     0.173 A 
ATOM     90  F   UNL A   1      37.841  30.078  36.446  1.00  0.00    -0.203 F 
ATOM     91  C   UNL A   1      37.778  32.056  37.723  1.00  0.00     0.198 A 
ATOM     92  C   UNL A   1      38.908  34.027  36.947  1.00  0.00     0.198 A 
ATOM     93  F   UNL A   1      40.044  33.997  34.890  1.00  0.00    -0.203 F 
ATOM     94  F   UNL A   1      37.018  31.440  38.640  1.00  0.00    -0.200 F 
ATOM     95  C   UNL A   1      38.144  33.381  37.907  1.00  0.00     0.200 A 
ATOM     96  F   UNL A   1      39.279  35.301  37.132  1.00  0.00    -0.200 F 
ATOM     97  F   UNL A   1      37.760  34.038  39.011  1.00  0.00    -0.200 F 
ENDBRANCH  64  87
ENDBRANCH  38  39
ENDBRANCH  31  33
ENDBRANCH  30  31
ENDBRANCH  29  30
ENDBRANCH  28  29
ENDBRANCH  27  28
ENDBRANCH  26  27
ENDBRANCH   1  26
TORSDOF 19
ENDMDL
MODEL 3
REMARK VINA RESULT:     -11.4      5.156      7.771
REMARK SMILES C[C@H]1[C@@H](C(=O)OCCOCCOCCOC(=O)c2ccc(-c3c4nc(c(-c5c(F)c(F)c(F)c(F)c5F)c5ccc([nH]5)c(-c5c(F)c(F)c(F)c(F)c5F)c5nc(c(-c6c(F)c(F)c(F)c(F)c6F)c6ccc3[nH]6)C=C5)C=C4)cc2)CCN1C(=O)c1cc2cc(F)ccc2s1
REMARK SMILES IDX 10 1 9 2 8 3 7 4 6 5 4 6 5 7 3 8 1 9 2 10 83 11 81 12 82 13
REMARK SMILES IDX 84 14 85 15 86 16 87 17 95 18 88 19 94 20 89 21 93 22 90 23
REMARK SMILES IDX 92 24 91 25 11 26 12 27 13 28 14 29 15 30 16 31 17 32 18 33
REMARK SMILES IDX 19 34 80 35 20 36 79 37 21 38 22 39 23 40 73 41 24 42 78 43
REMARK SMILES IDX 72 44 74 45 25 46 77 47 71 48 70 49 26 51 58 52 38 53 57 54
REMARK SMILES IDX 39 55 42 56 56 57 75 58 40 59 41 60 55 62 76 63 43 64 27 65
REMARK SMILES IDX 28 66 36 67 29 68 30 69 34 70 37 71 31 72 32 73 35 74 33 75
REMARK SMILES IDX 59 76 60 77 68 78 61 79 62 80 66 81 69 82 63 83 64 84 67 85
REMARK SMILES IDX 65 86 44 87 45 88 53 89 46 90 47 91 51 92 54 93 48 94 49 95
REMARK SMILES IDX 52 96 50 97
REMARK H PARENT 74 50 42 61
REMARK Flexibility Score: inf
ROOT
ATOM      1  C   UNL A   1      40.482  22.026  27.182  1.00  0.00     0.188 C 
ENDROOT
BRANCH   1   2
ATOM      2  O   UNL A   1      39.320  22.474  26.515  1.00  0.00    -0.376 OA
BRANCH   2   3
ATOM      3  C   UNL A   1      38.608  21.571  25.683  1.00  0.00     0.202 C 
BRANCH   3   4
ATOM      4  C   UNL A   1      37.290  22.016  25.046  1.00  0.00     0.261 C 
BRANCH   4   5
ATOM      5  O   UNL A   1      36.512  22.901  25.880  1.00  0.00    -0.463 OA
BRANCH   5   6
ATOM      6  C   UNL A   1      35.246  22.507  26.141  1.00  0.00     0.311 C 
ATOM      7  O   UNL A   1      34.966  21.507  26.798  1.00  0.00    -0.252 OA
BRANCH   6   8
ATOM      8  C   UNL A   1      34.143  23.437  25.664  1.00  0.00     0.123 C 
ATOM      9  C   UNL A   1      33.405  21.925  23.644  1.00  0.00     0.032 C 
ATOM     10  C   UNL A   1      33.270  23.236  24.402  1.00  0.00     0.096 C 
ATOM     11  N   UNL A   1      33.437  24.462  23.611  1.00  0.00    -0.334 N 
ATOM     12  C   UNL A   1      34.711  24.862  25.581  1.00  0.00     0.039 C 
ATOM     13  C   UNL A   1      34.327  25.411  24.233  1.00  0.00     0.121 C 
BRANCH  11  14
ATOM     14  C   UNL A   1      32.630  24.964  22.600  1.00  0.00     0.264 C 
ATOM     15  O   UNL A   1      32.971  24.824  21.422  1.00  0.00    -0.268 OA
BRANCH  14  16
ATOM     16  C   UNL A   1      31.338  25.548  22.900  1.00  0.00     0.093 A 
ATOM     17  C   UNL A   1      30.633  25.385  24.086  1.00  0.00     0.034 A 
ATOM     18  S   UNL A   1      31.140  27.203  22.426  1.00  0.00    -0.130 S 
ATOM     19  C   UNL A   1      30.892  26.560  24.895  1.00  0.00    -0.004 A 
ATOM     20  C   UNL A   1      31.295  27.642  24.097  1.00  0.00     0.035 A 
ATOM     21  C   UNL A   1      30.926  26.718  26.299  1.00  0.00     0.048 A 
ATOM     22  C   UNL A   1      31.769  28.846  24.644  1.00  0.00     0.022 A 
ATOM     23  C   UNL A   1      31.463  27.887  26.838  1.00  0.00     0.123 A 
ATOM     24  C   UNL A   1      31.893  28.930  26.033  1.00  0.00     0.041 A 
ATOM     25  F   UNL A   1      31.608  27.984  28.167  1.00  0.00    -0.207 F 
ENDBRANCH  14  16
ENDBRANCH  11  14
ENDBRANCH   6   8
ENDBRANCH   5   6
ENDBRANCH   4   5
ENDBRANCH   3   4
ENDBRANCH   2   3
ENDBRANCH   1   2
BRANCH   1  26
ATOM     26  C   UNL A   1      41.346  20.908  26.569  1.00  0.00     0.188 C 
BRANCH  26  27
ATOM     27  O   UNL A   1      41.573  19.688  27.236  1.00  0.00    -0.376 OA
BRANCH  27  28
ATOM     28  C   UNL A   1      42.528  18.764  26.750  1.00  0.00     0.202 C 
BRANCH  28  29
ATOM     29  C   UNL A   1      43.108  18.855  25.333  1.00  0.00     0.261 C 
BRANCH  29  30
ATOM     30  O   UNL A   1      44.489  18.506  25.201  1.00  0.00    -0.460 OA
BRANCH  30  31
ATOM     31  C   UNL A   1      45.188  19.260  24.314  1.00  0.00     0.338 C 
ATOM     32  O   UNL A   1      45.757  18.893  23.307  1.00  0.00    -0.246 OA
BRANCH  31  33
ATOM     33  C   UNL A   1      45.019  20.677  24.678  1.00  0.00     0.060 A 
ATOM     34  C   UNL A   1      44.633  21.597  23.693  1.00  0.00     0.016 A 
ATOM     35  C   UNL A   1      45.284  21.094  25.980  1.00  0.00     0.016 A 
ATOM     36  C   UNL A   1      44.506  22.948  24.009  1.00  0.00     0.010 A 
ATOM     37  C   UNL A   1      45.189  22.449  26.287  1.00  0.00     0.010 A 
ATOM     38  C   UNL A   1      44.820  23.383  25.302  1.00  0.00    -0.014 A 
BRANCH  38  39
ATOM     39  C   UNL A   1      44.956  24.824  25.610  1.00  0.00     0.031 A 
ATOM     40  C   UNL A   1      46.316  25.442  25.482  1.00  0.00     0.074 A 
ATOM     41  C   UNL A   1      43.916  25.546  26.059  1.00  0.00     0.049 A 
ATOM     42  N   UNL A   1      46.755  26.592  25.922  1.00  0.00    -0.248 NA
ATOM     43  C   UNL A   1      47.325  24.643  24.767  1.00  0.00     0.031 C 
ATOM     44  C   UNL A   1      42.537  25.076  26.153  1.00  0.00     0.029 A 
ATOM     45  N   UNL A   1      43.875  26.826  26.554  1.00  0.00    -0.354 N 
ATOM     46  C   UNL A   1      48.096  26.640  25.568  1.00  0.00     0.074 A 
ATOM     47  C   UNL A   1      48.404  25.402  24.885  1.00  0.00     0.031 C 
ATOM     48  C   UNL A   1      41.787  26.044  26.709  1.00  0.00     0.029 A 
ATOM     49  C   UNL A   1      42.647  27.172  27.063  1.00  0.00     0.049 A 
ATOM     50  H   UNL A   1      44.648  27.435  26.546  1.00  0.00     0.167 HD
ATOM     51  C   UNL A   1      48.989  27.629  25.803  1.00  0.00     0.037 A 
ATOM     52  C   UNL A   1      42.280  28.252  27.781  1.00  0.00     0.037 A 
ATOM     53  C   UNL A   1      48.667  28.853  26.485  1.00  0.00     0.049 A 
ATOM     54  C   UNL A   1      43.315  29.300  28.116  1.00  0.00     0.074 A 
ATOM     55  C   UNL A   1      49.494  29.924  26.772  1.00  0.00     0.029 A 
ATOM     56  N   UNL A   1      47.414  29.164  26.994  1.00  0.00    -0.354 N 
ATOM     57  N   UNL A   1      44.586  29.343  27.794  1.00  0.00    -0.248 NA
ATOM     58  C   UNL A   1      42.867  30.445  28.922  1.00  0.00     0.031 C 
ATOM     59  C   UNL A   1      48.757  30.855  27.509  1.00  0.00     0.029 A 
ATOM     60  C   UNL A   1      47.453  30.400  27.616  1.00  0.00     0.049 A 
ATOM     61  H   UNL A   1      46.616  28.591  26.922  1.00  0.00     0.167 HD
ATOM     62  C   UNL A   1      45.075  30.534  28.316  1.00  0.00     0.074 A 
ATOM     63  C   UNL A   1      43.967  31.184  28.983  1.00  0.00     0.031 C 
ATOM     64  C   UNL A   1      46.328  31.047  28.244  1.00  0.00     0.037 A 
BRANCH  51  65
ATOM     65  C   UNL A   1      50.407  27.405  25.364  1.00  0.00     0.064 A 
ATOM     66  C   UNL A   1      50.825  27.652  24.048  1.00  0.00     0.173 A 
ATOM     67  C   UNL A   1      51.369  26.963  26.285  1.00  0.00     0.173 A 
ATOM     68  F   UNL A   1      49.943  28.061  23.125  1.00  0.00    -0.203 F 
ATOM     69  C   UNL A   1      52.146  27.434  23.665  1.00  0.00     0.198 A 
ATOM     70  C   UNL A   1      52.695  26.779  25.907  1.00  0.00     0.198 A 
ATOM     71  F   UNL A   1      51.023  26.713  27.558  1.00  0.00    -0.203 F 
ATOM     72  F   UNL A   1      52.512  27.626  22.389  1.00  0.00    -0.200 F 
ATOM     73  C   UNL A   1      53.081  27.007  24.595  1.00  0.00     0.200 A 
ATOM     74  F   UNL A   1      53.599  26.382  26.812  1.00  0.00    -0.200 F 
ATOM     75  F   UNL A   1      54.354  26.808  24.227  1.00  0.00    -0.200 F 
ENDBRANCH  51  65
BRANCH  52  76
ATOM     76  C   UNL A   1      40.880  28.387  28.266  1.00  0.00     0.064 A 
ATOM     77  C   UNL A   1      39.890  28.966  27.461  1.00  0.00     0.173 A 
ATOM     78  C   UNL A   1      40.507  27.962  29.551  1.00  0.00     0.173 A 
ATOM     79  F   UNL A   1      40.202  29.413  26.235  1.00  0.00    -0.203 F 
ATOM     80  C   UNL A   1      38.588  29.133  27.927  1.00  0.00     0.198 A 
ATOM     81  C   UNL A   1      39.197  28.100  30.004  1.00  0.00     0.198 A 
ATOM     82  F   UNL A   1      41.415  27.405  30.366  1.00  0.00    -0.203 F 
ATOM     83  F   UNL A   1      37.676  29.740  27.156  1.00  0.00    -0.200 F 
ATOM     84  C   UNL A   1      38.240  28.695  29.196  1.00  0.00     0.200 A 
ATOM     85  F   UNL A   1      38.863  27.664  31.227  1.00  0.00    -0.200 F 
ATOM     86  F   UNL A   1      36.987  28.856  29.644  1.00  0.00    -0.200 F 
ENDBRANCH  52  76
BRANCH  64  87
ATOM     87  C   UNL A   1      46.567  32.410  28.826  1.00  0.00     0.064 A 
ATOM     88  C   UNL A   1      46.348  33.582  28.091  1.00  0.00     0.173 A 
ATOM     89  C   UNL A   1      46.924  32.539  30.179  1.00  0.00     0.173 A 
ATOM     90  F   UNL A   1      46.018  33.513  26.792  1.00  0.00    -0.203 F 
ATOM     91  C   UNL A   1      46.482  34.834  28.686  1.00  0.00     0.198 A 
ATOM     92  C   UNL A   1      47.026  33.790  30.778  1.00  0.00     0.198 A 
ATOM     93  F   UNL A   1      47.137  31.447  30.929  1.00  0.00    -0.203 F 
ATOM     94  F   UNL A   1      46.295  35.944  27.958  1.00  0.00    -0.200 F 
ATOM     95  C   UNL A   1      46.808  34.937  30.030  1.00  0.00     0.200 A 
ATOM     96  F   UNL A   1      47.322  33.886  32.082  1.00  0.00    -0.200 F 
ATOM     97  F   UNL A   1      46.911  36.143  30.607  1.00  0.00    -0.200 F 
ENDBRANCH  64  87
ENDBRANCH  38  39
ENDBRANCH  31  33
ENDBRANCH  30  31
ENDBRANCH  29  30
ENDBRANCH  28  29
ENDBRANCH  27  28
ENDBRANCH  26  27
ENDBRANCH   1  26
TORSDOF 19
ENDMDL
