MODEL 1
REMARK VINA RESULT:     -10.7      0.000      0.000
REMARK SMILES O=C(OCCOCCOCCOC(=O)[C@@H]1CC[C@]2(CC[NH2+]C2)C1)c1ccc(-c2c3nc(c(-c4c(F)c(F)c(F)c(F)c4F)c4ccc([nH]4)c(-c4c(F)c(F)c(F)c(F)c4F)c4nc(c(-c5c(F)c(F)c(F)c(F)c5F)c5ccc2[nH]5)C=C4)C=C3)cc1
REMARK SMILES IDX 7 1 6 2 5 3 4 4 3 5 2 6 1 7 24 8 25 9 86 10 26 11 85 12
REMARK SMILES IDX 27 13 28 14 29 15 79 16 30 17 84 18 78 19 80 20 31 21 83 22
REMARK SMILES IDX 77 23 76 24 32 26 64 27 44 28 63 29 45 30 48 31 62 32 81 33
REMARK SMILES IDX 46 34 47 35 61 37 82 38 49 39 33 40 34 41 42 42 35 43 36 44
REMARK SMILES IDX 40 45 43 46 37 47 38 48 41 49 39 50 65 51 66 52 74 53 67 54
REMARK SMILES IDX 68 55 72 56 75 57 69 58 70 59 73 60 71 61 50 62 51 63 59 64
REMARK SMILES IDX 52 65 53 66 57 67 60 68 54 69 55 70 58 71 56 72 8 73 9 74
REMARK SMILES IDX 10 75 11 76 12 77 13 78 14 79 15 80 16 81 23 82 17 83 18 84
REMARK SMILES IDX 19 85 22 86 20 87 21 88
REMARK H PARENT 80 25 48 36 21 89 21 90
REMARK Flexibility Score: inf
ROOT
ATOM      1  C   UNL A   1      32.505  29.680  25.571  1.00  0.00     0.188 C 
ENDROOT
BRANCH   1   2
ATOM      2  O   UNL A   1      33.074  30.613  26.480  1.00  0.00    -0.376 OA
BRANCH   2   3
ATOM      3  C   UNL A   1      32.159  31.415  27.214  1.00  0.00     0.202 C 
BRANCH   3   4
ATOM      4  C   UNL A   1      32.170  32.907  26.854  1.00  0.00     0.261 C 
BRANCH   4   5
ATOM      5  O   UNL A   1      32.396  33.762  27.985  1.00  0.00    -0.460 OA
BRANCH   5   6
ATOM      6  C   UNL A   1      33.555  34.294  28.451  1.00  0.00     0.338 C 
ATOM      7  O   UNL A   1      33.696  35.508  28.376  1.00  0.00    -0.246 OA
BRANCH   6   8
ATOM      8  C   UNL A   1      34.731  33.491  28.941  1.00  0.00     0.060 A 
ATOM      9  C   UNL A   1      34.680  32.289  29.647  1.00  0.00     0.016 A 
ATOM     10  C   UNL A   1      36.010  33.987  28.608  1.00  0.00     0.016 A 
ATOM     11  C   UNL A   1      35.839  31.623  30.039  1.00  0.00     0.010 A 
ATOM     12  C   UNL A   1      37.180  33.299  28.955  1.00  0.00     0.010 A 
ATOM     13  C   UNL A   1      37.094  32.123  29.705  1.00  0.00    -0.014 A 
BRANCH  13  14
ATOM     14  C   UNL A   1      38.280  31.474  30.304  1.00  0.00     0.031 A 
ATOM     15  C   UNL A   1      38.631  31.825  31.716  1.00  0.00     0.074 A 
ATOM     16  C   UNL A   1      38.916  30.476  29.663  1.00  0.00     0.049 A 
ATOM     17  N   UNL A   1      39.516  31.276  32.504  1.00  0.00    -0.248 NA
ATOM     18  C   UNL A   1      37.840  32.895  32.347  1.00  0.00     0.031 C 
ATOM     19  C   UNL A   1      38.550  29.964  28.347  1.00  0.00     0.029 A 
ATOM     20  N   UNL A   1      39.985  29.699  30.026  1.00  0.00    -0.354 N 
ATOM     21  C   UNL A   1      39.344  31.890  33.734  1.00  0.00     0.074 A 
ATOM     22  C   UNL A   1      38.330  32.907  33.575  1.00  0.00     0.031 C 
ATOM     23  C   UNL A   1      39.416  29.009  27.975  1.00  0.00     0.029 A 
ATOM     24  C   UNL A   1      40.381  28.817  29.047  1.00  0.00     0.049 A 
ATOM     25  H   UNL A   1      40.427  29.766  30.903  1.00  0.00     0.167 HD
ATOM     26  C   UNL A   1      39.949  31.594  34.906  1.00  0.00     0.037 A 
ATOM     27  C   UNL A   1      41.402  27.942  29.031  1.00  0.00     0.037 A 
ATOM     28  C   UNL A   1      40.987  30.611  35.036  1.00  0.00     0.049 A 
ATOM     29  C   UNL A   1      42.188  27.765  30.300  1.00  0.00     0.074 A 
ATOM     30  C   UNL A   1      41.733  30.282  36.151  1.00  0.00     0.029 A 
ATOM     31  N   UNL A   1      41.434  29.803  33.998  1.00  0.00    -0.354 N 
ATOM     32  N   UNL A   1      42.011  28.341  31.465  1.00  0.00    -0.248 NA
ATOM     33  C   UNL A   1      43.284  26.789  30.273  1.00  0.00     0.031 C 
ATOM     34  C   UNL A   1      42.666  29.309  35.774  1.00  0.00     0.029 A 
ATOM     35  C   UNL A   1      42.466  28.994  34.438  1.00  0.00     0.049 A 
ATOM     36  H   UNL A   1      41.071  29.807  33.083  1.00  0.00     0.167 HD
ATOM     37  C   UNL A   1      42.940  27.771  32.320  1.00  0.00     0.074 A 
ATOM     38  C   UNL A   1      43.670  26.791  31.540  1.00  0.00     0.031 C 
ATOM     39  C   UNL A   1      43.168  28.027  33.631  1.00  0.00     0.037 A 
BRANCH  26  40
ATOM     40  C   UNL A   1      39.504  32.370  36.105  1.00  0.00     0.064 A 
ATOM     41  C   UNL A   1      38.438  31.929  36.906  1.00  0.00     0.173 A 
ATOM     42  C   UNL A   1      40.110  33.590  36.432  1.00  0.00     0.173 A 
ATOM     43  F   UNL A   1      37.802  30.783  36.614  1.00  0.00    -0.203 F 
ATOM     44  C   UNL A   1      37.980  32.695  37.975  1.00  0.00     0.198 A 
ATOM     45  C   UNL A   1      39.665  34.343  37.515  1.00  0.00     0.198 A 
ATOM     46  F   UNL A   1      41.122  34.062  35.688  1.00  0.00    -0.203 F 
ATOM     47  F   UNL A   1      36.924  32.283  38.691  1.00  0.00    -0.200 F 
ATOM     48  C   UNL A   1      38.596  33.900  38.281  1.00  0.00     0.200 A 
ATOM     49  F   UNL A   1      40.259  35.509  37.807  1.00  0.00    -0.200 F 
ATOM     50  F   UNL A   1      38.148  34.642  39.301  1.00  0.00    -0.200 F 
ENDBRANCH  26  40
BRANCH  27  51
ATOM     51  C   UNL A   1      41.732  27.176  27.798  1.00  0.00     0.064 A 
ATOM     52  C   UNL A   1      41.196  25.905  27.550  1.00  0.00     0.173 A 
ATOM     53  C   UNL A   1      42.643  27.688  26.859  1.00  0.00     0.173 A 
ATOM     54  F   UNL A   1      40.328  25.364  28.417  1.00  0.00    -0.203 F 
ATOM     55  C   UNL A   1      41.589  25.159  26.438  1.00  0.00     0.198 A 
ATOM     56  C   UNL A   1      43.014  26.953  25.734  1.00  0.00     0.198 A 
ATOM     57  F   UNL A   1      43.181  28.903  27.038  1.00  0.00    -0.203 F 
ATOM     58  F   UNL A   1      41.107  23.921  26.261  1.00  0.00    -0.200 F 
ATOM     59  C   UNL A   1      42.499  25.684  25.532  1.00  0.00     0.200 A 
ATOM     60  F   UNL A   1      43.883  27.471  24.855  1.00  0.00    -0.200 F 
ATOM     61  F   UNL A   1      42.886  24.960  24.473  1.00  0.00    -0.200 F 
ENDBRANCH  27  51
BRANCH  39  62
ATOM     62  C   UNL A   1      44.234  27.213  34.299  1.00  0.00     0.064 A 
ATOM     63  C   UNL A   1      45.556  27.673  34.397  1.00  0.00     0.173 A 
ATOM     64  C   UNL A   1      43.923  25.969  34.866  1.00  0.00     0.173 A 
ATOM     65  F   UNL A   1      45.903  28.849  33.851  1.00  0.00    -0.203 F 
ATOM     66  C   UNL A   1      46.535  26.901  35.012  1.00  0.00     0.198 A 
ATOM     67  C   UNL A   1      44.898  25.215  35.512  1.00  0.00     0.198 A 
ATOM     68  F   UNL A   1      42.673  25.488  34.802  1.00  0.00    -0.203 F 
ATOM     69  F   UNL A   1      47.803  27.333  35.042  1.00  0.00    -0.200 F 
ATOM     70  C   UNL A   1      46.204  25.678  35.575  1.00  0.00     0.200 A 
ATOM     71  F   UNL A   1      44.575  24.040  36.069  1.00  0.00    -0.200 F 
ATOM     72  F   UNL A   1      47.148  24.938  36.172  1.00  0.00    -0.200 F 
ENDBRANCH  39  62
ENDBRANCH  13  14
ENDBRANCH   6   8
ENDBRANCH   5   6
ENDBRANCH   4   5
ENDBRANCH   3   4
ENDBRANCH   2   3
ENDBRANCH   1   2
BRANCH   1  73
ATOM     73  C   UNL A   1      33.238  28.372  25.244  1.00  0.00     0.188 C 
BRANCH  73  74
ATOM     74  O   UNL A   1      33.149  27.240  26.089  1.00  0.00    -0.376 OA
BRANCH  74  75
ATOM     75  C   UNL A   1      32.347  26.139  25.710  1.00  0.00     0.202 C 
BRANCH  75  76
ATOM     76  C   UNL A   1      30.997  26.396  25.032  1.00  0.00     0.261 C 
BRANCH  76  77
ATOM     77  O   UNL A   1      30.947  26.191  23.608  1.00  0.00    -0.463 OA
BRANCH  77  78
ATOM     78  C   UNL A   1      30.508  27.253  22.883  1.00  0.00     0.309 C 
ATOM     79  O   UNL A   1      30.831  27.479  21.721  1.00  0.00    -0.252 OA
BRANCH  78  80
ATOM     80  C   UNL A   1      29.548  28.171  23.630  1.00  0.00     0.100 C 
ATOM     81  C   UNL A   1      28.060  27.918  23.477  1.00  0.00     0.016 C 
ATOM     82  C   UNL A   1      29.780  29.647  23.292  1.00  0.00     0.028 C 
ATOM     83  C   UNL A   1      27.529  29.013  22.565  1.00  0.00     0.014 C 
ATOM     84  C   UNL A   1      28.466  30.216  22.704  1.00  0.00     0.026 C 
ATOM     85  C   UNL A   1      28.701  30.939  21.361  1.00  0.00     0.074 C 
ATOM     86  C   UNL A   1      27.859  31.324  23.587  1.00  0.00     0.267 C 
ATOM     87  C   UNL A   1      28.192  32.356  21.554  1.00  0.00     0.261 C 
ATOM     88  N   UNL A   1      28.330  32.580  22.993  1.00  0.00    -0.346 N 
ATOM     89  H   UNL A   1      27.752  33.364  23.295  1.00  0.00     0.346 HD
ATOM     90  H   UNL A   1      29.283  32.815  23.266  1.00  0.00     0.346 HD
ENDBRANCH  78  80
ENDBRANCH  77  78
ENDBRANCH  76  77
ENDBRANCH  75  76
ENDBRANCH  74  75
ENDBRANCH  73  74
ENDBRANCH   1  73
TORSDOF 17
ENDMDL
MODEL 2
REMARK VINA RESULT:     -10.5      2.400      3.812
REMARK SMILES O=C(OCCOCCOCCOC(=O)[C@@H]1CC[C@]2(CC[NH2+]C2)C1)c1ccc(-c2c3nc(c(-c4c(F)c(F)c(F)c(F)c4F)c4ccc([nH]4)c(-c4c(F)c(F)c(F)c(F)c4F)c4nc(c(-c5c(F)c(F)c(F)c(F)c5F)c5ccc2[nH]5)C=C4)C=C3)cc1
REMARK SMILES IDX 7 1 6 2 5 3 4 4 3 5 2 6 1 7 24 8 25 9 86 10 26 11 85 12
REMARK SMILES IDX 27 13 28 14 29 15 79 16 30 17 84 18 78 19 80 20 31 21 83 22
REMARK SMILES IDX 77 23 76 24 32 26 64 27 44 28 63 29 45 30 48 31 62 32 81 33
REMARK SMILES IDX 46 34 47 35 61 37 82 38 49 39 33 40 34 41 42 42 35 43 36 44
REMARK SMILES IDX 40 45 43 46 37 47 38 48 41 49 39 50 65 51 66 52 74 53 67 54
REMARK SMILES IDX 68 55 72 56 75 57 69 58 70 59 73 60 71 61 50 62 51 63 59 64
REMARK SMILES IDX 52 65 53 66 57 67 60 68 54 69 55 70 58 71 56 72 8 73 9 74
REMARK SMILES IDX 10 75 11 76 12 77 13 78 14 79 15 80 16 81 23 82 17 83 18 84
REMARK SMILES IDX 19 85 22 86 20 87 21 88
REMARK H PARENT 80 25 48 36 21 89 21 90
REMARK Flexibility Score: inf
ROOT
ATOM      1  C   UNL A   1      31.922  30.030  26.498  1.00  0.00     0.188 C 
ENDROOT
BRANCH   1   2
ATOM      2  O   UNL A   1      31.300  31.085  25.777  1.00  0.00    -0.376 OA
BRANCH   2   3
ATOM      3  C   UNL A   1      31.123  32.308  26.478  1.00  0.00     0.202 C 
BRANCH   3   4
ATOM      4  C   UNL A   1      32.373  32.829  27.201  1.00  0.00     0.261 C 
BRANCH   4   5
ATOM      5  O   UNL A   1      32.168  34.096  27.845  1.00  0.00    -0.460 OA
BRANCH   5   6
ATOM      6  C   UNL A   1      32.954  34.752  28.738  1.00  0.00     0.338 C 
ATOM      7  O   UNL A   1      32.648  35.900  29.032  1.00  0.00    -0.246 OA
BRANCH   6   8
ATOM      8  C   UNL A   1      34.245  34.216  29.298  1.00  0.00     0.060 A 
ATOM      9  C   UNL A   1      35.525  34.430  28.787  1.00  0.00     0.016 A 
ATOM     10  C   UNL A   1      34.146  33.459  30.486  1.00  0.00     0.016 A 
ATOM     11  C   UNL A   1      36.655  33.893  29.400  1.00  0.00     0.010 A 
ATOM     12  C   UNL A   1      35.280  32.957  31.137  1.00  0.00     0.010 A 
ATOM     13  C   UNL A   1      36.543  33.149  30.571  1.00  0.00    -0.014 A 
BRANCH  13  14
ATOM     14  C   UNL A   1      37.751  32.455  31.068  1.00  0.00     0.031 A 
ATOM     15  C   UNL A   1      38.261  32.823  32.426  1.00  0.00     0.074 A 
ATOM     16  C   UNL A   1      38.268  31.408  30.398  1.00  0.00     0.049 A 
ATOM     17  N   UNL A   1      39.194  32.250  33.137  1.00  0.00    -0.248 NA
ATOM     18  C   UNL A   1      37.593  33.950  33.099  1.00  0.00     0.031 C 
ATOM     19  C   UNL A   1      37.744  30.882  29.142  1.00  0.00     0.029 A 
ATOM     20  N   UNL A   1      39.328  30.586  30.675  1.00  0.00    -0.354 N 
ATOM     21  C   UNL A   1      39.179  32.904  34.358  1.00  0.00     0.074 A 
ATOM     22  C   UNL A   1      38.206  33.968  34.271  1.00  0.00     0.031 C 
ATOM     23  C   UNL A   1      38.519  29.874  28.715  1.00  0.00     0.029 A 
ATOM     24  C   UNL A   1      39.578  29.659  29.690  1.00  0.00     0.049 A 
ATOM     25  H   UNL A   1      39.861  30.653  31.500  1.00  0.00     0.167 HD
ATOM     26  C   UNL A   1      39.886  32.607  35.472  1.00  0.00     0.037 A 
ATOM     27  C   UNL A   1      40.548  28.733  29.597  1.00  0.00     0.037 A 
ATOM     28  C   UNL A   1      40.882  31.575  35.527  1.00  0.00     0.049 A 
ATOM     29  C   UNL A   1      41.450  28.548  30.786  1.00  0.00     0.074 A 
ATOM     30  C   UNL A   1      41.722  31.237  36.571  1.00  0.00     0.029 A 
ATOM     31  N   UNL A   1      41.180  30.719  34.475  1.00  0.00    -0.354 N 
ATOM     32  N   UNL A   1      41.421  29.163  31.944  1.00  0.00    -0.248 NA
ATOM     33  C   UNL A   1      42.488  27.515  30.678  1.00  0.00     0.031 C 
ATOM     34  C   UNL A   1      42.562  30.207  36.133  1.00  0.00     0.029 A 
ATOM     35  C   UNL A   1      42.211  29.868  34.834  1.00  0.00     0.049 A 
ATOM     36  H   UNL A   1      40.726  30.718  33.601  1.00  0.00     0.167 HD
ATOM     37  C   UNL A   1      42.404  28.567  32.718  1.00  0.00     0.074 A 
ATOM     38  C   UNL A   1      43.001  27.530  31.900  1.00  0.00     0.031 C 
ATOM     39  C   UNL A   1      42.778  28.845  33.991  1.00  0.00     0.037 A 
BRANCH  26  40
ATOM     40  C   UNL A   1      39.605  33.438  36.685  1.00  0.00     0.064 A 
ATOM     41  C   UNL A   1      38.670  33.027  37.649  1.00  0.00     0.173 A 
ATOM     42  C   UNL A   1      40.235  34.676  36.865  1.00  0.00     0.173 A 
ATOM     43  F   UNL A   1      38.016  31.865  37.504  1.00  0.00    -0.203 F 
ATOM     44  C   UNL A   1      38.358  33.840  38.736  1.00  0.00     0.198 A 
ATOM     45  C   UNL A   1      39.938  35.477  37.964  1.00  0.00     0.198 A 
ATOM     46  F   UNL A   1      41.124  35.119  35.963  1.00  0.00    -0.203 F 
ATOM     47  F   UNL A   1      37.421  33.455  39.613  1.00  0.00    -0.200 F 
ATOM     48  C   UNL A   1      38.994  35.063  38.894  1.00  0.00     0.200 A 
ATOM     49  F   UNL A   1      40.551  36.659  38.114  1.00  0.00    -0.200 F 
ATOM     50  F   UNL A   1      38.686  35.850  39.933  1.00  0.00    -0.200 F 
ENDBRANCH  26  40
BRANCH  27  51
ATOM     51  C   UNL A   1      40.712  27.917  28.362  1.00  0.00     0.064 A 
ATOM     52  C   UNL A   1      40.122  26.654  28.225  1.00  0.00     0.173 A 
ATOM     53  C   UNL A   1      41.514  28.376  27.304  1.00  0.00     0.173 A 
ATOM     54  F   UNL A   1      39.353  26.164  29.208  1.00  0.00    -0.203 F 
ATOM     55  C   UNL A   1      40.364  25.862  27.102  1.00  0.00     0.198 A 
ATOM     56  C   UNL A   1      41.732  27.595  26.170  1.00  0.00     0.198 A 
ATOM     57  F   UNL A   1      42.096  29.582  27.374  1.00  0.00    -0.203 F 
ATOM     58  F   UNL A   1      39.838  24.631  27.028  1.00  0.00    -0.200 F 
ATOM     59  C   UNL A   1      41.169  26.333  26.076  1.00  0.00     0.200 A 
ATOM     60  F   UNL A   1      42.500  28.061  25.176  1.00  0.00    -0.200 F 
ATOM     61  F   UNL A   1      41.411  25.565  25.005  1.00  0.00    -0.200 F 
ENDBRANCH  27  51
BRANCH  39  62
ATOM     62  C   UNL A   1      43.866  27.995  34.572  1.00  0.00     0.064 A 
ATOM     63  C   UNL A   1      43.584  26.777  35.209  1.00  0.00     0.173 A 
ATOM     64  C   UNL A   1      45.206  28.393  34.469  1.00  0.00     0.173 A 
ATOM     65  F   UNL A   1      42.315  26.365  35.348  1.00  0.00    -0.203 F 
ATOM     66  C   UNL A   1      44.605  26.004  35.750  1.00  0.00     0.198 A 
ATOM     67  C   UNL A   1      46.228  27.599  34.981  1.00  0.00     0.198 A 
ATOM     68  F   UNL A   1      45.526  29.548  33.865  1.00  0.00    -0.203 F 
ATOM     69  F   UNL A   1      44.310  24.873  36.407  1.00  0.00    -0.200 F 
ATOM     70  C   UNL A   1      45.926  26.411  35.629  1.00  0.00     0.200 A 
ATOM     71  F   UNL A   1      47.504  27.987  34.851  1.00  0.00    -0.200 F 
ATOM     72  F   UNL A   1      46.908  25.662  36.147  1.00  0.00    -0.200 F 
ENDBRANCH  39  62
ENDBRANCH  13  14
ENDBRANCH   6   8
ENDBRANCH   5   6
ENDBRANCH   4   5
ENDBRANCH   3   4
ENDBRANCH   2   3
ENDBRANCH   1   2
BRANCH   1  73
ATOM     73  C   UNL A   1      33.387  29.664  26.225  1.00  0.00     0.188 C 
BRANCH  73  74
ATOM     74  O   UNL A   1      33.746  28.437  25.620  1.00  0.00    -0.376 OA
BRANCH  74  75
ATOM     75  C   UNL A   1      33.546  28.249  24.232  1.00  0.00     0.202 C 
BRANCH  75  76
ATOM     76  C   UNL A   1      32.640  27.109  23.756  1.00  0.00     0.261 C 
BRANCH  76  77
ATOM     77  O   UNL A   1      33.182  25.778  23.853  1.00  0.00    -0.463 OA
BRANCH  77  78
ATOM     78  C   UNL A   1      33.605  25.237  22.680  1.00  0.00     0.309 C 
ATOM     79  O   UNL A   1      33.655  25.845  21.615  1.00  0.00    -0.252 OA
BRANCH  78  80
ATOM     80  C   UNL A   1      34.036  23.778  22.780  1.00  0.00     0.100 C 
ATOM     81  C   UNL A   1      32.997  22.710  22.498  1.00  0.00     0.016 C 
ATOM     82  C   UNL A   1      34.646  23.449  24.145  1.00  0.00     0.028 C 
ATOM     83  C   UNL A   1      32.613  22.117  23.845  1.00  0.00     0.014 C 
ATOM     84  C   UNL A   1      33.803  22.322  24.787  1.00  0.00     0.026 C 
ATOM     85  C   UNL A   1      33.363  22.677  26.223  1.00  0.00     0.074 C 
ATOM     86  C   UNL A   1      34.611  21.025  24.989  1.00  0.00     0.267 C 
ATOM     87  C   UNL A   1      33.903  21.571  27.112  1.00  0.00     0.261 C 
ATOM     88  N   UNL A   1      35.070  21.079  26.381  1.00  0.00    -0.346 N 
ATOM     89  H   UNL A   1      35.341  20.153  26.712  1.00  0.00     0.346 HD
ATOM     90  H   UNL A   1      35.892  21.670  26.504  1.00  0.00     0.346 HD
ENDBRANCH  78  80
ENDBRANCH  77  78
ENDBRANCH  76  77
ENDBRANCH  75  76
ENDBRANCH  74  75
ENDBRANCH  73  74
ENDBRANCH   1  73
TORSDOF 17
ENDMDL
MODEL 3
REMARK VINA RESULT:     -10.4      1.992      3.970
REMARK SMILES O=C(OCCOCCOCCOC(=O)[C@@H]1CC[C@]2(CC[NH2+]C2)C1)c1ccc(-c2c3nc(c(-c4c(F)c(F)c(F)c(F)c4F)c4ccc([nH]4)c(-c4c(F)c(F)c(F)c(F)c4F)c4nc(c(-c5c(F)c(F)c(F)c(F)c5F)c5ccc2[nH]5)C=C4)C=C3)cc1
REMARK SMILES IDX 7 1 6 2 5 3 4 4 3 5 2 6 1 7 24 8 25 9 86 10 26 11 85 12
REMARK SMILES IDX 27 13 28 14 29 15 79 16 30 17 84 18 78 19 80 20 31 21 83 22
REMARK SMILES IDX 77 23 76 24 32 26 64 27 44 28 63 29 45 30 48 31 62 32 81 33
REMARK SMILES IDX 46 34 47 35 61 37 82 38 49 39 33 40 34 41 42 42 35 43 36 44
REMARK SMILES IDX 40 45 43 46 37 47 38 48 41 49 39 50 65 51 66 52 74 53 67 54
REMARK SMILES IDX 68 55 72 56 75 57 69 58 70 59 73 60 71 61 50 62 51 63 59 64
REMARK SMILES IDX 52 65 53 66 57 67 60 68 54 69 55 70 58 71 56 72 8 73 9 74
REMARK SMILES IDX 10 75 11 76 12 77 13 78 14 79 15 80 16 81 23 82 17 83 18 84
REMARK SMILES IDX 19 85 22 86 20 87 21 88
REMARK H PARENT 80 25 48 36 21 89 21 90
REMARK Flexibility Score: inf
ROOT
ATOM      1  C   UNL A   1      31.619  29.512  24.838  1.00  0.00     0.188 C 
ENDROOT
BRANCH   1   2
ATOM      2  O   UNL A   1      32.580  29.851  25.829  1.00  0.00    -0.376 OA
BRANCH   2   3
ATOM      3  C   UNL A   1      32.115  30.648  26.910  1.00  0.00     0.202 C 
BRANCH   3   4
ATOM      4  C   UNL A   1      31.958  32.142  26.594  1.00  0.00     0.261 C 
BRANCH   4   5
ATOM      5  O   UNL A   1      32.321  32.995  27.690  1.00  0.00    -0.460 OA
BRANCH   5   6
ATOM      6  C   UNL A   1      33.510  33.585  27.973  1.00  0.00     0.338 C 
ATOM      7  O   UNL A   1      33.642  34.768  27.690  1.00  0.00    -0.246 OA
BRANCH   6   8
ATOM      8  C   UNL A   1      34.723  32.860  28.496  1.00  0.00     0.060 A 
ATOM      9  C   UNL A   1      34.750  31.583  29.055  1.00  0.00     0.016 A 
ATOM     10  C   UNL A   1      35.959  33.529  28.360  1.00  0.00     0.016 A 
ATOM     11  C   UNL A   1      35.939  31.004  29.494  1.00  0.00     0.010 A 
ATOM     12  C   UNL A   1      37.165  32.935  28.753  1.00  0.00     0.010 A 
ATOM     13  C   UNL A   1      37.151  31.674  29.355  1.00  0.00    -0.014 A 
BRANCH  13  14
ATOM     14  C   UNL A   1      38.344  31.090  30.004  1.00  0.00     0.031 A 
ATOM     15  C   UNL A   1      38.632  31.479  31.420  1.00  0.00     0.074 A 
ATOM     16  C   UNL A   1      39.046  30.111  29.401  1.00  0.00     0.049 A 
ATOM     17  N   UNL A   1      39.515  30.984  32.245  1.00  0.00    -0.248 NA
ATOM     18  C   UNL A   1      37.773  32.522  32.005  1.00  0.00     0.031 C 
ATOM     19  C   UNL A   1      38.747  29.563  28.083  1.00  0.00     0.029 A 
ATOM     20  N   UNL A   1      40.136  29.389  29.812  1.00  0.00    -0.354 N 
ATOM     21  C   UNL A   1      39.274  31.609  33.458  1.00  0.00     0.074 A 
ATOM     22  C   UNL A   1      38.222  32.576  33.248  1.00  0.00     0.031 C 
ATOM     23  C   UNL A   1      39.666  28.642  27.756  1.00  0.00     0.029 A 
ATOM     24  C   UNL A   1      40.603  28.511  28.863  1.00  0.00     0.049 A 
ATOM     25  H   UNL A   1      40.545  29.491  30.701  1.00  0.00     0.167 HD
ATOM     26  C   UNL A   1      39.853  31.360  34.654  1.00  0.00     0.037 A 
ATOM     27  C   UNL A   1      41.663  27.684  28.894  1.00  0.00     0.037 A 
ATOM     28  C   UNL A   1      40.929  30.427  34.835  1.00  0.00     0.049 A 
ATOM     29  C   UNL A   1      42.413  27.563  30.192  1.00  0.00     0.074 A 
ATOM     30  C   UNL A   1      41.653  30.151  35.979  1.00  0.00     0.029 A 
ATOM     31  N   UNL A   1      41.447  29.624  33.826  1.00  0.00    -0.354 N 
ATOM     32  N   UNL A   1      42.172  28.149  31.340  1.00  0.00    -0.248 NA
ATOM     33  C   UNL A   1      43.553  26.637  30.217  1.00  0.00     0.031 C 
ATOM     34  C   UNL A   1      42.640  29.215  35.650  1.00  0.00     0.029 A 
ATOM     35  C   UNL A   1      42.499  28.870  34.314  1.00  0.00     0.049 A 
ATOM     36  H   UNL A   1      41.114  29.597  32.900  1.00  0.00     0.167 HD
ATOM     37  C   UNL A   1      43.097  27.635  32.234  1.00  0.00     0.074 A 
ATOM     38  C   UNL A   1      43.895  26.677  31.496  1.00  0.00     0.031 C 
ATOM     39  C   UNL A   1      43.270  27.923  33.548  1.00  0.00     0.037 A 
BRANCH  26  40
ATOM     40  C   UNL A   1      39.334  32.135  35.825  1.00  0.00     0.064 A 
ATOM     41  C   UNL A   1      39.843  33.405  36.142  1.00  0.00     0.173 A 
ATOM     42  C   UNL A   1      38.357  31.588  36.666  1.00  0.00     0.173 A 
ATOM     43  F   UNL A   1      40.804  33.956  35.386  1.00  0.00    -0.203 F 
ATOM     44  C   UNL A   1      39.408  34.087  37.276  1.00  0.00     0.198 A 
ATOM     45  C   UNL A   1      37.908  32.282  37.786  1.00  0.00     0.198 A 
ATOM     46  F   UNL A   1      37.851  30.372  36.413  1.00  0.00    -0.203 F 
ATOM     47  F   UNL A   1      39.949  35.272  37.593  1.00  0.00    -0.200 F 
ATOM     48  C   UNL A   1      38.439  33.526  38.096  1.00  0.00     0.200 A 
ATOM     49  F   UNL A   1      36.974  31.739  38.579  1.00  0.00    -0.200 F 
ATOM     50  F   UNL A   1      38.030  34.177  39.193  1.00  0.00    -0.200 F 
ENDBRANCH  26  40
BRANCH  27  51
ATOM     51  C   UNL A   1      42.067  26.913  27.686  1.00  0.00     0.064 A 
ATOM     52  C   UNL A   1      41.569  25.630  27.425  1.00  0.00     0.173 A 
ATOM     53  C   UNL A   1      43.012  27.435  26.788  1.00  0.00     0.173 A 
ATOM     54  F   UNL A   1      40.671  25.079  28.255  1.00  0.00    -0.203 F 
ATOM     55  C   UNL A   1      42.031  24.882  26.341  1.00  0.00     0.198 A 
ATOM     56  C   UNL A   1      43.453  26.698  25.690  1.00  0.00     0.198 A 
ATOM     57  F   UNL A   1      43.517  28.663  26.981  1.00  0.00    -0.203 F 
ATOM     58  F   UNL A   1      41.582  23.633  26.153  1.00  0.00    -0.200 F 
ATOM     59  C   UNL A   1      42.973  25.417  25.476  1.00  0.00     0.200 A 
ATOM     60  F   UNL A   1      44.353  27.225  24.849  1.00  0.00    -0.200 F 
ATOM     61  F   UNL A   1      43.425  24.692  24.443  1.00  0.00    -0.200 F 
ENDBRANCH  27  51
BRANCH  39  62
ATOM     62  C   UNL A   1      44.349  27.170  34.263  1.00  0.00     0.064 A 
ATOM     63  C   UNL A   1      44.103  25.924  34.858  1.00  0.00     0.173 A 
ATOM     64  C   UNL A   1      45.649  27.692  34.332  1.00  0.00     0.173 A 
ATOM     65  F   UNL A   1      42.871  25.395  34.834  1.00  0.00    -0.203 F 
ATOM     66  C   UNL A   1      45.115  25.242  35.526  1.00  0.00     0.198 A 
ATOM     67  C   UNL A   1      46.667  26.990  34.971  1.00  0.00     0.198 A 
ATOM     68  F   UNL A   1      45.934  28.878  33.774  1.00  0.00    -0.203 F 
ATOM     69  F   UNL A   1      44.844  24.081  36.139  1.00  0.00    -0.200 F 
ATOM     70  C   UNL A   1      46.396  25.771  35.575  1.00  0.00     0.200 A 
ATOM     71  F   UNL A   1      47.907  27.494  35.005  1.00  0.00    -0.200 F 
ATOM     72  F   UNL A   1      47.370  25.110  36.214  1.00  0.00    -0.200 F 
ENDBRANCH  39  62
ENDBRANCH  13  14
ENDBRANCH   6   8
ENDBRANCH   5   6
ENDBRANCH   4   5
ENDBRANCH   3   4
ENDBRANCH   2   3
ENDBRANCH   1   2
BRANCH   1  73
ATOM     73  C   UNL A   1      31.771  28.221  24.022  1.00  0.00     0.188 C 
BRANCH  73  74
ATOM     74  O   UNL A   1      31.721  26.946  24.634  1.00  0.00    -0.376 OA
BRANCH  74  75
ATOM     75  C   UNL A   1      30.640  26.614  25.485  1.00  0.00     0.202 C 
BRANCH  75  76
ATOM     76  C   UNL A   1      30.506  25.174  25.992  1.00  0.00     0.261 C 
BRANCH  76  77
ATOM     77  O   UNL A   1      31.407  24.780  27.044  1.00  0.00    -0.463 OA
BRANCH  77  78
ATOM     78  C   UNL A   1      32.124  23.651  26.800  1.00  0.00     0.309 C 
ATOM     79  O   UNL A   1      32.288  22.746  27.613  1.00  0.00    -0.252 OA
BRANCH  78  80
ATOM     80  C   UNL A   1      32.725  23.577  25.401  1.00  0.00     0.100 C 
ATOM     81  C   UNL A   1      32.535  22.294  24.614  1.00  0.00     0.016 C 
ATOM     82  C   UNL A   1      34.227  23.874  25.401  1.00  0.00     0.028 C 
ATOM     83  C   UNL A   1      33.876  21.576  24.632  1.00  0.00     0.014 C 
ATOM     84  C   UNL A   1      34.959  22.641  24.820  1.00  0.00     0.026 C 
ATOM     85  C   UNL A   1      36.103  22.163  25.739  1.00  0.00     0.074 C 
ATOM     86  C   UNL A   1      35.692  22.960  23.502  1.00  0.00     0.267 C 
ATOM     87  C   UNL A   1      37.364  22.206  24.896  1.00  0.00     0.261 C 
ATOM     88  N   UNL A   1      37.078  23.235  23.897  1.00  0.00    -0.346 N 
ATOM     89  H   UNL A   1      37.708  23.152  23.100  1.00  0.00     0.346 HD
ATOM     90  H   UNL A   1      37.207  24.181  24.257  1.00  0.00     0.346 HD
ENDBRANCH  78  80
ENDBRANCH  77  78
ENDBRANCH  76  77
ENDBRANCH  75  76
ENDBRANCH  74  75
ENDBRANCH  73  74
ENDBRANCH   1  73
TORSDOF 17
ENDMDL
