MODEL 1
REMARK VINA RESULT:     -13.4      0.000      0.000
REMARK SMILES Cc1cccc(-c2ccc(Cl)c(C(=O)OCCOCCOCCOC(=O)c3ccc(-c4c5nc(c(-c6c(F)c(F)c(F)c(F)c6F)c6ccc([nH]6)c(-c6c(F)c(F)c(F)c(F)c6F)c6nc(c(-c7c(F)c(F)c(F)c(F)c7F)c7ccc4[nH]7)C=C6)C=C5)cc3)c2)c1
REMARK SMILES IDX 20 1 19 2 18 3 17 4 16 5 15 6 13 7 14 8 12 9 7 10 8 11 90 12
REMARK SMILES IDX 9 13 10 14 11 15 6 16 1 17 2 18 3 19 91 20 4 21 5 22 21 23
REMARK SMILES IDX 22 24 23 25 24 26 25 27 26 28 27 29 28 30 89 31 29 32 88 33
REMARK SMILES IDX 30 34 31 35 32 36 82 37 33 38 87 39 81 40 83 41 34 42 86 43
REMARK SMILES IDX 80 44 79 45 35 47 67 48 47 49 66 50 48 51 51 52 65 53 84 54
REMARK SMILES IDX 49 55 50 56 64 58 85 59 52 60 36 61 37 62 45 63 38 64 39 65
REMARK SMILES IDX 43 66 46 67 40 68 41 69 44 70 42 71 68 72 69 73 77 74 70 75
REMARK SMILES IDX 71 76 75 77 78 78 72 79 73 80 76 81 74 82 53 83 54 84 62 85
REMARK SMILES IDX 55 86 56 87 60 88 63 89 57 90 58 91 61 92 59 93
REMARK H PARENT 83 46 51 57
REMARK Flexibility Score: inf
ROOT
ATOM      1  C   UNL A   1      33.115  34.494  27.965  1.00  0.00     0.188 C 
ENDROOT
BRANCH   1   2
ATOM      2  C   UNL A   1      34.126  33.348  27.872  1.00  0.00     0.188 C 
BRANCH   2   3
ATOM      3  O   UNL A   1      33.780  31.940  27.845  1.00  0.00    -0.376 OA
BRANCH   3   4
ATOM      4  C   UNL A   1      34.705  30.835  27.945  1.00  0.00     0.202 C 
BRANCH   4   5
ATOM      5  C   UNL A   1      34.521  29.341  27.119  1.00  0.00     0.261 C 
BRANCH   5   6
ATOM      6  O   UNL A   1      33.328  28.133  27.273  1.00  0.00    -0.460 OA
BRANCH   6   7
ATOM      7  C   UNL A   1      32.111  27.791  26.604  1.00  0.00     0.339 C 
ATOM      8  O   UNL A   1      31.043  27.465  27.124  1.00  0.00    -0.246 OA
BRANCH   7   9
ATOM      9  C   UNL A   1      31.761  27.779  25.164  1.00  0.00     0.079 A 
ATOM     10  C   UNL A   1      30.144  28.951  23.592  1.00  0.00    -0.017 A 
ATOM     11  C   UNL A   1      29.942  27.709  22.991  1.00  0.00     0.010 A 
ATOM     12  C   UNL A   1      31.058  28.955  24.667  1.00  0.00     0.026 A 
ATOM     13  C   UNL A   1      30.598  26.548  23.457  1.00  0.00     0.022 A 
ATOM     14  C   UNL A   1      31.485  26.573  24.548  1.00  0.00     0.055 A 
ATOM     15  Cl  UNL A   1      32.055  25.075  25.181  1.00  0.00    -0.083 Cl
BRANCH  10  16
ATOM     16  C   UNL A   1      29.434  30.180  23.113  1.00  0.00    -0.018 A 
ATOM     17  C   UNL A   1      27.949  31.755  19.905  1.00  0.00     0.044 C 
ATOM     18  C   UNL A   1      28.403  31.560  21.327  1.00  0.00    -0.051 A 
ATOM     19  C   UNL A   1      28.338  32.647  22.203  1.00  0.00     0.003 A 
ATOM     20  C   UNL A   1      28.955  30.339  21.786  1.00  0.00     0.012 A 
ATOM     21  C   UNL A   1      28.762  32.504  23.521  1.00  0.00     0.001 A 
ATOM     22  C   UNL A   1      29.290  31.285  23.969  1.00  0.00     0.009 A 
ENDBRANCH  10  16
ENDBRANCH   7   9
ENDBRANCH   6   7
ENDBRANCH   5   6
ENDBRANCH   4   5
ENDBRANCH   3   4
ENDBRANCH   2   3
ENDBRANCH   1   2
BRANCH   1  23
ATOM     23  O   UNL A   1      32.735  34.694  29.311  1.00  0.00    -0.376 OA
BRANCH  23  24
ATOM     24  C   UNL A   1      32.905  36.013  29.805  1.00  0.00     0.202 C 
BRANCH  24  25
ATOM     25  C   UNL A   1      32.624  36.127  31.318  1.00  0.00     0.261 C 
BRANCH  25  26
ATOM     26  O   UNL A   1      33.045  34.926  32.012  1.00  0.00    -0.460 OA
BRANCH  26  27
ATOM     27  C   UNL A   1      34.287  34.921  32.600  1.00  0.00     0.338 C 
ATOM     28  O   UNL A   1      34.865  35.913  33.019  1.00  0.00    -0.246 OA
BRANCH  27  29
ATOM     29  C   UNL A   1      34.942  33.575  32.417  1.00  0.00     0.060 A 
ATOM     30  C   UNL A   1      35.522  32.766  33.410  1.00  0.00     0.016 A 
ATOM     31  C   UNL A   1      35.338  33.303  31.158  1.00  0.00     0.016 A 
ATOM     32  C   UNL A   1      36.620  31.834  33.115  1.00  0.00     0.010 A 
ATOM     33  C   UNL A   1      36.562  32.650  31.043  1.00  0.00     0.010 A 
ATOM     34  C   UNL A   1      37.269  31.787  31.878  1.00  0.00    -0.014 A 
BRANCH  34  35
ATOM     35  C   UNL A   1      38.701  31.135  31.492  1.00  0.00     0.031 A 
ATOM     36  C   UNL A   1      39.209  29.762  30.673  1.00  0.00     0.074 A 
ATOM     37  C   UNL A   1      39.754  31.849  31.957  1.00  0.00     0.049 A 
ATOM     38  N   UNL A   1      40.343  29.130  30.948  1.00  0.00    -0.248 NA
ATOM     39  C   UNL A   1      38.553  28.926  29.598  1.00  0.00     0.031 C 
ATOM     40  C   UNL A   1      41.170  31.706  31.623  1.00  0.00     0.029 A 
ATOM     41  N   UNL A   1      39.752  32.812  32.981  1.00  0.00    -0.354 N 
ATOM     42  C   UNL A   1      40.512  28.103  30.010  1.00  0.00     0.074 A 
ATOM     43  C   UNL A   1      39.244  27.807  29.506  1.00  0.00     0.031 C 
ATOM     44  C   UNL A   1      41.897  32.251  32.608  1.00  0.00     0.029 A 
ATOM     45  C   UNL A   1      40.974  32.652  33.653  1.00  0.00     0.049 A 
ATOM     46  H   UNL A   1      39.041  33.462  33.185  1.00  0.00     0.167 HD
ATOM     47  C   UNL A   1      41.706  27.695  29.507  1.00  0.00     0.037 A 
ATOM     48  C   UNL A   1      41.009  32.295  34.966  1.00  0.00     0.037 A 
ATOM     49  C   UNL A   1      42.746  28.071  30.425  1.00  0.00     0.049 A 
ATOM     50  C   UNL A   1      41.808  31.038  35.213  1.00  0.00     0.074 A 
ATOM     51  C   UNL A   1      43.742  29.023  30.425  1.00  0.00     0.029 A 
ATOM     52  N   UNL A   1      42.619  27.616  31.730  1.00  0.00    -0.354 N 
ATOM     53  N   UNL A   1      42.293  30.285  34.262  1.00  0.00    -0.248 NA
ATOM     54  C   UNL A   1      42.105  30.504  36.538  1.00  0.00     0.031 C 
ATOM     55  C   UNL A   1      44.094  29.254  31.788  1.00  0.00     0.029 A 
ATOM     56  C   UNL A   1      43.370  28.385  32.589  1.00  0.00     0.049 A 
ATOM     57  H   UNL A   1      42.067  26.848  32.004  1.00  0.00     0.167 HD
ATOM     58  C   UNL A   1      42.848  29.158  34.800  1.00  0.00     0.074 A 
ATOM     59  C   UNL A   1      42.758  29.369  36.231  1.00  0.00     0.031 C 
ATOM     60  C   UNL A   1      43.279  28.123  34.021  1.00  0.00     0.037 A 
BRANCH  47  61
ATOM     61  C   UNL A   1      41.899  27.057  28.116  1.00  0.00     0.064 A 
ATOM     62  C   UNL A   1      41.847  25.655  27.967  1.00  0.00     0.173 A 
ATOM     63  C   UNL A   1      42.253  27.735  26.913  1.00  0.00     0.173 A 
ATOM     64  F   UNL A   1      41.579  24.867  29.016  1.00  0.00    -0.203 F 
ATOM     65  C   UNL A   1      42.101  25.008  26.742  1.00  0.00     0.198 A 
ATOM     66  C   UNL A   1      42.427  27.096  25.679  1.00  0.00     0.198 A 
ATOM     67  F   UNL A   1      42.540  29.041  26.869  1.00  0.00    -0.203 F 
ATOM     68  F   UNL A   1      42.107  23.669  26.686  1.00  0.00    -0.200 F 
ATOM     69  C   UNL A   1      42.368  25.728  25.594  1.00  0.00     0.200 A 
ATOM     70  F   UNL A   1      42.700  27.825  24.585  1.00  0.00    -0.200 F 
ATOM     71  F   UNL A   1      42.605  25.112  24.428  1.00  0.00    -0.200 F 
ENDBRANCH  47  61
BRANCH  48  72
ATOM     72  C   UNL A   1      39.842  32.812  35.745  1.00  0.00     0.064 A 
ATOM     73  C   UNL A   1      38.867  31.873  36.159  1.00  0.00     0.173 A 
ATOM     74  C   UNL A   1      39.828  34.057  36.385  1.00  0.00     0.173 A 
ATOM     75  F   UNL A   1      38.831  30.654  35.593  1.00  0.00    -0.203 F 
ATOM     76  C   UNL A   1      38.013  32.117  37.234  1.00  0.00     0.198 A 
ATOM     77  C   UNL A   1      38.942  34.312  37.444  1.00  0.00     0.198 A 
ATOM     78  F   UNL A   1      40.753  34.981  36.092  1.00  0.00    -0.203 F 
ATOM     79  F   UNL A   1      37.210  31.142  37.685  1.00  0.00    -0.200 F 
ATOM     80  C   UNL A   1      38.063  33.332  37.887  1.00  0.00     0.200 A 
ATOM     81  F   UNL A   1      39.036  35.459  38.134  1.00  0.00    -0.200 F 
ATOM     82  F   UNL A   1      37.324  33.534  38.988  1.00  0.00    -0.200 F 
ENDBRANCH  48  72
BRANCH  60  83
ATOM     83  C   UNL A   1      43.618  26.738  34.519  1.00  0.00     0.064 A 
ATOM     84  C   UNL A   1      42.661  25.790  34.915  1.00  0.00     0.173 A 
ATOM     85  C   UNL A   1      44.948  26.262  34.422  1.00  0.00     0.173 A 
ATOM     86  F   UNL A   1      41.353  26.084  34.937  1.00  0.00    -0.203 F 
ATOM     87  C   UNL A   1      43.013  24.478  35.239  1.00  0.00     0.198 A 
ATOM     88  C   UNL A   1      45.284  24.934  34.678  1.00  0.00     0.198 A 
ATOM     89  F   UNL A   1      45.951  27.066  34.036  1.00  0.00    -0.203 F 
ATOM     90  F   UNL A   1      42.068  23.621  35.652  1.00  0.00    -0.200 F 
ATOM     91  C   UNL A   1      44.319  24.045  35.103  1.00  0.00     0.200 A 
ATOM     92  F   UNL A   1      46.543  24.515  34.484  1.00  0.00    -0.200 F 
ATOM     93  F   UNL A   1      44.640  22.771  35.359  1.00  0.00    -0.200 F 
ENDBRANCH  60  83
ENDBRANCH  34  35
ENDBRANCH  27  29
ENDBRANCH  26  27
ENDBRANCH  25  26
ENDBRANCH  24  25
ENDBRANCH  23  24
ENDBRANCH   1  23
TORSDOF 18
ENDMDL
MODEL 2
REMARK VINA RESULT:     -13.1      5.441     11.422
REMARK SMILES Cc1cccc(-c2ccc(Cl)c(C(=O)OCCOCCOCCOC(=O)c3ccc(-c4c5nc(c(-c6c(F)c(F)c(F)c(F)c6F)c6ccc([nH]6)c(-c6c(F)c(F)c(F)c(F)c6F)c6nc(c(-c7c(F)c(F)c(F)c(F)c7F)c7ccc4[nH]7)C=C6)C=C5)cc3)c2)c1
REMARK SMILES IDX 20 1 19 2 18 3 17 4 16 5 15 6 13 7 14 8 12 9 7 10 8 11 90 12
REMARK SMILES IDX 9 13 10 14 11 15 6 16 1 17 2 18 3 19 91 20 4 21 5 22 21 23
REMARK SMILES IDX 22 24 23 25 24 26 25 27 26 28 27 29 28 30 89 31 29 32 88 33
REMARK SMILES IDX 30 34 31 35 32 36 82 37 33 38 87 39 81 40 83 41 34 42 86 43
REMARK SMILES IDX 80 44 79 45 35 47 67 48 47 49 66 50 48 51 51 52 65 53 84 54
REMARK SMILES IDX 49 55 50 56 64 58 85 59 52 60 36 61 37 62 45 63 38 64 39 65
REMARK SMILES IDX 43 66 46 67 40 68 41 69 44 70 42 71 68 72 69 73 77 74 70 75
REMARK SMILES IDX 71 76 75 77 78 78 72 79 73 80 76 81 74 82 53 83 54 84 62 85
REMARK SMILES IDX 55 86 56 87 60 88 63 89 57 90 58 91 61 92 59 93
REMARK H PARENT 83 46 51 57
REMARK Flexibility Score: inf
ROOT
ATOM      1  C   UNL A   1      41.170  19.940  26.581  1.00  0.00     0.188 C 
ENDROOT
BRANCH   1   2
ATOM      2  C   UNL A   1      39.860  20.547  26.071  1.00  0.00     0.188 C 
BRANCH   2   3
ATOM      3  O   UNL A   1      39.391  21.883  26.384  1.00  0.00    -0.376 OA
BRANCH   3   4
ATOM      4  C   UNL A   1      38.233  22.532  25.814  1.00  0.00     0.202 C 
BRANCH   4   5
ATOM      5  C   UNL A   1      36.666  21.834  25.751  1.00  0.00     0.261 C 
BRANCH   5   6
ATOM      6  O   UNL A   1      35.340  22.184  24.738  1.00  0.00    -0.460 OA
BRANCH   6   7
ATOM      7  C   UNL A   1      35.075  23.078  23.655  1.00  0.00     0.339 C 
ATOM      8  O   UNL A   1      35.727  23.204  22.616  1.00  0.00    -0.246 OA
BRANCH   7   9
ATOM      9  C   UNL A   1      33.967  24.037  23.431  1.00  0.00     0.079 A 
ATOM     10  C   UNL A   1      32.866  25.985  24.639  1.00  0.00    -0.017 A 
ATOM     11  C   UNL A   1      31.645  25.465  24.211  1.00  0.00     0.010 A 
ATOM     12  C   UNL A   1      34.003  25.254  24.231  1.00  0.00     0.026 A 
ATOM     13  C   UNL A   1      31.574  24.280  23.445  1.00  0.00     0.022 A 
ATOM     14  C   UNL A   1      32.721  23.556  23.074  1.00  0.00     0.055 A 
ATOM     15  Cl  UNL A   1      32.518  22.010  22.341  1.00  0.00    -0.083 Cl
BRANCH  10  16
ATOM     16  C   UNL A   1      32.943  27.230  25.467  1.00  0.00    -0.018 A 
ATOM     17  C   UNL A   1      35.446  29.331  27.540  1.00  0.00     0.044 C 
ATOM     18  C   UNL A   1      34.175  28.835  26.903  1.00  0.00    -0.051 A 
ATOM     19  C   UNL A   1      32.970  29.449  27.253  1.00  0.00     0.003 A 
ATOM     20  C   UNL A   1      34.152  27.728  26.019  1.00  0.00     0.012 A 
ATOM     21  C   UNL A   1      31.775  29.006  26.693  1.00  0.00     0.001 A 
ATOM     22  C   UNL A   1      31.767  27.922  25.804  1.00  0.00     0.009 A 
ENDBRANCH  10  16
ENDBRANCH   7   9
ENDBRANCH   6   7
ENDBRANCH   5   6
ENDBRANCH   4   5
ENDBRANCH   3   4
ENDBRANCH   2   3
ENDBRANCH   1   2
BRANCH   1  23
ATOM     23  O   UNL A   1      41.907  19.404  25.501  1.00  0.00    -0.376 OA
BRANCH  23  24
ATOM     24  C   UNL A   1      43.117  18.750  25.851  1.00  0.00     0.202 C 
BRANCH  24  25
ATOM     25  C   UNL A   1      44.220  18.923  24.787  1.00  0.00     0.261 C 
BRANCH  25  26
ATOM     26  O   UNL A   1      44.223  20.275  24.262  1.00  0.00    -0.460 OA
BRANCH  26  27
ATOM     27  C   UNL A   1      45.069  21.191  24.841  1.00  0.00     0.338 C 
ATOM     28  O   UNL A   1      46.121  20.914  25.398  1.00  0.00    -0.246 OA
BRANCH  27  29
ATOM     29  C   UNL A   1      44.396  22.537  24.925  1.00  0.00     0.060 A 
ATOM     30  C   UNL A   1      44.942  23.787  24.582  1.00  0.00     0.016 A 
ATOM     31  C   UNL A   1      43.328  22.588  25.745  1.00  0.00     0.016 A 
ATOM     32  C   UNL A   1      44.504  25.033  25.227  1.00  0.00     0.010 A 
ATOM     33  C   UNL A   1      43.213  23.747  26.508  1.00  0.00     0.010 A 
ATOM     34  C   UNL A   1      43.635  25.062  26.321  1.00  0.00    -0.014 A 
BRANCH  34  35
ATOM     35  C   UNL A   1      43.353  26.255  27.380  1.00  0.00     0.031 A 
ATOM     36  C   UNL A   1      42.057  27.259  27.735  1.00  0.00     0.074 A 
ATOM     37  C   UNL A   1      44.423  26.538  28.162  1.00  0.00     0.049 A 
ATOM     38  N   UNL A   1      42.199  28.491  28.207  1.00  0.00    -0.248 NA
ATOM     39  C   UNL A   1      40.566  27.088  27.549  1.00  0.00     0.031 C 
ATOM     40  C   UNL A   1      44.480  27.375  29.359  1.00  0.00     0.029 A 
ATOM     41  N   UNL A   1      45.768  26.206  27.927  1.00  0.00    -0.354 N 
ATOM     42  C   UNL A   1      40.927  29.001  28.496  1.00  0.00     0.074 A 
ATOM     43  C   UNL A   1      40.019  28.276  27.724  1.00  0.00     0.031 C 
ATOM     44  C   UNL A   1      45.749  27.766  29.545  1.00  0.00     0.029 A 
ATOM     45  C   UNL A   1      46.516  27.290  28.410  1.00  0.00     0.049 A 
ATOM     46  H   UNL A   1      46.113  25.383  27.510  1.00  0.00     0.167 HD
ATOM     47  C   UNL A   1      40.637  29.835  29.529  1.00  0.00     0.037 A 
ATOM     48  C   UNL A   1      47.297  28.028  27.574  1.00  0.00     0.037 A 
ATOM     49  C   UNL A   1      41.841  30.513  29.926  1.00  0.00     0.049 A 
ATOM     50  C   UNL A   1      46.952  29.498  27.590  1.00  0.00     0.074 A 
ATOM     51  C   UNL A   1      42.689  30.428  31.009  1.00  0.00     0.029 A 
ATOM     52  N   UNL A   1      42.512  31.221  28.940  1.00  0.00    -0.354 N 
ATOM     53  N   UNL A   1      45.922  29.996  28.220  1.00  0.00    -0.248 NA
ATOM     54  C   UNL A   1      47.709  30.525  26.882  1.00  0.00     0.031 C 
ATOM     55  C   UNL A   1      43.948  30.951  30.591  1.00  0.00     0.029 A 
ATOM     56  C   UNL A   1      43.827  31.421  29.293  1.00  0.00     0.049 A 
ATOM     57  H   UNL A   1      42.103  31.537  28.101  1.00  0.00     0.167 HD
ATOM     58  C   UNL A   1      45.804  31.328  27.936  1.00  0.00     0.074 A 
ATOM     59  C   UNL A   1      46.979  31.624  27.142  1.00  0.00     0.031 C 
ATOM     60  C   UNL A   1      44.719  32.057  28.331  1.00  0.00     0.037 A 
BRANCH  47  61
ATOM     61  C   UNL A   1      39.264  29.921  30.227  1.00  0.00     0.064 A 
ATOM     62  C   UNL A   1      38.307  30.861  29.791  1.00  0.00     0.173 A 
ATOM     63  C   UNL A   1      38.859  29.207  31.392  1.00  0.00     0.173 A 
ATOM     64  F   UNL A   1      38.555  31.652  28.739  1.00  0.00    -0.203 F 
ATOM     65  C   UNL A   1      37.072  31.049  30.442  1.00  0.00     0.198 A 
ATOM     66  C   UNL A   1      37.598  29.338  31.989  1.00  0.00     0.198 A 
ATOM     67  F   UNL A   1      39.680  28.406  32.080  1.00  0.00    -0.203 F 
ATOM     68  F   UNL A   1      36.237  32.010  30.021  1.00  0.00    -0.200 F 
ATOM     69  C   UNL A   1      36.708  30.273  31.525  1.00  0.00     0.200 A 
ATOM     70  F   UNL A   1      37.282  28.578  33.049  1.00  0.00    -0.200 F 
ATOM     71  F   UNL A   1      35.529  30.448  32.139  1.00  0.00    -0.200 F 
ENDBRANCH  47  61
BRANCH  48  72
ATOM     72  C   UNL A   1      47.868  27.229  26.446  1.00  0.00     0.064 A 
ATOM     73  C   UNL A   1      47.311  27.427  25.160  1.00  0.00     0.173 A 
ATOM     74  C   UNL A   1      49.111  26.587  26.501  1.00  0.00     0.173 A 
ATOM     75  F   UNL A   1      46.124  28.046  25.034  1.00  0.00    -0.203 F 
ATOM     76  C   UNL A   1      48.011  27.120  23.994  1.00  0.00     0.198 A 
ATOM     77  C   UNL A   1      49.798  26.246  25.325  1.00  0.00     0.198 A 
ATOM     78  F   UNL A   1      49.733  26.413  27.676  1.00  0.00    -0.203 F 
ATOM     79  F   UNL A   1      47.506  27.463  22.800  1.00  0.00    -0.200 F 
ATOM     80  C   UNL A   1      49.263  26.544  24.079  1.00  0.00     0.200 A 
ATOM     81  F   UNL A   1      51.046  25.759  25.396  1.00  0.00    -0.200 F 
ATOM     82  F   UNL A   1      49.987  26.347  22.967  1.00  0.00    -0.200 F 
ENDBRANCH  48  72
BRANCH  60  83
ATOM     83  C   UNL A   1      44.357  33.429  27.815  1.00  0.00     0.064 A 
ATOM     84  C   UNL A   1      43.882  33.682  26.519  1.00  0.00     0.173 A 
ATOM     85  C   UNL A   1      44.300  34.525  28.712  1.00  0.00     0.173 A 
ATOM     86  F   UNL A   1      43.776  32.703  25.610  1.00  0.00    -0.203 F 
ATOM     87  C   UNL A   1      43.432  34.947  26.131  1.00  0.00     0.198 A 
ATOM     88  C   UNL A   1      43.785  35.765  28.341  1.00  0.00     0.198 A 
ATOM     89  F   UNL A   1      44.708  34.405  29.985  1.00  0.00    -0.203 F 
ATOM     90  F   UNL A   1      43.027  35.148  24.869  1.00  0.00    -0.200 F 
ATOM     91  C   UNL A   1      43.366  35.981  27.045  1.00  0.00     0.200 A 
ATOM     92  F   UNL A   1      43.672  36.740  29.255  1.00  0.00    -0.200 F 
ATOM     93  F   UNL A   1      42.878  37.175  26.684  1.00  0.00    -0.200 F 
ENDBRANCH  60  83
ENDBRANCH  34  35
ENDBRANCH  27  29
ENDBRANCH  26  27
ENDBRANCH  25  26
ENDBRANCH  24  25
ENDBRANCH  23  24
ENDBRANCH   1  23
TORSDOF 18
ENDMDL
MODEL 3
REMARK VINA RESULT:     -12.9      5.780     12.029
REMARK SMILES Cc1cccc(-c2ccc(Cl)c(C(=O)OCCOCCOCCOC(=O)c3ccc(-c4c5nc(c(-c6c(F)c(F)c(F)c(F)c6F)c6ccc([nH]6)c(-c6c(F)c(F)c(F)c(F)c6F)c6nc(c(-c7c(F)c(F)c(F)c(F)c7F)c7ccc4[nH]7)C=C6)C=C5)cc3)c2)c1
REMARK SMILES IDX 20 1 19 2 18 3 17 4 16 5 15 6 13 7 14 8 12 9 7 10 8 11 90 12
REMARK SMILES IDX 9 13 10 14 11 15 6 16 1 17 2 18 3 19 91 20 4 21 5 22 21 23
REMARK SMILES IDX 22 24 23 25 24 26 25 27 26 28 27 29 28 30 89 31 29 32 88 33
REMARK SMILES IDX 30 34 31 35 32 36 82 37 33 38 87 39 81 40 83 41 34 42 86 43
REMARK SMILES IDX 80 44 79 45 35 47 67 48 47 49 66 50 48 51 51 52 65 53 84 54
REMARK SMILES IDX 49 55 50 56 64 58 85 59 52 60 36 61 37 62 45 63 38 64 39 65
REMARK SMILES IDX 43 66 46 67 40 68 41 69 44 70 42 71 68 72 69 73 77 74 70 75
REMARK SMILES IDX 71 76 75 77 78 78 72 79 73 80 76 81 74 82 53 83 54 84 62 85
REMARK SMILES IDX 55 86 56 87 60 88 63 89 57 90 58 91 61 92 59 93
REMARK H PARENT 83 46 51 57
REMARK Flexibility Score: inf
ROOT
ATOM      1  C   UNL A   1      41.236  19.872  26.511  1.00  0.00     0.188 C 
ENDROOT
BRANCH   1   2
ATOM      2  C   UNL A   1      39.787  20.144  26.097  1.00  0.00     0.188 C 
BRANCH   2   3
ATOM      3  O   UNL A   1      39.179  21.459  26.031  1.00  0.00    -0.376 OA
BRANCH   3   4
ATOM      4  C   UNL A   1      37.846  21.755  25.560  1.00  0.00     0.202 C 
BRANCH   4   5
ATOM      5  C   UNL A   1      37.333  23.301  25.019  1.00  0.00     0.261 C 
BRANCH   5   6
ATOM      6  O   UNL A   1      35.861  24.125  25.265  1.00  0.00    -0.460 OA
BRANCH   6   7
ATOM      7  C   UNL A   1      34.559  23.793  25.752  1.00  0.00     0.339 C 
ATOM      8  O   UNL A   1      34.071  24.097  26.842  1.00  0.00    -0.246 OA
BRANCH   7   9
ATOM      9  C   UNL A   1      33.435  23.069  25.112  1.00  0.00     0.079 A 
ATOM     10  C   UNL A   1      33.016  20.834  23.975  1.00  0.00    -0.017 A 
ATOM     11  C   UNL A   1      32.247  21.534  23.045  1.00  0.00     0.010 A 
ATOM     12  C   UNL A   1      33.590  21.624  24.994  1.00  0.00     0.026 A 
ATOM     13  C   UNL A   1      32.088  22.935  23.125  1.00  0.00     0.022 A 
ATOM     14  C   UNL A   1      32.692  23.704  24.136  1.00  0.00     0.055 A 
ATOM     15  Cl  UNL A   1      32.625  25.422  24.015  1.00  0.00    -0.083 Cl
BRANCH  10  16
ATOM     16  C   UNL A   1      33.203  19.351  23.881  1.00  0.00    -0.018 A 
ATOM     17  C   UNL A   1      35.358  16.480  25.329  1.00  0.00     0.044 C 
ATOM     18  C   UNL A   1      34.356  17.244  24.503  1.00  0.00    -0.051 A 
ATOM     19  C   UNL A   1      33.703  16.578  23.463  1.00  0.00     0.003 A 
ATOM     20  C   UNL A   1      34.106  18.624  24.700  1.00  0.00     0.012 A 
ATOM     21  C   UNL A   1      32.781  17.258  22.673  1.00  0.00     0.001 A 
ATOM     22  C   UNL A   1      32.528  18.620  22.889  1.00  0.00     0.009 A 
ENDBRANCH  10  16
ENDBRANCH   7   9
ENDBRANCH   6   7
ENDBRANCH   5   6
ENDBRANCH   4   5
ENDBRANCH   3   4
ENDBRANCH   2   3
ENDBRANCH   1   2
BRANCH   1  23
ATOM     23  O   UNL A   1      41.953  19.318  25.427  1.00  0.00    -0.376 OA
BRANCH  23  24
ATOM     24  C   UNL A   1      43.225  18.777  25.747  1.00  0.00     0.202 C 
BRANCH  24  25
ATOM     25  C   UNL A   1      44.268  18.997  24.632  1.00  0.00     0.261 C 
BRANCH  25  26
ATOM     26  O   UNL A   1      44.262  20.377  24.185  1.00  0.00    -0.460 OA
BRANCH  26  27
ATOM     27  C   UNL A   1      45.107  21.262  24.812  1.00  0.00     0.338 C 
ATOM     28  O   UNL A   1      46.139  20.952  25.389  1.00  0.00    -0.246 OA
BRANCH  27  29
ATOM     29  C   UNL A   1      44.454  22.617  24.915  1.00  0.00     0.060 A 
ATOM     30  C   UNL A   1      45.017  23.863  24.587  1.00  0.00     0.016 A 
ATOM     31  C   UNL A   1      43.388  22.673  25.738  1.00  0.00     0.016 A 
ATOM     32  C   UNL A   1      44.599  25.107  25.249  1.00  0.00     0.010 A 
ATOM     33  C   UNL A   1      43.292  23.823  26.517  1.00  0.00     0.010 A 
ATOM     34  C   UNL A   1      43.733  25.134  26.346  1.00  0.00    -0.014 A 
BRANCH  34  35
ATOM     35  C   UNL A   1      43.471  26.317  27.421  1.00  0.00     0.031 A 
ATOM     36  C   UNL A   1      42.181  27.316  27.811  1.00  0.00     0.074 A 
ATOM     37  C   UNL A   1      44.556  26.595  28.184  1.00  0.00     0.049 A 
ATOM     38  N   UNL A   1      42.331  28.544  28.290  1.00  0.00    -0.248 NA
ATOM     39  C   UNL A   1      40.687  27.145  27.653  1.00  0.00     0.031 C 
ATOM     40  C   UNL A   1      44.636  27.420  29.387  1.00  0.00     0.029 A 
ATOM     41  N   UNL A   1      45.897  26.266  27.919  1.00  0.00    -0.354 N 
ATOM     42  C   UNL A   1      41.065  29.049  28.609  1.00  0.00     0.074 A 
ATOM     43  C   UNL A   1      40.142  28.330  27.849  1.00  0.00     0.031 C 
ATOM     44  C   UNL A   1      45.908  27.812  29.551  1.00  0.00     0.029 A 
ATOM     45  C   UNL A   1      46.653  27.347  28.396  1.00  0.00     0.049 A 
ATOM     46  H   UNL A   1      46.234  25.447  27.487  1.00  0.00     0.167 HD
ATOM     47  C   UNL A   1      40.794  29.874  29.655  1.00  0.00     0.037 A 
ATOM     48  C   UNL A   1      47.416  28.094  27.552  1.00  0.00     0.037 A 
ATOM     49  C   UNL A   1      42.005  30.549  30.035  1.00  0.00     0.049 A 
ATOM     50  C   UNL A   1      47.069  29.563  27.588  1.00  0.00     0.074 A 
ATOM     51  C   UNL A   1      42.874  30.456  31.099  1.00  0.00     0.029 A 
ATOM     52  N   UNL A   1      42.655  31.267  29.041  1.00  0.00    -0.354 N 
ATOM     53  N   UNL A   1      46.051  30.054  28.243  1.00  0.00    -0.248 NA
ATOM     54  C   UNL A   1      47.811  30.597  26.874  1.00  0.00     0.031 C 
ATOM     55  C   UNL A   1      44.125  30.985  30.661  1.00  0.00     0.029 A 
ATOM     56  C   UNL A   1      43.977  31.466  29.370  1.00  0.00     0.049 A 
ATOM     57  H   UNL A   1      42.229  31.590  28.214  1.00  0.00     0.167 HD
ATOM     58  C   UNL A   1      45.926  31.388  27.974  1.00  0.00     0.074 A 
ATOM     59  C   UNL A   1      47.085  31.693  27.159  1.00  0.00     0.031 C 
ATOM     60  C   UNL A   1      44.848  32.112  28.396  1.00  0.00     0.037 A 
BRANCH  47  61
ATOM     61  C   UNL A   1      39.436  29.952  30.381  1.00  0.00     0.064 A 
ATOM     62  C   UNL A   1      38.532  30.993  30.082  1.00  0.00     0.173 A 
ATOM     63  C   UNL A   1      38.999  29.123  31.456  1.00  0.00     0.173 A 
ATOM     64  F   UNL A   1      38.816  31.892  29.131  1.00  0.00    -0.203 F 
ATOM     65  C   UNL A   1      37.316  31.169  30.771  1.00  0.00     0.198 A 
ATOM     66  C   UNL A   1      37.754  29.252  32.085  1.00  0.00     0.198 A 
ATOM     67  F   UNL A   1      39.778  28.196  32.026  1.00  0.00    -0.203 F 
ATOM     68  F   UNL A   1      36.536  32.221  30.485  1.00  0.00    -0.200 F 
ATOM     69  C   UNL A   1      36.916  30.287  31.755  1.00  0.00     0.200 A 
ATOM     70  F   UNL A   1      37.403  28.385  33.049  1.00  0.00    -0.200 F 
ATOM     71  F   UNL A   1      35.756  30.452  32.406  1.00  0.00    -0.200 F 
ENDBRANCH  47  61
BRANCH  48  72
ATOM     72  C   UNL A   1      47.965  27.305  26.406  1.00  0.00     0.064 A 
ATOM     73  C   UNL A   1      47.377  27.509  25.134  1.00  0.00     0.173 A 
ATOM     74  C   UNL A   1      49.212  26.671  26.428  1.00  0.00     0.173 A 
ATOM     75  F   UNL A   1      46.184  28.121  25.040  1.00  0.00    -0.203 F 
ATOM     76  C   UNL A   1      48.051  27.214  23.950  1.00  0.00     0.198 A 
ATOM     77  C   UNL A   1      49.874  26.342  25.233  1.00  0.00     0.198 A 
ATOM     78  F   UNL A   1      49.863  26.493  27.586  1.00  0.00    -0.203 F 
ATOM     79  F   UNL A   1      47.517  27.562  22.771  1.00  0.00    -0.200 F 
ATOM     80  C   UNL A   1      49.308  26.645  24.002  1.00  0.00     0.200 A 
ATOM     81  F   UNL A   1      51.127  25.862  25.272  1.00  0.00    -0.200 F 
ATOM     82  F   UNL A   1      50.008  26.459  22.872  1.00  0.00    -0.200 F 
ENDBRANCH  48  72
BRANCH  60  83
ATOM     83  C   UNL A   1      44.475  33.488  27.901  1.00  0.00     0.064 A 
ATOM     84  C   UNL A   1      43.939  33.747  26.629  1.00  0.00     0.173 A 
ATOM     85  C   UNL A   1      44.473  34.583  28.800  1.00  0.00     0.173 A 
ATOM     86  F   UNL A   1      43.779  32.771  25.726  1.00  0.00    -0.203 F 
ATOM     87  C   UNL A   1      43.482  35.017  26.266  1.00  0.00     0.198 A 
ATOM     88  C   UNL A   1      43.952  35.829  28.456  1.00  0.00     0.198 A 
ATOM     89  F   UNL A   1      44.942  34.458  30.051  1.00  0.00    -0.203 F 
ATOM     90  F   UNL A   1      43.017  35.223  25.026  1.00  0.00    -0.200 F 
ATOM     91  C   UNL A   1      43.471  36.051  27.183  1.00  0.00     0.200 A 
ATOM     92  F   UNL A   1      43.893  36.803  29.376  1.00  0.00    -0.200 F 
ATOM     93  F   UNL A   1      42.978  37.249  26.847  1.00  0.00    -0.200 F 
ENDBRANCH  60  83
ENDBRANCH  34  35
ENDBRANCH  27  29
ENDBRANCH  26  27
ENDBRANCH  25  26
ENDBRANCH  24  25
ENDBRANCH  23  24
ENDBRANCH   1  23
TORSDOF 18
ENDMDL
