MODEL 1
REMARK VINA RESULT:     -12.3      0.000      0.000
REMARK SMILES O=C(OCCOCCOCCOC(=O)[C@@H]1C=C[C@H](NC(=O)[C@@H]2Cc3ccccc3O2)C1)c1ccc(-c2c3nc(c(-c4c(F)c(F)c(F)c(F)c4F)c4ccc([nH]4)c(-c4c(F)c(F)c(F)c(F)c4F)c4nc(c(-c5c(F)c(F)c(F)c(F)c5F)c5ccc2[nH]5)C=C4)C=C3)cc1
REMARK SMILES IDX 7 1 6 2 5 3 4 4 3 5 2 6 1 7 32 8 33 9 94 10 34 11 93 12
REMARK SMILES IDX 35 13 36 14 37 15 87 16 38 17 92 18 86 19 88 20 39 21 91 22
REMARK SMILES IDX 85 23 84 24 40 26 72 27 52 28 71 29 53 30 56 31 70 32 89 33
REMARK SMILES IDX 54 34 55 35 69 37 90 38 57 39 41 40 42 41 50 42 43 43 44 44
REMARK SMILES IDX 48 45 51 46 45 47 46 48 49 49 47 50 73 51 74 52 82 53 75 54
REMARK SMILES IDX 76 55 80 56 83 57 77 58 78 59 81 60 79 61 58 62 59 63 67 64
REMARK SMILES IDX 60 65 61 66 65 67 68 68 62 69 63 70 66 71 64 72 8 73 9 74
REMARK SMILES IDX 10 75 11 76 12 77 13 78 14 79 15 80 16 81 31 82 17 83 18 84
REMARK SMILES IDX 19 85 20 86 21 88 22 89 23 90 30 91 24 92 29 93 25 94 28 95
REMARK SMILES IDX 26 96 27 97
REMARK H PARENT 88 25 56 36 19 87
REMARK Flexibility Score: inf
ROOT
ATOM      1  C   UNL A   1      33.694  36.900  31.943  1.00  0.00     0.188 C 
ENDROOT
BRANCH   1   2
ATOM      2  O   UNL A   1      34.064  35.863  32.834  1.00  0.00    -0.376 OA
BRANCH   2   3
ATOM      3  C   UNL A   1      34.015  34.500  32.456  1.00  0.00     0.202 C 
BRANCH   3   4
ATOM      4  C   UNL A   1      34.686  33.444  33.334  1.00  0.00     0.261 C 
BRANCH   4   5
ATOM      5  O   UNL A   1      36.111  33.545  33.438  1.00  0.00    -0.460 OA
BRANCH   5   6
ATOM      6  C   UNL A   1      36.927  32.654  34.039  1.00  0.00     0.338 C 
ATOM      7  O   UNL A   1      36.895  32.481  35.253  1.00  0.00    -0.246 OA
BRANCH   6   8
ATOM      8  C   UNL A   1      37.886  31.855  33.274  1.00  0.00     0.060 A 
ATOM      9  C   UNL A   1      39.032  30.629  33.968  1.00  0.00     0.016 A 
ATOM     10  C   UNL A   1      37.760  32.081  31.488  1.00  0.00     0.016 A 
ATOM     11  C   UNL A   1      40.097  29.630  32.845  1.00  0.00     0.010 A 
ATOM     12  C   UNL A   1      38.827  31.112  30.381  1.00  0.00     0.010 A 
ATOM     13  C   UNL A   1      40.046  29.931  31.032  1.00  0.00    -0.014 A 
BRANCH  13  14
ATOM     14  C   UNL A   1      41.179  29.515  30.140  1.00  0.00     0.031 A 
ATOM     15  C   UNL A   1      41.245  28.099  29.567  1.00  0.00     0.074 A 
ATOM     16  C   UNL A   1      42.050  30.445  29.697  1.00  0.00     0.049 A 
ATOM     17  N   UNL A   1      42.074  27.640  28.659  1.00  0.00    -0.248 NA
ATOM     18  C   UNL A   1      40.204  27.107  29.911  1.00  0.00     0.031 C 
ATOM     19  C   UNL A   1      41.903  31.872  29.878  1.00  0.00     0.029 A 
ATOM     20  N   UNL A   1      43.215  30.383  28.978  1.00  0.00    -0.354 N 
ATOM     21  C   UNL A   1      41.617  26.373  28.308  1.00  0.00     0.074 A 
ATOM     22  C   UNL A   1      40.451  26.096  29.093  1.00  0.00     0.031 C 
ATOM     23  C   UNL A   1      42.934  32.560  29.420  1.00  0.00     0.029 A 
ATOM     24  C   UNL A   1      43.840  31.610  28.859  1.00  0.00     0.049 A 
ATOM     25  H   UNL A   1      43.570  29.553  28.587  1.00  0.00     0.167 HD
ATOM     26  C   UNL A   1      42.127  25.522  27.392  1.00  0.00     0.037 A 
ATOM     27  C   UNL A   1      45.000  32.005  28.325  1.00  0.00     0.037 A 
ATOM     28  C   UNL A   1      43.341  25.809  26.682  1.00  0.00     0.049 A 
ATOM     29  C   UNL A   1      45.661  30.977  27.503  1.00  0.00     0.074 A 
ATOM     30  C   UNL A   1      44.073  24.973  25.864  1.00  0.00     0.029 A 
ATOM     31  N   UNL A   1      44.021  27.021  26.748  1.00  0.00    -0.354 N 
ATOM     32  N   UNL A   1      45.217  29.776  27.228  1.00  0.00    -0.248 NA
ATOM     33  C   UNL A   1      46.923  31.342  26.877  1.00  0.00     0.031 C 
ATOM     34  C   UNL A   1      45.258  25.635  25.539  1.00  0.00     0.029 A 
ATOM     35  C   UNL A   1      45.218  26.920  26.061  1.00  0.00     0.049 A 
ATOM     36  H   UNL A   1      43.701  27.827  27.214  1.00  0.00     0.167 HD
ATOM     37  C   UNL A   1      46.155  29.219  26.401  1.00  0.00     0.074 A 
ATOM     38  C   UNL A   1      47.154  30.252  26.161  1.00  0.00     0.031 C 
ATOM     39  C   UNL A   1      46.202  27.959  25.913  1.00  0.00     0.037 A 
BRANCH  26  40
ATOM     40  C   UNL A   1      41.488  24.170  27.237  1.00  0.00     0.064 A 
ATOM     41  C   UNL A   1      40.305  23.957  26.514  1.00  0.00     0.173 A 
ATOM     42  C   UNL A   1      42.112  23.050  27.808  1.00  0.00     0.173 A 
ATOM     43  F   UNL A   1      39.643  24.993  25.978  1.00  0.00    -0.203 F 
ATOM     44  C   UNL A   1      39.781  22.671  26.356  1.00  0.00     0.198 A 
ATOM     45  C   UNL A   1      41.600  21.767  27.632  1.00  0.00     0.198 A 
ATOM     46  F   UNL A   1      43.232  23.200  28.530  1.00  0.00    -0.203 F 
ATOM     47  F   UNL A   1      38.641  22.488  25.676  1.00  0.00    -0.200 F 
ATOM     48  C   UNL A   1      40.436  21.577  26.904  1.00  0.00     0.200 A 
ATOM     49  F   UNL A   1      42.238  20.715  28.162  1.00  0.00    -0.200 F 
ATOM     50  F   UNL A   1      39.944  20.341  26.736  1.00  0.00    -0.200 F 
ENDBRANCH  26  40
BRANCH  27  51
ATOM     51  C   UNL A   1      45.477  33.401  28.530  1.00  0.00     0.064 A 
ATOM     52  C   UNL A   1      45.290  34.402  27.572  1.00  0.00     0.173 A 
ATOM     53  C   UNL A   1      46.042  33.789  29.764  1.00  0.00     0.173 A 
ATOM     54  F   UNL A   1      44.707  34.108  26.401  1.00  0.00    -0.203 F 
ATOM     55  C   UNL A   1      45.690  35.717  27.815  1.00  0.00     0.198 A 
ATOM     56  C   UNL A   1      46.399  35.110  30.022  1.00  0.00     0.198 A 
ATOM     57  F   UNL A   1      46.191  32.889  30.750  1.00  0.00    -0.203 F 
ATOM     58  F   UNL A   1      45.535  36.646  26.862  1.00  0.00    -0.200 F 
ATOM     59  C   UNL A   1      46.242  36.070  29.039  1.00  0.00     0.200 A 
ATOM     60  F   UNL A   1      46.877  35.452  31.227  1.00  0.00    -0.200 F 
ATOM     61  F   UNL A   1      46.614  37.336  29.271  1.00  0.00    -0.200 F 
ENDBRANCH  27  51
BRANCH  39  62
ATOM     62  C   UNL A   1      47.430  27.651  25.134  1.00  0.00     0.064 A 
ATOM     63  C   UNL A   1      47.458  27.829  23.743  1.00  0.00     0.173 A 
ATOM     64  C   UNL A   1      48.561  27.138  25.776  1.00  0.00     0.173 A 
ATOM     65  F   UNL A   1      46.378  28.293  23.096  1.00  0.00    -0.203 F 
ATOM     66  C   UNL A   1      48.568  27.442  23.010  1.00  0.00     0.198 A 
ATOM     67  C   UNL A   1      49.688  26.803  25.044  1.00  0.00     0.198 A 
ATOM     68  F   UNL A   1      48.563  26.957  27.105  1.00  0.00    -0.203 F 
ATOM     69  F   UNL A   1      48.542  27.521  21.674  1.00  0.00    -0.200 F 
ATOM     70  C   UNL A   1      49.684  26.937  23.662  1.00  0.00     0.200 A 
ATOM     71  F   UNL A   1      50.772  26.331  25.673  1.00  0.00    -0.200 F 
ATOM     72  F   UNL A   1      50.755  26.558  22.952  1.00  0.00    -0.200 F 
ENDBRANCH  39  62
ENDBRANCH  13  14
ENDBRANCH   6   8
ENDBRANCH   5   6
ENDBRANCH   4   5
ENDBRANCH   3   4
ENDBRANCH   2   3
ENDBRANCH   1   2
BRANCH   1  73
ATOM     73  C   UNL A   1      32.536  36.454  31.039  1.00  0.00     0.188 C 
BRANCH  73  74
ATOM     74  O   UNL A   1      32.732  36.561  29.635  1.00  0.00    -0.376 OA
BRANCH  74  75
ATOM     75  C   UNL A   1      33.000  35.353  28.931  1.00  0.00     0.202 C 
BRANCH  75  76
ATOM     76  C   UNL A   1      34.455  35.057  28.490  1.00  0.00     0.261 C 
BRANCH  76  77
ATOM     77  O   UNL A   1      34.663  33.895  27.644  1.00  0.00    -0.463 OA
BRANCH  77  78
ATOM     78  C   UNL A   1      35.550  32.973  28.097  1.00  0.00     0.312 C 
ATOM     79  O   UNL A   1      36.725  33.230  28.351  1.00  0.00    -0.252 OA
BRANCH  78  80
ATOM     80  C   UNL A   1      35.000  31.544  28.288  1.00  0.00     0.124 C 
ATOM     81  C   UNL A   1      35.933  30.380  28.152  1.00  0.00    -0.014 C 
ATOM     82  C   UNL A   1      33.722  31.061  27.562  1.00  0.00     0.048 C 
ATOM     83  C   UNL A   1      35.354  29.352  27.507  1.00  0.00    -0.006 C 
ATOM     84  C   UNL A   1      34.057  29.716  26.871  1.00  0.00     0.106 C 
BRANCH  84  85
ATOM     85  N   UNL A   1      33.808  29.475  25.198  1.00  0.00    -0.347 N 
ATOM     86  C   UNL A   1      33.320  28.228  23.745  1.00  0.00     0.261 C 
ATOM     87  H   UNL A   1      33.988  30.342  24.767  1.00  0.00     0.164 HD
ATOM     88  O   UNL A   1      33.340  28.403  22.484  1.00  0.00    -0.271 OA
BRANCH  86  89
ATOM     89  C   UNL A   1      32.768  26.442  23.886  1.00  0.00     0.266 C 
ATOM     90  C   UNL A   1      33.007  25.899  25.332  1.00  0.00     0.095 C 
ATOM     91  O   UNL A   1      32.872  25.261  23.045  1.00  0.00    -0.480 OA
ATOM     92  C   UNL A   1      33.875  24.728  25.045  1.00  0.00    -0.002 A 
ATOM     93  C   UNL A   1      33.730  24.407  23.712  1.00  0.00     0.123 A 
ATOM     94  C   UNL A   1      34.727  23.996  25.859  1.00  0.00     0.008 A 
ATOM     95  C   UNL A   1      34.457  23.387  23.119  1.00  0.00     0.047 A 
ATOM     96  C   UNL A   1      35.486  22.969  25.281  1.00  0.00     0.001 A 
ATOM     97  C   UNL A   1      35.360  22.672  23.915  1.00  0.00     0.004 A 
ENDBRANCH  86  89
ENDBRANCH  84  85
ENDBRANCH  78  80
ENDBRANCH  77  78
ENDBRANCH  76  77
ENDBRANCH  75  76
ENDBRANCH  74  75
ENDBRANCH  73  74
ENDBRANCH   1  73
TORSDOF 19
ENDMDL
MODEL 2
REMARK VINA RESULT:     -12.3      4.762      8.885
REMARK SMILES O=C(OCCOCCOCCOC(=O)[C@@H]1C=C[C@H](NC(=O)[C@@H]2Cc3ccccc3O2)C1)c1ccc(-c2c3nc(c(-c4c(F)c(F)c(F)c(F)c4F)c4ccc([nH]4)c(-c4c(F)c(F)c(F)c(F)c4F)c4nc(c(-c5c(F)c(F)c(F)c(F)c5F)c5ccc2[nH]5)C=C4)C=C3)cc1
REMARK SMILES IDX 7 1 6 2 5 3 4 4 3 5 2 6 1 7 32 8 33 9 94 10 34 11 93 12
REMARK SMILES IDX 35 13 36 14 37 15 87 16 38 17 92 18 86 19 88 20 39 21 91 22
REMARK SMILES IDX 85 23 84 24 40 26 72 27 52 28 71 29 53 30 56 31 70 32 89 33
REMARK SMILES IDX 54 34 55 35 69 37 90 38 57 39 41 40 42 41 50 42 43 43 44 44
REMARK SMILES IDX 48 45 51 46 45 47 46 48 49 49 47 50 73 51 74 52 82 53 75 54
REMARK SMILES IDX 76 55 80 56 83 57 77 58 78 59 81 60 79 61 58 62 59 63 67 64
REMARK SMILES IDX 60 65 61 66 65 67 68 68 62 69 63 70 66 71 64 72 8 73 9 74
REMARK SMILES IDX 10 75 11 76 12 77 13 78 14 79 15 80 16 81 31 82 17 83 18 84
REMARK SMILES IDX 19 85 20 86 21 88 22 89 23 90 30 91 24 92 29 93 25 94 28 95
REMARK SMILES IDX 26 96 27 97
REMARK H PARENT 88 25 56 36 19 87
REMARK Flexibility Score: inf
ROOT
ATOM      1  C   UNL A   1      32.375  30.132  26.924  1.00  0.00     0.188 C 
ENDROOT
BRANCH   1   2
ATOM      2  O   UNL A   1      31.351  30.984  26.441  1.00  0.00    -0.376 OA
BRANCH   2   3
ATOM      3  C   UNL A   1      31.462  32.394  26.499  1.00  0.00     0.202 C 
BRANCH   3   4
ATOM      4  C   UNL A   1      32.449  33.038  27.472  1.00  0.00     0.261 C 
BRANCH   4   5
ATOM      5  O   UNL A   1      32.145  34.385  27.854  1.00  0.00    -0.460 OA
BRANCH   5   6
ATOM      6  C   UNL A   1      32.860  35.145  28.710  1.00  0.00     0.338 C 
ATOM      7  O   UNL A   1      32.484  36.269  29.029  1.00  0.00    -0.246 OA
BRANCH   6   8
ATOM      8  C   UNL A   1      34.114  34.667  29.296  1.00  0.00     0.060 A 
ATOM      9  C   UNL A   1      35.719  34.605  28.450  1.00  0.00     0.016 A 
ATOM     10  C   UNL A   1      33.984  34.245  31.046  1.00  0.00     0.016 A 
ATOM     11  C   UNL A   1      37.223  34.077  29.375  1.00  0.00     0.010 A 
ATOM     12  C   UNL A   1      35.463  33.701  31.951  1.00  0.00     0.010 A 
ATOM     13  C   UNL A   1      37.076  33.547  31.128  1.00  0.00    -0.014 A 
BRANCH  13  14
ATOM     14  C   UNL A   1      38.123  32.686  31.773  1.00  0.00     0.031 A 
ATOM     15  C   UNL A   1      38.602  31.399  31.100  1.00  0.00     0.074 A 
ATOM     16  C   UNL A   1      38.773  33.137  32.866  1.00  0.00     0.049 A 
ATOM     17  N   UNL A   1      39.608  30.636  31.456  1.00  0.00    -0.248 NA
ATOM     18  C   UNL A   1      38.016  30.969  29.812  1.00  0.00     0.031 C 
ATOM     19  C   UNL A   1      38.664  34.476  33.400  1.00  0.00     0.029 A 
ATOM     20  N   UNL A   1      39.678  32.575  33.728  1.00  0.00    -0.354 N 
ATOM     21  C   UNL A   1      39.788  29.712  30.429  1.00  0.00     0.074 A 
ATOM     22  C   UNL A   1      38.795  29.970  29.431  1.00  0.00     0.031 C 
ATOM     23  C   UNL A   1      39.341  34.640  34.524  1.00  0.00     0.029 A 
ATOM     24  C   UNL A   1      39.987  33.396  34.796  1.00  0.00     0.049 A 
ATOM     25  H   UNL A   1      40.069  31.681  33.599  1.00  0.00     0.167 HD
ATOM     26  C   UNL A   1      40.720  28.740  30.332  1.00  0.00     0.037 A 
ATOM     27  C   UNL A   1      40.740  33.242  35.888  1.00  0.00     0.037 A 
ATOM     28  C   UNL A   1      41.649  28.468  31.391  1.00  0.00     0.049 A 
ATOM     29  C   UNL A   1      41.594  32.042  35.862  1.00  0.00     0.074 A 
ATOM     30  C   UNL A   1      42.524  27.408  31.513  1.00  0.00     0.029 A 
ATOM     31  N   UNL A   1      41.784  29.247  32.536  1.00  0.00    -0.354 N 
ATOM     32  N   UNL A   1      41.706  31.171  34.891  1.00  0.00    -0.248 NA
ATOM     33  C   UNL A   1      42.454  31.817  37.015  1.00  0.00     0.031 C 
ATOM     34  C   UNL A   1      43.095  27.477  32.785  1.00  0.00     0.029 A 
ATOM     35  C   UNL A   1      42.661  28.636  33.414  1.00  0.00     0.049 A 
ATOM     36  H   UNL A   1      41.324  30.103  32.697  1.00  0.00     0.167 HD
ATOM     37  C   UNL A   1      42.645  30.268  35.315  1.00  0.00     0.074 A 
ATOM     38  C   UNL A   1      43.125  30.751  36.603  1.00  0.00     0.031 C 
ATOM     39  C   UNL A   1      43.048  29.129  34.709  1.00  0.00     0.037 A 
BRANCH  26  40
ATOM     40  C   UNL A   1      40.670  27.818  29.145  1.00  0.00     0.064 A 
ATOM     41  C   UNL A   1      39.781  26.737  29.048  1.00  0.00     0.173 A 
ATOM     42  C   UNL A   1      41.522  28.058  28.056  1.00  0.00     0.173 A 
ATOM     43  F   UNL A   1      38.968  26.434  30.071  1.00  0.00    -0.203 F 
ATOM     44  C   UNL A   1      39.739  25.942  27.898  1.00  0.00     0.198 A 
ATOM     45  C   UNL A   1      41.464  27.279  26.904  1.00  0.00     0.198 A 
ATOM     46  F   UNL A   1      42.408  29.064  28.107  1.00  0.00    -0.203 F 
ATOM     47  F   UNL A   1      38.895  24.903  27.830  1.00  0.00    -0.200 F 
ATOM     48  C   UNL A   1      40.571  26.222  26.824  1.00  0.00     0.200 A 
ATOM     49  F   UNL A   1      42.270  27.555  25.869  1.00  0.00    -0.200 F 
ATOM     50  F   UNL A   1      40.517  25.472  25.714  1.00  0.00    -0.200 F 
ENDBRANCH  26  40
BRANCH  27  51
ATOM     51  C   UNL A   1      40.716  34.274  36.962  1.00  0.00     0.064 A 
ATOM     52  C   UNL A   1      41.598  35.359  36.974  1.00  0.00     0.173 A 
ATOM     53  C   UNL A   1      39.712  34.250  37.953  1.00  0.00     0.173 A 
ATOM     54  F   UNL A   1      42.538  35.468  36.025  1.00  0.00    -0.203 F 
ATOM     55  C   UNL A   1      41.513  36.347  37.956  1.00  0.00     0.198 A 
ATOM     56  C   UNL A   1      39.600  35.260  38.906  1.00  0.00     0.198 A 
ATOM     57  F   UNL A   1      38.794  33.270  37.961  1.00  0.00    -0.203 F 
ATOM     58  F   UNL A   1      42.397  37.353  37.966  1.00  0.00    -0.200 F 
ATOM     59  C   UNL A   1      40.514  36.298  38.919  1.00  0.00     0.200 A 
ATOM     60  F   UNL A   1      38.597  35.234  39.795  1.00  0.00    -0.200 F 
ATOM     61  F   UNL A   1      40.430  37.255  39.853  1.00  0.00    -0.200 F 
ENDBRANCH  27  51
BRANCH  39  62
ATOM     62  C   UNL A   1      44.007  28.319  35.505  1.00  0.00     0.064 A 
ATOM     63  C   UNL A   1      45.390  28.469  35.328  1.00  0.00     0.173 A 
ATOM     64  C   UNL A   1      43.538  27.366  36.414  1.00  0.00     0.173 A 
ATOM     65  F   UNL A   1      45.868  29.357  34.442  1.00  0.00    -0.203 F 
ATOM     66  C   UNL A   1      46.275  27.640  35.996  1.00  0.00     0.198 A 
ATOM     67  C   UNL A   1      44.431  26.576  37.120  1.00  0.00     0.198 A 
ATOM     68  F   UNL A   1      42.221  27.201  36.606  1.00  0.00    -0.203 F 
ATOM     69  F   UNL A   1      47.587  27.724  35.739  1.00  0.00    -0.200 F 
ATOM     70  C   UNL A   1      45.796  26.700  36.897  1.00  0.00     0.200 A 
ATOM     71  F   UNL A   1      43.970  25.680  38.002  1.00  0.00    -0.200 F 
ATOM     72  F   UNL A   1      46.652  25.895  37.539  1.00  0.00    -0.200 F 
ENDBRANCH  39  62
ENDBRANCH  13  14
ENDBRANCH   6   8
ENDBRANCH   5   6
ENDBRANCH   4   5
ENDBRANCH   3   4
ENDBRANCH   2   3
ENDBRANCH   1   2
BRANCH   1  73
ATOM     73  C   UNL A   1      31.802  28.768  27.333  1.00  0.00     0.188 C 
BRANCH  73  74
ATOM     74  O   UNL A   1      32.330  27.621  26.678  1.00  0.00    -0.376 OA
BRANCH  74  75
ATOM     75  C   UNL A   1      31.433  26.535  26.465  1.00  0.00     0.202 C 
BRANCH  75  76
ATOM     76  C   UNL A   1      32.015  25.165  26.037  1.00  0.00     0.261 C 
BRANCH  76  77
ATOM     77  O   UNL A   1      33.434  24.954  26.257  1.00  0.00    -0.463 OA
BRANCH  77  78
ATOM     78  C   UNL A   1      33.970  23.838  25.700  1.00  0.00     0.312 C 
ATOM     79  O   UNL A   1      33.456  22.725  25.787  1.00  0.00    -0.252 OA
BRANCH  78  80
ATOM     80  C   UNL A   1      35.290  24.036  24.927  1.00  0.00     0.124 C 
ATOM     81  C   UNL A   1      35.391  23.537  23.518  1.00  0.00    -0.014 C 
ATOM     82  C   UNL A   1      36.656  23.647  25.540  1.00  0.00     0.048 C 
ATOM     83  C   UNL A   1      36.591  22.982  23.273  1.00  0.00    -0.006 C 
ATOM     84  C   UNL A   1      37.399  22.765  24.506  1.00  0.00     0.106 C 
BRANCH  84  85
ATOM     85  N   UNL A   1      37.986  21.211  24.901  1.00  0.00    -0.347 N 
ATOM     86  C   UNL A   1      39.442  20.122  25.678  1.00  0.00     0.261 C 
ATOM     87  H   UNL A   1      37.290  20.575  24.616  1.00  0.00     0.164 HD
ATOM     88  O   UNL A   1      39.578  18.857  25.715  1.00  0.00    -0.271 OA
BRANCH  86  89
ATOM     89  C   UNL A   1      41.023  20.712  26.494  1.00  0.00     0.266 C 
ATOM     90  C   UNL A   1      41.161  22.266  26.378  1.00  0.00     0.095 C 
ATOM     91  O   UNL A   1      42.395  20.240  26.545  1.00  0.00    -0.480 OA
ATOM     92  C   UNL A   1      42.471  22.373  25.688  1.00  0.00    -0.002 A 
ATOM     93  C   UNL A   1      43.134  21.173  25.843  1.00  0.00     0.123 A 
ATOM     94  C   UNL A   1      43.053  23.413  24.977  1.00  0.00     0.008 A 
ATOM     95  C   UNL A   1      44.369  20.936  25.261  1.00  0.00     0.047 A 
ATOM     96  C   UNL A   1      44.294  23.194  24.365  1.00  0.00     0.001 A 
ATOM     97  C   UNL A   1      44.945  21.958  24.497  1.00  0.00     0.004 A 
ENDBRANCH  86  89
ENDBRANCH  84  85
ENDBRANCH  78  80
ENDBRANCH  77  78
ENDBRANCH  76  77
ENDBRANCH  75  76
ENDBRANCH  74  75
ENDBRANCH  73  74
ENDBRANCH   1  73
TORSDOF 19
ENDMDL
MODEL 3
REMARK VINA RESULT:     -12.2      4.320      9.816
REMARK SMILES O=C(OCCOCCOCCOC(=O)[C@@H]1C=C[C@H](NC(=O)[C@@H]2Cc3ccccc3O2)C1)c1ccc(-c2c3nc(c(-c4c(F)c(F)c(F)c(F)c4F)c4ccc([nH]4)c(-c4c(F)c(F)c(F)c(F)c4F)c4nc(c(-c5c(F)c(F)c(F)c(F)c5F)c5ccc2[nH]5)C=C4)C=C3)cc1
REMARK SMILES IDX 7 1 6 2 5 3 4 4 3 5 2 6 1 7 32 8 33 9 94 10 34 11 93 12
REMARK SMILES IDX 35 13 36 14 37 15 87 16 38 17 92 18 86 19 88 20 39 21 91 22
REMARK SMILES IDX 85 23 84 24 40 26 72 27 52 28 71 29 53 30 56 31 70 32 89 33
REMARK SMILES IDX 54 34 55 35 69 37 90 38 57 39 41 40 42 41 50 42 43 43 44 44
REMARK SMILES IDX 48 45 51 46 45 47 46 48 49 49 47 50 73 51 74 52 82 53 75 54
REMARK SMILES IDX 76 55 80 56 83 57 77 58 78 59 81 60 79 61 58 62 59 63 67 64
REMARK SMILES IDX 60 65 61 66 65 67 68 68 62 69 63 70 66 71 64 72 8 73 9 74
REMARK SMILES IDX 10 75 11 76 12 77 13 78 14 79 15 80 16 81 31 82 17 83 18 84
REMARK SMILES IDX 19 85 20 86 21 88 22 89 23 90 30 91 24 92 29 93 25 94 28 95
REMARK SMILES IDX 26 96 27 97
REMARK H PARENT 88 25 56 36 19 87
REMARK Flexibility Score: inf
ROOT
ATOM      1  C   UNL A   1      36.400  21.408  24.665  1.00  0.00     0.188 C 
ENDROOT
BRANCH   1   2
ATOM      2  O   UNL A   1      37.800  21.277  24.843  1.00  0.00    -0.376 OA
BRANCH   2   3
ATOM      3  C   UNL A   1      38.419  20.012  24.993  1.00  0.00     0.202 C 
BRANCH   3   4
ATOM      4  C   UNL A   1      39.542  19.834  26.014  1.00  0.00     0.261 C 
BRANCH   4   5
ATOM      5  O   UNL A   1      40.564  18.899  25.647  1.00  0.00    -0.460 OA
BRANCH   5   6
ATOM      6  C   UNL A   1      41.880  19.017  25.919  1.00  0.00     0.338 C 
ATOM      7  O   UNL A   1      42.651  18.078  25.751  1.00  0.00    -0.246 OA
BRANCH   6   8
ATOM      8  C   UNL A   1      42.449  20.268  26.426  1.00  0.00     0.060 A 
ATOM      9  C   UNL A   1      42.209  20.938  28.096  1.00  0.00     0.016 A 
ATOM     10  C   UNL A   1      43.570  21.079  25.266  1.00  0.00     0.016 A 
ATOM     11  C   UNL A   1      43.090  22.474  28.603  1.00  0.00     0.010 A 
ATOM     12  C   UNL A   1      44.421  22.607  25.759  1.00  0.00     0.010 A 
ATOM     13  C   UNL A   1      44.151  23.359  27.392  1.00  0.00    -0.014 A 
BRANCH  13  14
ATOM     14  C   UNL A   1      44.501  24.808  27.573  1.00  0.00     0.031 A 
ATOM     15  C   UNL A   1      45.923  25.308  27.319  1.00  0.00     0.074 A 
ATOM     16  C   UNL A   1      43.517  25.706  27.789  1.00  0.00     0.049 A 
ATOM     17  N   UNL A   1      46.340  26.552  27.280  1.00  0.00    -0.248 NA
ATOM     18  C   UNL A   1      46.985  24.361  26.919  1.00  0.00     0.031 C 
ATOM     19  C   UNL A   1      42.102  25.421  27.706  1.00  0.00     0.029 A 
ATOM     20  N   UNL A   1      43.505  27.043  28.089  1.00  0.00    -0.354 N 
ATOM     21  C   UNL A   1      47.650  26.517  26.809  1.00  0.00     0.074 A 
ATOM     22  C   UNL A   1      47.996  25.146  26.583  1.00  0.00     0.031 C 
ATOM     23  C   UNL A   1      41.346  26.452  28.041  1.00  0.00     0.029 A 
ATOM     24  C   UNL A   1      42.236  27.527  28.343  1.00  0.00     0.049 A 
ATOM     25  H   UNL A   1      44.316  27.601  28.119  1.00  0.00     0.167 HD
ATOM     26  C   UNL A   1      48.483  27.554  26.575  1.00  0.00     0.037 A 
ATOM     27  C   UNL A   1      41.765  28.714  28.735  1.00  0.00     0.037 A 
ATOM     28  C   UNL A   1      48.120  28.906  26.887  1.00  0.00     0.049 A 
ATOM     29  C   UNL A   1      42.760  29.799  28.687  1.00  0.00     0.074 A 
ATOM     30  C   UNL A   1      48.918  30.032  26.876  1.00  0.00     0.029 A 
ATOM     31  N   UNL A   1      46.856  29.301  27.314  1.00  0.00    -0.354 N 
ATOM     32  N   UNL A   1      44.000  29.718  28.274  1.00  0.00    -0.248 NA
ATOM     33  C   UNL A   1      42.313  31.125  29.087  1.00  0.00     0.031 C 
ATOM     34  C   UNL A   1      48.172  31.082  27.415  1.00  0.00     0.029 A 
ATOM     35  C   UNL A   1      46.880  30.640  27.661  1.00  0.00     0.049 A 
ATOM     36  H   UNL A   1      46.065  28.717  27.362  1.00  0.00     0.167 HD
ATOM     37  C   UNL A   1      44.504  30.987  28.377  1.00  0.00     0.074 A 
ATOM     38  C   UNL A   1      43.401  31.831  28.819  1.00  0.00     0.031 C 
ATOM     39  C   UNL A   1      45.770  31.409  28.158  1.00  0.00     0.037 A 
BRANCH  26  40
ATOM     40  C   UNL A   1      49.886  27.255  26.125  1.00  0.00     0.064 A 
ATOM     41  C   UNL A   1      50.943  27.008  27.014  1.00  0.00     0.173 A 
ATOM     42  C   UNL A   1      50.162  27.181  24.750  1.00  0.00     0.173 A 
ATOM     43  F   UNL A   1      50.750  27.102  28.338  1.00  0.00    -0.203 F 
ATOM     44  C   UNL A   1      52.218  26.683  26.542  1.00  0.00     0.198 A 
ATOM     45  C   UNL A   1      51.427  26.835  24.282  1.00  0.00     0.198 A 
ATOM     46  F   UNL A   1      49.194  27.431  23.857  1.00  0.00    -0.203 F 
ATOM     47  F   UNL A   1      53.220  26.467  27.405  1.00  0.00    -0.200 F 
ATOM     48  C   UNL A   1      52.454  26.585  25.178  1.00  0.00     0.200 A 
ATOM     49  F   UNL A   1      51.649  26.741  22.965  1.00  0.00    -0.200 F 
ATOM     50  F   UNL A   1      53.672  26.253  24.726  1.00  0.00    -0.200 F 
ENDBRANCH  26  40
BRANCH  27  51
ATOM     51  C   UNL A   1      40.329  28.860  29.106  1.00  0.00     0.064 A 
ATOM     52  C   UNL A   1      39.339  29.138  28.158  1.00  0.00     0.173 A 
ATOM     53  C   UNL A   1      39.903  28.607  30.427  1.00  0.00     0.173 A 
ATOM     54  F   UNL A   1      39.675  29.331  26.875  1.00  0.00    -0.203 F 
ATOM     55  C   UNL A   1      37.993  29.207  28.521  1.00  0.00     0.198 A 
ATOM     56  C   UNL A   1      38.556  28.633  30.779  1.00  0.00     0.198 A 
ATOM     57  F   UNL A   1      40.797  28.273  31.372  1.00  0.00    -0.203 F 
ATOM     58  F   UNL A   1      37.071  29.515  27.600  1.00  0.00    -0.200 F 
ATOM     59  C   UNL A   1      37.602  28.952  29.829  1.00  0.00     0.200 A 
ATOM     60  F   UNL A   1      38.184  28.328  32.030  1.00  0.00    -0.200 F 
ATOM     61  F   UNL A   1      36.308  29.009  30.170  1.00  0.00    -0.200 F 
ENDBRANCH  27  51
BRANCH  39  62
ATOM     62  C   UNL A   1      46.001  32.842  28.478  1.00  0.00     0.064 A 
ATOM     63  C   UNL A   1      45.839  33.829  27.495  1.00  0.00     0.173 A 
ATOM     64  C   UNL A   1      46.424  33.219  29.755  1.00  0.00     0.173 A 
ATOM     65  F   UNL A   1      45.461  33.493  26.251  1.00  0.00    -0.203 F 
ATOM     66  C   UNL A   1      46.156  35.149  27.769  1.00  0.00     0.198 A 
ATOM     67  C   UNL A   1      46.688  34.549  30.040  1.00  0.00     0.198 A 
ATOM     68  F   UNL A   1      46.587  32.297  30.716  1.00  0.00    -0.203 F 
ATOM     69  F   UNL A   1      46.097  36.063  26.792  1.00  0.00    -0.200 F 
ATOM     70  C   UNL A   1      46.573  35.509  29.043  1.00  0.00     0.200 A 
ATOM     71  F   UNL A   1      47.074  34.900  31.273  1.00  0.00    -0.200 F 
ATOM     72  F   UNL A   1      46.884  36.784  29.306  1.00  0.00    -0.200 F 
ENDBRANCH  39  62
ENDBRANCH  13  14
ENDBRANCH   6   8
ENDBRANCH   5   6
ENDBRANCH   4   5
ENDBRANCH   3   4
ENDBRANCH   2   3
ENDBRANCH   1   2
BRANCH   1  73
ATOM     73  C   UNL A   1      35.826  22.460  25.625  1.00  0.00     0.188 C 
BRANCH  73  74
ATOM     74  O   UNL A   1      35.836  23.812  25.187  1.00  0.00    -0.376 OA
BRANCH  74  75
ATOM     75  C   UNL A   1      34.570  24.417  24.943  1.00  0.00     0.202 C 
BRANCH  75  76
ATOM     76  C   UNL A   1      33.600  24.617  26.134  1.00  0.00     0.261 C 
BRANCH  76  77
ATOM     77  O   UNL A   1      33.229  23.433  26.887  1.00  0.00    -0.463 OA
BRANCH  77  78
ATOM     78  C   UNL A   1      31.938  23.028  26.774  1.00  0.00     0.312 C 
ATOM     79  O   UNL A   1      31.081  23.252  27.626  1.00  0.00    -0.252 OA
BRANCH  78  80
ATOM     80  C   UNL A   1      31.583  22.254  25.487  1.00  0.00     0.124 C 
ATOM     81  C   UNL A   1      32.612  21.358  24.869  1.00  0.00    -0.014 C 
ATOM     82  C   UNL A   1      30.945  22.957  24.266  1.00  0.00     0.048 C 
ATOM     83  C   UNL A   1      32.602  21.442  23.527  1.00  0.00    -0.006 C 
ATOM     84  C   UNL A   1      31.778  22.575  23.018  1.00  0.00     0.106 C 
BRANCH  84  85
ATOM     85  N   UNL A   1      32.462  23.757  21.992  1.00  0.00    -0.347 N 
ATOM     86  C   UNL A   1      32.745  25.676  21.610  1.00  0.00     0.261 C 
ATOM     87  H   UNL A   1      32.916  23.264  21.270  1.00  0.00     0.164 HD
ATOM     88  O   UNL A   1      33.278  26.231  20.597  1.00  0.00    -0.271 OA
BRANCH  86  89
ATOM     89  C   UNL A   1      32.224  27.152  22.641  1.00  0.00     0.266 C 
ATOM     90  C   UNL A   1      31.099  26.755  23.652  1.00  0.00     0.095 C 
ATOM     91  O   UNL A   1      31.979  28.559  22.376  1.00  0.00    -0.480 OA
ATOM     92  C   UNL A   1      30.033  27.713  23.265  1.00  0.00    -0.002 A 
ATOM     93  C   UNL A   1      30.619  28.736  22.548  1.00  0.00     0.123 A 
ATOM     94  C   UNL A   1      28.666  27.711  23.501  1.00  0.00     0.008 A 
ATOM     95  C   UNL A   1      29.874  29.765  21.994  1.00  0.00     0.047 A 
ATOM     96  C   UNL A   1      27.887  28.732  22.940  1.00  0.00     0.001 A 
ATOM     97  C   UNL A   1      28.487  29.749  22.180  1.00  0.00     0.004 A 
ENDBRANCH  86  89
ENDBRANCH  84  85
ENDBRANCH  78  80
ENDBRANCH  77  78
ENDBRANCH  76  77
ENDBRANCH  75  76
ENDBRANCH  74  75
ENDBRANCH  73  74
ENDBRANCH   1  73
TORSDOF 19
ENDMDL
