MODEL 1
REMARK VINA RESULT:     -10.2      0.000      0.000
REMARK SMILES Cc1ccc(C#N)c(S[C@H](C(=O)OCCOCCOCCOC(=O)c2ccc(-c3c4nc(c(-c5c(F)c(F)c(F)c(F)c5F)c5ccc([nH]5)c(-c5c(F)c(F)c(F)c(F)c5F)c5nc(c(-c6c(F)c(F)c(F)c(F)c6F)c6ccc3[nH]6)C=C5)C=C4)cc2)c2ccccc2)n1
REMARK SMILES IDX 17 1 16 2 15 3 14 4 13 5 11 6 12 7 10 8 9 9 8 10 1 11 2 12
REMARK SMILES IDX 3 13 94 14 4 15 5 16 6 17 7 18 88 19 89 20 93 21 90 22 92 23
REMARK SMILES IDX 91 24 18 25 19 26 20 27 21 28 22 29 23 30 24 31 25 32 26 33
REMARK SMILES IDX 87 34 27 35 86 36 28 37 29 38 30 39 80 40 31 41 85 42 79 43
REMARK SMILES IDX 81 44 32 45 84 46 78 47 77 48 33 50 65 51 45 52 64 53 46 54
REMARK SMILES IDX 49 55 63 56 82 57 47 58 48 59 62 61 83 62 50 63 34 64 35 65
REMARK SMILES IDX 43 66 36 67 37 68 41 69 44 70 38 71 39 72 42 73 40 74 66 75
REMARK SMILES IDX 67 76 75 77 68 78 69 79 73 80 76 81 70 82 71 83 74 84 72 85
REMARK SMILES IDX 51 86 52 87 60 88 53 89 54 90 58 91 61 92 55 93 56 94 59 95
REMARK SMILES IDX 57 96
REMARK H PARENT 81 49 49 60
REMARK Flexibility Score: inf
ROOT
ATOM      1  C   UNL A   1      32.188  29.322  25.030  1.00  0.00     0.188 C 
ENDROOT
BRANCH   1   2
ATOM      2  O   UNL A   1      33.515  29.110  24.576  1.00  0.00    -0.376 OA
BRANCH   2   3
ATOM      3  C   UNL A   1      33.801  29.152  23.184  1.00  0.00     0.202 C 
BRANCH   3   4
ATOM      4  C   UNL A   1      33.813  27.870  22.323  1.00  0.00     0.261 C 
BRANCH   4   5
ATOM      5  O   UNL A   1      33.170  26.717  22.905  1.00  0.00    -0.462 OA
BRANCH   5   6
ATOM      6  C   UNL A   1      32.132  26.188  22.190  1.00  0.00     0.324 C 
ATOM      7  O   UNL A   1      32.230  25.889  21.006  1.00  0.00    -0.251 OA
BRANCH   6   8
ATOM      8  C   UNL A   1      30.903  25.900  23.090  1.00  0.00     0.193 C 
BRANCH   8   9
ATOM      9  S   UNL A   1      31.363  25.587  24.835  1.00  0.00    -0.085 SA
BRANCH   9  10
ATOM     10  C   UNL A   1      31.991  23.914  24.962  1.00  0.00     0.115 A 
ATOM     11  C   UNL A   1      35.250  22.713  23.693  1.00  0.00     0.067 C 
ATOM     12  C   UNL A   1      33.894  22.668  24.332  1.00  0.00     0.039 A 
ATOM     13  C   UNL A   1      33.488  21.563  25.058  1.00  0.00     0.025 A 
ATOM     14  N   UNL A   1      33.145  23.796  24.248  1.00  0.00    -0.245 NA
ATOM     15  C   UNL A   1      32.310  21.663  25.784  1.00  0.00     0.024 A 
ATOM     16  C   UNL A   1      31.579  22.867  25.789  1.00  0.00     0.084 A 
BRANCH  16  17
ATOM     17  C   UNL A   1      30.512  22.957  26.734  1.00  0.00     0.102 C 
ATOM     18  N   UNL A   1      29.668  23.081  27.516  1.00  0.00    -0.192 NA
ENDBRANCH  16  17
ENDBRANCH   9  10
ENDBRANCH   8   9
BRANCH   8  19
ATOM     19  C   UNL A   1      29.874  27.032  22.997  1.00  0.00    -0.023 A 
ATOM     20  C   UNL A   1      28.595  26.894  23.563  1.00  0.00     0.005 A 
ATOM     21  C   UNL A   1      30.202  28.256  22.389  1.00  0.00     0.005 A 
ATOM     22  C   UNL A   1      27.702  27.963  23.588  1.00  0.00     0.000 A 
ATOM     23  C   UNL A   1      29.294  29.318  22.390  1.00  0.00     0.000 A 
ATOM     24  C   UNL A   1      28.052  29.176  23.005  1.00  0.00     0.000 A 
ENDBRANCH   8  19
ENDBRANCH   6   8
ENDBRANCH   5   6
ENDBRANCH   4   5
ENDBRANCH   3   4
ENDBRANCH   2   3
ENDBRANCH   1   2
BRANCH   1  25
ATOM     25  C   UNL A   1      31.871  29.242  26.539  1.00  0.00     0.188 C 
BRANCH  25  26
ATOM     26  O   UNL A   1      31.909  30.464  27.227  1.00  0.00    -0.376 OA
BRANCH  26  27
ATOM     27  C   UNL A   1      31.547  31.643  26.537  1.00  0.00     0.202 C 
BRANCH  27  28
ATOM     28  C   UNL A   1      31.913  33.065  27.016  1.00  0.00     0.261 C 
BRANCH  28  29
ATOM     29  O   UNL A   1      33.283  33.496  26.944  1.00  0.00    -0.460 OA
BRANCH  29  30
ATOM     30  C   UNL A   1      33.786  34.158  28.018  1.00  0.00     0.338 C 
ATOM     31  O   UNL A   1      33.362  35.188  28.508  1.00  0.00    -0.246 OA
BRANCH  30  32
ATOM     32  C   UNL A   1      34.839  33.313  28.631  1.00  0.00     0.060 A 
ATOM     33  C   UNL A   1      34.523  32.025  29.093  1.00  0.00     0.016 A 
ATOM     34  C   UNL A   1      36.140  33.795  28.746  1.00  0.00     0.016 A 
ATOM     35  C   UNL A   1      35.516  31.205  29.643  1.00  0.00     0.010 A 
ATOM     36  C   UNL A   1      37.124  32.987  29.328  1.00  0.00     0.010 A 
ATOM     37  C   UNL A   1      36.822  31.689  29.781  1.00  0.00    -0.014 A 
BRANCH  37  38
ATOM     38  C   UNL A   1      37.869  30.899  30.480  1.00  0.00     0.031 A 
ATOM     39  C   UNL A   1      38.180  31.210  31.917  1.00  0.00     0.074 A 
ATOM     40  C   UNL A   1      38.578  29.958  29.831  1.00  0.00     0.049 A 
ATOM     41  N   UNL A   1      39.168  30.792  32.667  1.00  0.00    -0.248 NA
ATOM     42  C   UNL A   1      37.252  32.126  32.597  1.00  0.00     0.031 C 
ATOM     43  C   UNL A   1      38.344  29.521  28.457  1.00  0.00     0.029 A 
ATOM     44  N   UNL A   1      39.668  29.223  30.237  1.00  0.00    -0.354 N 
ATOM     45  C   UNL A   1      38.993  31.407  33.899  1.00  0.00     0.074 A 
ATOM     46  C   UNL A   1      37.817  32.246  33.790  1.00  0.00     0.031 C 
ATOM     47  C   UNL A   1      39.280  28.618  28.122  1.00  0.00     0.029 A 
ATOM     48  C   UNL A   1      40.211  28.454  29.238  1.00  0.00     0.049 A 
ATOM     49  H   UNL A   1      40.022  29.247  31.156  1.00  0.00     0.167 HD
ATOM     50  C   UNL A   1      39.748  31.284  35.017  1.00  0.00     0.037 A 
ATOM     51  C   UNL A   1      41.355  27.739  29.210  1.00  0.00     0.037 A 
ATOM     52  C   UNL A   1      40.919  30.452  35.116  1.00  0.00     0.049 A 
ATOM     53  C   UNL A   1      42.238  27.702  30.434  1.00  0.00     0.074 A 
ATOM     54  C   UNL A   1      41.733  30.238  36.216  1.00  0.00     0.029 A 
ATOM     55  N   UNL A   1      41.454  29.709  34.075  1.00  0.00    -0.354 N 
ATOM     56  N   UNL A   1      42.055  28.259  31.607  1.00  0.00    -0.248 NA
ATOM     57  C   UNL A   1      43.493  26.942  30.328  1.00  0.00     0.031 C 
ATOM     58  C   UNL A   1      42.802  29.431  35.819  1.00  0.00     0.029 A 
ATOM     59  C   UNL A   1      42.615  29.077  34.492  1.00  0.00     0.049 A 
ATOM     60  H   UNL A   1      41.067  29.642  33.172  1.00  0.00     0.167 HD
ATOM     61  C   UNL A   1      43.151  27.896  32.381  1.00  0.00     0.074 A 
ATOM     62  C   UNL A   1      43.987  27.055  31.553  1.00  0.00     0.031 C 
ATOM     63  C   UNL A   1      43.440  28.236  33.662  1.00  0.00     0.037 A 
BRANCH  50  64
ATOM     64  C   UNL A   1      39.358  32.100  36.218  1.00  0.00     0.064 A 
ATOM     65  C   UNL A   1      39.926  33.356  36.480  1.00  0.00     0.173 A 
ATOM     66  C   UNL A   1      38.362  31.638  37.093  1.00  0.00     0.173 A 
ATOM     67  F   UNL A   1      40.887  33.843  35.680  1.00  0.00    -0.203 F 
ATOM     68  C   UNL A   1      39.536  34.101  37.589  1.00  0.00     0.198 A 
ATOM     69  C   UNL A   1      37.948  32.402  38.180  1.00  0.00     0.198 A 
ATOM     70  F   UNL A   1      37.777  30.448  36.886  1.00  0.00    -0.203 F 
ATOM     71  F   UNL A   1      40.131  35.274  37.849  1.00  0.00    -0.200 F 
ATOM     72  C   UNL A   1      38.542  33.629  38.433  1.00  0.00     0.200 A 
ATOM     73  F   UNL A   1      36.973  31.952  38.982  1.00  0.00    -0.200 F 
ATOM     74  F   UNL A   1      38.160  34.353  39.493  1.00  0.00    -0.200 F 
ENDBRANCH  50  64
BRANCH  51  75
ATOM     75  C   UNL A   1      41.761  27.027  27.967  1.00  0.00     0.064 A 
ATOM     76  C   UNL A   1      41.384  25.696  27.741  1.00  0.00     0.173 A 
ATOM     77  C   UNL A   1      42.563  27.648  26.996  1.00  0.00     0.173 A 
ATOM     78  F   UNL A   1      40.646  25.046  28.652  1.00  0.00    -0.203 F 
ATOM     79  C   UNL A   1      41.809  25.007  26.605  1.00  0.00     0.198 A 
ATOM     80  C   UNL A   1      42.957  26.971  25.843  1.00  0.00     0.198 A 
ATOM     81  F   UNL A   1      42.963  28.917  27.166  1.00  0.00    -0.203 F 
ATOM     82  F   UNL A   1      41.484  23.718  26.446  1.00  0.00    -0.200 F 
ATOM     83  C   UNL A   1      42.589  25.648  25.654  1.00  0.00     0.200 A 
ATOM     84  F   UNL A   1      43.701  27.597  24.922  1.00  0.00    -0.200 F 
ATOM     85  F   UNL A   1      42.997  24.986  24.563  1.00  0.00    -0.200 F 
ENDBRANCH  51  75
BRANCH  63  86
ATOM     86  C   UNL A   1      44.702  27.684  34.267  1.00  0.00     0.064 A 
ATOM     87  C   UNL A   1      44.729  26.434  34.903  1.00  0.00     0.173 A 
ATOM     88  C   UNL A   1      45.914  28.383  34.145  1.00  0.00     0.173 A 
ATOM     89  F   UNL A   1      43.598  25.732  35.059  1.00  0.00    -0.203 F 
ATOM     90  C   UNL A   1      45.918  25.913  35.409  1.00  0.00     0.198 A 
ATOM     91  C   UNL A   1      47.107  27.841  34.620  1.00  0.00     0.198 A 
ATOM     92  F   UNL A   1      45.949  29.579  33.539  1.00  0.00    -0.203 F 
ATOM     93  F   UNL A   1      45.911  24.735  36.050  1.00  0.00    -0.200 F 
ATOM     94  C   UNL A   1      47.107  26.610  35.256  1.00  0.00     0.200 A 
ATOM     95  F   UNL A   1      48.257  28.509  34.452  1.00  0.00    -0.200 F 
ATOM     96  F   UNL A   1      48.252  26.096  35.725  1.00  0.00    -0.200 F 
ENDBRANCH  63  86
ENDBRANCH  37  38
ENDBRANCH  30  32
ENDBRANCH  29  30
ENDBRANCH  28  29
ENDBRANCH  27  28
ENDBRANCH  26  27
ENDBRANCH  25  26
ENDBRANCH   1  25
TORSDOF 21
ENDMDL
MODEL 2
REMARK VINA RESULT:     -10.0      0.565      1.995
REMARK SMILES Cc1ccc(C#N)c(S[C@H](C(=O)OCCOCCOCCOC(=O)c2ccc(-c3c4nc(c(-c5c(F)c(F)c(F)c(F)c5F)c5ccc([nH]5)c(-c5c(F)c(F)c(F)c(F)c5F)c5nc(c(-c6c(F)c(F)c(F)c(F)c6F)c6ccc3[nH]6)C=C5)C=C4)cc2)c2ccccc2)n1
REMARK SMILES IDX 17 1 16 2 15 3 14 4 13 5 11 6 12 7 10 8 9 9 8 10 1 11 2 12
REMARK SMILES IDX 3 13 94 14 4 15 5 16 6 17 7 18 88 19 89 20 93 21 90 22 92 23
REMARK SMILES IDX 91 24 18 25 19 26 20 27 21 28 22 29 23 30 24 31 25 32 26 33
REMARK SMILES IDX 87 34 27 35 86 36 28 37 29 38 30 39 80 40 31 41 85 42 79 43
REMARK SMILES IDX 81 44 32 45 84 46 78 47 77 48 33 50 65 51 45 52 64 53 46 54
REMARK SMILES IDX 49 55 63 56 82 57 47 58 48 59 62 61 83 62 50 63 34 64 35 65
REMARK SMILES IDX 43 66 36 67 37 68 41 69 44 70 38 71 39 72 42 73 40 74 66 75
REMARK SMILES IDX 67 76 75 77 68 78 69 79 73 80 76 81 70 82 71 83 74 84 72 85
REMARK SMILES IDX 51 86 52 87 60 88 53 89 54 90 58 91 61 92 55 93 56 94 59 95
REMARK SMILES IDX 57 96
REMARK H PARENT 81 49 49 60
REMARK Flexibility Score: inf
ROOT
ATOM      1  C   UNL A   1      32.563  29.204  24.739  1.00  0.00     0.188 C 
ENDROOT
BRANCH   1   2
ATOM      2  O   UNL A   1      33.966  29.052  24.596  1.00  0.00    -0.376 OA
BRANCH   2   3
ATOM      3  C   UNL A   1      34.511  28.660  23.343  1.00  0.00     0.202 C 
BRANCH   3   4
ATOM      4  C   UNL A   1      33.623  28.069  22.227  1.00  0.00     0.261 C 
BRANCH   4   5
ATOM      5  O   UNL A   1      33.731  26.644  22.026  1.00  0.00    -0.462 OA
BRANCH   5   6
ATOM      6  C   UNL A   1      32.584  26.006  21.643  1.00  0.00     0.324 C 
ATOM      7  O   UNL A   1      32.327  25.758  20.470  1.00  0.00    -0.251 OA
BRANCH   6   8
ATOM      8  C   UNL A   1      31.754  25.535  22.863  1.00  0.00     0.193 C 
BRANCH   8   9
ATOM      9  S   UNL A   1      32.725  25.521  24.416  1.00  0.00    -0.085 SA
BRANCH   9  10
ATOM     10  C   UNL A   1      33.362  23.866  24.669  1.00  0.00     0.115 A 
ATOM     11  C   UNL A   1      36.631  22.593  23.498  1.00  0.00     0.067 C 
ATOM     12  C   UNL A   1      35.274  22.588  24.137  1.00  0.00     0.039 A 
ATOM     13  C   UNL A   1      34.872  21.537  24.942  1.00  0.00     0.025 A 
ATOM     14  N   UNL A   1      34.518  23.701  23.967  1.00  0.00    -0.245 NA
ATOM     15  C   UNL A   1      33.693  21.684  25.657  1.00  0.00     0.024 A 
ATOM     16  C   UNL A   1      32.954  22.881  25.571  1.00  0.00     0.084 A 
BRANCH  16  17
ATOM     17  C   UNL A   1      31.885  23.035  26.505  1.00  0.00     0.102 C 
ATOM     18  N   UNL A   1      31.009  23.104  27.257  1.00  0.00    -0.192 NA
ENDBRANCH  16  17
ENDBRANCH   9  10
ENDBRANCH   8   9
BRANCH   8  19
ATOM     19  C   UNL A   1      30.485  26.379  23.027  1.00  0.00    -0.023 A 
ATOM     20  C   UNL A   1      29.384  25.895  23.753  1.00  0.00     0.005 A 
ATOM     21  C   UNL A   1      30.411  27.680  22.499  1.00  0.00     0.005 A 
ATOM     22  C   UNL A   1      28.279  26.705  24.008  1.00  0.00     0.000 A 
ATOM     23  C   UNL A   1      29.291  28.481  22.732  1.00  0.00     0.000 A 
ATOM     24  C   UNL A   1      28.234  27.999  23.500  1.00  0.00     0.000 A 
ENDBRANCH   8  19
ENDBRANCH   6   8
ENDBRANCH   5   6
ENDBRANCH   4   5
ENDBRANCH   3   4
ENDBRANCH   2   3
ENDBRANCH   1   2
BRANCH   1  25
ATOM     25  C   UNL A   1      31.900  28.966  26.113  1.00  0.00     0.188 C 
BRANCH  25  26
ATOM     26  O   UNL A   1      31.709  30.114  26.895  1.00  0.00    -0.376 OA
BRANCH  26  27
ATOM     27  C   UNL A   1      31.410  31.335  26.248  1.00  0.00     0.202 C 
BRANCH  27  28
ATOM     28  C   UNL A   1      31.660  32.724  26.876  1.00  0.00     0.261 C 
BRANCH  28  29
ATOM     29  O   UNL A   1      32.993  33.263  26.872  1.00  0.00    -0.460 OA
BRANCH  29  30
ATOM     30  C   UNL A   1      33.411  33.899  27.996  1.00  0.00     0.338 C 
ATOM     31  O   UNL A   1      32.900  34.870  28.522  1.00  0.00    -0.246 OA
BRANCH  30  32
ATOM     32  C   UNL A   1      34.500  33.097  28.604  1.00  0.00     0.060 A 
ATOM     33  C   UNL A   1      34.282  31.747  28.924  1.00  0.00     0.016 A 
ATOM     34  C   UNL A   1      35.740  33.680  28.854  1.00  0.00     0.016 A 
ATOM     35  C   UNL A   1      35.312  30.971  29.467  1.00  0.00     0.010 A 
ATOM     36  C   UNL A   1      36.758  32.912  29.429  1.00  0.00     0.010 A 
ATOM     37  C   UNL A   1      36.554  31.554  29.741  1.00  0.00    -0.014 A 
BRANCH  37  38
ATOM     38  C   UNL A   1      37.626  30.798  30.439  1.00  0.00     0.031 A 
ATOM     39  C   UNL A   1      37.937  31.126  31.871  1.00  0.00     0.074 A 
ATOM     40  C   UNL A   1      38.358  29.873  29.791  1.00  0.00     0.049 A 
ATOM     41  N   UNL A   1      38.940  30.739  32.618  1.00  0.00    -0.248 NA
ATOM     42  C   UNL A   1      36.988  32.020  32.552  1.00  0.00     0.031 C 
ATOM     43  C   UNL A   1      38.128  29.421  28.421  1.00  0.00     0.029 A 
ATOM     44  N   UNL A   1      39.470  29.171  30.195  1.00  0.00    -0.354 N 
ATOM     45  C   UNL A   1      38.756  31.358  33.848  1.00  0.00     0.074 A 
ATOM     46  C   UNL A   1      37.557  32.162  33.740  1.00  0.00     0.031 C 
ATOM     47  C   UNL A   1      39.087  28.543  28.085  1.00  0.00     0.029 A 
ATOM     48  C   UNL A   1      40.029  28.411  29.197  1.00  0.00     0.049 A 
ATOM     49  H   UNL A   1      39.828  29.209  31.111  1.00  0.00     0.167 HD
ATOM     50  C   UNL A   1      39.520  31.262  34.962  1.00  0.00     0.037 A 
ATOM     51  C   UNL A   1      41.192  27.728  29.167  1.00  0.00     0.037 A 
ATOM     52  C   UNL A   1      40.714  30.463  35.060  1.00  0.00     0.049 A 
ATOM     53  C   UNL A   1      42.082  27.722  30.386  1.00  0.00     0.074 A 
ATOM     54  C   UNL A   1      41.539  30.278  36.156  1.00  0.00     0.029 A 
ATOM     55  N   UNL A   1      41.264  29.729  34.019  1.00  0.00    -0.354 N 
ATOM     56  N   UNL A   1      41.890  28.281  31.557  1.00  0.00    -0.248 NA
ATOM     57  C   UNL A   1      43.357  26.997  30.278  1.00  0.00     0.031 C 
ATOM     58  C   UNL A   1      42.629  29.498  35.757  1.00  0.00     0.029 A 
ATOM     59  C   UNL A   1      42.444  29.132  34.434  1.00  0.00     0.049 A 
ATOM     60  H   UNL A   1      40.873  29.646  33.119  1.00  0.00     0.167 HD
ATOM     61  C   UNL A   1      43.000  27.953  32.326  1.00  0.00     0.074 A 
ATOM     62  C   UNL A   1      43.854  27.130  31.499  1.00  0.00     0.031 C 
ATOM     63  C   UNL A   1      43.287  28.308  33.604  1.00  0.00     0.037 A 
BRANCH  50  64
ATOM     64  C   UNL A   1      39.114  32.073  36.160  1.00  0.00     0.064 A 
ATOM     65  C   UNL A   1      38.207  31.587  37.114  1.00  0.00     0.173 A 
ATOM     66  C   UNL A   1      39.681  33.338  36.383  1.00  0.00     0.173 A 
ATOM     67  F   UNL A   1      37.630  30.387  36.949  1.00  0.00    -0.203 F 
ATOM     68  C   UNL A   1      37.860  32.350  38.226  1.00  0.00     0.198 A 
ATOM     69  C   UNL A   1      39.360  34.082  37.514  1.00  0.00     0.198 A 
ATOM     70  F   UNL A   1      40.561  33.848  35.508  1.00  0.00    -0.203 F 
ATOM     71  F   UNL A   1      36.950  31.887  39.097  1.00  0.00    -0.200 F 
ATOM     72  C   UNL A   1      38.442  33.592  38.430  1.00  0.00     0.200 A 
ATOM     73  F   UNL A   1      39.940  35.273  37.719  1.00  0.00    -0.200 F 
ATOM     74  F   UNL A   1      38.115  34.319  39.507  1.00  0.00    -0.200 F 
ENDBRANCH  50  64
BRANCH  51  75
ATOM     75  C   UNL A   1      41.610  27.019  27.925  1.00  0.00     0.064 A 
ATOM     76  C   UNL A   1      42.194  27.715  26.858  1.00  0.00     0.173 A 
ATOM     77  C   UNL A   1      41.405  25.639  27.766  1.00  0.00     0.173 A 
ATOM     78  F   UNL A   1      42.382  29.039  26.946  1.00  0.00    -0.203 F 
ATOM     79  C   UNL A   1      42.534  27.065  25.672  1.00  0.00     0.198 A 
ATOM     80  C   UNL A   1      41.781  24.983  26.595  1.00  0.00     0.198 A 
ATOM     81  F   UNL A   1      40.840  24.925  28.751  1.00  0.00    -0.203 F 
ATOM     82  F   UNL A   1      43.033  27.768  24.646  1.00  0.00    -0.200 F 
ATOM     83  C   UNL A   1      42.335  25.699  25.545  1.00  0.00     0.200 A 
ATOM     84  F   UNL A   1      41.596  23.662  26.480  1.00  0.00    -0.200 F 
ATOM     85  F   UNL A   1      42.663  25.075  24.406  1.00  0.00    -0.200 F 
ENDBRANCH  51  75
BRANCH  63  86
ATOM     86  C   UNL A   1      44.567  27.795  34.204  1.00  0.00     0.064 A 
ATOM     87  C   UNL A   1      45.783  28.477  34.042  1.00  0.00     0.173 A 
ATOM     88  C   UNL A   1      44.564  26.647  35.013  1.00  0.00     0.173 A 
ATOM     89  F   UNL A   1      45.845  29.571  33.269  1.00  0.00    -0.203 F 
ATOM     90  C   UNL A   1      46.948  28.018  34.651  1.00  0.00     0.198 A 
ATOM     91  C   UNL A   1      45.724  26.214  35.650  1.00  0.00     0.198 A 
ATOM     92  F   UNL A   1      43.428  25.961  35.210  1.00  0.00    -0.203 F 
ATOM     93  F   UNL A   1      48.106  28.663  34.447  1.00  0.00    -0.200 F 
ATOM     94  C   UNL A   1      46.916  26.895  35.464  1.00  0.00     0.200 A 
ATOM     95  F   UNL A   1      45.685  25.139  36.451  1.00  0.00    -0.200 F 
ATOM     96  F   UNL A   1      48.035  26.469  36.066  1.00  0.00    -0.200 F 
ENDBRANCH  63  86
ENDBRANCH  37  38
ENDBRANCH  30  32
ENDBRANCH  29  30
ENDBRANCH  28  29
ENDBRANCH  27  28
ENDBRANCH  26  27
ENDBRANCH  25  26
ENDBRANCH   1  25
TORSDOF 21
ENDMDL
MODEL 3
REMARK VINA RESULT:     -10.0      9.843     15.245
REMARK SMILES Cc1ccc(C#N)c(S[C@H](C(=O)OCCOCCOCCOC(=O)c2ccc(-c3c4nc(c(-c5c(F)c(F)c(F)c(F)c5F)c5ccc([nH]5)c(-c5c(F)c(F)c(F)c(F)c5F)c5nc(c(-c6c(F)c(F)c(F)c(F)c6F)c6ccc3[nH]6)C=C5)C=C4)cc2)c2ccccc2)n1
REMARK SMILES IDX 17 1 16 2 15 3 14 4 13 5 11 6 12 7 10 8 9 9 8 10 1 11 2 12
REMARK SMILES IDX 3 13 94 14 4 15 5 16 6 17 7 18 88 19 89 20 93 21 90 22 92 23
REMARK SMILES IDX 91 24 18 25 19 26 20 27 21 28 22 29 23 30 24 31 25 32 26 33
REMARK SMILES IDX 87 34 27 35 86 36 28 37 29 38 30 39 80 40 31 41 85 42 79 43
REMARK SMILES IDX 81 44 32 45 84 46 78 47 77 48 33 50 65 51 45 52 64 53 46 54
REMARK SMILES IDX 49 55 63 56 82 57 47 58 48 59 62 61 83 62 50 63 34 64 35 65
REMARK SMILES IDX 43 66 36 67 37 68 41 69 44 70 38 71 39 72 42 73 40 74 66 75
REMARK SMILES IDX 67 76 75 77 68 78 69 79 73 80 76 81 70 82 71 83 74 84 72 85
REMARK SMILES IDX 51 86 52 87 60 88 53 89 54 90 58 91 61 92 55 93 56 94 59 95
REMARK SMILES IDX 57 96
REMARK H PARENT 81 49 49 60
REMARK Flexibility Score: inf
ROOT
ATOM      1  C   UNL A   1      46.962  41.563  22.981  1.00  0.00     0.188 C 
ENDROOT
BRANCH   1   2
ATOM      2  O   UNL A   1      47.212  41.207  21.631  1.00  0.00    -0.376 OA
BRANCH   2   3
ATOM      3  C   UNL A   1      47.667  42.192  20.713  1.00  0.00     0.202 C 
BRANCH   3   4
ATOM      4  C   UNL A   1      46.691  42.924  19.765  1.00  0.00     0.261 C 
BRANCH   4   5
ATOM      5  O   UNL A   1      47.191  44.133  19.158  1.00  0.00    -0.462 OA
BRANCH   5   6
ATOM      6  C   UNL A   1      46.248  44.978  18.644  1.00  0.00     0.324 C 
ATOM      7  O   UNL A   1      46.508  45.813  17.785  1.00  0.00    -0.251 OA
BRANCH   6   8
ATOM      8  C   UNL A   1      44.831  44.650  19.178  1.00  0.00     0.193 C 
BRANCH   8   9
ATOM      9  S   UNL A   1      44.507  45.386  20.824  1.00  0.00    -0.085 SA
BRANCH   9  10
ATOM     10  C   UNL A   1      43.775  44.129  21.871  1.00  0.00     0.115 A 
ATOM     11  C   UNL A   1      44.540  43.560  25.443  1.00  0.00     0.067 C 
ATOM     12  C   UNL A   1      43.916  43.353  24.095  1.00  0.00     0.039 A 
ATOM     13  C   UNL A   1      42.829  42.513  23.937  1.00  0.00     0.025 A 
ATOM     14  N   UNL A   1      44.405  44.105  23.078  1.00  0.00    -0.245 NA
ATOM     15  C   UNL A   1      42.180  42.518  22.711  1.00  0.00     0.024 A 
ATOM     16  C   UNL A   1      42.615  43.375  21.681  1.00  0.00     0.084 A 
BRANCH  16  17
ATOM     17  C   UNL A   1      41.761  43.481  20.541  1.00  0.00     0.102 C 
ATOM     18  N   UNL A   1      41.045  43.613  19.642  1.00  0.00    -0.192 NA
ENDBRANCH  16  17
ENDBRANCH   9  10
ENDBRANCH   8   9
BRANCH   8  19
ATOM     19  C   UNL A   1      43.752  45.073  18.176  1.00  0.00    -0.023 A 
ATOM     20  C   UNL A   1      43.090  46.305  18.303  1.00  0.00     0.005 A 
ATOM     21  C   UNL A   1      43.436  44.261  17.072  1.00  0.00     0.005 A 
ATOM     22  C   UNL A   1      42.199  46.746  17.327  1.00  0.00     0.000 A 
ATOM     23  C   UNL A   1      42.521  44.693  16.108  1.00  0.00     0.000 A 
ATOM     24  C   UNL A   1      41.917  45.942  16.227  1.00  0.00     0.000 A 
ENDBRANCH   8  19
ENDBRANCH   6   8
ENDBRANCH   5   6
ENDBRANCH   4   5
ENDBRANCH   3   4
ENDBRANCH   2   3
ENDBRANCH   1   2
BRANCH   1  25
ATOM     25  C   UNL A   1      46.801  40.459  24.049  1.00  0.00     0.188 C 
BRANCH  25  26
ATOM     26  O   UNL A   1      46.482  40.911  25.338  1.00  0.00    -0.376 OA
BRANCH  26  27
ATOM     27  C   UNL A   1      46.489  39.982  26.403  1.00  0.00     0.202 C 
BRANCH  27  28
ATOM     28  C   UNL A   1      45.490  38.810  26.528  1.00  0.00     0.261 C 
BRANCH  28  29
ATOM     29  O   UNL A   1      45.513  37.995  27.713  1.00  0.00    -0.460 OA
BRANCH  29  30
ATOM     30  C   UNL A   1      46.557  37.139  27.860  1.00  0.00     0.338 C 
ATOM     31  O   UNL A   1      47.729  37.432  28.008  1.00  0.00    -0.246 OA
BRANCH  30  32
ATOM     32  C   UNL A   1      46.013  35.768  28.008  1.00  0.00     0.060 A 
ATOM     33  C   UNL A   1      46.390  34.979  29.107  1.00  0.00     0.016 A 
ATOM     34  C   UNL A   1      45.127  35.263  27.060  1.00  0.00     0.016 A 
ATOM     35  C   UNL A   1      45.857  33.696  29.275  1.00  0.00     0.010 A 
ATOM     36  C   UNL A   1      44.622  33.967  27.212  1.00  0.00     0.010 A 
ATOM     37  C   UNL A   1      44.982  33.173  28.317  1.00  0.00    -0.014 A 
BRANCH  37  38
ATOM     38  C   UNL A   1      44.503  31.768  28.392  1.00  0.00     0.031 A 
ATOM     39  C   UNL A   1      45.266  30.696  27.668  1.00  0.00     0.074 A 
ATOM     40  C   UNL A   1      43.368  31.456  29.045  1.00  0.00     0.049 A 
ATOM     41  N   UNL A   1      44.940  29.450  27.435  1.00  0.00    -0.248 NA
ATOM     42  C   UNL A   1      46.577  31.087  27.127  1.00  0.00     0.031 C 
ATOM     43  C   UNL A   1      42.561  32.387  29.831  1.00  0.00     0.029 A 
ATOM     44  N   UNL A   1      42.678  30.268  29.118  1.00  0.00    -0.354 N 
ATOM     45  C   UNL A   1      45.991  28.915  26.704  1.00  0.00     0.074 A 
ATOM     46  C   UNL A   1      46.957  29.977  26.513  1.00  0.00     0.031 C 
ATOM     47  C   UNL A   1      41.471  31.745  30.281  1.00  0.00     0.029 A 
ATOM     48  C   UNL A   1      41.474  30.374  29.770  1.00  0.00     0.049 A 
ATOM     49  H   UNL A   1      43.017  29.424  28.740  1.00  0.00     0.167 HD
ATOM     50  C   UNL A   1      46.134  27.652  26.234  1.00  0.00     0.037 A 
ATOM     51  C   UNL A   1      40.469  29.483  29.898  1.00  0.00     0.037 A 
ATOM     52  C   UNL A   1      45.167  26.602  26.425  1.00  0.00     0.049 A 
ATOM     53  C   UNL A   1      40.604  28.115  29.274  1.00  0.00     0.074 A 
ATOM     54  C   UNL A   1      45.236  25.282  26.012  1.00  0.00     0.029 A 
ATOM     55  N   UNL A   1      43.947  26.756  27.067  1.00  0.00    -0.354 N 
ATOM     56  N   UNL A   1      41.612  27.601  28.611  1.00  0.00    -0.248 NA
ATOM     57  C   UNL A   1      39.457  27.204  29.409  1.00  0.00     0.031 C 
ATOM     58  C   UNL A   1      44.027  24.659  26.335  1.00  0.00     0.029 A 
ATOM     59  C   UNL A   1      43.234  25.568  27.017  1.00  0.00     0.049 A 
ATOM     60  H   UNL A   1      43.634  27.585  27.494  1.00  0.00     0.167 HD
ATOM     61  C   UNL A   1      41.233  26.307  28.276  1.00  0.00     0.074 A 
ATOM     62  C   UNL A   1      39.910  26.104  28.825  1.00  0.00     0.031 C 
ATOM     63  C   UNL A   1      41.918  25.373  27.571  1.00  0.00     0.037 A 
BRANCH  50  64
ATOM     64  C   UNL A   1      47.365  27.340  25.430  1.00  0.00     0.064 A 
ATOM     65  C   UNL A   1      48.487  26.718  26.000  1.00  0.00     0.173 A 
ATOM     66  C   UNL A   1      47.403  27.623  24.056  1.00  0.00     0.173 A 
ATOM     67  F   UNL A   1      48.508  26.431  27.310  1.00  0.00    -0.203 F 
ATOM     68  C   UNL A   1      49.609  26.422  25.231  1.00  0.00     0.198 A 
ATOM     69  C   UNL A   1      48.511  27.292  23.282  1.00  0.00     0.198 A 
ATOM     70  F   UNL A   1      46.355  28.208  23.457  1.00  0.00    -0.203 F 
ATOM     71  F   UNL A   1      50.690  25.877  25.808  1.00  0.00    -0.200 F 
ATOM     72  C   UNL A   1      49.618  26.701  23.873  1.00  0.00     0.200 A 
ATOM     73  F   UNL A   1      48.509  27.543  21.966  1.00  0.00    -0.200 F 
ATOM     74  F   UNL A   1      50.695  26.404  23.132  1.00  0.00    -0.200 F 
ENDBRANCH  50  64
BRANCH  51  75
ATOM     75  C   UNL A   1      39.220  29.864  30.615  1.00  0.00     0.064 A 
ATOM     76  C   UNL A   1      38.167  30.502  29.944  1.00  0.00     0.173 A 
ATOM     77  C   UNL A   1      39.066  29.631  31.991  1.00  0.00     0.173 A 
ATOM     78  F   UNL A   1      38.277  30.777  28.636  1.00  0.00    -0.203 F 
ATOM     79  C   UNL A   1      37.021  30.911  30.623  1.00  0.00     0.198 A 
ATOM     80  C   UNL A   1      37.904  30.006  32.662  1.00  0.00     0.198 A 
ATOM     81  F   UNL A   1      40.046  29.035  32.685  1.00  0.00    -0.203 F 
ATOM     82  F   UNL A   1      36.058  31.573  29.968  1.00  0.00    -0.200 F 
ATOM     83  C   UNL A   1      36.887  30.656  31.980  1.00  0.00     0.200 A 
ATOM     84  F   UNL A   1      37.774  29.748  33.969  1.00  0.00    -0.200 F 
ATOM     85  F   UNL A   1      35.784  31.048  32.632  1.00  0.00    -0.200 F 
ENDBRANCH  51  75
BRANCH  63  86
ATOM     86  C   UNL A   1      41.268  24.032  27.366  1.00  0.00     0.064 A 
ATOM     87  C   UNL A   1      40.170  23.868  26.508  1.00  0.00     0.173 A 
ATOM     88  C   UNL A   1      41.796  22.884  27.979  1.00  0.00     0.173 A 
ATOM     89  F   UNL A   1      39.619  24.933  25.907  1.00  0.00    -0.203 F 
ATOM     90  C   UNL A   1      39.615  22.610  26.286  1.00  0.00     0.198 A 
ATOM     91  C   UNL A   1      41.261  21.623  27.725  1.00  0.00     0.198 A 
ATOM     92  F   UNL A   1      42.850  22.980  28.802  1.00  0.00    -0.203 F 
ATOM     93  F   UNL A   1      38.540  22.485  25.494  1.00  0.00    -0.200 F 
ATOM     94  C   UNL A   1      40.168  21.488  26.884  1.00  0.00     0.200 A 
ATOM     95  F   UNL A   1      41.810  20.538  28.289  1.00  0.00    -0.200 F 
ATOM     96  F   UNL A   1      39.645  20.276  26.651  1.00  0.00    -0.200 F 
ENDBRANCH  63  86
ENDBRANCH  37  38
ENDBRANCH  30  32
ENDBRANCH  29  30
ENDBRANCH  28  29
ENDBRANCH  27  28
ENDBRANCH  26  27
ENDBRANCH  25  26
ENDBRANCH   1  25
TORSDOF 21
ENDMDL
