MODEL 1
REMARK VINA RESULT:     -11.5      0.000      0.000
REMARK SMILES C#Cc1cccc(N(C)S(=O)(=O)c2cc(F)c(F)c(C(=O)OCCOCCOCCOC(=O)c3ccc(-c4c5nc(c(-c6c(F)c(F)c(F)c(F)c6F)c6ccc([nH]6)c(-c6c(F)c(F)c(F)c(F)c6F)c6nc(c(-c7c(F)c(F)c(F)c(F)c7F)c7ccc4[nH]7)C=C6)C=C5)cc3)c2)c1
REMARK SMILES IDX 26 1 25 2 24 3 23 4 22 5 20 6 21 7 19 8 13 9 14 10 97 11
REMARK SMILES IDX 15 12 16 13 17 14 18 15 10 16 11 17 12 18 8 19 9 20 7 21
REMARK SMILES IDX 3 22 4 23 98 24 5 25 6 26 2 27 1 28 27 29 28 30 29 31 30 32
REMARK SMILES IDX 31 33 32 34 33 35 34 36 35 37 96 38 36 39 95 40 37 41 38 42
REMARK SMILES IDX 39 43 89 44 40 45 94 46 88 47 90 48 41 49 93 50 87 51 86 52
REMARK SMILES IDX 42 54 74 55 54 56 73 57 55 58 58 59 72 60 91 61 56 62 57 63
REMARK SMILES IDX 71 65 92 66 59 67 43 68 44 69 52 70 45 71 46 72 50 73 53 74
REMARK SMILES IDX 47 75 48 76 51 77 49 78 75 79 76 80 84 81 77 82 78 83 82 84
REMARK SMILES IDX 85 85 79 86 80 87 83 88 81 89 60 90 61 91 69 92 62 93 63 94
REMARK SMILES IDX 67 95 70 96 64 97 65 98 68 99 66 100
REMARK H PARENT 90 53 58 64
REMARK Flexibility Score: inf
ROOT
ATOM      1  C   UNL A   1      40.951  20.532  26.951  1.00  0.00     0.188 C 
ENDROOT
BRANCH   1   2
ATOM      2  O   UNL A   1      39.709  20.740  26.314  1.00  0.00    -0.376 OA
BRANCH   2   3
ATOM      3  C   UNL A   1      39.236  22.050  26.058  1.00  0.00     0.202 C 
BRANCH   3   4
ATOM      4  C   UNL A   1      37.844  22.393  25.487  1.00  0.00     0.261 C 
BRANCH   4   5
ATOM      5  O   UNL A   1      36.742  21.551  25.845  1.00  0.00    -0.460 OA
BRANCH   5   6
ATOM      6  C   UNL A   1      36.453  20.531  24.995  1.00  0.00     0.341 C 
ATOM      7  O   UNL A   1      37.174  19.602  24.687  1.00  0.00    -0.246 OA
BRANCH   6   8
ATOM      8  C   UNL A   1      35.031  20.656  24.621  1.00  0.00     0.100 A 
ATOM      9  C   UNL A   1      33.096  22.043  24.204  1.00  0.00     0.091 A 
ATOM     10  C   UNL A   1      32.282  20.897  24.227  1.00  0.00     0.064 A 
ATOM     11  C   UNL A   1      34.476  21.921  24.364  1.00  0.00     0.041 A 
ATOM     12  C   UNL A   1      32.855  19.647  24.431  1.00  0.00     0.161 A 
ATOM     13  F   UNL A   1      32.068  18.563  24.463  1.00  0.00    -0.204 F 
ATOM     14  C   UNL A   1      34.222  19.520  24.642  1.00  0.00     0.173 A 
ATOM     15  F   UNL A   1      34.727  18.314  24.944  1.00  0.00    -0.203 F 
BRANCH   9  16
ATOM     16  S   UNL A   1      32.257  23.603  23.990  1.00  0.00     0.264 S 
ATOM     17  O   UNL A   1      30.960  23.264  23.439  1.00  0.00    -0.201 OA
ATOM     18  O   UNL A   1      33.199  24.410  23.240  1.00  0.00    -0.201 OA
BRANCH  16  19
ATOM     19  N   UNL A   1      31.987  24.361  25.507  1.00  0.00    -0.269 N 
ATOM     20  C   UNL A   1      31.231  23.596  26.533  1.00  0.00     0.164 C 
BRANCH  19  21
ATOM     21  C   UNL A   1      31.714  25.818  25.481  1.00  0.00     0.053 A 
ATOM     22  C   UNL A   1      30.875  27.868  24.426  1.00  0.00     0.026 A 
ATOM     23  C   UNL A   1      31.413  28.642  25.450  1.00  0.00     0.017 A 
ATOM     24  C   UNL A   1      31.021  26.471  24.445  1.00  0.00     0.044 A 
ATOM     25  C   UNL A   1      32.103  28.024  26.485  1.00  0.00     0.003 A 
ATOM     26  C   UNL A   1      32.269  26.633  26.485  1.00  0.00     0.027 A 
BRANCH  22  27
ATOM     27  C   UNL A   1      30.193  28.516  23.343  1.00  0.00    -0.070 C 
ATOM     28  C   UNL A   1      29.634  29.087  22.451  1.00  0.00     0.010 C 
ENDBRANCH  22  27
ENDBRANCH  19  21
ENDBRANCH  16  19
ENDBRANCH   9  16
ENDBRANCH   6   8
ENDBRANCH   5   6
ENDBRANCH   4   5
ENDBRANCH   3   4
ENDBRANCH   2   3
ENDBRANCH   1   2
BRANCH   1  29
ATOM     29  C   UNL A   1      41.968  19.570  26.302  1.00  0.00     0.188 C 
BRANCH  29  30
ATOM     30  O   UNL A   1      42.731  20.088  25.240  1.00  0.00    -0.376 OA
BRANCH  30  31
ATOM     31  C   UNL A   1      44.126  20.286  25.418  1.00  0.00     0.202 C 
BRANCH  31  32
ATOM     32  C   UNL A   1      44.858  21.645  25.555  1.00  0.00     0.261 C 
BRANCH  32  33
ATOM     33  O   UNL A   1      44.233  22.708  26.282  1.00  0.00    -0.460 OA
BRANCH  33  34
ATOM     34  C   UNL A   1      43.455  23.556  25.565  1.00  0.00     0.338 C 
ATOM     35  O   UNL A   1      43.123  23.443  24.398  1.00  0.00    -0.246 OA
BRANCH  34  36
ATOM     36  C   UNL A   1      42.888  24.571  26.479  1.00  0.00     0.060 A 
ATOM     37  C   UNL A   1      43.407  25.875  26.459  1.00  0.00     0.016 A 
ATOM     38  C   UNL A   1      41.864  24.235  27.365  1.00  0.00     0.016 A 
ATOM     39  C   UNL A   1      42.905  26.846  27.326  1.00  0.00     0.010 A 
ATOM     40  C   UNL A   1      41.384  25.203  28.254  1.00  0.00     0.010 A 
ATOM     41  C   UNL A   1      41.916  26.507  28.257  1.00  0.00    -0.014 A 
BRANCH  41  42
ATOM     42  C   UNL A   1      41.543  27.461  29.332  1.00  0.00     0.031 A 
ATOM     43  C   UNL A   1      42.328  27.451  30.614  1.00  0.00     0.074 A 
ATOM     44  C   UNL A   1      40.529  28.330  29.172  1.00  0.00     0.049 A 
ATOM     45  N   UNL A   1      42.133  28.130  31.716  1.00  0.00    -0.248 NA
ATOM     46  C   UNL A   1      43.489  26.547  30.661  1.00  0.00     0.031 C 
ATOM     47  C   UNL A   1      39.727  28.477  27.960  1.00  0.00     0.029 A 
ATOM     48  N   UNL A   1      39.994  29.250  30.044  1.00  0.00    -0.354 N 
ATOM     49  C   UNL A   1      43.138  27.731  32.586  1.00  0.00     0.074 A 
ATOM     50  C   UNL A   1      43.920  26.724  31.902  1.00  0.00     0.031 C 
ATOM     51  C   UNL A   1      38.797  29.426  28.165  1.00  0.00     0.029 A 
ATOM     52  C   UNL A   1      38.910  29.923  29.537  1.00  0.00     0.049 A 
ATOM     53  H   UNL A   1      40.356  29.412  30.945  1.00  0.00     0.167 HD
ATOM     54  C   UNL A   1      43.393  28.176  33.840  1.00  0.00     0.037 A 
ATOM     55  C   UNL A   1      38.086  30.819  30.121  1.00  0.00     0.037 A 
ATOM     56  C   UNL A   1      42.615  29.183  34.513  1.00  0.00     0.049 A 
ATOM     57  C   UNL A   1      38.336  31.234  31.550  1.00  0.00     0.074 A 
ATOM     58  C   UNL A   1      42.804  29.710  35.778  1.00  0.00     0.029 A 
ATOM     59  N   UNL A   1      41.498  29.811  33.981  1.00  0.00    -0.354 N 
ATOM     60  N   UNL A   1      39.297  30.866  32.363  1.00  0.00    -0.248 NA
ATOM     61  C   UNL A   1      37.388  32.190  32.142  1.00  0.00     0.031 C 
ATOM     62  C   UNL A   1      41.762  30.602  36.040  1.00  0.00     0.029 A 
ATOM     63  C   UNL A   1      40.968  30.694  34.909  1.00  0.00     0.049 A 
ATOM     64  H   UNL A   1      41.135  29.653  33.080  1.00  0.00     0.167 HD
ATOM     65  C   UNL A   1      39.090  31.565  33.545  1.00  0.00     0.074 A 
ATOM     66  C   UNL A   1      37.919  32.391  33.341  1.00  0.00     0.031 C 
ATOM     67  C   UNL A   1      39.808  31.524  34.695  1.00  0.00     0.037 A 
BRANCH  54  68
ATOM     68  C   UNL A   1      44.553  27.576  34.581  1.00  0.00     0.064 A 
ATOM     69  C   UNL A   1      45.832  28.147  34.480  1.00  0.00     0.173 A 
ATOM     70  C   UNL A   1      44.424  26.390  35.318  1.00  0.00     0.173 A 
ATOM     71  F   UNL A   1      46.014  29.279  33.783  1.00  0.00    -0.203 F 
ATOM     72  C   UNL A   1      46.939  27.541  35.067  1.00  0.00     0.198 A 
ATOM     73  C   UNL A   1      45.528  25.805  35.936  1.00  0.00     0.198 A 
ATOM     74  F   UNL A   1      43.224  25.807  35.457  1.00  0.00    -0.203 F 
ATOM     75  F   UNL A   1      48.156  28.081  34.916  1.00  0.00    -0.200 F 
ATOM     76  C   UNL A   1      46.786  26.373  35.798  1.00  0.00     0.200 A 
ATOM     77  F   UNL A   1      45.373  24.690  36.664  1.00  0.00    -0.200 F 
ATOM     78  F   UNL A   1      47.850  25.794  36.370  1.00  0.00    -0.200 F 
ENDBRANCH  54  68
BRANCH  55  79
ATOM     79  C   UNL A   1      36.952  31.390  29.344  1.00  0.00     0.064 A 
ATOM     80  C   UNL A   1      36.961  32.725  28.909  1.00  0.00     0.173 A 
ATOM     81  C   UNL A   1      35.825  30.616  29.035  1.00  0.00     0.173 A 
ATOM     82  F   UNL A   1      38.018  33.510  29.168  1.00  0.00    -0.203 F 
ATOM     83  C   UNL A   1      35.876  33.269  28.225  1.00  0.00     0.198 A 
ATOM     84  C   UNL A   1      34.754  31.152  28.321  1.00  0.00     0.198 A 
ATOM     85  F   UNL A   1      35.780  29.325  29.399  1.00  0.00    -0.203 F 
ATOM     86  F   UNL A   1      35.896  34.558  27.858  1.00  0.00    -0.200 F 
ATOM     87  C   UNL A   1      34.775  32.482  27.928  1.00  0.00     0.200 A 
ATOM     88  F   UNL A   1      33.707  30.376  28.007  1.00  0.00    -0.200 F 
ATOM     89  F   UNL A   1      33.737  33.000  27.258  1.00  0.00    -0.200 F 
ENDBRANCH  55  79
BRANCH  67  90
ATOM     90  C   UNL A   1      39.381  32.414  35.831  1.00  0.00     0.064 A 
ATOM     91  C   UNL A   1      40.015  33.651  36.040  1.00  0.00     0.173 A 
ATOM     92  C   UNL A   1      38.423  32.004  36.771  1.00  0.00     0.173 A 
ATOM     93  F   UNL A   1      40.947  34.088  35.180  1.00  0.00    -0.203 F 
ATOM     94  C   UNL A   1      39.724  34.428  37.159  1.00  0.00     0.198 A 
ATOM     95  C   UNL A   1      38.108  32.802  37.868  1.00  0.00     0.198 A 
ATOM     96  F   UNL A   1      37.782  30.836  36.615  1.00  0.00    -0.203 F 
ATOM     97  F   UNL A   1      40.382  35.577  37.363  1.00  0.00    -0.200 F 
ATOM     98  C   UNL A   1      38.769  34.005  38.068  1.00  0.00     0.200 A 
ATOM     99  F   UNL A   1      37.166  32.404  38.734  1.00  0.00    -0.200 F 
ATOM    100  F   UNL A   1      38.484  34.756  39.142  1.00  0.00    -0.200 F 
ENDBRANCH  67  90
ENDBRANCH  41  42
ENDBRANCH  34  36
ENDBRANCH  33  34
ENDBRANCH  32  33
ENDBRANCH  31  32
ENDBRANCH  30  31
ENDBRANCH  29  30
ENDBRANCH   1  29
TORSDOF 21
ENDMDL
MODEL 2
REMARK VINA RESULT:     -11.5      5.029      7.344
REMARK SMILES C#Cc1cccc(N(C)S(=O)(=O)c2cc(F)c(F)c(C(=O)OCCOCCOCCOC(=O)c3ccc(-c4c5nc(c(-c6c(F)c(F)c(F)c(F)c6F)c6ccc([nH]6)c(-c6c(F)c(F)c(F)c(F)c6F)c6nc(c(-c7c(F)c(F)c(F)c(F)c7F)c7ccc4[nH]7)C=C6)C=C5)cc3)c2)c1
REMARK SMILES IDX 26 1 25 2 24 3 23 4 22 5 20 6 21 7 19 8 13 9 14 10 97 11
REMARK SMILES IDX 15 12 16 13 17 14 18 15 10 16 11 17 12 18 8 19 9 20 7 21
REMARK SMILES IDX 3 22 4 23 98 24 5 25 6 26 2 27 1 28 27 29 28 30 29 31 30 32
REMARK SMILES IDX 31 33 32 34 33 35 34 36 35 37 96 38 36 39 95 40 37 41 38 42
REMARK SMILES IDX 39 43 89 44 40 45 94 46 88 47 90 48 41 49 93 50 87 51 86 52
REMARK SMILES IDX 42 54 74 55 54 56 73 57 55 58 58 59 72 60 91 61 56 62 57 63
REMARK SMILES IDX 71 65 92 66 59 67 43 68 44 69 52 70 45 71 46 72 50 73 53 74
REMARK SMILES IDX 47 75 48 76 51 77 49 78 75 79 76 80 84 81 77 82 78 83 82 84
REMARK SMILES IDX 85 85 79 86 80 87 83 88 81 89 60 90 61 91 69 92 62 93 63 94
REMARK SMILES IDX 67 95 70 96 64 97 65 98 68 99 66 100
REMARK H PARENT 90 53 58 64
REMARK Flexibility Score: inf
ROOT
ATOM      1  C   UNL A   1      40.555  21.770  27.259  1.00  0.00     0.188 C 
ENDROOT
BRANCH   1   2
ATOM      2  O   UNL A   1      39.495  22.459  26.633  1.00  0.00    -0.376 OA
BRANCH   2   3
ATOM      3  C   UNL A   1      38.565  21.771  25.816  1.00  0.00     0.202 C 
BRANCH   3   4
ATOM      4  C   UNL A   1      37.428  22.437  25.014  1.00  0.00     0.261 C 
BRANCH   4   5
ATOM      5  O   UNL A   1      36.634  23.433  25.669  1.00  0.00    -0.460 OA
BRANCH   5   6
ATOM      6  C   UNL A   1      35.321  23.138  25.859  1.00  0.00     0.341 C 
ATOM      7  O   UNL A   1      34.789  22.778  26.890  1.00  0.00    -0.246 OA
BRANCH   6   8
ATOM      8  C   UNL A   1      34.606  23.487  24.616  1.00  0.00     0.100 A 
ATOM      9  C   UNL A   1      33.600  25.153  23.183  1.00  0.00     0.091 A 
ATOM     10  C   UNL A   1      32.987  24.130  22.439  1.00  0.00     0.064 A 
ATOM     11  C   UNL A   1      34.440  24.833  24.249  1.00  0.00     0.041 A 
ATOM     12  C   UNL A   1      33.205  22.801  22.785  1.00  0.00     0.161 A 
ATOM     13  F   UNL A   1      32.606  21.833  22.076  1.00  0.00    -0.204 F 
ATOM     14  C   UNL A   1      33.999  22.473  23.876  1.00  0.00     0.173 A 
ATOM     15  F   UNL A   1      34.100  21.187  24.247  1.00  0.00    -0.203 F 
BRANCH   9  16
ATOM     16  S   UNL A   1      33.213  26.825  22.693  1.00  0.00     0.264 S 
ATOM     17  O   UNL A   1      33.133  26.787  21.246  1.00  0.00    -0.201 OA
ATOM     18  O   UNL A   1      34.214  27.630  23.365  1.00  0.00    -0.201 OA
BRANCH  16  19
ATOM     19  N   UNL A   1      31.667  27.288  23.280  1.00  0.00    -0.269 N 
ATOM     20  C   UNL A   1      30.719  27.900  22.312  1.00  0.00     0.164 C 
BRANCH  19  21
ATOM     21  C   UNL A   1      31.620  27.853  24.650  1.00  0.00     0.053 A 
ATOM     22  C   UNL A   1      31.617  29.711  26.250  1.00  0.00     0.026 A 
ATOM     23  C   UNL A   1      31.720  28.823  27.317  1.00  0.00     0.017 A 
ATOM     24  C   UNL A   1      31.563  29.230  24.932  1.00  0.00     0.044 A 
ATOM     25  C   UNL A   1      31.779  27.458  27.067  1.00  0.00     0.003 A 
ATOM     26  C   UNL A   1      31.752  26.985  25.749  1.00  0.00     0.027 A 
BRANCH  22  27
ATOM     27  C   UNL A   1      31.591  31.121  26.514  1.00  0.00    -0.070 C 
ATOM     28  C   UNL A   1      31.585  32.304  26.706  1.00  0.00     0.010 C 
ENDBRANCH  22  27
ENDBRANCH  19  21
ENDBRANCH  16  19
ENDBRANCH   9  16
ENDBRANCH   6   8
ENDBRANCH   5   6
ENDBRANCH   4   5
ENDBRANCH   3   4
ENDBRANCH   2   3
ENDBRANCH   1   2
BRANCH   1  29
ATOM     29  C   UNL A   1      41.045  20.443  26.643  1.00  0.00     0.188 C 
BRANCH  29  30
ATOM     30  O   UNL A   1      42.158  19.840  27.257  1.00  0.00    -0.376 OA
BRANCH  30  31
ATOM     31  C   UNL A   1      42.663  18.619  26.736  1.00  0.00     0.202 C 
BRANCH  31  32
ATOM     32  C   UNL A   1      43.219  18.381  25.309  1.00  0.00     0.261 C 
BRANCH  32  33
ATOM     33  O   UNL A   1      44.622  18.531  25.069  1.00  0.00    -0.460 OA
BRANCH  33  34
ATOM     34  C   UNL A   1      44.979  19.393  24.084  1.00  0.00     0.338 C 
ATOM     35  O   UNL A   1      45.174  19.131  22.911  1.00  0.00    -0.246 OA
BRANCH  34  36
ATOM     36  C   UNL A   1      44.908  20.773  24.611  1.00  0.00     0.060 A 
ATOM     37  C   UNL A   1      44.512  21.812  23.754  1.00  0.00     0.016 A 
ATOM     38  C   UNL A   1      45.249  21.045  25.936  1.00  0.00     0.016 A 
ATOM     39  C   UNL A   1      44.457  23.126  24.219  1.00  0.00     0.010 A 
ATOM     40  C   UNL A   1      45.223  22.369  26.391  1.00  0.00     0.010 A 
ATOM     41  C   UNL A   1      44.850  23.419  25.531  1.00  0.00    -0.014 A 
BRANCH  41  42
ATOM     42  C   UNL A   1      45.018  24.830  25.964  1.00  0.00     0.031 A 
ATOM     43  C   UNL A   1      46.377  25.464  25.854  1.00  0.00     0.074 A 
ATOM     44  C   UNL A   1      43.981  25.543  26.438  1.00  0.00     0.049 A 
ATOM     45  N   UNL A   1      46.779  26.646  26.245  1.00  0.00    -0.248 NA
ATOM     46  C   UNL A   1      47.428  24.650  25.221  1.00  0.00     0.031 C 
ATOM     47  C   UNL A   1      42.605  25.063  26.543  1.00  0.00     0.029 A 
ATOM     48  N   UNL A   1      43.928  26.826  26.930  1.00  0.00    -0.354 N 
ATOM     49  C   UNL A   1      48.125  26.715  25.914  1.00  0.00     0.074 A 
ATOM     50  C   UNL A   1      48.484  25.443  25.325  1.00  0.00     0.031 C 
ATOM     51  C   UNL A   1      41.844  26.035  27.074  1.00  0.00     0.029 A 
ATOM     52  C   UNL A   1      42.686  27.191  27.386  1.00  0.00     0.049 A 
ATOM     53  H   UNL A   1      44.708  27.426  26.954  1.00  0.00     0.167 HD
ATOM     54  C   UNL A   1      48.981  27.752  26.076  1.00  0.00     0.037 A 
ATOM     55  C   UNL A   1      42.278  28.318  28.007  1.00  0.00     0.037 A 
ATOM     56  C   UNL A   1      48.616  29.018  26.658  1.00  0.00     0.049 A 
ATOM     57  C   UNL A   1      43.271  29.426  28.258  1.00  0.00     0.074 A 
ATOM     58  C   UNL A   1      49.410  30.135  26.850  1.00  0.00     0.029 A 
ATOM     59  N   UNL A   1      47.356  29.334  27.145  1.00  0.00    -0.354 N 
ATOM     60  N   UNL A   1      44.538  29.492  27.928  1.00  0.00    -0.248 NA
ATOM     61  C   UNL A   1      42.777  30.617  28.965  1.00  0.00     0.031 C 
ATOM     62  C   UNL A   1      48.652  31.099  27.518  1.00  0.00     0.029 A 
ATOM     63  C   UNL A   1      47.362  30.616  27.670  1.00  0.00     0.049 A 
ATOM     64  H   UNL A   1      46.574  28.736  27.122  1.00  0.00     0.167 HD
ATOM     65  C   UNL A   1      44.983  30.737  28.357  1.00  0.00     0.074 A 
ATOM     66  C   UNL A   1      43.847  31.401  28.959  1.00  0.00     0.031 C 
ATOM     67  C   UNL A   1      46.224  31.277  28.258  1.00  0.00     0.037 A 
BRANCH  54  68
ATOM     68  C   UNL A   1      50.404  27.570  25.631  1.00  0.00     0.064 A 
ATOM     69  C   UNL A   1      51.410  27.285  26.568  1.00  0.00     0.173 A 
ATOM     70  C   UNL A   1      50.790  27.763  24.296  1.00  0.00     0.173 A 
ATOM     71  F   UNL A   1      51.097  27.096  27.859  1.00  0.00    -0.203 F 
ATOM     72  C   UNL A   1      52.748  27.225  26.190  1.00  0.00     0.198 A 
ATOM     73  C   UNL A   1      52.127  27.667  23.915  1.00  0.00     0.198 A 
ATOM     74  F   UNL A   1      49.869  28.027  23.357  1.00  0.00    -0.203 F 
ATOM     75  F   UNL A   1      53.694  26.998  27.113  1.00  0.00    -0.200 F 
ATOM     76  C   UNL A   1      53.105  27.411  24.864  1.00  0.00     0.200 A 
ATOM     77  F   UNL A   1      52.468  27.821  22.628  1.00  0.00    -0.200 F 
ATOM     78  F   UNL A   1      54.393  27.346  24.500  1.00  0.00    -0.200 F 
ENDBRANCH  54  68
BRANCH  55  79
ATOM     79  C   UNL A   1      40.856  28.454  28.425  1.00  0.00     0.064 A 
ATOM     80  C   UNL A   1      39.890  29.006  27.569  1.00  0.00     0.173 A 
ATOM     81  C   UNL A   1      40.436  28.049  29.699  1.00  0.00     0.173 A 
ATOM     82  F   UNL A   1      40.234  29.401  26.334  1.00  0.00    -0.203 F 
ATOM     83  C   UNL A   1      38.571  29.177  27.982  1.00  0.00     0.198 A 
ATOM     84  C   UNL A   1      39.108  28.189  30.101  1.00  0.00     0.198 A 
ATOM     85  F   UNL A   1      41.312  27.486  30.545  1.00  0.00    -0.203 F 
ATOM     86  F   UNL A   1      37.680  29.744  27.158  1.00  0.00    -0.200 F 
ATOM     87  C   UNL A   1      38.179  28.765  29.247  1.00  0.00     0.200 A 
ATOM     88  F   UNL A   1      38.727  27.758  31.311  1.00  0.00    -0.200 F 
ATOM     89  F   UNL A   1      36.907  28.915  29.640  1.00  0.00    -0.200 F 
ENDBRANCH  55  79
BRANCH  67  90
ATOM     90  C   UNL A   1      46.434  32.671  28.784  1.00  0.00     0.064 A 
ATOM     91  C   UNL A   1      46.754  32.878  30.137  1.00  0.00     0.173 A 
ATOM     92  C   UNL A   1      46.219  33.803  27.984  1.00  0.00     0.173 A 
ATOM     93  F   UNL A   1      46.959  31.833  30.952  1.00  0.00    -0.203 F 
ATOM     94  C   UNL A   1      46.824  34.163  30.671  1.00  0.00     0.198 A 
ATOM     95  C   UNL A   1      46.328  35.086  28.513  1.00  0.00     0.198 A 
ATOM     96  F   UNL A   1      45.920  33.664  26.683  1.00  0.00    -0.203 F 
ATOM     97  F   UNL A   1      47.078  34.331  31.976  1.00  0.00    -0.200 F 
ATOM     98  C   UNL A   1      46.616  35.265  29.858  1.00  0.00     0.200 A 
ATOM     99  F   UNL A   1      46.151  36.153  27.720  1.00  0.00    -0.200 F 
ATOM    100  F   UNL A   1      46.690  36.501  30.371  1.00  0.00    -0.200 F 
ENDBRANCH  67  90
ENDBRANCH  41  42
ENDBRANCH  34  36
ENDBRANCH  33  34
ENDBRANCH  32  33
ENDBRANCH  31  32
ENDBRANCH  30  31
ENDBRANCH  29  30
ENDBRANCH   1  29
TORSDOF 21
ENDMDL
MODEL 3
REMARK VINA RESULT:     -11.3      5.366     10.708
REMARK SMILES C#Cc1cccc(N(C)S(=O)(=O)c2cc(F)c(F)c(C(=O)OCCOCCOCCOC(=O)c3ccc(-c4c5nc(c(-c6c(F)c(F)c(F)c(F)c6F)c6ccc([nH]6)c(-c6c(F)c(F)c(F)c(F)c6F)c6nc(c(-c7c(F)c(F)c(F)c(F)c7F)c7ccc4[nH]7)C=C6)C=C5)cc3)c2)c1
REMARK SMILES IDX 26 1 25 2 24 3 23 4 22 5 20 6 21 7 19 8 13 9 14 10 97 11
REMARK SMILES IDX 15 12 16 13 17 14 18 15 10 16 11 17 12 18 8 19 9 20 7 21
REMARK SMILES IDX 3 22 4 23 98 24 5 25 6 26 2 27 1 28 27 29 28 30 29 31 30 32
REMARK SMILES IDX 31 33 32 34 33 35 34 36 35 37 96 38 36 39 95 40 37 41 38 42
REMARK SMILES IDX 39 43 89 44 40 45 94 46 88 47 90 48 41 49 93 50 87 51 86 52
REMARK SMILES IDX 42 54 74 55 54 56 73 57 55 58 58 59 72 60 91 61 56 62 57 63
REMARK SMILES IDX 71 65 92 66 59 67 43 68 44 69 52 70 45 71 46 72 50 73 53 74
REMARK SMILES IDX 47 75 48 76 51 77 49 78 75 79 76 80 84 81 77 82 78 83 82 84
REMARK SMILES IDX 85 85 79 86 80 87 83 88 81 89 60 90 61 91 69 92 62 93 63 94
REMARK SMILES IDX 67 95 70 96 64 97 65 98 68 99 66 100
REMARK H PARENT 90 53 58 64
REMARK Flexibility Score: inf
ROOT
ATOM      1  C   UNL A   1      35.274  31.798  27.643  1.00  0.00     0.188 C 
ENDROOT
BRANCH   1   2
ATOM      2  O   UNL A   1      34.402  30.875  28.257  1.00  0.00    -0.376 OA
BRANCH   2   3
ATOM      3  C   UNL A   1      33.405  30.208  27.503  1.00  0.00     0.202 C 
BRANCH   3   4
ATOM      4  C   UNL A   1      33.632  29.539  26.131  1.00  0.00     0.261 C 
BRANCH   4   5
ATOM      5  O   UNL A   1      32.688  29.803  25.087  1.00  0.00    -0.460 OA
BRANCH   5   6
ATOM      6  C   UNL A   1      32.856  29.117  23.926  1.00  0.00     0.341 C 
ATOM      7  O   UNL A   1      33.728  29.277  23.095  1.00  0.00    -0.246 OA
BRANCH   6   8
ATOM      8  C   UNL A   1      31.873  28.015  23.916  1.00  0.00     0.100 A 
ATOM      9  C   UNL A   1      31.378  25.661  23.698  1.00  0.00     0.091 A 
ATOM     10  C   UNL A   1      30.011  25.968  23.583  1.00  0.00     0.064 A 
ATOM     11  C   UNL A   1      32.307  26.679  23.902  1.00  0.00     0.041 A 
ATOM     12  C   UNL A   1      29.594  27.293  23.653  1.00  0.00     0.161 A 
ATOM     13  F   UNL A   1      28.289  27.575  23.530  1.00  0.00    -0.204 F 
ATOM     14  C   UNL A   1      30.517  28.320  23.804  1.00  0.00     0.173 A 
ATOM     15  F   UNL A   1      30.091  29.591  23.759  1.00  0.00    -0.203 F 
BRANCH   9  16
ATOM     16  S   UNL A   1      31.815  23.937  23.541  1.00  0.00     0.264 S 
ATOM     17  O   UNL A   1      33.003  23.921  22.710  1.00  0.00    -0.201 OA
ATOM     18  O   UNL A   1      30.589  23.301  23.103  1.00  0.00    -0.201 OA
BRANCH  16  19
ATOM     19  N   UNL A   1      32.248  23.279  25.068  1.00  0.00    -0.269 N 
ATOM     20  C   UNL A   1      32.719  24.224  26.115  1.00  0.00     0.164 C 
BRANCH  19  21
ATOM     21  C   UNL A   1      32.932  21.964  25.052  1.00  0.00     0.053 A 
ATOM     22  C   UNL A   1      34.922  20.535  24.943  1.00  0.00     0.026 A 
ATOM     23  C   UNL A   1      34.127  19.397  24.835  1.00  0.00     0.017 A 
ATOM     24  C   UNL A   1      34.329  21.803  25.055  1.00  0.00     0.044 A 
ATOM     25  C   UNL A   1      32.745  19.527  24.829  1.00  0.00     0.003 A 
ATOM     26  C   UNL A   1      32.159  20.797  24.914  1.00  0.00     0.027 A 
BRANCH  22  27
ATOM     27  C   UNL A   1      36.350  20.396  24.914  1.00  0.00    -0.070 C 
ATOM     28  C   UNL A   1      37.538  20.247  24.885  1.00  0.00     0.010 C 
ENDBRANCH  22  27
ENDBRANCH  19  21
ENDBRANCH  16  19
ENDBRANCH   9  16
ENDBRANCH   6   8
ENDBRANCH   5   6
ENDBRANCH   4   5
ENDBRANCH   3   4
ENDBRANCH   2   3
ENDBRANCH   1   2
BRANCH   1  29
ATOM     29  C   UNL A   1      35.173  33.288  28.033  1.00  0.00     0.188 C 
BRANCH  29  30
ATOM     30  O   UNL A   1      34.104  33.644  28.876  1.00  0.00    -0.376 OA
BRANCH  30  31
ATOM     31  C   UNL A   1      34.379  34.209  30.149  1.00  0.00     0.202 C 
BRANCH  31  32
ATOM     32  C   UNL A   1      34.392  33.465  31.509  1.00  0.00     0.261 C 
BRANCH  32  33
ATOM     33  O   UNL A   1      35.112  32.234  31.628  1.00  0.00    -0.460 OA
BRANCH  33  34
ATOM     34  C   UNL A   1      36.079  32.187  32.577  1.00  0.00     0.338 C 
ATOM     35  O   UNL A   1      35.931  32.260  33.784  1.00  0.00    -0.246 OA
BRANCH  34  36
ATOM     36  C   UNL A   1      37.362  31.832  31.933  1.00  0.00     0.060 A 
ATOM     37  C   UNL A   1      37.526  32.068  30.560  1.00  0.00     0.016 A 
ATOM     38  C   UNL A   1      38.392  31.251  32.674  1.00  0.00     0.016 A 
ATOM     39  C   UNL A   1      38.718  31.723  29.922  1.00  0.00     0.010 A 
ATOM     40  C   UNL A   1      39.575  30.877  32.027  1.00  0.00     0.010 A 
ATOM     41  C   UNL A   1      39.737  31.089  30.644  1.00  0.00    -0.014 A 
BRANCH  41  42
ATOM     42  C   UNL A   1      40.906  30.510  29.935  1.00  0.00     0.031 A 
ATOM     43  C   UNL A   1      42.101  31.386  29.674  1.00  0.00     0.074 A 
ATOM     44  C   UNL A   1      40.916  29.226  29.535  1.00  0.00     0.049 A 
ATOM     45  N   UNL A   1      43.194  31.125  29.005  1.00  0.00    -0.248 NA
ATOM     46  C   UNL A   1      42.052  32.743  30.243  1.00  0.00     0.031 C 
ATOM     47  C   UNL A   1      39.846  28.261  29.776  1.00  0.00     0.029 A 
ATOM     48  N   UNL A   1      41.860  28.515  28.833  1.00  0.00    -0.354 N 
ATOM     49  C   UNL A   1      43.957  32.284  29.065  1.00  0.00     0.074 A 
ATOM     50  C   UNL A   1      43.189  33.263  29.803  1.00  0.00     0.031 C 
ATOM     51  C   UNL A   1      40.188  27.084  29.222  1.00  0.00     0.029 A 
ATOM     52  C   UNL A   1      41.483  27.224  28.553  1.00  0.00     0.049 A 
ATOM     53  H   UNL A   1      42.725  28.895  28.556  1.00  0.00     0.167 HD
ATOM     54  C   UNL A   1      45.195  32.505  28.560  1.00  0.00     0.037 A 
ATOM     55  C   UNL A   1      42.098  26.273  27.821  1.00  0.00     0.037 A 
ATOM     56  C   UNL A   1      45.957  31.525  27.831  1.00  0.00     0.049 A 
ATOM     57  C   UNL A   1      43.436  26.572  27.192  1.00  0.00     0.074 A 
ATOM     58  C   UNL A   1      47.226  31.651  27.294  1.00  0.00     0.029 A 
ATOM     59  N   UNL A   1      45.522  30.242  27.534  1.00  0.00    -0.354 N 
ATOM     60  N   UNL A   1      44.161  27.663  27.265  1.00  0.00    -0.248 NA
ATOM     61  C   UNL A   1      44.044  25.507  26.380  1.00  0.00     0.031 C 
ATOM     62  C   UNL A   1      47.529  30.472  26.610  1.00  0.00     0.029 A 
ATOM     63  C   UNL A   1      46.485  29.579  26.788  1.00  0.00     0.049 A 
ATOM     64  H   UNL A   1      44.659  29.858  27.810  1.00  0.00     0.167 HD
ATOM     65  C   UNL A   1      45.317  27.407  26.540  1.00  0.00     0.074 A 
ATOM     66  C   UNL A   1      45.207  26.051  26.044  1.00  0.00     0.031 C 
ATOM     67  C   UNL A   1      46.375  28.224  26.308  1.00  0.00     0.037 A 
BRANCH  54  68
ATOM     68  C   UNL A   1      45.808  33.861  28.762  1.00  0.00     0.064 A 
ATOM     69  C   UNL A   1      45.698  34.845  27.767  1.00  0.00     0.173 A 
ATOM     70  C   UNL A   1      46.578  34.161  29.896  1.00  0.00     0.173 A 
ATOM     71  F   UNL A   1      44.978  34.610  26.660  1.00  0.00    -0.203 F 
ATOM     72  C   UNL A   1      46.355  36.067  27.888  1.00  0.00     0.198 A 
ATOM     73  C   UNL A   1      47.205  35.399  30.031  1.00  0.00     0.198 A 
ATOM     74  F   UNL A   1      46.708  33.262  30.883  1.00  0.00    -0.203 F 
ATOM     75  F   UNL A   1      46.272  36.971  26.903  1.00  0.00    -0.200 F 
ATOM     76  C   UNL A   1      47.103  36.344  29.021  1.00  0.00     0.200 A 
ATOM     77  F   UNL A   1      47.907  35.675  31.139  1.00  0.00    -0.200 F 
ATOM     78  F   UNL A   1      47.729  37.523  29.141  1.00  0.00    -0.200 F 
ENDBRANCH  54  68
BRANCH  55  79
ATOM     79  C   UNL A   1      41.452  24.942  27.652  1.00  0.00     0.064 A 
ATOM     80  C   UNL A   1      41.955  23.798  28.293  1.00  0.00     0.173 A 
ATOM     81  C   UNL A   1      40.327  24.783  26.832  1.00  0.00     0.173 A 
ATOM     82  F   UNL A   1      43.023  23.893  29.099  1.00  0.00    -0.203 F 
ATOM     83  C   UNL A   1      41.377  22.546  28.094  1.00  0.00     0.198 A 
ATOM     84  C   UNL A   1      39.729  23.536  26.660  1.00  0.00     0.198 A 
ATOM     85  F   UNL A   1      39.788  25.849  26.222  1.00  0.00    -0.203 F 
ATOM     86  F   UNL A   1      41.903  21.465  28.687  1.00  0.00    -0.200 F 
ATOM     87  C   UNL A   1      40.262  22.416  27.280  1.00  0.00     0.200 A 
ATOM     88  F   UNL A   1      38.631  23.421  25.900  1.00  0.00    -0.200 F 
ATOM     89  F   UNL A   1      39.698  21.214  27.100  1.00  0.00    -0.200 F 
ENDBRANCH  55  79
BRANCH  67  90
ATOM     90  C   UNL A   1      47.526  27.684  25.504  1.00  0.00     0.064 A 
ATOM     91  C   UNL A   1      48.673  27.190  26.151  1.00  0.00     0.173 A 
ATOM     92  C   UNL A   1      47.545  27.748  24.103  1.00  0.00     0.173 A 
ATOM     93  F   UNL A   1      48.716  27.116  27.490  1.00  0.00    -0.203 F 
ATOM     94  C   UNL A   1      49.799  26.807  25.426  1.00  0.00     0.198 A 
ATOM     95  C   UNL A   1      48.658  27.329  23.380  1.00  0.00     0.198 A 
ATOM     96  F   UNL A   1      46.474  28.203  23.434  1.00  0.00    -0.203 F 
ATOM     97  F   UNL A   1      50.898  26.391  26.069  1.00  0.00    -0.200 F 
ATOM     98  C   UNL A   1      49.789  26.872  24.042  1.00  0.00     0.200 A 
ATOM     99  F   UNL A   1      48.638  27.369  22.041  1.00  0.00    -0.200 F 
ATOM    100  F   UNL A   1      50.870  26.498  23.344  1.00  0.00    -0.200 F 
ENDBRANCH  67  90
ENDBRANCH  41  42
ENDBRANCH  34  36
ENDBRANCH  33  34
ENDBRANCH  32  33
ENDBRANCH  31  32
ENDBRANCH  30  31
ENDBRANCH  29  30
ENDBRANCH   1  29
TORSDOF 21
ENDMDL
