MODEL 1
REMARK VINA RESULT:     -11.5      0.000      0.000
REMARK SMILES CC(=O)N[C@@H](Cc1c(C)[nH]c2ccccc2c1=O)C(=O)OCCOCCOCCOC(=O)c1ccc(-c2c3nc(c(-c4c(F)c(F)c(F)c(F)c4F)c4ccc([nH]4)c(-c4c(F)c(F)c(F)c(F)c4F)c4nc(c(-c5c(F)c(F)c(F)c(F)c5F)c5ccc2[nH]5)C=C4)C=C3)cc1
REMARK SMILES IDX 25 1 24 2 23 3 22 4 21 5 19 6 20 7 5 8 4 9 1 10 2 11 3 12
REMARK SMILES IDX 6 14 7 15 8 16 17 17 9 18 10 19 16 20 18 21 11 22 15 24
REMARK SMILES IDX 12 25 14 26 13 27 26 28 27 29 28 30 29 31 30 32 31 33 32 34
REMARK SMILES IDX 33 35 34 36 95 37 35 38 94 39 36 40 37 41 38 42 88 43 39 44
REMARK SMILES IDX 93 45 87 46 89 47 40 48 92 49 86 50 85 51 41 53 73 54 53 55
REMARK SMILES IDX 72 56 54 57 57 58 71 59 90 60 55 61 56 62 70 64 91 65 58 66
REMARK SMILES IDX 42 67 43 68 51 69 44 70 45 71 49 72 52 73 46 74 47 75 50 76
REMARK SMILES IDX 48 77 74 78 75 79 83 80 76 81 77 82 81 83 84 84 78 85 79 86
REMARK SMILES IDX 82 87 80 88 59 89 60 90 68 91 61 92 62 93 66 94 69 95 63 96
REMARK SMILES IDX 64 97 67 98 65 99
REMARK H PARENT 4 13 10 23 89 52 57 63
REMARK Flexibility Score: inf
ROOT
ATOM      1  C   UNL A   1      40.045  21.211  26.412  1.00  0.00     0.188 C 
ENDROOT
BRANCH   1   2
ATOM      2  O   UNL A   1      38.801  21.296  25.713  1.00  0.00    -0.376 OA
BRANCH   2   3
ATOM      3  C   UNL A   1      38.110  22.541  25.738  1.00  0.00     0.202 C 
BRANCH   3   4
ATOM      4  C   UNL A   1      36.590  22.416  25.728  1.00  0.00     0.261 C 
BRANCH   4   5
ATOM      5  O   UNL A   1      35.969  23.675  25.415  1.00  0.00    -0.462 OA
BRANCH   5   6
ATOM      6  C   UNL A   1      35.267  23.746  24.264  1.00  0.00     0.329 C 
ATOM      7  O   UNL A   1      35.696  23.379  23.174  1.00  0.00    -0.250 OA
BRANCH   6   8
ATOM      8  C   UNL A   1      33.885  24.421  24.416  1.00  0.00     0.196 C 
BRANCH   8   9
ATOM      9  N   UNL A   1      33.193  24.411  25.708  1.00  0.00    -0.343 N 
ATOM     10  C   UNL A   1      31.007  23.564  24.964  1.00  0.00     0.114 C 
ATOM     11  C   UNL A   1      31.892  24.164  26.017  1.00  0.00     0.217 C 
ATOM     12  O   UNL A   1      31.471  24.399  27.147  1.00  0.00    -0.275 OA
ATOM     13  H   UNL A   1      33.766  24.617  26.481  1.00  0.00     0.164 HD
ENDBRANCH   8   9
BRANCH   8  14
ATOM     14  C   UNL A   1      34.009  25.874  23.897  1.00  0.00     0.078 C 
BRANCH  14  15
ATOM     15  C   UNL A   1      32.786  26.693  23.489  1.00  0.00     0.022 A 
ATOM     16  C   UNL A   1      32.176  26.559  22.285  1.00  0.00     0.019 A 
ATOM     17  C   UNL A   1      32.138  27.668  24.429  1.00  0.00     0.192 A 
ATOM     18  C   UNL A   1      32.609  25.535  21.261  1.00  0.00     0.064 C 
ATOM     19  N   UNL A   1      31.110  27.347  21.888  1.00  0.00    -0.358 N 
ATOM     20  C   UNL A   1      31.210  28.676  23.897  1.00  0.00     0.046 A 
ATOM     21  O   UNL A   1      32.306  27.627  25.642  1.00  0.00    -0.289 OA
ATOM     22  C   UNL A   1      30.670  28.445  22.632  1.00  0.00     0.049 A 
ATOM     23  H   UNL A   1      30.643  27.127  21.050  1.00  0.00     0.166 HD
ATOM     24  C   UNL A   1      30.842  29.787  24.664  1.00  0.00     0.014 A 
ATOM     25  C   UNL A   1      29.716  29.339  22.146  1.00  0.00     0.027 A 
ATOM     26  C   UNL A   1      29.905  30.683  24.160  1.00  0.00     0.001 A 
ATOM     27  C   UNL A   1      29.335  30.452  22.908  1.00  0.00     0.002 A 
ENDBRANCH  14  15
ENDBRANCH   8  14
ENDBRANCH   6   8
ENDBRANCH   5   6
ENDBRANCH   4   5
ENDBRANCH   3   4
ENDBRANCH   2   3
ENDBRANCH   1   2
BRANCH   1  28
ATOM     28  C   UNL A   1      40.776  19.857  26.438  1.00  0.00     0.188 C 
BRANCH  28  29
ATOM     29  O   UNL A   1      41.743  19.779  25.398  1.00  0.00    -0.376 OA
BRANCH  29  30
ATOM     30  C   UNL A   1      43.086  19.751  25.840  1.00  0.00     0.202 C 
BRANCH  30  31
ATOM     31  C   UNL A   1      43.824  21.031  25.442  1.00  0.00     0.261 C 
BRANCH  31  32
ATOM     32  O   UNL A   1      43.393  22.209  26.152  1.00  0.00    -0.460 OA
BRANCH  32  33
ATOM     33  C   UNL A   1      43.357  23.374  25.470  1.00  0.00     0.338 C 
ATOM     34  O   UNL A   1      43.546  23.532  24.276  1.00  0.00    -0.246 OA
BRANCH  33  35
ATOM     35  C   UNL A   1      42.880  24.427  26.401  1.00  0.00     0.060 A 
ATOM     36  C   UNL A   1      41.849  24.158  27.309  1.00  0.00     0.016 A 
ATOM     37  C   UNL A   1      43.437  25.711  26.335  1.00  0.00     0.016 A 
ATOM     38  C   UNL A   1      41.395  25.167  28.163  1.00  0.00     0.010 A 
ATOM     39  C   UNL A   1      42.974  26.723  27.186  1.00  0.00     0.010 A 
ATOM     40  C   UNL A   1      41.961  26.454  28.121  1.00  0.00    -0.014 A 
BRANCH  40  41
ATOM     41  C   UNL A   1      41.611  27.435  29.181  1.00  0.00     0.031 A 
ATOM     42  C   UNL A   1      40.443  28.368  29.063  1.00  0.00     0.074 A 
ATOM     43  C   UNL A   1      42.360  27.442  30.299  1.00  0.00     0.049 A 
ATOM     44  N   UNL A   1      39.931  29.160  29.974  1.00  0.00    -0.248 NA
ATOM     45  C   UNL A   1      39.766  28.429  27.762  1.00  0.00     0.031 C 
ATOM     46  C   UNL A   1      43.538  26.603  30.518  1.00  0.00     0.029 A 
ATOM     47  N   UNL A   1      42.236  28.157  31.464  1.00  0.00    -0.354 N 
ATOM     48  C   UNL A   1      38.852  29.790  29.371  1.00  0.00     0.074 A 
ATOM     49  C   UNL A   1      38.816  29.329  27.997  1.00  0.00     0.031 C 
ATOM     50  C   UNL A   1      44.011  26.826  31.752  1.00  0.00     0.029 A 
ATOM     51  C   UNL A   1      43.176  27.829  32.409  1.00  0.00     0.049 A 
ATOM     52  H   UNL A   1      41.540  28.839  31.608  1.00  0.00     0.167 HD
ATOM     53  C   UNL A   1      37.966  30.654  29.925  1.00  0.00     0.037 A 
ATOM     54  C   UNL A   1      43.340  28.268  33.671  1.00  0.00     0.037 A 
ATOM     55  C   UNL A   1      38.015  31.121  31.291  1.00  0.00     0.049 A 
ATOM     56  C   UNL A   1      42.363  29.253  34.246  1.00  0.00     0.074 A 
ATOM     57  C   UNL A   1      37.128  31.958  31.949  1.00  0.00     0.029 A 
ATOM     58  N   UNL A   1      39.010  30.804  32.204  1.00  0.00    -0.354 N 
ATOM     59  N   UNL A   1      41.291  29.770  33.697  1.00  0.00    -0.248 NA
ATOM     60  C   UNL A   1      42.611  29.707  35.622  1.00  0.00     0.031 C 
ATOM     61  C   UNL A   1      37.613  32.189  33.240  1.00  0.00     0.029 A 
ATOM     62  C   UNL A   1      38.775  31.454  33.407  1.00  0.00     0.049 A 
ATOM     63  H   UNL A   1      39.771  30.205  32.025  1.00  0.00     0.167 HD
ATOM     64  C   UNL A   1      40.726  30.591  34.662  1.00  0.00     0.074 A 
ATOM     65  C   UNL A   1      41.563  30.490  35.840  1.00  0.00     0.031 C 
ATOM     66  C   UNL A   1      39.613  31.357  34.575  1.00  0.00     0.037 A 
BRANCH  53  67
ATOM     67  C   UNL A   1      36.832  31.147  29.073  1.00  0.00     0.064 A 
ATOM     68  C   UNL A   1      35.757  30.309  28.742  1.00  0.00     0.173 A 
ATOM     69  C   UNL A   1      36.754  32.495  28.688  1.00  0.00     0.173 A 
ATOM     70  F   UNL A   1      35.780  29.013  29.089  1.00  0.00    -0.203 F 
ATOM     71  C   UNL A   1      34.652  30.798  28.051  1.00  0.00     0.198 A 
ATOM     72  C   UNL A   1      35.636  32.987  28.020  1.00  0.00     0.198 A 
ATOM     73  F   UNL A   1      37.747  33.344  28.995  1.00  0.00    -0.203 F 
ATOM     74  F   UNL A   1      33.642  29.975  27.734  1.00  0.00    -0.200 F 
ATOM     75  C   UNL A   1      34.586  32.139  27.701  1.00  0.00     0.200 A 
ATOM     76  F   UNL A   1      35.565  34.287  27.698  1.00  0.00    -0.200 F 
ATOM     77  F   UNL A   1      33.510  32.614  27.059  1.00  0.00    -0.200 F 
ENDBRANCH  53  67
BRANCH  54  78
ATOM     78  C   UNL A   1      44.450  27.725  34.492  1.00  0.00     0.064 A 
ATOM     79  C   UNL A   1      45.740  28.266  34.404  1.00  0.00     0.173 A 
ATOM     80  C   UNL A   1      44.238  26.677  35.400  1.00  0.00     0.173 A 
ATOM     81  F   UNL A   1      45.992  29.256  33.536  1.00  0.00    -0.203 F 
ATOM     82  C   UNL A   1      46.780  27.772  35.187  1.00  0.00     0.198 A 
ATOM     83  C   UNL A   1      45.273  26.202  36.202  1.00  0.00     0.198 A 
ATOM     84  F   UNL A   1      43.020  26.130  35.523  1.00  0.00    -0.203 F 
ATOM     85  F   UNL A   1      48.011  28.284  35.061  1.00  0.00    -0.200 F 
ATOM     86  C   UNL A   1      46.544  26.747  36.091  1.00  0.00     0.200 A 
ATOM     87  F   UNL A   1      45.040  25.221  37.084  1.00  0.00    -0.200 F 
ATOM     88  F   UNL A   1      47.544  26.280  36.853  1.00  0.00    -0.200 F 
ENDBRANCH  54  78
BRANCH  66  89
ATOM     89  C   UNL A   1      39.224  32.155  35.787  1.00  0.00     0.064 A 
ATOM     90  C   UNL A   1      39.642  33.483  35.953  1.00  0.00     0.173 A 
ATOM     91  C   UNL A   1      38.379  31.605  36.764  1.00  0.00     0.173 A 
ATOM     92  F   UNL A   1      40.462  34.050  35.056  1.00  0.00    -0.203 F 
ATOM     93  C   UNL A   1      39.241  34.228  37.061  1.00  0.00     0.198 A 
ATOM     94  C   UNL A   1      37.959  32.361  37.856  1.00  0.00     0.198 A 
ATOM     95  F   UNL A   1      37.947  30.341  36.650  1.00  0.00    -0.203 F 
ATOM     96  F   UNL A   1      39.683  35.483  37.217  1.00  0.00    -0.200 F 
ATOM     97  C   UNL A   1      38.393  33.668  38.005  1.00  0.00     0.200 A 
ATOM     98  F   UNL A   1      37.129  31.824  38.760  1.00  0.00    -0.200 F 
ATOM     99  F   UNL A   1      37.998  34.390  39.064  1.00  0.00    -0.200 F 
ENDBRANCH  66  89
ENDBRANCH  40  41
ENDBRANCH  33  35
ENDBRANCH  32  33
ENDBRANCH  31  32
ENDBRANCH  30  31
ENDBRANCH  29  30
ENDBRANCH  28  29
ENDBRANCH   1  28
TORSDOF 20
ENDMDL
MODEL 2
REMARK VINA RESULT:     -11.3      4.368      8.855
REMARK SMILES CC(=O)N[C@@H](Cc1c(C)[nH]c2ccccc2c1=O)C(=O)OCCOCCOCCOC(=O)c1ccc(-c2c3nc(c(-c4c(F)c(F)c(F)c(F)c4F)c4ccc([nH]4)c(-c4c(F)c(F)c(F)c(F)c4F)c4nc(c(-c5c(F)c(F)c(F)c(F)c5F)c5ccc2[nH]5)C=C4)C=C3)cc1
REMARK SMILES IDX 25 1 24 2 23 3 22 4 21 5 19 6 20 7 5 8 4 9 1 10 2 11 3 12
REMARK SMILES IDX 6 14 7 15 8 16 17 17 9 18 10 19 16 20 18 21 11 22 15 24
REMARK SMILES IDX 12 25 14 26 13 27 26 28 27 29 28 30 29 31 30 32 31 33 32 34
REMARK SMILES IDX 33 35 34 36 95 37 35 38 94 39 36 40 37 41 38 42 88 43 39 44
REMARK SMILES IDX 93 45 87 46 89 47 40 48 92 49 86 50 85 51 41 53 73 54 53 55
REMARK SMILES IDX 72 56 54 57 57 58 71 59 90 60 55 61 56 62 70 64 91 65 58 66
REMARK SMILES IDX 42 67 43 68 51 69 44 70 45 71 49 72 52 73 46 74 47 75 50 76
REMARK SMILES IDX 48 77 74 78 75 79 83 80 76 81 77 82 81 83 84 84 78 85 79 86
REMARK SMILES IDX 82 87 80 88 59 89 60 90 68 91 61 92 62 93 66 94 69 95 63 96
REMARK SMILES IDX 64 97 67 98 65 99
REMARK H PARENT 4 13 10 23 89 52 57 63
REMARK Flexibility Score: inf
ROOT
ATOM      1  C   UNL A   1      38.000  23.481  25.814  1.00  0.00     0.188 C 
ENDROOT
BRANCH   1   2
ATOM      2  O   UNL A   1      37.026  23.598  24.775  1.00  0.00    -0.376 OA
BRANCH   2   3
ATOM      3  C   UNL A   1      35.693  23.930  25.150  1.00  0.00     0.202 C 
BRANCH   3   4
ATOM      4  C   UNL A   1      35.172  23.163  26.362  1.00  0.00     0.261 C 
BRANCH   4   5
ATOM      5  O   UNL A   1      33.963  23.755  26.868  1.00  0.00    -0.462 OA
BRANCH   5   6
ATOM      6  C   UNL A   1      32.873  22.961  26.944  1.00  0.00     0.329 C 
ATOM      7  O   UNL A   1      32.300  22.681  27.992  1.00  0.00    -0.250 OA
BRANCH   6   8
ATOM      8  C   UNL A   1      32.451  22.350  25.589  1.00  0.00     0.196 C 
BRANCH   8   9
ATOM      9  N   UNL A   1      31.999  20.957  25.512  1.00  0.00    -0.343 N 
ATOM     10  C   UNL A   1      34.131  19.898  24.890  1.00  0.00     0.114 C 
ATOM     11  C   UNL A   1      32.645  19.836  25.094  1.00  0.00     0.217 C 
ATOM     12  O   UNL A   1      32.021  18.792  24.924  1.00  0.00    -0.275 OA
ATOM     13  H   UNL A   1      31.075  20.809  25.814  1.00  0.00     0.164 HD
ENDBRANCH   8   9
BRANCH   8  14
ATOM     14  C   UNL A   1      31.389  23.283  24.959  1.00  0.00     0.078 C 
BRANCH  14  15
ATOM     15  C   UNL A   1      31.610  24.788  24.830  1.00  0.00     0.022 A 
ATOM     16  C   UNL A   1      32.232  25.354  23.766  1.00  0.00     0.019 A 
ATOM     17  C   UNL A   1      31.098  25.754  25.858  1.00  0.00     0.192 A 
ATOM     18  C   UNL A   1      32.700  24.551  22.573  1.00  0.00     0.064 C 
ATOM     19  N   UNL A   1      32.493  26.710  23.678  1.00  0.00    -0.358 N 
ATOM     20  C   UNL A   1      31.627  27.125  25.888  1.00  0.00     0.046 A 
ATOM     21  O   UNL A   1      30.206  25.467  26.648  1.00  0.00    -0.289 OA
ATOM     22  C   UNL A   1      32.275  27.587  24.743  1.00  0.00     0.049 A 
ATOM     23  H   UNL A   1      32.846  27.072  22.833  1.00  0.00     0.166 HD
ATOM     24  C   UNL A   1      31.426  27.946  27.004  1.00  0.00     0.014 A 
ATOM     25  C   UNL A   1      32.703  28.915  24.714  1.00  0.00     0.027 A 
ATOM     26  C   UNL A   1      31.875  29.262  26.971  1.00  0.00     0.001 A 
ATOM     27  C   UNL A   1      32.502  29.748  25.823  1.00  0.00     0.002 A 
ENDBRANCH  14  15
ENDBRANCH   8  14
ENDBRANCH   6   8
ENDBRANCH   5   6
ENDBRANCH   4   5
ENDBRANCH   3   4
ENDBRANCH   2   3
ENDBRANCH   1   2
BRANCH   1  28
ATOM     28  C   UNL A   1      38.654  22.108  26.050  1.00  0.00     0.188 C 
BRANCH  28  29
ATOM     29  O   UNL A   1      37.986  21.092  25.312  1.00  0.00    -0.376 OA
BRANCH  29  30
ATOM     30  C   UNL A   1      38.682  19.864  25.232  1.00  0.00     0.202 C 
BRANCH  30  31
ATOM     31  C   UNL A   1      40.074  19.978  25.858  1.00  0.00     0.261 C 
BRANCH  31  32
ATOM     32  O   UNL A   1      40.892  18.802  25.699  1.00  0.00    -0.460 OA
BRANCH  32  33
ATOM     33  C   UNL A   1      42.225  18.937  25.874  1.00  0.00     0.338 C 
ATOM     34  O   UNL A   1      43.087  18.119  25.604  1.00  0.00    -0.246 OA
BRANCH  33  35
ATOM     35  C   UNL A   1      42.483  20.334  26.304  1.00  0.00     0.060 A 
ATOM     36  C   UNL A   1      42.204  20.737  27.616  1.00  0.00     0.016 A 
ATOM     37  C   UNL A   1      42.968  21.264  25.375  1.00  0.00     0.016 A 
ATOM     38  C   UNL A   1      42.431  22.062  27.999  1.00  0.00     0.010 A 
ATOM     39  C   UNL A   1      43.186  22.594  25.760  1.00  0.00     0.010 A 
ATOM     40  C   UNL A   1      42.937  22.999  27.081  1.00  0.00    -0.014 A 
BRANCH  40  41
ATOM     41  C   UNL A   1      43.370  24.333  27.572  1.00  0.00     0.031 A 
ATOM     42  C   UNL A   1      44.811  24.740  27.640  1.00  0.00     0.074 A 
ATOM     43  C   UNL A   1      42.411  25.210  27.927  1.00  0.00     0.049 A 
ATOM     44  N   UNL A   1      45.318  25.921  27.897  1.00  0.00    -0.248 NA
ATOM     45  C   UNL A   1      45.812  23.693  27.398  1.00  0.00     0.031 C 
ATOM     46  C   UNL A   1      40.978  24.920  27.932  1.00  0.00     0.029 A 
ATOM     47  N   UNL A   1      42.491  26.519  28.330  1.00  0.00    -0.354 N 
ATOM     48  C   UNL A   1      46.696  25.772  27.815  1.00  0.00     0.074 A 
ATOM     49  C   UNL A   1      46.947  24.371  27.539  1.00  0.00     0.031 C 
ATOM     50  C   UNL A   1      40.309  26.027  28.287  1.00  0.00     0.029 A 
ATOM     51  C   UNL A   1      41.266  27.101  28.544  1.00  0.00     0.049 A 
ATOM     52  H   UNL A   1      43.344  26.996  28.454  1.00  0.00     0.167 HD
ATOM     53  C   UNL A   1      47.653  26.725  27.938  1.00  0.00     0.037 A 
ATOM     54  C   UNL A   1      40.942  28.362  28.887  1.00  0.00     0.037 A 
ATOM     55  C   UNL A   1      47.398  28.116  28.227  1.00  0.00     0.049 A 
ATOM     56  C   UNL A   1      42.028  29.387  29.052  1.00  0.00     0.074 A 
ATOM     57  C   UNL A   1      48.306  29.159  28.319  1.00  0.00     0.029 A 
ATOM     58  N   UNL A   1      46.146  28.658  28.485  1.00  0.00    -0.354 N 
ATOM     59  N   UNL A   1      43.320  29.257  28.879  1.00  0.00    -0.248 NA
ATOM     60  C   UNL A   1      41.609  30.739  29.447  1.00  0.00     0.031 C 
ATOM     61  C   UNL A   1      47.613  30.318  28.683  1.00  0.00     0.029 A 
ATOM     62  C   UNL A   1      46.265  30.012  28.767  1.00  0.00     0.049 A 
ATOM     63  H   UNL A   1      45.299  28.157  28.469  1.00  0.00     0.167 HD
ATOM     64  C   UNL A   1      43.865  30.509  29.122  1.00  0.00     0.074 A 
ATOM     65  C   UNL A   1      42.762  31.392  29.437  1.00  0.00     0.031 C 
ATOM     66  C   UNL A   1      45.166  30.887  29.087  1.00  0.00     0.037 A 
BRANCH  53  67
ATOM     67  C   UNL A   1      49.084  26.319  27.734  1.00  0.00     0.064 A 
ATOM     68  C   UNL A   1      49.624  26.189  26.446  1.00  0.00     0.173 A 
ATOM     69  C   UNL A   1      49.955  26.180  28.827  1.00  0.00     0.173 A 
ATOM     70  F   UNL A   1      48.835  26.317  25.368  1.00  0.00    -0.203 F 
ATOM     71  C   UNL A   1      50.979  25.927  26.259  1.00  0.00     0.198 A 
ATOM     72  C   UNL A   1      51.313  25.943  28.636  1.00  0.00     0.198 A 
ATOM     73  F   UNL A   1      49.494  26.312  30.080  1.00  0.00    -0.203 F 
ATOM     74  F   UNL A   1      51.470  25.794  25.019  1.00  0.00    -0.200 F 
ATOM     75  C   UNL A   1      51.825  25.815  27.353  1.00  0.00     0.200 A 
ATOM     76  F   UNL A   1      52.134  25.854  29.693  1.00  0.00    -0.200 F 
ATOM     77  F   UNL A   1      53.133  25.590  27.170  1.00  0.00    -0.200 F 
ENDBRANCH  53  67
BRANCH  54  78
ATOM     78  C   UNL A   1      39.514  28.730  29.039  1.00  0.00     0.064 A 
ATOM     79  C   UNL A   1      38.874  28.631  30.282  1.00  0.00     0.173 A 
ATOM     80  C   UNL A   1      38.768  29.216  27.954  1.00  0.00     0.173 A 
ATOM     81  F   UNL A   1      39.543  28.155  31.342  1.00  0.00    -0.203 F 
ATOM     82  C   UNL A   1      37.539  28.995  30.433  1.00  0.00     0.198 A 
ATOM     83  C   UNL A   1      37.440  29.605  28.112  1.00  0.00     0.198 A 
ATOM     84  F   UNL A   1      39.338  29.333  26.746  1.00  0.00    -0.203 F 
ATOM     85  F   UNL A   1      36.941  28.860  31.624  1.00  0.00    -0.200 F 
ATOM     86  C   UNL A   1      36.825  29.490  29.351  1.00  0.00     0.200 A 
ATOM     87  F   UNL A   1      36.758  30.095  27.069  1.00  0.00    -0.200 F 
ATOM     88  F   UNL A   1      35.544  29.850  29.500  1.00  0.00    -0.200 F 
ENDBRANCH  54  78
BRANCH  66  89
ATOM     89  C   UNL A   1      45.478  32.324  29.395  1.00  0.00     0.064 A 
ATOM     90  C   UNL A   1      45.802  32.739  30.695  1.00  0.00     0.173 A 
ATOM     91  C   UNL A   1      45.509  33.284  28.372  1.00  0.00     0.173 A 
ATOM     92  F   UNL A   1      45.772  31.863  31.710  1.00  0.00    -0.203 F 
ATOM     93  C   UNL A   1      46.131  34.066  30.962  1.00  0.00     0.198 A 
ATOM     94  C   UNL A   1      45.866  34.604  28.639  1.00  0.00     0.198 A 
ATOM     95  F   UNL A   1      45.213  32.939  27.111  1.00  0.00    -0.203 F 
ATOM     96  F   UNL A   1      46.401  34.447  32.218  1.00  0.00    -0.200 F 
ATOM     97  C   UNL A   1      46.171  34.994  29.933  1.00  0.00     0.200 A 
ATOM     98  F   UNL A   1      45.917  35.497  27.641  1.00  0.00    -0.200 F 
ATOM     99  F   UNL A   1      46.501  36.268  30.190  1.00  0.00    -0.200 F 
ENDBRANCH  66  89
ENDBRANCH  40  41
ENDBRANCH  33  35
ENDBRANCH  32  33
ENDBRANCH  31  32
ENDBRANCH  30  31
ENDBRANCH  29  30
ENDBRANCH  28  29
ENDBRANCH   1  28
TORSDOF 20
ENDMDL
MODEL 3
REMARK VINA RESULT:     -11.0      5.003     10.189
REMARK SMILES CC(=O)N[C@@H](Cc1c(C)[nH]c2ccccc2c1=O)C(=O)OCCOCCOCCOC(=O)c1ccc(-c2c3nc(c(-c4c(F)c(F)c(F)c(F)c4F)c4ccc([nH]4)c(-c4c(F)c(F)c(F)c(F)c4F)c4nc(c(-c5c(F)c(F)c(F)c(F)c5F)c5ccc2[nH]5)C=C4)C=C3)cc1
REMARK SMILES IDX 25 1 24 2 23 3 22 4 21 5 19 6 20 7 5 8 4 9 1 10 2 11 3 12
REMARK SMILES IDX 6 14 7 15 8 16 17 17 9 18 10 19 16 20 18 21 11 22 15 24
REMARK SMILES IDX 12 25 14 26 13 27 26 28 27 29 28 30 29 31 30 32 31 33 32 34
REMARK SMILES IDX 33 35 34 36 95 37 35 38 94 39 36 40 37 41 38 42 88 43 39 44
REMARK SMILES IDX 93 45 87 46 89 47 40 48 92 49 86 50 85 51 41 53 73 54 53 55
REMARK SMILES IDX 72 56 54 57 57 58 71 59 90 60 55 61 56 62 70 64 91 65 58 66
REMARK SMILES IDX 42 67 43 68 51 69 44 70 45 71 49 72 52 73 46 74 47 75 50 76
REMARK SMILES IDX 48 77 74 78 75 79 83 80 76 81 77 82 81 83 84 84 78 85 79 86
REMARK SMILES IDX 82 87 80 88 59 89 60 90 68 91 61 92 62 93 66 94 69 95 63 96
REMARK SMILES IDX 64 97 67 98 65 99
REMARK H PARENT 4 13 10 23 89 52 57 63
REMARK Flexibility Score: inf
ROOT
ATOM      1  C   UNL A   1      34.526  30.656  27.392  1.00  0.00     0.188 C 
ENDROOT
BRANCH   1   2
ATOM      2  O   UNL A   1      33.248  30.037  27.232  1.00  0.00    -0.376 OA
BRANCH   2   3
ATOM      3  C   UNL A   1      33.151  28.640  27.492  1.00  0.00     0.202 C 
BRANCH   3   4
ATOM      4  C   UNL A   1      32.504  27.835  26.369  1.00  0.00     0.261 C 
BRANCH   4   5
ATOM      5  O   UNL A   1      31.271  27.237  26.805  1.00  0.00    -0.462 OA
BRANCH   5   6
ATOM      6  C   UNL A   1      30.938  26.047  26.261  1.00  0.00     0.329 C 
ATOM      7  O   UNL A   1      29.890  25.453  26.498  1.00  0.00    -0.250 OA
BRANCH   6   8
ATOM      8  C   UNL A   1      32.041  25.437  25.367  1.00  0.00     0.196 C 
BRANCH   8   9
ATOM      9  N   UNL A   1      32.622  24.132  25.693  1.00  0.00    -0.343 N 
ATOM     10  C   UNL A   1      34.788  24.380  24.552  1.00  0.00     0.114 C 
ATOM     11  C   UNL A   1      33.773  23.541  25.273  1.00  0.00     0.217 C 
ATOM     12  O   UNL A   1      33.981  22.355  25.513  1.00  0.00    -0.275 OA
ATOM     13  H   UNL A   1      32.090  23.592  26.321  1.00  0.00     0.164 HD
ENDBRANCH   8   9
BRANCH   8  14
ATOM     14  C   UNL A   1      31.522  25.434  23.910  1.00  0.00     0.078 C 
BRANCH  14  15
ATOM     15  C   UNL A   1      30.967  26.692  23.247  1.00  0.00     0.022 A 
ATOM     16  C   UNL A   1      31.740  27.560  22.546  1.00  0.00     0.019 A 
ATOM     17  C   UNL A   1      29.504  27.025  23.279  1.00  0.00     0.192 A 
ATOM     18  C   UNL A   1      33.213  27.322  22.297  1.00  0.00     0.064 C 
ATOM     19  N   UNL A   1      31.252  28.735  22.002  1.00  0.00    -0.358 N 
ATOM     20  C   UNL A   1      29.065  28.389  22.953  1.00  0.00     0.046 A 
ATOM     21  O   UNL A   1      28.641  26.186  23.513  1.00  0.00    -0.289 OA
ATOM     22  C   UNL A   1      29.960  29.200  22.256  1.00  0.00     0.049 A 
ATOM     23  H   UNL A   1      31.838  29.264  21.413  1.00  0.00     0.166 HD
ATOM     24  C   UNL A   1      27.775  28.823  23.278  1.00  0.00     0.014 A 
ATOM     25  C   UNL A   1      29.532  30.466  21.854  1.00  0.00     0.027 A 
ATOM     26  C   UNL A   1      27.366  30.095  22.889  1.00  0.00     0.001 A 
ATOM     27  C   UNL A   1      28.240  30.910  22.168  1.00  0.00     0.002 A 
ENDBRANCH  14  15
ENDBRANCH   8  14
ENDBRANCH   6   8
ENDBRANCH   5   6
ENDBRANCH   4   5
ENDBRANCH   3   4
ENDBRANCH   2   3
ENDBRANCH   1   2
BRANCH   1  28
ATOM     28  C   UNL A   1      34.577  32.084  27.964  1.00  0.00     0.188 C 
BRANCH  28  29
ATOM     29  O   UNL A   1      34.600  32.063  29.386  1.00  0.00    -0.376 OA
BRANCH  29  30
ATOM     30  C   UNL A   1      34.421  33.324  29.999  1.00  0.00     0.202 C 
BRANCH  30  31
ATOM     31  C   UNL A   1      34.707  33.253  31.501  1.00  0.00     0.261 C 
BRANCH  31  32
ATOM     32  O   UNL A   1      35.195  31.974  31.950  1.00  0.00    -0.460 OA
BRANCH  32  33
ATOM     33  C   UNL A   1      36.284  31.964  32.749  1.00  0.00     0.338 C 
ATOM     34  O   UNL A   1      36.337  32.295  33.921  1.00  0.00    -0.246 OA
BRANCH  33  35
ATOM     35  C   UNL A   1      37.389  31.318  31.998  1.00  0.00     0.060 A 
ATOM     36  C   UNL A   1      37.525  31.520  30.620  1.00  0.00     0.016 A 
ATOM     37  C   UNL A   1      38.273  30.463  32.670  1.00  0.00     0.016 A 
ATOM     38  C   UNL A   1      38.556  30.885  29.922  1.00  0.00     0.010 A 
ATOM     39  C   UNL A   1      39.301  29.820  31.967  1.00  0.00     0.010 A 
ATOM     40  C   UNL A   1      39.462  30.041  30.590  1.00  0.00    -0.014 A 
BRANCH  40  41
ATOM     41  C   UNL A   1      40.668  29.558  29.868  1.00  0.00     0.031 A 
ATOM     42  C   UNL A   1      40.773  28.170  29.311  1.00  0.00     0.074 A 
ATOM     43  C   UNL A   1      41.678  30.430  29.684  1.00  0.00     0.049 A 
ATOM     44  N   UNL A   1      41.697  27.669  28.527  1.00  0.00    -0.248 NA
ATOM     45  C   UNL A   1      39.718  27.220  29.682  1.00  0.00     0.031 C 
ATOM     46  C   UNL A   1      41.704  31.797  30.204  1.00  0.00     0.029 A 
ATOM     47  N   UNL A   1      42.860  30.308  28.997  1.00  0.00    -0.354 N 
ATOM     48  C   UNL A   1      41.321  26.356  28.282  1.00  0.00     0.074 A 
ATOM     49  C   UNL A   1      40.111  26.120  29.046  1.00  0.00     0.031 C 
ATOM     50  C   UNL A   1      42.829  32.400  29.792  1.00  0.00     0.029 A 
ATOM     51  C   UNL A   1      43.607  31.460  28.988  1.00  0.00     0.049 A 
ATOM     52  H   UNL A   1      43.145  29.476  28.555  1.00  0.00     0.167 HD
ATOM     53  C   UNL A   1      41.920  25.446  27.475  1.00  0.00     0.037 A 
ATOM     54  C   UNL A   1      44.777  31.741  28.384  1.00  0.00     0.037 A 
ATOM     55  C   UNL A   1      43.133  25.682  26.727  1.00  0.00     0.049 A 
ATOM     56  C   UNL A   1      45.437  30.700  27.526  1.00  0.00     0.074 A 
ATOM     57  C   UNL A   1      43.782  24.831  25.846  1.00  0.00     0.029 A 
ATOM     58  N   UNL A   1      43.887  26.845  26.781  1.00  0.00    -0.354 N 
ATOM     59  N   UNL A   1      45.022  29.494  27.225  1.00  0.00    -0.248 NA
ATOM     60  C   UNL A   1      46.721  31.064  26.912  1.00  0.00     0.031 C 
ATOM     61  C   UNL A   1      44.953  25.458  25.409  1.00  0.00     0.029 A 
ATOM     62  C   UNL A   1      45.010  26.721  25.975  1.00  0.00     0.049 A 
ATOM     63  H   UNL A   1      43.659  27.642  27.312  1.00  0.00     0.167 HD
ATOM     64  C   UNL A   1      45.981  28.963  26.374  1.00  0.00     0.074 A 
ATOM     65  C   UNL A   1      46.990  29.985  26.189  1.00  0.00     0.031 C 
ATOM     66  C   UNL A   1      46.016  27.737  25.799  1.00  0.00     0.037 A 
BRANCH  53  67
ATOM     67  C   UNL A   1      41.271  24.101  27.321  1.00  0.00     0.064 A 
ATOM     68  C   UNL A   1      40.110  23.942  26.551  1.00  0.00     0.173 A 
ATOM     69  C   UNL A   1      41.877  22.946  27.841  1.00  0.00     0.173 A 
ATOM     70  F   UNL A   1      39.494  25.014  26.028  1.00  0.00    -0.203 F 
ATOM     71  C   UNL A   1      39.575  22.678  26.313  1.00  0.00     0.198 A 
ATOM     72  C   UNL A   1      41.353  21.683  27.580  1.00  0.00     0.198 A 
ATOM     73  F   UNL A   1      42.999  23.041  28.570  1.00  0.00    -0.203 F 
ATOM     74  F   UNL A   1      38.457  22.551  25.584  1.00  0.00    -0.200 F 
ATOM     75  C   UNL A   1      40.203  21.549  26.817  1.00  0.00     0.200 A 
ATOM     76  F   UNL A   1      41.971  20.590  28.052  1.00  0.00    -0.200 F 
ATOM     77  F   UNL A   1      39.701  20.332  26.565  1.00  0.00    -0.200 F 
ENDBRANCH  53  67
BRANCH  54  78
ATOM     78  C   UNL A   1      45.364  33.096  28.530  1.00  0.00     0.064 A 
ATOM     79  C   UNL A   1      45.052  34.115  27.620  1.00  0.00     0.173 A 
ATOM     80  C   UNL A   1      46.221  33.407  29.595  1.00  0.00     0.173 A 
ATOM     81  F   UNL A   1      44.251  33.858  26.576  1.00  0.00    -0.203 F 
ATOM     82  C   UNL A   1      45.586  35.393  27.764  1.00  0.00     0.198 A 
ATOM     83  C   UNL A   1      46.733  34.692  29.754  1.00  0.00     0.198 A 
ATOM     84  F   UNL A   1      46.545  32.466  30.494  1.00  0.00    -0.203 F 
ATOM     85  F   UNL A   1      45.299  36.342  26.863  1.00  0.00    -0.200 F 
ATOM     86  C   UNL A   1      46.418  35.684  28.835  1.00  0.00     0.200 A 
ATOM     87  F   UNL A   1      47.526  34.973  30.796  1.00  0.00    -0.200 F 
ATOM     88  F   UNL A   1      46.921  36.917  28.979  1.00  0.00    -0.200 F 
ENDBRANCH  54  78
BRANCH  66  89
ATOM     89  C   UNL A   1      47.184  27.423  24.908  1.00  0.00     0.064 A 
ATOM     90  C   UNL A   1      47.231  27.866  23.579  1.00  0.00     0.173 A 
ATOM     91  C   UNL A   1      48.293  26.719  25.405  1.00  0.00     0.173 A 
ATOM     92  F   UNL A   1      46.191  28.529  23.052  1.00  0.00    -0.203 F 
ATOM     93  C   UNL A   1      48.338  27.605  22.774  1.00  0.00     0.198 A 
ATOM     94  C   UNL A   1      49.409  26.484  24.606  1.00  0.00     0.198 A 
ATOM     95  F   UNL A   1      48.301  26.277  26.671  1.00  0.00    -0.203 F 
ATOM     96  F   UNL A   1      48.344  28.007  21.496  1.00  0.00    -0.200 F 
ATOM     97  C   UNL A   1      49.428  26.922  23.292  1.00  0.00     0.200 A 
ATOM     98  F   UNL A   1      50.468  25.836  25.111  1.00  0.00    -0.200 F 
ATOM     99  F   UNL A   1      50.498  26.683  22.519  1.00  0.00    -0.200 F 
ENDBRANCH  66  89
ENDBRANCH  40  41
ENDBRANCH  33  35
ENDBRANCH  32  33
ENDBRANCH  31  32
ENDBRANCH  30  31
ENDBRANCH  29  30
ENDBRANCH  28  29
ENDBRANCH   1  28
TORSDOF 20
ENDMDL
