MODEL 1
REMARK VINA RESULT:      -8.1      0.000      0.000
REMARK SMILES O=C(Cn1nc(-c2ccc(Br)cc2)ccc1=O)N[C@H](C(=O)OCCOCCOCCOC(=O)c1ccc(-c2c3nc(c(-c4c(F)c(F)c(F)c(F)c4F)c4ccc([nH]4)c(-c4c(F)c(F)c(F)c(F)c4F)c4nc(c(-c5c(F)c(F)c(F)c(F)c5F)c5ccc2[nH]5)C=C4)C=C3)cc1)c1ccccc1
REMARK SMILES IDX 26 1 25 2 24 3 23 4 22 5 20 6 21 7 19 8 18 9 1 10 2 11 3 13
REMARK SMILES IDX 4 14 5 15 16 16 6 17 15 18 17 19 14 20 7 21 8 22 13 23 9 24
REMARK SMILES IDX 12 25 10 26 11 27 97 28 98 29 102 30 99 31 101 32 100 33
REMARK SMILES IDX 27 34 28 35 29 36 30 37 31 38 32 39 33 40 34 41 35 42 96 43
REMARK SMILES IDX 36 44 95 45 37 46 38 47 39 48 89 49 40 50 94 51 88 52 90 53
REMARK SMILES IDX 41 54 93 55 87 56 86 57 42 59 74 60 54 61 73 62 55 63 58 64
REMARK SMILES IDX 72 65 91 66 56 67 57 68 71 70 92 71 59 72 43 73 44 74 52 75
REMARK SMILES IDX 45 76 46 77 50 78 53 79 47 80 48 81 51 82 49 83 75 84 76 85
REMARK SMILES IDX 84 86 77 87 78 88 82 89 85 90 79 91 80 92 83 93 81 94 60 95
REMARK SMILES IDX 61 96 69 97 62 98 63 99 67 100 70 101 64 102 65 103 68 104
REMARK SMILES IDX 66 105
REMARK H PARENT 18 12 90 58 58 69
REMARK Flexibility Score: inf
ROOT
ATOM      1  C   UNL A   1      38.095  29.928  28.487  1.00  0.00     0.188 C 
ENDROOT
BRANCH   1   2
ATOM      2  O   UNL A   1      38.292  28.589  28.896  1.00  0.00    -0.376 OA
BRANCH   2   3
ATOM      3  C   UNL A   1      38.985  27.733  28.004  1.00  0.00     0.202 C 
BRANCH   3   4
ATOM      4  C   UNL A   1      40.179  28.343  27.257  1.00  0.00     0.261 C 
BRANCH   4   5
ATOM      5  O   UNL A   1      40.960  27.445  26.456  1.00  0.00    -0.461 OA
BRANCH   5   6
ATOM      6  C   UNL A   1      42.113  27.936  25.898  1.00  0.00     0.333 C 
ATOM      7  O   UNL A   1      42.250  28.140  24.699  1.00  0.00    -0.249 OA
BRANCH   6   8
ATOM      8  C   UNL A   1      43.053  28.415  27.041  1.00  0.00     0.223 C 
BRANCH   8   9
ATOM      9  N   UNL A   1      43.649  27.303  27.765  1.00  0.00    -0.337 N 
ATOM     10  O   UNL A   1      42.396  27.637  29.652  1.00  0.00    -0.273 OA
ATOM     11  C   UNL A   1      43.257  26.998  29.052  1.00  0.00     0.242 C 
ATOM     12  H   UNL A   1      44.344  26.759  27.329  1.00  0.00     0.164 HD
BRANCH  11  13
ATOM     13  C   UNL A   1      43.951  25.784  29.646  1.00  0.00     0.248 C 
BRANCH  13  14
ATOM     14  N   UNL A   1      43.740  24.688  28.718  1.00  0.00    -0.220 N 
ATOM     15  N   UNL A   1      42.439  24.441  28.372  1.00  0.00    -0.169 NA
ATOM     16  C   UNL A   1      44.832  24.059  28.142  1.00  0.00     0.267 A 
ATOM     17  C   UNL A   1      42.220  23.542  27.472  1.00  0.00     0.091 A 
ATOM     18  C   UNL A   1      44.526  23.012  27.144  1.00  0.00     0.075 A 
ATOM     19  O   UNL A   1      46.003  24.357  28.373  1.00  0.00    -0.268 OA
ATOM     20  C   UNL A   1      43.264  22.748  26.797  1.00  0.00     0.036 A 
BRANCH  17  21
ATOM     21  C   UNL A   1      40.829  23.282  27.069  1.00  0.00     0.002 A 
ATOM     22  C   UNL A   1      40.508  22.046  26.498  1.00  0.00     0.011 A 
ATOM     23  C   UNL A   1      39.877  24.299  27.167  1.00  0.00     0.011 A 
ATOM     24  C   UNL A   1      39.211  21.820  26.036  1.00  0.00     0.016 A 
ATOM     25  C   UNL A   1      38.585  24.072  26.693  1.00  0.00     0.016 A 
ATOM     26  C   UNL A   1      38.258  22.835  26.132  1.00  0.00     0.018 A 
ATOM     27  Br  UNL A   1      36.511  22.543  25.474  1.00  0.00    -0.051 Br
ENDBRANCH  17  21
ENDBRANCH  13  14
ENDBRANCH  11  13
ENDBRANCH   8   9
BRANCH   8  28
ATOM     28  C   UNL A   1      43.943  29.610  26.738  1.00  0.00    -0.014 A 
ATOM     29  C   UNL A   1      43.409  30.910  26.853  1.00  0.00     0.006 A 
ATOM     30  C   UNL A   1      45.318  29.489  26.492  1.00  0.00     0.006 A 
ATOM     31  C   UNL A   1      44.206  32.040  26.673  1.00  0.00     0.000 A 
ATOM     32  C   UNL A   1      46.116  30.626  26.320  1.00  0.00     0.000 A 
ATOM     33  C   UNL A   1      45.559  31.899  26.400  1.00  0.00     0.000 A 
ENDBRANCH   8  28
ENDBRANCH   6   8
ENDBRANCH   5   6
ENDBRANCH   4   5
ENDBRANCH   3   4
ENDBRANCH   2   3
ENDBRANCH   1   2
BRANCH   1  34
ATOM     34  C   UNL A   1      36.811  30.565  29.059  1.00  0.00     0.188 C 
BRANCH  34  35
ATOM     35  O   UNL A   1      36.894  31.612  30.013  1.00  0.00    -0.376 OA
BRANCH  35  36
ATOM     36  C   UNL A   1      36.078  31.555  31.173  1.00  0.00     0.202 C 
BRANCH  36  37
ATOM     37  C   UNL A   1      36.743  31.264  32.529  1.00  0.00     0.261 C 
BRANCH  37  38
ATOM     38  O   UNL A   1      37.724  30.209  32.529  1.00  0.00    -0.460 OA
BRANCH  38  39
ATOM     39  C   UNL A   1      38.755  30.348  33.408  1.00  0.00     0.338 C 
ATOM     40  O   UNL A   1      38.756  30.079  34.588  1.00  0.00    -0.246 OA
BRANCH  39  41
ATOM     41  C   UNL A   1      39.988  30.715  32.664  1.00  0.00     0.060 A 
ATOM     42  C   UNL A   1      40.132  30.412  31.311  1.00  0.00     0.016 A 
ATOM     43  C   UNL A   1      41.010  31.398  33.343  1.00  0.00     0.016 A 
ATOM     44  C   UNL A   1      41.287  30.822  30.631  1.00  0.00     0.010 A 
ATOM     45  C   UNL A   1      42.171  31.791  32.667  1.00  0.00     0.010 A 
ATOM     46  C   UNL A   1      42.307  31.530  31.298  1.00  0.00    -0.014 A 
BRANCH  46  47
ATOM     47  C   UNL A   1      43.411  32.139  30.507  1.00  0.00     0.031 A 
ATOM     48  C   UNL A   1      43.326  33.525  29.942  1.00  0.00     0.074 A 
ATOM     49  C   UNL A   1      44.530  31.413  30.325  1.00  0.00     0.049 A 
ATOM     50  N   UNL A   1      44.256  34.226  29.339  1.00  0.00    -0.248 NA
ATOM     51  C   UNL A   1      42.033  34.208  30.051  1.00  0.00     0.031 C 
ATOM     52  C   UNL A   1      44.715  30.039  30.791  1.00  0.00     0.029 A 
ATOM     53  N   UNL A   1      45.724  31.730  29.729  1.00  0.00    -0.354 N 
ATOM     54  C   UNL A   1      43.668  35.440  29.012  1.00  0.00     0.074 A 
ATOM     55  C   UNL A   1      42.285  35.361  29.440  1.00  0.00     0.031 C 
ATOM     56  C   UNL A   1      45.968  29.648  30.512  1.00  0.00     0.029 A 
ATOM     57  C   UNL A   1      46.665  30.734  29.827  1.00  0.00     0.049 A 
ATOM     58  H   UNL A   1      45.891  32.588  29.276  1.00  0.00     0.167 HD
ATOM     59  C   UNL A   1      44.239  36.525  28.432  1.00  0.00     0.037 A 
ATOM     60  C   UNL A   1      47.953  30.703  29.431  1.00  0.00     0.037 A 
ATOM     61  C   UNL A   1      45.622  36.603  28.028  1.00  0.00     0.049 A 
ATOM     62  C   UNL A   1      48.561  31.918  28.787  1.00  0.00     0.074 A 
ATOM     63  C   UNL A   1      46.303  37.685  27.494  1.00  0.00     0.029 A 
ATOM     64  N   UNL A   1      46.535  35.561  28.110  1.00  0.00    -0.354 N 
ATOM     65  N   UNL A   1      48.020  33.089  28.560  1.00  0.00    -0.248 NA
ATOM     66  C   UNL A   1      49.961  31.810  28.353  1.00  0.00     0.031 C 
ATOM     67  C   UNL A   1      47.610  37.284  27.205  1.00  0.00     0.029 A 
ATOM     68  C   UNL A   1      47.763  35.968  27.610  1.00  0.00     0.049 A 
ATOM     69  H   UNL A   1      46.340  34.666  28.469  1.00  0.00     0.167 HD
ATOM     70  C   UNL A   1      49.013  33.862  27.976  1.00  0.00     0.074 A 
ATOM     71  C   UNL A   1      50.199  33.034  27.900  1.00  0.00     0.031 C 
ATOM     72  C   UNL A   1      48.943  35.142  27.539  1.00  0.00     0.037 A 
BRANCH  59  73
ATOM     73  C   UNL A   1      43.389  37.747  28.215  1.00  0.00     0.064 A 
ATOM     74  C   UNL A   1      42.559  37.867  27.091  1.00  0.00     0.173 A 
ATOM     75  C   UNL A   1      43.314  38.752  29.194  1.00  0.00     0.173 A 
ATOM     76  F   UNL A   1      42.589  36.933  26.128  1.00  0.00    -0.203 F 
ATOM     77  C   UNL A   1      41.698  38.952  26.945  1.00  0.00     0.198 A 
ATOM     78  C   UNL A   1      42.430  39.819  29.059  1.00  0.00     0.198 A 
ATOM     79  F   UNL A   1      44.071  38.678  30.298  1.00  0.00    -0.203 F 
ATOM     80  F   UNL A   1      40.932  39.056  25.851  1.00  0.00    -0.200 F 
ATOM     81  C   UNL A   1      41.626  39.922  27.934  1.00  0.00     0.200 A 
ATOM     82  F   UNL A   1      42.344  40.742  30.029  1.00  0.00    -0.200 F 
ATOM     83  F   UNL A   1      40.777  40.951  27.807  1.00  0.00    -0.200 F 
ENDBRANCH  59  73
BRANCH  60  84
ATOM     84  C   UNL A   1      48.763  29.486  29.692  1.00  0.00     0.064 A 
ATOM     85  C   UNL A   1      49.453  29.328  30.902  1.00  0.00     0.173 A 
ATOM     86  C   UNL A   1      48.834  28.441  28.758  1.00  0.00     0.173 A 
ATOM     87  F   UNL A   1      49.429  30.306  31.818  1.00  0.00    -0.203 F 
ATOM     88  C   UNL A   1      50.189  28.175  31.164  1.00  0.00     0.198 A 
ATOM     89  C   UNL A   1      49.546  27.277  29.034  1.00  0.00     0.198 A 
ATOM     90  F   UNL A   1      48.186  28.543  27.589  1.00  0.00    -0.203 F 
ATOM     91  F   UNL A   1      50.866  28.063  32.316  1.00  0.00    -0.200 F 
ATOM     92  C   UNL A   1      50.227  27.147  30.235  1.00  0.00     0.200 A 
ATOM     93  F   UNL A   1      49.565  26.278  28.141  1.00  0.00    -0.200 F 
ATOM     94  F   UNL A   1      50.922  26.031  30.494  1.00  0.00    -0.200 F 
ENDBRANCH  60  84
BRANCH  72  95
ATOM     95  C   UNL A   1      50.179  35.750  26.939  1.00  0.00     0.064 A 
ATOM     96  C   UNL A   1      50.396  35.747  25.555  1.00  0.00     0.173 A 
ATOM     97  C   UNL A   1      51.107  36.427  27.748  1.00  0.00     0.173 A 
ATOM     98  F   UNL A   1      49.548  35.102  24.740  1.00  0.00    -0.203 F 
ATOM     99  C   UNL A   1      51.497  36.395  25.000  1.00  0.00     0.198 A 
ATOM    100  C   UNL A   1      52.191  37.097  27.188  1.00  0.00     0.198 A 
ATOM    101  F   UNL A   1      50.942  36.465  29.078  1.00  0.00    -0.203 F 
ATOM    102  F   UNL A   1      51.697  36.358  23.676  1.00  0.00    -0.200 F 
ATOM    103  C   UNL A   1      52.386  37.080  25.816  1.00  0.00     0.200 A 
ATOM    104  F   UNL A   1      53.039  37.773  27.976  1.00  0.00    -0.200 F 
ATOM    105  F   UNL A   1      53.430  37.725  25.278  1.00  0.00    -0.200 F 
ENDBRANCH  72  95
ENDBRANCH  46  47
ENDBRANCH  39  41
ENDBRANCH  38  39
ENDBRANCH  37  38
ENDBRANCH  36  37
ENDBRANCH  35  36
ENDBRANCH  34  35
ENDBRANCH   1  34
TORSDOF 22
ENDMDL
MODEL 2
REMARK VINA RESULT:      -7.9      3.261      8.257
REMARK SMILES O=C(Cn1nc(-c2ccc(Br)cc2)ccc1=O)N[C@H](C(=O)OCCOCCOCCOC(=O)c1ccc(-c2c3nc(c(-c4c(F)c(F)c(F)c(F)c4F)c4ccc([nH]4)c(-c4c(F)c(F)c(F)c(F)c4F)c4nc(c(-c5c(F)c(F)c(F)c(F)c5F)c5ccc2[nH]5)C=C4)C=C3)cc1)c1ccccc1
REMARK SMILES IDX 26 1 25 2 24 3 23 4 22 5 20 6 21 7 19 8 18 9 1 10 2 11 3 13
REMARK SMILES IDX 4 14 5 15 16 16 6 17 15 18 17 19 14 20 7 21 8 22 13 23 9 24
REMARK SMILES IDX 12 25 10 26 11 27 97 28 98 29 102 30 99 31 101 32 100 33
REMARK SMILES IDX 27 34 28 35 29 36 30 37 31 38 32 39 33 40 34 41 35 42 96 43
REMARK SMILES IDX 36 44 95 45 37 46 38 47 39 48 89 49 40 50 94 51 88 52 90 53
REMARK SMILES IDX 41 54 93 55 87 56 86 57 42 59 74 60 54 61 73 62 55 63 58 64
REMARK SMILES IDX 72 65 91 66 56 67 57 68 71 70 92 71 59 72 43 73 44 74 52 75
REMARK SMILES IDX 45 76 46 77 50 78 53 79 47 80 48 81 51 82 49 83 75 84 76 85
REMARK SMILES IDX 84 86 77 87 78 88 82 89 85 90 79 91 80 92 83 93 81 94 60 95
REMARK SMILES IDX 61 96 69 97 62 98 63 99 67 100 70 101 64 102 65 103 68 104
REMARK SMILES IDX 66 105
REMARK H PARENT 18 12 90 58 58 69
REMARK Flexibility Score: inf
ROOT
ATOM      1  C   UNL A   1      45.066  19.755  23.846  1.00  0.00     0.188 C 
ENDROOT
BRANCH   1   2
ATOM      2  O   UNL A   1      43.845  19.185  24.273  1.00  0.00    -0.376 OA
BRANCH   2   3
ATOM      3  C   UNL A   1      43.500  19.335  25.639  1.00  0.00     0.202 C 
BRANCH   3   4
ATOM      4  C   UNL A   1      42.991  20.717  26.070  1.00  0.00     0.261 C 
BRANCH   4   5
ATOM      5  O   UNL A   1      41.618  21.013  25.782  1.00  0.00    -0.461 OA
BRANCH   5   6
ATOM      6  C   UNL A   1      40.756  21.116  26.844  1.00  0.00     0.333 C 
ATOM      7  O   UNL A   1      40.690  20.289  27.744  1.00  0.00    -0.249 OA
BRANCH   6   8
ATOM      8  C   UNL A   1      40.120  22.535  26.831  1.00  0.00     0.223 C 
BRANCH   8   9
ATOM      9  N   UNL A   1      41.116  23.583  26.668  1.00  0.00    -0.337 N 
ATOM     10  O   UNL A   1      41.833  23.479  28.839  1.00  0.00    -0.273 OA
ATOM     11  C   UNL A   1      41.915  23.979  27.721  1.00  0.00     0.242 C 
ATOM     12  H   UNL A   1      41.222  24.017  25.790  1.00  0.00     0.164 HD
BRANCH  11  13
ATOM     13  C   UNL A   1      42.927  25.056  27.367  1.00  0.00     0.248 C 
BRANCH  13  14
ATOM     14  N   UNL A   1      42.167  26.215  26.933  1.00  0.00    -0.220 N 
ATOM     15  N   UNL A   1      41.239  26.687  27.822  1.00  0.00    -0.169 NA
ATOM     16  C   UNL A   1      42.501  26.846  25.746  1.00  0.00     0.267 A 
ATOM     17  C   UNL A   1      40.617  27.775  27.515  1.00  0.00     0.091 A 
ATOM     18  C   UNL A   1      41.733  28.067  25.423  1.00  0.00     0.075 A 
ATOM     19  O   UNL A   1      43.409  26.482  25.000  1.00  0.00    -0.268 OA
ATOM     20  C   UNL A   1      40.817  28.543  26.270  1.00  0.00     0.036 A 
BRANCH  17  21
ATOM     21  C   UNL A   1      39.636  28.312  28.471  1.00  0.00     0.002 A 
ATOM     22  C   UNL A   1      39.249  27.524  29.560  1.00  0.00     0.011 A 
ATOM     23  C   UNL A   1      39.033  29.548  28.226  1.00  0.00     0.011 A 
ATOM     24  C   UNL A   1      38.259  27.989  30.425  1.00  0.00     0.016 A 
ATOM     25  C   UNL A   1      38.035  30.003  29.087  1.00  0.00     0.016 A 
ATOM     26  C   UNL A   1      37.654  29.224  30.183  1.00  0.00     0.018 A 
ATOM     27  Br  UNL A   1      36.287  29.838  31.334  1.00  0.00    -0.051 Br
ENDBRANCH  17  21
ENDBRANCH  13  14
ENDBRANCH  11  13
ENDBRANCH   8   9
BRANCH   8  28
ATOM     28  C   UNL A   1      38.810  22.691  26.075  1.00  0.00    -0.014 A 
ATOM     29  C   UNL A   1      38.285  21.583  25.378  1.00  0.00     0.006 A 
ATOM     30  C   UNL A   1      38.019  23.845  26.157  1.00  0.00     0.006 A 
ATOM     31  C   UNL A   1      37.045  21.647  24.743  1.00  0.00     0.000 A 
ATOM     32  C   UNL A   1      36.771  23.902  25.526  1.00  0.00     0.000 A 
ATOM     33  C   UNL A   1      36.289  22.809  24.811  1.00  0.00     0.000 A 
ENDBRANCH   8  28
ENDBRANCH   6   8
ENDBRANCH   5   6
ENDBRANCH   4   5
ENDBRANCH   3   4
ENDBRANCH   2   3
ENDBRANCH   1   2
BRANCH   1  34
ATOM     34  C   UNL A   1      46.047  20.049  25.000  1.00  0.00     0.188 C 
BRANCH  34  35
ATOM     35  O   UNL A   1      46.403  21.386  25.316  1.00  0.00    -0.376 OA
BRANCH  35  36
ATOM     36  C   UNL A   1      45.974  22.434  24.461  1.00  0.00     0.202 C 
BRANCH  36  37
ATOM     37  C   UNL A   1      45.390  23.709  25.093  1.00  0.00     0.261 C 
BRANCH  37  38
ATOM     38  O   UNL A   1      46.350  24.718  25.460  1.00  0.00    -0.460 OA
BRANCH  38  39
ATOM     39  C   UNL A   1      46.543  24.905  26.794  1.00  0.00     0.338 C 
ATOM     40  O   UNL A   1      46.837  24.070  27.620  1.00  0.00    -0.246 OA
BRANCH  39  41
ATOM     41  C   UNL A   1      46.525  26.362  27.094  1.00  0.00     0.060 A 
ATOM     42  C   UNL A   1      46.162  27.293  26.122  1.00  0.00     0.016 A 
ATOM     43  C   UNL A   1      46.861  26.790  28.388  1.00  0.00     0.016 A 
ATOM     44  C   UNL A   1      46.106  28.652  26.458  1.00  0.00     0.010 A 
ATOM     45  C   UNL A   1      46.822  28.150  28.716  1.00  0.00     0.010 A 
ATOM     46  C   UNL A   1      46.417  29.091  27.760  1.00  0.00    -0.014 A 
BRANCH  46  47
ATOM     47  C   UNL A   1      46.138  30.502  28.143  1.00  0.00     0.031 A 
ATOM     48  C   UNL A   1      44.958  30.889  28.983  1.00  0.00     0.074 A 
ATOM     49  C   UNL A   1      47.001  31.449  27.732  1.00  0.00     0.049 A 
ATOM     50  N   UNL A   1      44.660  32.059  29.493  1.00  0.00    -0.248 NA
ATOM     51  C   UNL A   1      43.980  29.837  29.279  1.00  0.00     0.031 C 
ATOM     52  C   UNL A   1      48.162  31.201  26.876  1.00  0.00     0.029 A 
ATOM     53  N   UNL A   1      47.058  32.794  27.994  1.00  0.00    -0.354 N 
ATOM     54  C   UNL A   1      43.470  31.883  30.186  1.00  0.00     0.074 A 
ATOM     55  C   UNL A   1      43.075  30.503  29.988  1.00  0.00     0.031 C 
ATOM     56  C   UNL A   1      48.847  32.345  26.727  1.00  0.00     0.029 A 
ATOM     57  C   UNL A   1      48.161  33.411  27.455  1.00  0.00     0.049 A 
ATOM     58  H   UNL A   1      46.374  33.272  28.517  1.00  0.00     0.167 HD
ATOM     59  C   UNL A   1      42.788  32.785  30.934  1.00  0.00     0.037 A 
ATOM     60  C   UNL A   1      48.589  34.684  27.553  1.00  0.00     0.037 A 
ATOM     61  C   UNL A   1      43.199  34.153  31.142  1.00  0.00     0.049 A 
ATOM     62  C   UNL A   1      47.812  35.665  28.387  1.00  0.00     0.074 A 
ATOM     63  C   UNL A   1      42.606  35.119  31.939  1.00  0.00     0.029 A 
ATOM     64  N   UNL A   1      44.303  34.751  30.551  1.00  0.00    -0.354 N 
ATOM     65  N   UNL A   1      46.736  35.467  29.105  1.00  0.00    -0.248 NA
ATOM     66  C   UNL A   1      48.316  37.046  28.430  1.00  0.00     0.031 C 
ATOM     67  C   UNL A   1      43.318  36.312  31.790  1.00  0.00     0.029 A 
ATOM     68  C   UNL A   1      44.390  36.078  30.944  1.00  0.00     0.049 A 
ATOM     69  H   UNL A   1      44.931  34.300  29.943  1.00  0.00     0.167 HD
ATOM     70  C   UNL A   1      46.442  36.686  29.700  1.00  0.00     0.074 A 
ATOM     71  C   UNL A   1      47.467  37.617  29.274  1.00  0.00     0.031 C 
ATOM     72  C   UNL A   1      45.413  37.002  30.521  1.00  0.00     0.037 A 
BRANCH  59  73
ATOM     73  C   UNL A   1      41.529  32.333  31.622  1.00  0.00     0.064 A 
ATOM     74  C   UNL A   1      41.567  31.723  32.884  1.00  0.00     0.173 A 
ATOM     75  C   UNL A   1      40.269  32.615  31.069  1.00  0.00     0.173 A 
ATOM     76  F   UNL A   1      42.745  31.436  33.459  1.00  0.00    -0.203 F 
ATOM     77  C   UNL A   1      40.394  31.399  33.562  1.00  0.00     0.198 A 
ATOM     78  C   UNL A   1      39.099  32.317  31.763  1.00  0.00     0.198 A 
ATOM     79  F   UNL A   1      40.173  33.214  29.874  1.00  0.00    -0.203 F 
ATOM     80  F   UNL A   1      40.456  30.797  34.757  1.00  0.00    -0.200 F 
ATOM     81  C   UNL A   1      39.161  31.707  33.006  1.00  0.00     0.200 A 
ATOM     82  F   UNL A   1      37.908  32.638  31.235  1.00  0.00    -0.200 F 
ATOM     83  F   UNL A   1      38.033  31.420  33.671  1.00  0.00    -0.200 F 
ENDBRANCH  59  73
BRANCH  60  84
ATOM     84  C   UNL A   1      49.853  35.079  26.881  1.00  0.00     0.064 A 
ATOM     85  C   UNL A   1      49.844  35.594  25.578  1.00  0.00     0.173 A 
ATOM     86  C   UNL A   1      51.090  34.986  27.539  1.00  0.00     0.173 A 
ATOM     87  F   UNL A   1      48.690  35.686  24.903  1.00  0.00    -0.203 F 
ATOM     88  C   UNL A   1      51.023  35.995  24.955  1.00  0.00     0.198 A 
ATOM     89  C   UNL A   1      52.264  35.415  26.925  1.00  0.00     0.198 A 
ATOM     90  F   UNL A   1      51.149  34.506  28.789  1.00  0.00    -0.203 F 
ATOM     91  F   UNL A   1      50.991  36.454  23.696  1.00  0.00    -0.200 F 
ATOM     92  C   UNL A   1      52.231  35.914  25.632  1.00  0.00     0.200 A 
ATOM     93  F   UNL A   1      53.425  35.352  27.590  1.00  0.00    -0.200 F 
ATOM     94  F   UNL A   1      53.363  36.314  25.038  1.00  0.00    -0.200 F 
ENDBRANCH  60  84
BRANCH  72  95
ATOM     95  C   UNL A   1      45.327  38.412  31.032  1.00  0.00     0.064 A 
ATOM     96  C   UNL A   1      44.580  39.389  30.359  1.00  0.00     0.173 A 
ATOM     97  C   UNL A   1      45.918  38.766  32.256  1.00  0.00     0.173 A 
ATOM     98  F   UNL A   1      44.007  39.106  29.179  1.00  0.00    -0.203 F 
ATOM     99  C   UNL A   1      44.428  40.667  30.890  1.00  0.00     0.198 A 
ATOM    100  C   UNL A   1      45.741  40.036  32.797  1.00  0.00     0.198 A 
ATOM    101  F   UNL A   1      46.639  37.867  32.943  1.00  0.00    -0.203 F 
ATOM    102  F   UNL A   1      43.728  41.591  30.217  1.00  0.00    -0.200 F 
ATOM    103  C   UNL A   1      44.997  40.986  32.114  1.00  0.00     0.200 A 
ATOM    104  F   UNL A   1      46.278  40.337  33.987  1.00  0.00    -0.200 F 
ATOM    105  F   UNL A   1      44.829  42.209  32.635  1.00  0.00    -0.200 F 
ENDBRANCH  72  95
ENDBRANCH  46  47
ENDBRANCH  39  41
ENDBRANCH  38  39
ENDBRANCH  37  38
ENDBRANCH  36  37
ENDBRANCH  35  36
ENDBRANCH  34  35
ENDBRANCH   1  34
TORSDOF 22
ENDMDL
MODEL 3
REMARK VINA RESULT:      -7.8      4.005      8.837
REMARK SMILES O=C(Cn1nc(-c2ccc(Br)cc2)ccc1=O)N[C@H](C(=O)OCCOCCOCCOC(=O)c1ccc(-c2c3nc(c(-c4c(F)c(F)c(F)c(F)c4F)c4ccc([nH]4)c(-c4c(F)c(F)c(F)c(F)c4F)c4nc(c(-c5c(F)c(F)c(F)c(F)c5F)c5ccc2[nH]5)C=C4)C=C3)cc1)c1ccccc1
REMARK SMILES IDX 26 1 25 2 24 3 23 4 22 5 20 6 21 7 19 8 18 9 1 10 2 11 3 13
REMARK SMILES IDX 4 14 5 15 16 16 6 17 15 18 17 19 14 20 7 21 8 22 13 23 9 24
REMARK SMILES IDX 12 25 10 26 11 27 97 28 98 29 102 30 99 31 101 32 100 33
REMARK SMILES IDX 27 34 28 35 29 36 30 37 31 38 32 39 33 40 34 41 35 42 96 43
REMARK SMILES IDX 36 44 95 45 37 46 38 47 39 48 89 49 40 50 94 51 88 52 90 53
REMARK SMILES IDX 41 54 93 55 87 56 86 57 42 59 74 60 54 61 73 62 55 63 58 64
REMARK SMILES IDX 72 65 91 66 56 67 57 68 71 70 92 71 59 72 43 73 44 74 52 75
REMARK SMILES IDX 45 76 46 77 50 78 53 79 47 80 48 81 51 82 49 83 75 84 76 85
REMARK SMILES IDX 84 86 77 87 78 88 82 89 85 90 79 91 80 92 83 93 81 94 60 95
REMARK SMILES IDX 61 96 69 97 62 98 63 99 67 100 70 101 64 102 65 103 68 104
REMARK SMILES IDX 66 105
REMARK H PARENT 18 12 90 58 58 69
REMARK Flexibility Score: inf
ROOT
ATOM      1  C   UNL A   1      44.883  19.707  24.167  1.00  0.00     0.188 C 
ENDROOT
BRANCH   1   2
ATOM      2  O   UNL A   1      43.521  19.670  24.544  1.00  0.00    -0.376 OA
BRANCH   2   3
ATOM      3  C   UNL A   1      43.197  20.104  25.854  1.00  0.00     0.202 C 
BRANCH   3   4
ATOM      4  C   UNL A   1      42.586  21.506  25.981  1.00  0.00     0.261 C 
BRANCH   4   5
ATOM      5  O   UNL A   1      41.171  21.609  25.778  1.00  0.00    -0.461 OA
BRANCH   5   6
ATOM      6  C   UNL A   1      40.408  22.022  26.840  1.00  0.00     0.333 C 
ATOM      7  O   UNL A   1      40.416  21.470  27.933  1.00  0.00    -0.249 OA
BRANCH   6   8
ATOM      8  C   UNL A   1      39.784  23.404  26.496  1.00  0.00     0.223 C 
BRANCH   8   9
ATOM      9  N   UNL A   1      38.361  23.455  26.793  1.00  0.00    -0.337 N 
ATOM     10  O   UNL A   1      37.759  22.230  24.955  1.00  0.00    -0.273 OA
ATOM     11  C   UNL A   1      37.438  22.843  25.970  1.00  0.00     0.242 C 
ATOM     12  H   UNL A   1      38.051  23.934  27.596  1.00  0.00     0.164 HD
BRANCH  11  13
ATOM     13  C   UNL A   1      36.000  22.959  26.448  1.00  0.00     0.248 C 
BRANCH  13  14
ATOM     14  N   UNL A   1      35.166  22.405  25.397  1.00  0.00    -0.220 N 
ATOM     15  N   UNL A   1      34.888  21.068  25.499  1.00  0.00    -0.169 NA
ATOM     16  C   UNL A   1      34.600  23.249  24.455  1.00  0.00     0.267 A 
ATOM     17  C   UNL A   1      34.067  20.562  24.641  1.00  0.00     0.091 A 
ATOM     18  C   UNL A   1      33.697  22.613  23.473  1.00  0.00     0.075 A 
ATOM     19  O   UNL A   1      34.766  24.468  24.431  1.00  0.00    -0.268 OA
ATOM     20  C   UNL A   1      33.416  21.310  23.547  1.00  0.00     0.036 A 
BRANCH  17  21
ATOM     21  C   UNL A   1      33.735  19.133  24.752  1.00  0.00     0.002 A 
ATOM     22  C   UNL A   1      32.736  18.737  25.647  1.00  0.00     0.011 A 
ATOM     23  C   UNL A   1      34.483  18.190  24.044  1.00  0.00     0.011 A 
ATOM     24  C   UNL A   1      32.470  17.378  25.820  1.00  0.00     0.016 A 
ATOM     25  C   UNL A   1      34.222  16.833  24.230  1.00  0.00     0.016 A 
ATOM     26  C   UNL A   1      33.217  16.433  25.115  1.00  0.00     0.018 A 
ATOM     27  Br  UNL A   1      32.884  14.592  25.377  1.00  0.00    -0.051 Br
ENDBRANCH  17  21
ENDBRANCH  13  14
ENDBRANCH  11  13
ENDBRANCH   8   9
BRANCH   8  28
ATOM     28  C   UNL A   1      40.613  24.633  26.836  1.00  0.00    -0.014 A 
ATOM     29  C   UNL A   1      41.889  24.782  26.253  1.00  0.00     0.006 A 
ATOM     30  C   UNL A   1      40.112  25.703  27.589  1.00  0.00     0.006 A 
ATOM     31  C   UNL A   1      42.652  25.930  26.462  1.00  0.00     0.000 A 
ATOM     32  C   UNL A   1      40.876  26.858  27.789  1.00  0.00     0.000 A 
ATOM     33  C   UNL A   1      42.149  26.967  27.235  1.00  0.00     0.000 A 
ENDBRANCH   8  28
ENDBRANCH   6   8
ENDBRANCH   5   6
ENDBRANCH   4   5
ENDBRANCH   3   4
ENDBRANCH   2   3
ENDBRANCH   1   2
BRANCH   1  34
ATOM     34  C   UNL A   1      45.834  20.078  25.324  1.00  0.00     0.188 C 
BRANCH  34  35
ATOM     35  O   UNL A   1      46.238  21.425  25.516  1.00  0.00    -0.376 OA
BRANCH  35  36
ATOM     36  C   UNL A   1      46.039  22.361  24.469  1.00  0.00     0.202 C 
BRANCH  36  37
ATOM     37  C   UNL A   1      45.561  23.778  24.826  1.00  0.00     0.261 C 
BRANCH  37  38
ATOM     38  O   UNL A   1      46.598  24.726  25.140  1.00  0.00    -0.460 OA
BRANCH  38  39
ATOM     39  C   UNL A   1      46.871  24.901  26.462  1.00  0.00     0.338 C 
ATOM     40  O   UNL A   1      47.353  24.096  27.227  1.00  0.00    -0.246 OA
BRANCH  39  41
ATOM     41  C   UNL A   1      46.665  26.329  26.821  1.00  0.00     0.060 A 
ATOM     42  C   UNL A   1      45.942  27.184  25.991  1.00  0.00     0.016 A 
ATOM     43  C   UNL A   1      47.193  26.805  28.031  1.00  0.00     0.016 A 
ATOM     44  C   UNL A   1      45.723  28.510  26.389  1.00  0.00     0.010 A 
ATOM     45  C   UNL A   1      46.990  28.135  28.419  1.00  0.00     0.010 A 
ATOM     46  C   UNL A   1      46.228  28.991  27.614  1.00  0.00    -0.014 A 
BRANCH  46  47
ATOM     47  C   UNL A   1      45.796  30.327  28.108  1.00  0.00     0.031 A 
ATOM     48  C   UNL A   1      44.608  30.507  29.004  1.00  0.00     0.074 A 
ATOM     49  C   UNL A   1      46.527  31.398  27.748  1.00  0.00     0.049 A 
ATOM     50  N   UNL A   1      44.191  31.593  29.608  1.00  0.00    -0.248 NA
ATOM     51  C   UNL A   1      43.773  29.326  29.245  1.00  0.00     0.031 C 
ATOM     52  C   UNL A   1      47.679  31.354  26.847  1.00  0.00     0.029 A 
ATOM     53  N   UNL A   1      46.432  32.719  28.108  1.00  0.00    -0.354 N 
ATOM     54  C   UNL A   1      43.054  31.225  30.315  1.00  0.00     0.074 A 
ATOM     55  C   UNL A   1      42.819  29.825  30.024  1.00  0.00     0.031 C 
ATOM     56  C   UNL A   1      48.217  32.581  26.767  1.00  0.00     0.029 A 
ATOM     57  C   UNL A   1      47.435  33.501  27.590  1.00  0.00     0.049 A 
ATOM     58  H   UNL A   1      45.714  33.071  28.683  1.00  0.00     0.167 HD
ATOM     59  C   UNL A   1      42.295  31.982  31.146  1.00  0.00     0.037 A 
ATOM     60  C   UNL A   1      47.712  34.807  27.773  1.00  0.00     0.037 A 
ATOM     61  C   UNL A   1      42.548  33.371  31.446  1.00  0.00     0.049 A 
ATOM     62  C   UNL A   1      46.853  35.624  28.697  1.00  0.00     0.074 A 
ATOM     63  C   UNL A   1      41.871  34.199  32.328  1.00  0.00     0.029 A 
ATOM     64  N   UNL A   1      43.552  34.140  30.874  1.00  0.00    -0.354 N 
ATOM     65  N   UNL A   1      45.832  35.246  29.425  1.00  0.00    -0.248 NA
ATOM     66  C   UNL A   1      47.190  37.049  28.831  1.00  0.00     0.031 C 
ATOM     67  C   UNL A   1      42.431  35.477  32.251  1.00  0.00     0.029 A 
ATOM     68  C   UNL A   1      43.494  35.436  31.363  1.00  0.00     0.049 A 
ATOM     69  H   UNL A   1      44.209  33.812  30.218  1.00  0.00     0.167 HD
ATOM     70  C   UNL A   1      45.416  36.375  30.117  1.00  0.00     0.074 A 
ATOM     71  C   UNL A   1      46.308  37.452  29.737  1.00  0.00     0.031 C 
ATOM     72  C   UNL A   1      44.385  36.504  30.986  1.00  0.00     0.037 A 
BRANCH  59  73
ATOM     73  C   UNL A   1      41.123  31.333  31.829  1.00  0.00     0.064 A 
ATOM     74  C   UNL A   1      41.258  30.721  33.083  1.00  0.00     0.173 A 
ATOM     75  C   UNL A   1      39.833  31.424  31.281  1.00  0.00     0.173 A 
ATOM     76  F   UNL A   1      42.468  30.611  33.654  1.00  0.00    -0.203 F 
ATOM     77  C   UNL A   1      40.151  30.211  33.758  1.00  0.00     0.198 A 
ATOM     78  C   UNL A   1      38.724  30.941  31.972  1.00  0.00     0.198 A 
ATOM     79  F   UNL A   1      39.643  32.016  30.093  1.00  0.00    -0.203 F 
ATOM     80  F   UNL A   1      40.309  29.611  34.945  1.00  0.00    -0.200 F 
ATOM     81  C   UNL A   1      38.884  30.332  33.207  1.00  0.00     0.200 A 
ATOM     82  F   UNL A   1      37.497  31.081  31.449  1.00  0.00    -0.200 F 
ATOM     83  F   UNL A   1      37.816  29.867  33.870  1.00  0.00    -0.200 F 
ENDBRANCH  59  73
BRANCH  60  84
ATOM     84  C   UNL A   1      48.897  35.399  27.101  1.00  0.00     0.064 A 
ATOM     85  C   UNL A   1      50.121  35.512  27.773  1.00  0.00     0.173 A 
ATOM     86  C   UNL A   1      48.841  35.827  25.766  1.00  0.00     0.173 A 
ATOM     87  F   UNL A   1      50.219  35.133  29.055  1.00  0.00    -0.203 F 
ATOM     88  C   UNL A   1      51.244  36.038  27.138  1.00  0.00     0.198 A 
ATOM     89  C   UNL A   1      49.971  36.325  25.123  1.00  0.00     0.198 A 
ATOM     90  F   UNL A   1      47.694  35.733  25.079  1.00  0.00    -0.203 F 
ATOM     91  F   UNL A   1      52.395  36.165  27.813  1.00  0.00    -0.200 F 
ATOM     92  C   UNL A   1      51.170  36.435  25.811  1.00  0.00     0.200 A 
ATOM     93  F   UNL A   1      49.901  36.690  23.836  1.00  0.00    -0.200 F 
ATOM     94  F   UNL A   1      52.254  36.926  25.196  1.00  0.00    -0.200 F 
ENDBRANCH  60  84
BRANCH  72  95
ATOM     95  C   UNL A   1      44.150  37.854  31.603  1.00  0.00     0.064 A 
ATOM     96  C   UNL A   1      44.643  38.171  32.876  1.00  0.00     0.173 A 
ATOM     97  C   UNL A   1      43.509  38.870  30.875  1.00  0.00     0.173 A 
ATOM     98  F   UNL A   1      45.250  37.232  33.618  1.00  0.00    -0.203 F 
ATOM     99  C   UNL A   1      44.502  39.453  33.400  1.00  0.00     0.198 A 
ATOM    100  C   UNL A   1      43.395  40.158  31.391  1.00  0.00     0.198 A 
ATOM    101  F   UNL A   1      43.024  38.620  29.650  1.00  0.00    -0.203 F 
ATOM    102  F   UNL A   1      44.961  39.727  34.629  1.00  0.00    -0.200 F 
ATOM    103  C   UNL A   1      43.891  40.448  32.652  1.00  0.00     0.200 A 
ATOM    104  F   UNL A   1      42.819  41.122  30.660  1.00  0.00    -0.200 F 
ATOM    105  F   UNL A   1      43.779  41.688  33.148  1.00  0.00    -0.200 F 
ENDBRANCH  72  95
ENDBRANCH  46  47
ENDBRANCH  39  41
ENDBRANCH  38  39
ENDBRANCH  37  38
ENDBRANCH  36  37
ENDBRANCH  35  36
ENDBRANCH  34  35
ENDBRANCH   1  34
TORSDOF 22
ENDMDL
