MODEL 1
REMARK VINA RESULT:     -10.1      0.000      0.000
REMARK SMILES O=C(C[N@@H+](CC(F)(F)F)[C@H]1CCCC[C@H]1O)OCCOCCOCCOC(=O)c1ccc(-c2c3nc(c(-c4c(F)c(F)c(F)c(F)c4F)c4ccc([nH]4)c(-c4c(F)c(F)c(F)c(F)c4F)c4nc(c(-c5c(F)c(F)c(F)c(F)c5F)c5ccc2[nH]5)C=C4)C=C3)cc1
REMARK SMILES IDX 21 1 20 2 19 3 18 4 17 5 2 6 1 7 3 8 4 9 5 11 6 12 7 13 8 14
REMARK SMILES IDX 9 15 10 16 11 17 15 18 12 19 14 20 13 21 16 22 22 24 23 25
REMARK SMILES IDX 24 26 25 27 26 28 27 29 28 30 29 31 30 32 91 33 31 34 90 35
REMARK SMILES IDX 32 36 33 37 34 38 84 39 35 40 89 41 83 42 85 43 36 44 88 45
REMARK SMILES IDX 82 46 81 47 37 49 69 50 49 51 68 52 50 53 53 54 67 55 86 56
REMARK SMILES IDX 51 57 52 58 66 60 87 61 54 62 38 63 39 64 47 65 40 66 41 67
REMARK SMILES IDX 45 68 48 69 42 70 43 71 46 72 44 73 70 74 71 75 79 76 72 77
REMARK SMILES IDX 73 78 77 79 80 80 74 81 75 82 78 83 76 84 55 85 56 86 64 87
REMARK SMILES IDX 57 88 58 89 62 90 65 91 59 92 60 93 63 94 61 95
REMARK H PARENT 4 10 16 23 85 48 53 59
REMARK Flexibility Score: inf
ROOT
ATOM      1  C   UNL A   1      34.454  32.133  28.660  1.00  0.00     0.188 C 
ENDROOT
BRANCH   1   2
ATOM      2  O   UNL A   1      34.156  31.153  27.677  1.00  0.00    -0.376 OA
BRANCH   2   3
ATOM      3  C   UNL A   1      35.092  30.101  27.555  1.00  0.00     0.202 C 
BRANCH   3   4
ATOM      4  C   UNL A   1      34.454  28.922  26.832  1.00  0.00     0.261 C 
BRANCH   4   5
ATOM      5  O   UNL A   1      33.195  29.212  26.184  1.00  0.00    -0.459 OA
BRANCH   5   6
ATOM      6  C   UNL A   1      31.985  28.679  26.447  1.00  0.00     0.361 C 
ATOM      7  O   UNL A   1      31.625  28.541  27.617  1.00  0.00    -0.245 OA
BRANCH   6   8
ATOM      8  C   UNL A   1      31.119  28.135  25.323  1.00  0.00     0.387 C 
BRANCH   8   9
ATOM      9  N   UNL A   1      31.291  28.751  23.970  1.00  0.00    -0.314 N 
ATOM     10  H   UNL A   1      31.953  29.527  23.962  1.00  0.00     0.349 HD
BRANCH   9  11
ATOM     11  C   UNL A   1      31.837  27.681  23.061  1.00  0.00     0.380 C 
BRANCH  11  12
ATOM     12  C   UNL A   1      33.332  27.639  22.667  1.00  0.00     0.438 C 
ATOM     13  F   UNL A   1      34.130  27.506  23.747  1.00  0.00    -0.165 F 
ATOM     14  F   UNL A   1      33.576  26.600  21.839  1.00  0.00    -0.165 F 
ATOM     15  F   UNL A   1      33.699  28.766  22.016  1.00  0.00    -0.165 F 
ENDBRANCH  11  12
ENDBRANCH   9  11
BRANCH   9  16
ATOM     16  C   UNL A   1      29.983  29.341  23.529  1.00  0.00     0.213 C 
ATOM     17  C   UNL A   1      29.860  30.801  24.038  1.00  0.00     0.068 C 
ATOM     18  C   UNL A   1      29.709  29.358  21.993  1.00  0.00     0.172 C 
ATOM     19  C   UNL A   1      28.474  31.374  23.772  1.00  0.00     0.006 C 
ATOM     20  C   UNL A   1      28.317  29.931  21.708  1.00  0.00     0.038 C 
ATOM     21  C   UNL A   1      28.125  31.328  22.294  1.00  0.00     0.003 C 
BRANCH  18  22
ATOM     22  O   UNL A   1      30.676  30.136  21.288  1.00  0.00    -0.387 OA
ATOM     23  H   UNL A   1      30.468  31.079  21.387  1.00  0.00     0.211 HD
ENDBRANCH  18  22
ENDBRANCH   9  16
ENDBRANCH   8   9
ENDBRANCH   6   8
ENDBRANCH   5   6
ENDBRANCH   4   5
ENDBRANCH   3   4
ENDBRANCH   2   3
ENDBRANCH   1   2
BRANCH   1  24
ATOM     24  C   UNL A   1      34.884  33.458  28.025  1.00  0.00     0.188 C 
BRANCH  24  25
ATOM     25  O   UNL A   1      34.997  34.628  28.826  1.00  0.00    -0.376 OA
BRANCH  25  26
ATOM     26  C   UNL A   1      34.247  35.785  28.491  1.00  0.00     0.202 C 
BRANCH  26  27
ATOM     27  C   UNL A   1      32.913  35.960  29.227  1.00  0.00     0.261 C 
BRANCH  27  28
ATOM     28  O   UNL A   1      32.687  35.032  30.309  1.00  0.00    -0.460 OA
BRANCH  28  29
ATOM     29  C   UNL A   1      32.727  35.566  31.556  1.00  0.00     0.338 C 
ATOM     30  O   UNL A   1      31.933  36.351  32.042  1.00  0.00    -0.246 OA
BRANCH  29  31
ATOM     31  C   UNL A   1      33.830  34.979  32.357  1.00  0.00     0.060 A 
ATOM     32  C   UNL A   1      35.067  35.640  32.358  1.00  0.00     0.016 A 
ATOM     33  C   UNL A   1      33.708  33.735  32.981  1.00  0.00     0.016 A 
ATOM     34  C   UNL A   1      36.198  35.030  32.909  1.00  0.00     0.010 A 
ATOM     35  C   UNL A   1      34.847  33.116  33.521  1.00  0.00     0.010 A 
ATOM     36  C   UNL A   1      36.110  33.736  33.441  1.00  0.00    -0.014 A 
BRANCH  36  37
ATOM     37  C   UNL A   1      37.354  32.951  33.683  1.00  0.00     0.031 A 
ATOM     38  C   UNL A   1      38.123  33.198  34.958  1.00  0.00     0.074 A 
ATOM     39  C   UNL A   1      37.791  32.011  32.825  1.00  0.00     0.049 A 
ATOM     40  N   UNL A   1      39.245  32.665  35.377  1.00  0.00    -0.248 NA
ATOM     41  C   UNL A   1      37.543  34.181  35.886  1.00  0.00     0.031 C 
ATOM     42  C   UNL A   1      37.130  31.622  31.584  1.00  0.00     0.029 A 
ATOM     43  N   UNL A   1      38.910  31.212  32.876  1.00  0.00    -0.354 N 
ATOM     44  C   UNL A   1      39.506  33.252  36.609  1.00  0.00     0.074 A 
ATOM     45  C   UNL A   1      38.444  34.204  36.856  1.00  0.00     0.031 C 
ATOM     46  C   UNL A   1      37.861  30.665  30.983  1.00  0.00     0.029 A 
ATOM     47  C   UNL A   1      39.056  30.393  31.783  1.00  0.00     0.049 A 
ATOM     48  H   UNL A   1      39.548  31.226  33.626  1.00  0.00     0.167 HD
ATOM     49  C   UNL A   1      40.530  33.018  37.465  1.00  0.00     0.037 A 
ATOM     50  C   UNL A   1      40.046  29.537  31.459  1.00  0.00     0.037 A 
ATOM     51  C   UNL A   1      41.592  32.075  37.235  1.00  0.00     0.049 A 
ATOM     52  C   UNL A   1      41.221  29.354  32.389  1.00  0.00     0.074 A 
ATOM     53  C   UNL A   1      42.662  31.760  38.056  1.00  0.00     0.029 A 
ATOM     54  N   UNL A   1      41.723  31.296  36.095  1.00  0.00    -0.354 N 
ATOM     55  N   UNL A   1      41.447  29.895  33.561  1.00  0.00    -0.248 NA
ATOM     56  C   UNL A   1      42.282  28.434  31.946  1.00  0.00     0.031 C 
ATOM     57  C   UNL A   1      43.469  30.831  37.390  1.00  0.00     0.029 A 
ATOM     58  C   UNL A   1      42.871  30.524  36.179  1.00  0.00     0.049 A 
ATOM     59  H   UNL A   1      41.094  31.292  35.338  1.00  0.00     0.167 HD
ATOM     60  C   UNL A   1      42.648  29.356  34.009  1.00  0.00     0.074 A 
ATOM     61  C   UNL A   1      43.101  28.438  32.988  1.00  0.00     0.031 C 
ATOM     62  C   UNL A   1      43.311  29.598  35.167  1.00  0.00     0.037 A 
BRANCH  49  63
ATOM     63  C   UNL A   1      40.567  33.825  38.731  1.00  0.00     0.064 A 
ATOM     64  C   UNL A   1      41.336  34.994  38.840  1.00  0.00     0.173 A 
ATOM     65  C   UNL A   1      39.802  33.436  39.841  1.00  0.00     0.173 A 
ATOM     66  F   UNL A   1      42.094  35.401  37.811  1.00  0.00    -0.203 F 
ATOM     67  C   UNL A   1      41.362  35.725  40.024  1.00  0.00     0.198 A 
ATOM     68  C   UNL A   1      39.807  34.187  41.013  1.00  0.00     0.198 A 
ATOM     69  F   UNL A   1      39.044  32.331  39.788  1.00  0.00    -0.203 F 
ATOM     70  F   UNL A   1      42.143  36.809  40.123  1.00  0.00    -0.200 F 
ATOM     71  C   UNL A   1      40.594  35.325  41.107  1.00  0.00     0.200 A 
ATOM     72  F   UNL A   1      39.054  33.806  42.055  1.00  0.00    -0.200 F 
ATOM     73  F   UNL A   1      40.617  36.032  42.246  1.00  0.00    -0.200 F 
ENDBRANCH  49  63
BRANCH  50  74
ATOM     74  C   UNL A   1      39.986  28.776  30.180  1.00  0.00     0.064 A 
ATOM     75  C   UNL A   1      39.391  27.508  30.121  1.00  0.00     0.173 A 
ATOM     76  C   UNL A   1      40.565  29.281  29.006  1.00  0.00     0.173 A 
ATOM     77  F   UNL A   1      38.856  26.967  31.225  1.00  0.00    -0.203 F 
ATOM     78  C   UNL A   1      39.392  26.767  28.941  1.00  0.00     0.198 A 
ATOM     79  C   UNL A   1      40.539  28.551  27.820  1.00  0.00     0.198 A 
ATOM     80  F   UNL A   1      41.157  30.485  29.012  1.00  0.00    -0.203 F 
ATOM     81  F   UNL A   1      38.864  25.535  28.926  1.00  0.00    -0.200 F 
ATOM     82  C   UNL A   1      39.961  27.291  27.790  1.00  0.00     0.200 A 
ATOM     83  F   UNL A   1      41.086  29.064  26.709  1.00  0.00    -0.200 F 
ATOM     84  F   UNL A   1      39.964  26.577  26.656  1.00  0.00    -0.200 F 
ENDBRANCH  50  74
BRANCH  62  85
ATOM     85  C   UNL A   1      44.576  28.826  35.423  1.00  0.00     0.064 A 
ATOM     86  C   UNL A   1      44.562  27.563  36.034  1.00  0.00     0.173 A 
ATOM     87  C   UNL A   1      45.816  29.341  35.014  1.00  0.00     0.173 A 
ATOM     88  F   UNL A   1      43.406  27.030  36.457  1.00  0.00    -0.203 F 
ATOM     89  C   UNL A   1      45.744  26.859  36.251  1.00  0.00     0.198 A 
ATOM     90  C   UNL A   1      46.993  28.620  35.203  1.00  0.00     0.198 A 
ATOM     91  F   UNL A   1      45.887  30.540  34.415  1.00  0.00    -0.203 F 
ATOM     92  F   UNL A   1      45.712  25.676  36.881  1.00  0.00    -0.200 F 
ATOM     93  C   UNL A   1      46.958  27.384  35.829  1.00  0.00     0.200 A 
ATOM     94  F   UNL A   1      48.162  29.124  34.781  1.00  0.00    -0.200 F 
ATOM     95  F   UNL A   1      48.093  26.702  36.033  1.00  0.00    -0.200 F 
ENDBRANCH  62  85
ENDBRANCH  36  37
ENDBRANCH  29  31
ENDBRANCH  28  29
ENDBRANCH  27  28
ENDBRANCH  26  27
ENDBRANCH  25  26
ENDBRANCH  24  25
ENDBRANCH   1  24
TORSDOF 22
ENDMDL
MODEL 2
REMARK VINA RESULT:      -9.8      2.915      4.852
REMARK SMILES O=C(C[N@@H+](CC(F)(F)F)[C@H]1CCCC[C@H]1O)OCCOCCOCCOC(=O)c1ccc(-c2c3nc(c(-c4c(F)c(F)c(F)c(F)c4F)c4ccc([nH]4)c(-c4c(F)c(F)c(F)c(F)c4F)c4nc(c(-c5c(F)c(F)c(F)c(F)c5F)c5ccc2[nH]5)C=C4)C=C3)cc1
REMARK SMILES IDX 21 1 20 2 19 3 18 4 17 5 2 6 1 7 3 8 4 9 5 11 6 12 7 13 8 14
REMARK SMILES IDX 9 15 10 16 11 17 15 18 12 19 14 20 13 21 16 22 22 24 23 25
REMARK SMILES IDX 24 26 25 27 26 28 27 29 28 30 29 31 30 32 91 33 31 34 90 35
REMARK SMILES IDX 32 36 33 37 34 38 84 39 35 40 89 41 83 42 85 43 36 44 88 45
REMARK SMILES IDX 82 46 81 47 37 49 69 50 49 51 68 52 50 53 53 54 67 55 86 56
REMARK SMILES IDX 51 57 52 58 66 60 87 61 54 62 38 63 39 64 47 65 40 66 41 67
REMARK SMILES IDX 45 68 48 69 42 70 43 71 46 72 44 73 70 74 71 75 79 76 72 77
REMARK SMILES IDX 73 78 77 79 80 80 74 81 75 82 78 83 76 84 55 85 56 86 64 87
REMARK SMILES IDX 57 88 58 89 62 90 65 91 59 92 60 93 63 94 61 95
REMARK H PARENT 4 10 16 23 85 48 53 59
REMARK Flexibility Score: inf
ROOT
ATOM      1  C   UNL A   1      31.909  29.099  24.190  1.00  0.00     0.188 C 
ENDROOT
BRANCH   1   2
ATOM      2  O   UNL A   1      30.689  28.391  24.346  1.00  0.00    -0.376 OA
BRANCH   2   3
ATOM      3  C   UNL A   1      30.099  27.912  23.155  1.00  0.00     0.202 C 
BRANCH   3   4
ATOM      4  C   UNL A   1      30.502  26.462  22.924  1.00  0.00     0.261 C 
BRANCH   4   5
ATOM      5  O   UNL A   1      31.550  26.268  21.948  1.00  0.00    -0.459 OA
BRANCH   5   6
ATOM      6  C   UNL A   1      32.866  26.077  22.171  1.00  0.00     0.361 C 
ATOM      7  O   UNL A   1      33.658  26.163  21.232  1.00  0.00    -0.245 OA
BRANCH   6   8
ATOM      8  C   UNL A   1      33.363  25.637  23.538  1.00  0.00     0.387 C 
BRANCH   8   9
ATOM      9  N   UNL A   1      33.800  24.213  23.678  1.00  0.00    -0.314 N 
ATOM     10  H   UNL A   1      33.611  23.650  22.849  1.00  0.00     0.349 HD
BRANCH   9  11
ATOM     11  C   UNL A   1      35.293  24.225  23.884  1.00  0.00     0.380 C 
BRANCH  11  12
ATOM     12  C   UNL A   1      36.137  22.935  23.767  1.00  0.00     0.438 C 
ATOM     13  F   UNL A   1      37.160  22.925  24.645  1.00  0.00    -0.165 F 
ATOM     14  F   UNL A   1      35.375  21.845  24.003  1.00  0.00    -0.165 F 
ATOM     15  F   UNL A   1      36.657  22.800  22.524  1.00  0.00    -0.165 F 
ENDBRANCH  11  12
ENDBRANCH   9  11
BRANCH   9  16
ATOM     16  C   UNL A   1      33.019  23.565  24.785  1.00  0.00     0.213 C 
ATOM     17  C   UNL A   1      32.316  24.649  25.643  1.00  0.00     0.068 C 
ATOM     18  C   UNL A   1      31.932  22.531  24.357  1.00  0.00     0.172 C 
ATOM     19  C   UNL A   1      31.665  24.049  26.882  1.00  0.00     0.006 C 
ATOM     20  C   UNL A   1      31.268  21.917  25.593  1.00  0.00     0.038 C 
ATOM     21  C   UNL A   1      30.660  22.969  26.518  1.00  0.00     0.003 C 
BRANCH  18  22
ATOM     22  O   UNL A   1      30.921  23.126  23.544  1.00  0.00    -0.387 OA
ATOM     23  H   UNL A   1      30.415  22.431  23.095  1.00  0.00     0.211 HD
ENDBRANCH  18  22
ENDBRANCH   9  16
ENDBRANCH   8   9
ENDBRANCH   6   8
ENDBRANCH   5   6
ENDBRANCH   4   5
ENDBRANCH   3   4
ENDBRANCH   2   3
ENDBRANCH   1   2
BRANCH   1  24
ATOM     24  C   UNL A   1      32.185  30.021  25.381  1.00  0.00     0.188 C 
BRANCH  24  25
ATOM     25  O   UNL A   1      31.319  31.116  25.649  1.00  0.00    -0.376 OA
BRANCH  25  26
ATOM     26  C   UNL A   1      31.373  31.764  26.910  1.00  0.00     0.202 C 
BRANCH  26  27
ATOM     27  C   UNL A   1      32.155  33.082  26.958  1.00  0.00     0.261 C 
BRANCH  27  28
ATOM     28  O   UNL A   1      32.596  33.482  28.272  1.00  0.00    -0.460 OA
BRANCH  28  29
ATOM     29  C   UNL A   1      33.739  34.211  28.310  1.00  0.00     0.338 C 
ATOM     30  O   UNL A   1      33.833  35.425  28.343  1.00  0.00    -0.246 OA
BRANCH  29  31
ATOM     31  C   UNL A   1      34.932  33.336  28.430  1.00  0.00     0.060 A 
ATOM     32  C   UNL A   1      34.731  31.992  28.775  1.00  0.00     0.016 A 
ATOM     33  C   UNL A   1      36.231  33.845  28.349  1.00  0.00     0.016 A 
ATOM     34  C   UNL A   1      35.814  31.176  29.115  1.00  0.00     0.010 A 
ATOM     35  C   UNL A   1      37.318  33.028  28.705  1.00  0.00     0.010 A 
ATOM     36  C   UNL A   1      37.112  31.705  29.143  1.00  0.00    -0.014 A 
BRANCH  36  37
ATOM     37  C   UNL A   1      38.196  30.965  29.848  1.00  0.00     0.031 A 
ATOM     38  C   UNL A   1      38.440  31.263  31.307  1.00  0.00     0.074 A 
ATOM     39  C   UNL A   1      38.936  30.019  29.239  1.00  0.00     0.049 A 
ATOM     40  N   UNL A   1      39.342  30.774  32.124  1.00  0.00    -0.248 NA
ATOM     41  C   UNL A   1      37.540  32.248  31.927  1.00  0.00     0.031 C 
ATOM     42  C   UNL A   1      38.784  29.582  27.855  1.00  0.00     0.029 A 
ATOM     43  N   UNL A   1      39.975  29.257  29.721  1.00  0.00    -0.354 N 
ATOM     44  C   UNL A   1      39.121  31.396  33.346  1.00  0.00     0.074 A 
ATOM     45  C   UNL A   1      38.023  32.320  33.158  1.00  0.00     0.031 C 
ATOM     46  C   UNL A   1      39.703  28.636  27.594  1.00  0.00     0.029 A 
ATOM     47  C   UNL A   1      40.527  28.418  28.783  1.00  0.00     0.049 A 
ATOM     48  H   UNL A   1      40.293  29.306  30.651  1.00  0.00     0.167 HD
ATOM     49  C   UNL A   1      39.765  31.213  34.525  1.00  0.00     0.037 A 
ATOM     50  C   UNL A   1      41.585  27.586  28.871  1.00  0.00     0.037 A 
ATOM     51  C   UNL A   1      40.857  30.297  34.728  1.00  0.00     0.049 A 
ATOM     52  C   UNL A   1      42.342  27.461  30.171  1.00  0.00     0.074 A 
ATOM     53  C   UNL A   1      41.558  30.034  35.893  1.00  0.00     0.029 A 
ATOM     54  N   UNL A   1      41.412  29.498  33.741  1.00  0.00    -0.354 N 
ATOM     55  N   UNL A   1      42.112  28.034  31.327  1.00  0.00    -0.248 NA
ATOM     56  C   UNL A   1      43.509  26.563  30.176  1.00  0.00     0.031 C 
ATOM     57  C   UNL A   1      42.572  29.116  35.598  1.00  0.00     0.029 A 
ATOM     58  C   UNL A   1      42.465  28.763  34.263  1.00  0.00     0.049 A 
ATOM     59  H   UNL A   1      41.104  29.459  32.807  1.00  0.00     0.167 HD
ATOM     60  C   UNL A   1      43.076  27.542  32.200  1.00  0.00     0.074 A 
ATOM     61  C   UNL A   1      43.890  26.616  31.444  1.00  0.00     0.031 C 
ATOM     62  C   UNL A   1      43.264  27.830  33.512  1.00  0.00     0.037 A 
BRANCH  49  63
ATOM     63  C   UNL A   1      39.319  32.048  35.690  1.00  0.00     0.064 A 
ATOM     64  C   UNL A   1      38.387  31.573  36.625  1.00  0.00     0.173 A 
ATOM     65  C   UNL A   1      39.850  33.332  35.886  1.00  0.00     0.173 A 
ATOM     66  F   UNL A   1      37.841  30.357  36.476  1.00  0.00    -0.203 F 
ATOM     67  C   UNL A   1      37.981  32.365  37.696  1.00  0.00     0.198 A 
ATOM     68  C   UNL A   1      39.464  34.109  36.973  1.00  0.00     0.198 A 
ATOM     69  F   UNL A   1      40.749  33.831  35.024  1.00  0.00    -0.203 F 
ATOM     70  F   UNL A   1      37.052  31.912  38.548  1.00  0.00    -0.200 F 
ATOM     71  C   UNL A   1      38.523  33.629  37.873  1.00  0.00     0.200 A 
ATOM     72  F   UNL A   1      39.999  35.326  37.150  1.00  0.00    -0.200 F 
ATOM     73  F   UNL A   1      38.133  34.389  38.905  1.00  0.00    -0.200 F 
ENDBRANCH  49  63
BRANCH  50  74
ATOM     74  C   UNL A   1      42.013  26.796  27.684  1.00  0.00     0.064 A 
ATOM     75  C   UNL A   1      41.484  25.522  27.434  1.00  0.00     0.173 A 
ATOM     76  C   UNL A   1      42.993  27.279  26.804  1.00  0.00     0.173 A 
ATOM     77  F   UNL A   1      40.570  25.002  28.267  1.00  0.00    -0.203 F 
ATOM     78  C   UNL A   1      41.931  24.754  26.361  1.00  0.00     0.198 A 
ATOM     79  C   UNL A   1      43.418  26.521  25.715  1.00  0.00     0.198 A 
ATOM     80  F   UNL A   1      43.540  28.487  27.004  1.00  0.00    -0.203 F 
ATOM     81  F   UNL A   1      41.447  23.518  26.177  1.00  0.00    -0.200 F 
ATOM     82  C   UNL A   1      42.894  25.256  25.499  1.00  0.00     0.200 A 
ATOM     83  F   UNL A   1      44.345  27.013  24.880  1.00  0.00    -0.200 F 
ATOM     84  F   UNL A   1      43.325  24.517  24.468  1.00  0.00    -0.200 F 
ENDBRANCH  50  74
BRANCH  62  85
ATOM     85  C   UNL A   1      44.363  27.103  34.236  1.00  0.00     0.064 A 
ATOM     86  C   UNL A   1      45.679  27.586  34.265  1.00  0.00     0.173 A 
ATOM     87  C   UNL A   1      44.084  25.923  34.945  1.00  0.00     0.173 A 
ATOM     88  F   UNL A   1      46.004  28.701  33.593  1.00  0.00    -0.203 F 
ATOM     89  C   UNL A   1      46.680  26.903  34.952  1.00  0.00     0.198 A 
ATOM     90  C   UNL A   1      45.079  25.260  35.658  1.00  0.00     0.198 A 
ATOM     91  F   UNL A   1      42.840  25.421  34.960  1.00  0.00    -0.203 F 
ATOM     92  F   UNL A   1      47.940  27.357  34.925  1.00  0.00    -0.200 F 
ATOM     93  C   UNL A   1      46.379  25.744  35.654  1.00  0.00     0.200 A 
ATOM     94  F   UNL A   1      44.782  24.149  36.347  1.00  0.00    -0.200 F 
ATOM     95  F   UNL A   1      47.341  25.092  36.319  1.00  0.00    -0.200 F 
ENDBRANCH  62  85
ENDBRANCH  36  37
ENDBRANCH  29  31
ENDBRANCH  28  29
ENDBRANCH  27  28
ENDBRANCH  26  27
ENDBRANCH  25  26
ENDBRANCH  24  25
ENDBRANCH   1  24
TORSDOF 22
ENDMDL
MODEL 3
REMARK VINA RESULT:      -9.6      2.962      4.848
REMARK SMILES O=C(C[N@@H+](CC(F)(F)F)[C@H]1CCCC[C@H]1O)OCCOCCOCCOC(=O)c1ccc(-c2c3nc(c(-c4c(F)c(F)c(F)c(F)c4F)c4ccc([nH]4)c(-c4c(F)c(F)c(F)c(F)c4F)c4nc(c(-c5c(F)c(F)c(F)c(F)c5F)c5ccc2[nH]5)C=C4)C=C3)cc1
REMARK SMILES IDX 21 1 20 2 19 3 18 4 17 5 2 6 1 7 3 8 4 9 5 11 6 12 7 13 8 14
REMARK SMILES IDX 9 15 10 16 11 17 15 18 12 19 14 20 13 21 16 22 22 24 23 25
REMARK SMILES IDX 24 26 25 27 26 28 27 29 28 30 29 31 30 32 91 33 31 34 90 35
REMARK SMILES IDX 32 36 33 37 34 38 84 39 35 40 89 41 83 42 85 43 36 44 88 45
REMARK SMILES IDX 82 46 81 47 37 49 69 50 49 51 68 52 50 53 53 54 67 55 86 56
REMARK SMILES IDX 51 57 52 58 66 60 87 61 54 62 38 63 39 64 47 65 40 66 41 67
REMARK SMILES IDX 45 68 48 69 42 70 43 71 46 72 44 73 70 74 71 75 79 76 72 77
REMARK SMILES IDX 73 78 77 79 80 80 74 81 75 82 78 83 76 84 55 85 56 86 64 87
REMARK SMILES IDX 57 88 58 89 62 90 65 91 59 92 60 93 63 94 61 95
REMARK H PARENT 4 10 16 23 85 48 53 59
REMARK Flexibility Score: inf
ROOT
ATOM      1  C   UNL A   1      32.651  28.464  25.595  1.00  0.00     0.188 C 
ENDROOT
BRANCH   1   2
ATOM      2  O   UNL A   1      31.264  28.167  25.619  1.00  0.00    -0.376 OA
BRANCH   2   3
ATOM      3  C   UNL A   1      30.706  27.740  24.392  1.00  0.00     0.202 C 
BRANCH   3   4
ATOM      4  C   UNL A   1      31.673  28.032  23.253  1.00  0.00     0.261 C 
BRANCH   4   5
ATOM      5  O   UNL A   1      31.826  26.962  22.293  1.00  0.00    -0.459 OA
BRANCH   5   6
ATOM      6  C   UNL A   1      32.800  26.032  22.237  1.00  0.00     0.361 C 
ATOM      7  O   UNL A   1      33.655  26.103  21.354  1.00  0.00    -0.245 OA
BRANCH   6   8
ATOM      8  C   UNL A   1      32.779  24.833  23.172  1.00  0.00     0.387 C 
BRANCH   8   9
ATOM      9  N   UNL A   1      33.452  24.993  24.500  1.00  0.00    -0.314 N 
ATOM     10  H   UNL A   1      33.547  25.967  24.788  1.00  0.00     0.349 HD
BRANCH   9  11
ATOM     11  C   UNL A   1      32.586  24.302  25.521  1.00  0.00     0.380 C 
BRANCH  11  12
ATOM     12  C   UNL A   1      31.223  23.678  25.139  1.00  0.00     0.438 C 
ATOM     13  F   UNL A   1      30.586  24.407  24.200  1.00  0.00    -0.165 F 
ATOM     14  F   UNL A   1      31.393  22.429  24.653  1.00  0.00    -0.165 F 
ATOM     15  F   UNL A   1      30.409  23.584  26.215  1.00  0.00    -0.165 F 
ENDBRANCH  11  12
ENDBRANCH   9  11
BRANCH   9  16
ATOM     16  C   UNL A   1      34.855  24.467  24.406  1.00  0.00     0.213 C 
ATOM     17  C   UNL A   1      35.347  24.016  25.807  1.00  0.00     0.068 C 
ATOM     18  C   UNL A   1      35.089  23.277  23.425  1.00  0.00     0.172 C 
ATOM     19  C   UNL A   1      36.825  23.650  25.791  1.00  0.00     0.006 C 
ATOM     20  C   UNL A   1      36.572  22.896  23.396  1.00  0.00     0.038 C 
ATOM     21  C   UNL A   1      37.118  22.553  24.781  1.00  0.00     0.003 C 
BRANCH  18  22
ATOM     22  O   UNL A   1      34.329  22.126  23.792  1.00  0.00    -0.387 OA
ATOM     23  H   UNL A   1      33.955  22.253  24.678  1.00  0.00     0.211 HD
ENDBRANCH  18  22
ENDBRANCH   9  16
ENDBRANCH   8   9
ENDBRANCH   6   8
ENDBRANCH   5   6
ENDBRANCH   4   5
ENDBRANCH   3   4
ENDBRANCH   2   3
ENDBRANCH   1   2
BRANCH   1  24
ATOM     24  C   UNL A   1      32.920  29.936  25.922  1.00  0.00     0.188 C 
BRANCH  24  25
ATOM     25  O   UNL A   1      32.118  30.609  26.884  1.00  0.00    -0.376 OA
BRANCH  25  26
ATOM     26  C   UNL A   1      31.411  31.781  26.514  1.00  0.00     0.202 C 
BRANCH  26  27
ATOM     27  C   UNL A   1      31.778  33.060  27.276  1.00  0.00     0.261 C 
BRANCH  27  28
ATOM     28  O   UNL A   1      33.148  33.486  27.127  1.00  0.00    -0.460 OA
BRANCH  28  29
ATOM     29  C   UNL A   1      33.804  33.764  28.282  1.00  0.00     0.338 C 
ATOM     30  O   UNL A   1      33.435  34.508  29.173  1.00  0.00    -0.246 OA
BRANCH  29  31
ATOM     31  C   UNL A   1      35.032  32.941  28.415  1.00  0.00     0.060 A 
ATOM     32  C   UNL A   1      34.883  31.578  28.707  1.00  0.00     0.016 A 
ATOM     33  C   UNL A   1      36.308  33.511  28.397  1.00  0.00     0.016 A 
ATOM     34  C   UNL A   1      35.992  30.801  29.058  1.00  0.00     0.010 A 
ATOM     35  C   UNL A   1      37.419  32.734  28.764  1.00  0.00     0.010 A 
ATOM     36  C   UNL A   1      37.261  31.388  29.149  1.00  0.00    -0.014 A 
BRANCH  36  37
ATOM     37  C   UNL A   1      38.354  30.674  29.867  1.00  0.00     0.031 A 
ATOM     38  C   UNL A   1      38.598  31.004  31.319  1.00  0.00     0.074 A 
ATOM     39  C   UNL A   1      39.103  29.724  29.276  1.00  0.00     0.049 A 
ATOM     40  N   UNL A   1      39.506  30.542  32.144  1.00  0.00    -0.248 NA
ATOM     41  C   UNL A   1      37.688  31.991  31.921  1.00  0.00     0.031 C 
ATOM     42  C   UNL A   1      38.954  29.258  27.901  1.00  0.00     0.029 A 
ATOM     43  N   UNL A   1      40.152  28.983  29.771  1.00  0.00    -0.354 N 
ATOM     44  C   UNL A   1      39.281  31.185  33.354  1.00  0.00     0.074 A 
ATOM     45  C   UNL A   1      38.173  32.093  33.149  1.00  0.00     0.031 C 
ATOM     46  C   UNL A   1      39.883  28.317  27.657  1.00  0.00     0.029 A 
ATOM     47  C   UNL A   1      40.712  28.132  28.849  1.00  0.00     0.049 A 
ATOM     48  H   UNL A   1      40.471  29.055  30.699  1.00  0.00     0.167 HD
ATOM     49  C   UNL A   1      39.929  31.033  34.535  1.00  0.00     0.037 A 
ATOM     50  C   UNL A   1      41.778  27.313  28.952  1.00  0.00     0.037 A 
ATOM     51  C   UNL A   1      41.030  30.134  34.755  1.00  0.00     0.049 A 
ATOM     52  C   UNL A   1      42.539  27.222  30.253  1.00  0.00     0.074 A 
ATOM     53  C   UNL A   1      41.736  29.902  35.923  1.00  0.00     0.029 A 
ATOM     54  N   UNL A   1      41.593  29.321  33.783  1.00  0.00    -0.354 N 
ATOM     55  N   UNL A   1      42.305  27.816  31.397  1.00  0.00    -0.248 NA
ATOM     56  C   UNL A   1      43.716  26.338  30.274  1.00  0.00     0.031 C 
ATOM     57  C   UNL A   1      42.760  28.989  35.645  1.00  0.00     0.029 A 
ATOM     58  C   UNL A   1      42.655  28.608  34.317  1.00  0.00     0.049 A 
ATOM     59  H   UNL A   1      41.283  29.259  32.850  1.00  0.00     0.167 HD
ATOM     60  C   UNL A   1      43.275  27.352  32.278  1.00  0.00     0.074 A 
ATOM     61  C   UNL A   1      44.098  26.420  31.540  1.00  0.00     0.031 C 
ATOM     62  C   UNL A   1      43.463  27.669  33.583  1.00  0.00     0.037 A 
BRANCH  49  63
ATOM     63  C   UNL A   1      39.476  31.887  35.683  1.00  0.00     0.064 A 
ATOM     64  C   UNL A   1      40.013  33.163  35.913  1.00  0.00     0.173 A 
ATOM     65  C   UNL A   1      38.472  31.431  36.553  1.00  0.00     0.173 A 
ATOM     66  F   UNL A   1      40.983  33.639  35.118  1.00  0.00    -0.203 F 
ATOM     67  C   UNL A   1      39.584  33.937  36.987  1.00  0.00     0.198 A 
ATOM     68  C   UNL A   1      38.026  32.221  37.608  1.00  0.00     0.198 A 
ATOM     69  F   UNL A   1      37.921  30.221  36.374  1.00  0.00    -0.203 F 
ATOM     70  F   UNL A   1      40.148  35.131  37.217  1.00  0.00    -0.200 F 
ATOM     71  C   UNL A   1      38.588  33.469  37.830  1.00  0.00     0.200 A 
ATOM     72  F   UNL A   1      37.053  31.772  38.414  1.00  0.00    -0.200 F 
ATOM     73  F   UNL A   1      38.174  34.217  38.862  1.00  0.00    -0.200 F 
ENDBRANCH  49  63
BRANCH  50  74
ATOM     74  C   UNL A   1      42.213  26.504  27.780  1.00  0.00     0.064 A 
ATOM     75  C   UNL A   1      41.676  25.231  27.541  1.00  0.00     0.173 A 
ATOM     76  C   UNL A   1      43.207  26.967  26.905  1.00  0.00     0.173 A 
ATOM     77  F   UNL A   1      40.748  24.730  28.370  1.00  0.00    -0.203 F 
ATOM     78  C   UNL A   1      42.128  24.446  26.483  1.00  0.00     0.198 A 
ATOM     79  C   UNL A   1      43.638  26.191  25.831  1.00  0.00     0.198 A 
ATOM     80  F   UNL A   1      43.762  28.173  27.096  1.00  0.00    -0.203 F 
ATOM     81  F   UNL A   1      41.635  23.211  26.310  1.00  0.00    -0.200 F 
ATOM     82  C   UNL A   1      43.105  24.928  25.626  1.00  0.00     0.200 A 
ATOM     83  F   UNL A   1      44.579  26.665  25.001  1.00  0.00    -0.200 F 
ATOM     84  F   UNL A   1      43.541  24.171  24.609  1.00  0.00    -0.200 F 
ENDBRANCH  50  74
BRANCH  62  85
ATOM     85  C   UNL A   1      44.570  26.968  34.320  1.00  0.00     0.064 A 
ATOM     86  C   UNL A   1      44.389  25.706  34.906  1.00  0.00     0.173 A 
ATOM     87  C   UNL A   1      45.844  27.552  34.408  1.00  0.00     0.173 A 
ATOM     88  F   UNL A   1      43.189  25.109  34.863  1.00  0.00    -0.203 F 
ATOM     89  C   UNL A   1      45.432  25.069  35.574  1.00  0.00     0.198 A 
ATOM     90  C   UNL A   1      46.893  26.899  35.049  1.00  0.00     0.198 A 
ATOM     91  F   UNL A   1      46.076  28.754  33.858  1.00  0.00    -0.203 F 
ATOM     92  F   UNL A   1      45.222  23.886  36.167  1.00  0.00    -0.200 F 
ATOM     93  C   UNL A   1      46.685  25.662  35.639  1.00  0.00     0.200 A 
ATOM     94  F   UNL A   1      48.107  27.468  35.097  1.00  0.00    -0.200 F 
ATOM     95  F   UNL A   1      47.689  25.045  36.276  1.00  0.00    -0.200 F 
ENDBRANCH  62  85
ENDBRANCH  36  37
ENDBRANCH  29  31
ENDBRANCH  28  29
ENDBRANCH  27  28
ENDBRANCH  26  27
ENDBRANCH  25  26
ENDBRANCH  24  25
ENDBRANCH   1  24
TORSDOF 22
ENDMDL
