MODEL 1
REMARK VINA RESULT:     -13.5      0.000      0.000
REMARK SMILES Cc1ccc(S(=O)(=O)n2cc(C(=O)C(=O)NCC(=O)OCCOCCOCCOC(=O)c3ccc(-c4c5nc(c(-c6c(F)c(F)c(F)c(F)c6F)c6ccc([nH]6)c(-c6c(F)c(F)c(F)c(F)c6F)c6nc(c(-c7c(F)c(F)c(F)c(F)c7F)c7ccc4[nH]7)C=C6)C=C5)cc3)c3ccccc32)cc1
REMARK SMILES IDX 23 1 22 2 21 3 20 4 18 5 19 6 17 7 16 8 14 9 15 10 12 12
REMARK SMILES IDX 13 13 11 14 9 15 10 16 100 17 95 18 99 19 96 20 98 21 97 22
REMARK SMILES IDX 6 23 7 24 8 25 5 26 1 27 2 28 3 29 102 30 4 31 101 32 24 33
REMARK SMILES IDX 25 34 26 35 27 36 28 37 29 38 30 39 31 40 32 41 33 42 94 43
REMARK SMILES IDX 34 44 93 45 35 46 36 47 37 48 87 49 38 50 92 51 86 52 88 53
REMARK SMILES IDX 39 54 91 55 85 56 84 57 40 59 72 60 52 61 71 62 53 63 56 64
REMARK SMILES IDX 70 65 89 66 54 67 55 68 69 70 90 71 57 72 41 73 42 74 50 75
REMARK SMILES IDX 43 76 44 77 48 78 51 79 45 80 46 81 49 82 47 83 73 84 74 85
REMARK SMILES IDX 82 86 75 87 76 88 80 89 83 90 77 91 78 92 81 93 79 94 58 95
REMARK SMILES IDX 59 96 67 97 60 98 61 99 65 100 68 101 62 102 63 103 66 104
REMARK SMILES IDX 64 105
REMARK H PARENT 16 11 88 58 56 69
REMARK Flexibility Score: inf
ROOT
ATOM      1  O   UNL A   1      33.577  35.299  29.286  1.00  0.00    -0.376 OA
ENDROOT
BRANCH   1   2
ATOM      2  C   UNL A   1      32.710  34.342  28.675  1.00  0.00     0.202 C 
BRANCH   2   3
ATOM      3  C   UNL A   1      33.015  33.174  27.457  1.00  0.00     0.261 C 
BRANCH   3   4
ATOM      4  O   UNL A   1      33.252  31.423  27.510  1.00  0.00    -0.462 OA
BRANCH   4   5
ATOM      5  C   UNL A   1      32.861  30.139  26.986  1.00  0.00     0.325 C 
ATOM      6  O   UNL A   1      32.121  29.289  27.483  1.00  0.00    -0.250 OA
BRANCH   5   7
ATOM      7  C   UNL A   1      33.264  29.749  25.564  1.00  0.00     0.239 C 
BRANCH   7   8
ATOM      8  N   UNL A   1      32.194  29.810  24.633  1.00  0.00    -0.338 N 
ATOM      9  C   UNL A   1      31.890  28.787  23.772  1.00  0.00     0.292 C 
ATOM     10  O   UNL A   1      30.870  28.852  23.096  1.00  0.00    -0.265 OA
ATOM     11  H   UNL A   1      31.644  30.625  24.605  1.00  0.00     0.164 HD
BRANCH   9  12
ATOM     12  C   UNL A   1      32.872  27.582  23.638  1.00  0.00     0.252 C 
ATOM     13  O   UNL A   1      33.667  27.557  22.705  1.00  0.00    -0.283 OA
BRANCH  12  14
ATOM     14  C   UNL A   1      32.886  26.566  24.681  1.00  0.00     0.054 A 
ATOM     15  N   UNL A   1      33.659  24.849  25.850  1.00  0.00    -0.240 N 
ATOM     16  C   UNL A   1      34.031  25.942  25.127  1.00  0.00     0.117 A 
ATOM     17  C   UNL A   1      32.293  24.824  26.051  1.00  0.00     0.065 A 
ATOM     18  C   UNL A   1      31.785  25.936  25.358  1.00  0.00     0.012 A 
ATOM     19  C   UNL A   1      31.451  23.906  26.703  1.00  0.00     0.028 A 
ATOM     20  C   UNL A   1      30.389  26.161  25.385  1.00  0.00     0.011 A 
ATOM     21  C   UNL A   1      30.076  24.144  26.691  1.00  0.00     0.002 A 
ATOM     22  C   UNL A   1      29.551  25.265  26.059  1.00  0.00     0.001 A 
BRANCH  15  23
ATOM     23  S   UNL A   1      34.704  23.522  26.060  1.00  0.00     0.268 S 
ATOM     24  O   UNL A   1      34.602  23.142  27.432  1.00  0.00    -0.201 OA
ATOM     25  O   UNL A   1      35.980  23.950  25.467  1.00  0.00    -0.201 OA
BRANCH  23  26
ATOM     26  C   UNL A   1      34.072  22.209  25.048  1.00  0.00     0.088 A 
ATOM     27  C   UNL A   1      32.162  18.893  23.097  1.00  0.00     0.044 C 
ATOM     28  C   UNL A   1      32.879  20.048  23.732  1.00  0.00    -0.051 A 
ATOM     29  C   UNL A   1      33.667  19.836  24.871  1.00  0.00     0.005 A 
ATOM     30  C   UNL A   1      32.750  21.342  23.220  1.00  0.00     0.005 A 
ATOM     31  C   UNL A   1      34.261  20.911  25.528  1.00  0.00     0.022 A 
ATOM     32  C   UNL A   1      33.353  22.423  23.868  1.00  0.00     0.022 A 
ENDBRANCH  23  26
ENDBRANCH  15  23
ENDBRANCH  12  14
ENDBRANCH   9  12
ENDBRANCH   7   8
ENDBRANCH   5   7
ENDBRANCH   4   5
ENDBRANCH   3   4
ENDBRANCH   2   3
ENDBRANCH   1   2
BRANCH   1  33
ATOM     33  C   UNL A   1      33.354  36.008  30.516  1.00  0.00     0.188 C 
BRANCH  33  34
ATOM     34  C   UNL A   1      33.916  35.547  31.848  1.00  0.00     0.188 C 
BRANCH  34  35
ATOM     35  O   UNL A   1      33.269  34.358  32.240  1.00  0.00    -0.376 OA
BRANCH  35  36
ATOM     36  C   UNL A   1      34.121  33.291  32.601  1.00  0.00     0.202 C 
BRANCH  36  37
ATOM     37  C   UNL A   1      35.348  33.174  31.678  1.00  0.00     0.261 C 
BRANCH  37  38
ATOM     38  O   UNL A   1      35.196  32.072  30.743  1.00  0.00    -0.460 OA
BRANCH  38  39
ATOM     39  C   UNL A   1      35.997  32.042  29.620  1.00  0.00     0.338 C 
ATOM     40  O   UNL A   1      36.108  32.954  28.822  1.00  0.00    -0.246 OA
BRANCH  39  41
ATOM     41  C   UNL A   1      36.489  30.632  29.385  1.00  0.00     0.060 A 
ATOM     42  C   UNL A   1      36.929  29.704  30.348  1.00  0.00     0.016 A 
ATOM     43  C   UNL A   1      36.960  30.420  28.146  1.00  0.00     0.016 A 
ATOM     44  C   UNL A   1      38.013  28.738  30.075  1.00  0.00     0.010 A 
ATOM     45  C   UNL A   1      38.209  29.812  28.121  1.00  0.00     0.010 A 
ATOM     46  C   UNL A   1      38.812  28.801  28.924  1.00  0.00    -0.014 A 
BRANCH  46  47
ATOM     47  C   UNL A   1      40.283  27.968  28.639  1.00  0.00     0.031 A 
ATOM     48  C   UNL A   1      40.744  26.390  28.083  1.00  0.00     0.074 A 
ATOM     49  C   UNL A   1      41.391  28.722  28.860  1.00  0.00     0.049 A 
ATOM     50  N   UNL A   1      41.771  25.710  28.571  1.00  0.00    -0.248 NA
ATOM     51  C   UNL A   1      40.089  25.427  27.095  1.00  0.00     0.031 C 
ATOM     52  C   UNL A   1      42.786  28.432  28.522  1.00  0.00     0.029 A 
ATOM     53  N   UNL A   1      41.463  29.989  29.465  1.00  0.00    -0.354 N 
ATOM     54  C   UNL A   1      41.831  24.432  27.969  1.00  0.00     0.074 A 
ATOM     55  C   UNL A   1      40.688  24.263  27.183  1.00  0.00     0.031 C 
ATOM     56  C   UNL A   1      43.579  29.294  29.180  1.00  0.00     0.029 A 
ATOM     57  C   UNL A   1      42.729  30.083  30.053  1.00  0.00     0.049 A 
ATOM     58  H   UNL A   1      40.758  30.676  29.474  1.00  0.00     0.167 HD
ATOM     59  C   UNL A   1      42.874  23.561  27.982  1.00  0.00     0.037 A 
ATOM     60  C   UNL A   1      42.844  30.216  31.402  1.00  0.00     0.037 A 
ATOM     61  C   UNL A   1      43.974  24.189  28.636  1.00  0.00     0.049 A 
ATOM     62  C   UNL A   1      43.569  29.033  31.995  1.00  0.00     0.074 A 
ATOM     63  C   UNL A   1      44.916  25.077  28.153  1.00  0.00     0.029 A 
ATOM     64  N   UNL A   1      43.872  24.390  29.999  1.00  0.00    -0.354 N 
ATOM     65  N   UNL A   1      43.700  27.881  31.390  1.00  0.00    -0.248 NA
ATOM     66  C   UNL A   1      44.238  29.063  33.290  1.00  0.00     0.031 C 
ATOM     67  C   UNL A   1      45.301  25.906  29.237  1.00  0.00     0.029 A 
ATOM     68  C   UNL A   1      44.666  25.450  30.381  1.00  0.00     0.049 A 
ATOM     69  H   UNL A   1      43.314  23.854  30.609  1.00  0.00     0.167 HD
ATOM     70  C   UNL A   1      44.458  27.046  32.161  1.00  0.00     0.074 A 
ATOM     71  C   UNL A   1      44.770  27.830  33.340  1.00  0.00     0.031 C 
ATOM     72  C   UNL A   1      44.786  25.778  31.785  1.00  0.00     0.037 A 
BRANCH  59  73
ATOM     73  C   UNL A   1      42.886  22.379  27.023  1.00  0.00     0.064 A 
ATOM     74  C   UNL A   1      42.135  21.224  27.295  1.00  0.00     0.173 A 
ATOM     75  C   UNL A   1      43.774  22.277  25.923  1.00  0.00     0.173 A 
ATOM     76  F   UNL A   1      41.227  21.215  28.279  1.00  0.00    -0.203 F 
ATOM     77  C   UNL A   1      42.338  20.024  26.600  1.00  0.00     0.198 A 
ATOM     78  C   UNL A   1      44.025  21.058  25.274  1.00  0.00     0.198 A 
ATOM     79  F   UNL A   1      44.485  23.342  25.523  1.00  0.00    -0.203 F 
ATOM     80  F   UNL A   1      41.615  18.941  26.919  1.00  0.00    -0.200 F 
ATOM     81  C   UNL A   1      43.311  19.929  25.622  1.00  0.00     0.200 A 
ATOM     82  F   UNL A   1      44.997  20.970  24.353  1.00  0.00    -0.200 F 
ATOM     83  F   UNL A   1      43.565  18.752  25.028  1.00  0.00    -0.200 F 
ENDBRANCH  59  73
BRANCH  60  84
ATOM     84  C   UNL A   1      41.750  31.039  32.010  1.00  0.00     0.064 A 
ATOM     85  C   UNL A   1      41.828  32.444  31.852  1.00  0.00     0.173 A 
ATOM     86  C   UNL A   1      40.510  30.520  32.400  1.00  0.00     0.173 A 
ATOM     87  F   UNL A   1      42.990  33.013  31.486  1.00  0.00    -0.203 F 
ATOM     88  C   UNL A   1      40.703  33.264  31.932  1.00  0.00     0.198 A 
ATOM     89  C   UNL A   1      39.385  31.354  32.517  1.00  0.00     0.198 A 
ATOM     90  F   UNL A   1      40.337  29.197  32.524  1.00  0.00    -0.203 F 
ATOM     91  F   UNL A   1      40.793  34.562  31.605  1.00  0.00    -0.200 F 
ATOM     92  C   UNL A   1      39.477  32.715  32.249  1.00  0.00     0.200 A 
ATOM     93  F   UNL A   1      38.176  30.816  32.737  1.00  0.00    -0.200 F 
ATOM     94  F   UNL A   1      38.372  33.474  32.210  1.00  0.00    -0.200 F 
ENDBRANCH  60  84
BRANCH  72  95
ATOM     95  C   UNL A   1      45.318  24.710  32.703  1.00  0.00     0.064 A 
ATOM     96  C   UNL A   1      46.603  24.757  33.262  1.00  0.00     0.173 A 
ATOM     97  C   UNL A   1      44.459  23.702  33.208  1.00  0.00     0.173 A 
ATOM     98  F   UNL A   1      47.461  25.739  32.955  1.00  0.00    -0.203 F 
ATOM     99  C   UNL A   1      47.023  23.823  34.207  1.00  0.00     0.198 A 
ATOM    100  C   UNL A   1      44.856  22.826  34.213  1.00  0.00     0.198 A 
ATOM    101  F   UNL A   1      43.198  23.563  32.771  1.00  0.00    -0.203 F 
ATOM    102  F   UNL A   1      48.279  23.871  34.667  1.00  0.00    -0.200 F 
ATOM    103  C   UNL A   1      46.147  22.871  34.695  1.00  0.00     0.200 A 
ATOM    104  F   UNL A   1      43.973  21.956  34.724  1.00  0.00    -0.200 F 
ATOM    105  F   UNL A   1      46.540  22.012  35.644  1.00  0.00    -0.200 F 
ENDBRANCH  72  95
ENDBRANCH  46  47
ENDBRANCH  39  41
ENDBRANCH  38  39
ENDBRANCH  37  38
ENDBRANCH  36  37
ENDBRANCH  35  36
ENDBRANCH  34  35
ENDBRANCH  33  34
ENDBRANCH   1  33
TORSDOF 22
ENDMDL
MODEL 2
REMARK VINA RESULT:     -13.5      2.394      3.756
REMARK SMILES Cc1ccc(S(=O)(=O)n2cc(C(=O)C(=O)NCC(=O)OCCOCCOCCOC(=O)c3ccc(-c4c5nc(c(-c6c(F)c(F)c(F)c(F)c6F)c6ccc([nH]6)c(-c6c(F)c(F)c(F)c(F)c6F)c6nc(c(-c7c(F)c(F)c(F)c(F)c7F)c7ccc4[nH]7)C=C6)C=C5)cc3)c3ccccc32)cc1
REMARK SMILES IDX 23 1 22 2 21 3 20 4 18 5 19 6 17 7 16 8 14 9 15 10 12 12
REMARK SMILES IDX 13 13 11 14 9 15 10 16 100 17 95 18 99 19 96 20 98 21 97 22
REMARK SMILES IDX 6 23 7 24 8 25 5 26 1 27 2 28 3 29 102 30 4 31 101 32 24 33
REMARK SMILES IDX 25 34 26 35 27 36 28 37 29 38 30 39 31 40 32 41 33 42 94 43
REMARK SMILES IDX 34 44 93 45 35 46 36 47 37 48 87 49 38 50 92 51 86 52 88 53
REMARK SMILES IDX 39 54 91 55 85 56 84 57 40 59 72 60 52 61 71 62 53 63 56 64
REMARK SMILES IDX 70 65 89 66 54 67 55 68 69 70 90 71 57 72 41 73 42 74 50 75
REMARK SMILES IDX 43 76 44 77 48 78 51 79 45 80 46 81 49 82 47 83 73 84 74 85
REMARK SMILES IDX 82 86 75 87 76 88 80 89 83 90 77 91 78 92 81 93 79 94 58 95
REMARK SMILES IDX 59 96 67 97 60 98 61 99 65 100 68 101 62 102 63 103 66 104
REMARK SMILES IDX 64 105
REMARK H PARENT 16 11 88 58 56 69
REMARK Flexibility Score: inf
ROOT
ATOM      1  O   UNL A   1      33.974  34.422  28.038  1.00  0.00    -0.376 OA
ENDROOT
BRANCH   1   2
ATOM      2  C   UNL A   1      34.865  33.305  28.054  1.00  0.00     0.202 C 
BRANCH   2   3
ATOM      3  C   UNL A   1      34.548  31.621  27.990  1.00  0.00     0.261 C 
BRANCH   3   4
ATOM      4  O   UNL A   1      33.088  30.690  27.632  1.00  0.00    -0.462 OA
BRANCH   4   5
ATOM      5  C   UNL A   1      32.537  29.482  27.072  1.00  0.00     0.325 C 
ATOM      6  O   UNL A   1      32.555  28.337  27.526  1.00  0.00    -0.250 OA
BRANCH   5   7
ATOM      7  C   UNL A   1      31.681  29.557  25.809  1.00  0.00     0.239 C 
BRANCH   7   8
ATOM      8  N   UNL A   1      32.439  29.597  24.610  1.00  0.00    -0.338 N 
ATOM      9  C   UNL A   1      32.170  28.802  23.525  1.00  0.00     0.292 C 
ATOM     10  O   UNL A   1      32.775  28.989  22.477  1.00  0.00    -0.265 OA
ATOM     11  H   UNL A   1      33.193  30.226  24.554  1.00  0.00     0.164 HD
BRANCH   9  12
ATOM     12  C   UNL A   1      31.130  27.647  23.663  1.00  0.00     0.252 C 
ATOM     13  O   UNL A   1      29.957  27.859  23.377  1.00  0.00    -0.283 OA
BRANCH  12  14
ATOM     14  C   UNL A   1      31.597  26.318  24.034  1.00  0.00     0.054 A 
ATOM     15  N   UNL A   1      32.553  24.338  23.759  1.00  0.00    -0.240 N 
ATOM     16  C   UNL A   1      32.593  25.641  23.364  1.00  0.00     0.117 A 
ATOM     17  C   UNL A   1      31.675  24.161  24.809  1.00  0.00     0.065 A 
ATOM     18  C   UNL A   1      31.091  25.419  25.036  1.00  0.00     0.012 A 
ATOM     19  C   UNL A   1      31.282  23.019  25.529  1.00  0.00     0.028 A 
ATOM     20  C   UNL A   1      30.132  25.536  26.068  1.00  0.00     0.011 A 
ATOM     21  C   UNL A   1      30.315  23.163  26.525  1.00  0.00     0.002 A 
ATOM     22  C   UNL A   1      29.760  24.406  26.806  1.00  0.00     0.001 A 
BRANCH  15  23
ATOM     23  S   UNL A   1      33.174  23.092  22.780  1.00  0.00     0.268 S 
ATOM     24  O   UNL A   1      33.546  23.697  21.543  1.00  0.00    -0.201 OA
ATOM     25  O   UNL A   1      32.167  22.022  22.849  1.00  0.00    -0.201 OA
BRANCH  23  26
ATOM     26  C   UNL A   1      34.633  22.487  23.589  1.00  0.00     0.088 A 
ATOM     27  C   UNL A   1      38.263  21.634  25.722  1.00  0.00     0.044 C 
ATOM     28  C   UNL A   1      37.002  21.872  24.945  1.00  0.00    -0.051 A 
ATOM     29  C   UNL A   1      37.030  22.683  23.803  1.00  0.00     0.005 A 
ATOM     30  C   UNL A   1      35.788  21.317  25.361  1.00  0.00     0.005 A 
ATOM     31  C   UNL A   1      35.852  22.992  23.128  1.00  0.00     0.022 A 
ATOM     32  C   UNL A   1      34.604  21.613  24.680  1.00  0.00     0.022 A 
ENDBRANCH  23  26
ENDBRANCH  15  23
ENDBRANCH  12  14
ENDBRANCH   9  12
ENDBRANCH   7   8
ENDBRANCH   5   7
ENDBRANCH   4   5
ENDBRANCH   3   4
ENDBRANCH   2   3
ENDBRANCH   1   2
BRANCH   1  33
ATOM     33  C   UNL A   1      33.449  35.127  29.175  1.00  0.00     0.188 C 
BRANCH  33  34
ATOM     34  C   UNL A   1      33.061  36.593  29.130  1.00  0.00     0.188 C 
BRANCH  34  35
ATOM     35  O   UNL A   1      32.888  37.068  30.446  1.00  0.00    -0.376 OA
BRANCH  35  36
ATOM     36  C   UNL A   1      32.879  36.079  31.455  1.00  0.00     0.202 C 
BRANCH  36  37
ATOM     37  C   UNL A   1      33.900  36.363  32.571  1.00  0.00     0.261 C 
BRANCH  37  38
ATOM     38  O   UNL A   1      35.020  35.439  32.503  1.00  0.00    -0.460 OA
BRANCH  38  39
ATOM     39  C   UNL A   1      34.813  34.121  32.856  1.00  0.00     0.338 C 
ATOM     40  O   UNL A   1      34.389  33.750  33.934  1.00  0.00    -0.246 OA
BRANCH  39  41
ATOM     41  C   UNL A   1      35.443  33.214  31.823  1.00  0.00     0.060 A 
ATOM     42  C   UNL A   1      35.500  31.807  31.836  1.00  0.00     0.016 A 
ATOM     43  C   UNL A   1      36.395  33.807  31.086  1.00  0.00     0.016 A 
ATOM     44  C   UNL A   1      36.656  31.059  31.299  1.00  0.00     0.010 A 
ATOM     45  C   UNL A   1      37.577  33.080  31.015  1.00  0.00     0.010 A 
ATOM     46  C   UNL A   1      37.854  31.685  30.924  1.00  0.00    -0.014 A 
BRANCH  46  47
ATOM     47  C   UNL A   1      39.358  30.929  30.601  1.00  0.00     0.031 A 
ATOM     48  C   UNL A   1      39.916  29.610  29.620  1.00  0.00     0.074 A 
ATOM     49  C   UNL A   1      40.411  31.512  31.232  1.00  0.00     0.049 A 
ATOM     50  N   UNL A   1      40.857  28.759  30.000  1.00  0.00    -0.248 NA
ATOM     51  C   UNL A   1      39.435  29.066  28.277  1.00  0.00     0.031 C 
ATOM     52  C   UNL A   1      41.843  31.288  31.033  1.00  0.00     0.029 A 
ATOM     53  N   UNL A   1      40.374  32.497  32.234  1.00  0.00    -0.354 N 
ATOM     54  C   UNL A   1      41.023  27.756  29.017  1.00  0.00     0.074 A 
ATOM     55  C   UNL A   1      40.021  27.914  28.055  1.00  0.00     0.031 C 
ATOM     56  C   UNL A   1      42.515  31.842  32.058  1.00  0.00     0.029 A 
ATOM     57  C   UNL A   1      41.530  32.330  33.005  1.00  0.00     0.049 A 
ATOM     58  H   UNL A   1      39.671  33.173  32.368  1.00  0.00     0.167 HD
ATOM     59  C   UNL A   1      42.058  26.884  28.893  1.00  0.00     0.037 A 
ATOM     60  C   UNL A   1      41.427  31.996  34.320  1.00  0.00     0.037 A 
ATOM     61  C   UNL A   1      43.034  27.204  29.881  1.00  0.00     0.049 A 
ATOM     62  C   UNL A   1      42.057  30.650  34.580  1.00  0.00     0.074 A 
ATOM     63  C   UNL A   1      44.033  28.158  29.878  1.00  0.00     0.029 A 
ATOM     64  N   UNL A   1      42.714  26.939  31.199  1.00  0.00    -0.354 N 
ATOM     65  N   UNL A   1      42.293  29.764  33.648  1.00  0.00    -0.248 NA
ATOM     66  C   UNL A   1      42.511  30.212  35.895  1.00  0.00     0.031 C 
ATOM     67  C   UNL A   1      44.233  28.556  31.224  1.00  0.00     0.029 A 
ATOM     68  C   UNL A   1      43.428  27.771  32.034  1.00  0.00     0.049 A 
ATOM     69  H   UNL A   1      42.071  26.256  31.497  1.00  0.00     0.167 HD
ATOM     70  C   UNL A   1      42.926  28.684  34.196  1.00  0.00     0.074 A 
ATOM     71  C   UNL A   1      43.039  29.011  35.605  1.00  0.00     0.031 C 
ATOM     72  C   UNL A   1      43.320  27.602  33.467  1.00  0.00     0.037 A 
BRANCH  59  73
ATOM     73  C   UNL A   1      42.233  26.094  27.604  1.00  0.00     0.064 A 
ATOM     74  C   UNL A   1      41.642  24.829  27.449  1.00  0.00     0.173 A 
ATOM     75  C   UNL A   1      43.130  26.471  26.574  1.00  0.00     0.173 A 
ATOM     76  F   UNL A   1      40.740  24.383  28.332  1.00  0.00    -0.203 F 
ATOM     77  C   UNL A   1      42.008  23.959  26.412  1.00  0.00     0.198 A 
ATOM     78  C   UNL A   1      43.545  25.575  25.576  1.00  0.00     0.198 A 
ATOM     79  F   UNL A   1      43.693  27.689  26.576  1.00  0.00    -0.203 F 
ATOM     80  F   UNL A   1      41.435  22.750  26.327  1.00  0.00    -0.200 F 
ATOM     81  C   UNL A   1      42.989  24.314  25.504  1.00  0.00     0.200 A 
ATOM     82  F   UNL A   1      44.524  25.917  24.725  1.00  0.00    -0.200 F 
ATOM     83  F   UNL A   1      43.400  23.439  24.573  1.00  0.00    -0.200 F 
ENDBRANCH  59  73
BRANCH  60  84
ATOM     84  C   UNL A   1      40.243  32.616  34.997  1.00  0.00     0.064 A 
ATOM     85  C   UNL A   1      39.222  31.744  35.449  1.00  0.00     0.173 A 
ATOM     86  C   UNL A   1      40.235  33.913  35.520  1.00  0.00     0.173 A 
ATOM     87  F   UNL A   1      39.162  30.484  34.983  1.00  0.00    -0.203 F 
ATOM     88  C   UNL A   1      38.341  32.098  36.470  1.00  0.00     0.198 A 
ATOM     89  C   UNL A   1      39.322  34.280  36.523  1.00  0.00     0.198 A 
ATOM     90  F   UNL A   1      41.195  34.786  35.184  1.00  0.00    -0.203 F 
ATOM     91  F   UNL A   1      37.506  31.183  36.984  1.00  0.00    -0.200 F 
ATOM     92  C   UNL A   1      38.403  33.363  37.019  1.00  0.00     0.200 A 
ATOM     93  F   UNL A   1      39.434  35.476  37.122  1.00  0.00    -0.200 F 
ATOM     94  F   UNL A   1      37.643  33.672  38.080  1.00  0.00    -0.200 F 
ENDBRANCH  60  84
BRANCH  72  95
ATOM     95  C   UNL A   1      43.708  26.264  34.038  1.00  0.00     0.064 A 
ATOM     96  C   UNL A   1      42.785  25.394  34.633  1.00  0.00     0.173 A 
ATOM     97  C   UNL A   1      45.003  25.735  33.814  1.00  0.00     0.173 A 
ATOM     98  F   UNL A   1      41.498  25.737  34.783  1.00  0.00    -0.203 F 
ATOM     99  C   UNL A   1      43.147  24.111  35.039  1.00  0.00     0.198 A 
ATOM    100  C   UNL A   1      45.336  24.425  34.143  1.00  0.00     0.198 A 
ATOM    101  F   UNL A   1      45.973  26.459  33.234  1.00  0.00    -0.203 F 
ATOM    102  F   UNL A   1      42.248  23.336  35.658  1.00  0.00    -0.200 F 
ATOM    103  C   UNL A   1      44.415  23.621  34.778  1.00  0.00     0.200 A 
ATOM    104  F   UNL A   1      46.545  23.945  33.820  1.00  0.00    -0.200 F 
ATOM    105  F   UNL A   1      44.739  22.367  35.120  1.00  0.00    -0.200 F 
ENDBRANCH  72  95
ENDBRANCH  46  47
ENDBRANCH  39  41
ENDBRANCH  38  39
ENDBRANCH  37  38
ENDBRANCH  36  37
ENDBRANCH  35  36
ENDBRANCH  34  35
ENDBRANCH  33  34
ENDBRANCH   1  33
TORSDOF 22
ENDMDL
MODEL 3
REMARK VINA RESULT:     -13.3      2.101      3.366
REMARK SMILES Cc1ccc(S(=O)(=O)n2cc(C(=O)C(=O)NCC(=O)OCCOCCOCCOC(=O)c3ccc(-c4c5nc(c(-c6c(F)c(F)c(F)c(F)c6F)c6ccc([nH]6)c(-c6c(F)c(F)c(F)c(F)c6F)c6nc(c(-c7c(F)c(F)c(F)c(F)c7F)c7ccc4[nH]7)C=C6)C=C5)cc3)c3ccccc32)cc1
REMARK SMILES IDX 23 1 22 2 21 3 20 4 18 5 19 6 17 7 16 8 14 9 15 10 12 12
REMARK SMILES IDX 13 13 11 14 9 15 10 16 100 17 95 18 99 19 96 20 98 21 97 22
REMARK SMILES IDX 6 23 7 24 8 25 5 26 1 27 2 28 3 29 102 30 4 31 101 32 24 33
REMARK SMILES IDX 25 34 26 35 27 36 28 37 29 38 30 39 31 40 32 41 33 42 94 43
REMARK SMILES IDX 34 44 93 45 35 46 36 47 37 48 87 49 38 50 92 51 86 52 88 53
REMARK SMILES IDX 39 54 91 55 85 56 84 57 40 59 72 60 52 61 71 62 53 63 56 64
REMARK SMILES IDX 70 65 89 66 54 67 55 68 69 70 90 71 57 72 41 73 42 74 50 75
REMARK SMILES IDX 43 76 44 77 48 78 51 79 45 80 46 81 49 82 47 83 73 84 74 85
REMARK SMILES IDX 82 86 75 87 76 88 80 89 83 90 77 91 78 92 81 93 79 94 58 95
REMARK SMILES IDX 59 96 67 97 60 98 61 99 65 100 68 101 62 102 63 103 66 104
REMARK SMILES IDX 64 105
REMARK H PARENT 16 11 88 58 56 69
REMARK Flexibility Score: inf
ROOT
ATOM      1  O   UNL A   1      33.604  35.375  28.904  1.00  0.00    -0.376 OA
ENDROOT
BRANCH   1   2
ATOM      2  C   UNL A   1      33.911  33.990  28.738  1.00  0.00     0.202 C 
BRANCH   2   3
ATOM      3  C   UNL A   1      35.180  33.221  27.878  1.00  0.00     0.261 C 
BRANCH   3   4
ATOM      4  O   UNL A   1      35.925  31.624  28.016  1.00  0.00    -0.462 OA
BRANCH   4   5
ATOM      5  C   UNL A   1      35.793  30.209  27.777  1.00  0.00     0.325 C 
ATOM      6  O   UNL A   1      36.663  29.337  27.772  1.00  0.00    -0.250 OA
BRANCH   5   7
ATOM      7  C   UNL A   1      34.402  29.595  27.628  1.00  0.00     0.239 C 
BRANCH   7   8
ATOM      8  N   UNL A   1      33.478  30.434  26.952  1.00  0.00    -0.338 N 
ATOM      9  C   UNL A   1      32.189  30.060  26.672  1.00  0.00     0.292 C 
ATOM     10  O   UNL A   1      31.409  30.884  26.212  1.00  0.00    -0.265 OA
ATOM     11  H   UNL A   1      33.778  31.328  26.671  1.00  0.00     0.164 HD
BRANCH   9  12
ATOM     12  C   UNL A   1      31.756  28.579  26.903  1.00  0.00     0.252 C 
ATOM     13  O   UNL A   1      31.388  28.229  28.019  1.00  0.00    -0.283 OA
BRANCH  12  14
ATOM     14  C   UNL A   1      31.706  27.673  25.764  1.00  0.00     0.054 A 
ATOM     15  N   UNL A   1      31.492  25.742  24.697  1.00  0.00    -0.240 N 
ATOM     16  C   UNL A   1      31.078  26.446  25.788  1.00  0.00     0.117 A 
ATOM     17  C   UNL A   1      32.242  26.531  23.848  1.00  0.00     0.065 A 
ATOM     18  C   UNL A   1      32.350  27.780  24.482  1.00  0.00     0.012 A 
ATOM     19  C   UNL A   1      32.894  26.257  22.633  1.00  0.00     0.028 A 
ATOM     20  C   UNL A   1      33.082  28.801  23.833  1.00  0.00     0.011 A 
ATOM     21  C   UNL A   1      33.629  27.278  22.029  1.00  0.00     0.002 A 
ATOM     22  C   UNL A   1      33.707  28.539  22.608  1.00  0.00     0.001 A 
BRANCH  15  23
ATOM     23  S   UNL A   1      31.440  24.041  24.662  1.00  0.00     0.268 S 
ATOM     24  O   UNL A   1      31.012  23.678  23.351  1.00  0.00    -0.201 OA
ATOM     25  O   UNL A   1      30.674  23.664  25.861  1.00  0.00    -0.201 OA
BRANCH  23  26
ATOM     26  C   UNL A   1      33.104  23.475  24.907  1.00  0.00     0.088 A 
ATOM     27  C   UNL A   1      37.216  22.236  24.874  1.00  0.00     0.044 C 
ATOM     28  C   UNL A   1      35.772  22.634  24.944  1.00  0.00    -0.051 A 
ATOM     29  C   UNL A   1      34.821  21.939  24.185  1.00  0.00     0.005 A 
ATOM     30  C   UNL A   1      35.361  23.710  25.736  1.00  0.00     0.005 A 
ATOM     31  C   UNL A   1      33.492  22.357  24.164  1.00  0.00     0.022 A 
ATOM     32  C   UNL A   1      34.028  24.127  25.729  1.00  0.00     0.022 A 
ENDBRANCH  23  26
ENDBRANCH  15  23
ENDBRANCH  12  14
ENDBRANCH   9  12
ENDBRANCH   7   8
ENDBRANCH   5   7
ENDBRANCH   4   5
ENDBRANCH   3   4
ENDBRANCH   2   3
ENDBRANCH   1   2
BRANCH   1  33
ATOM     33  C   UNL A   1      32.906  35.982  30.004  1.00  0.00     0.188 C 
BRANCH  33  34
ATOM     34  C   UNL A   1      33.269  37.346  30.561  1.00  0.00     0.188 C 
BRANCH  34  35
ATOM     35  O   UNL A   1      33.184  37.312  31.968  1.00  0.00    -0.376 OA
BRANCH  35  36
ATOM     36  C   UNL A   1      33.231  36.026  32.549  1.00  0.00     0.202 C 
BRANCH  36  37
ATOM     37  C   UNL A   1      34.601  35.708  33.176  1.00  0.00     0.261 C 
BRANCH  37  38
ATOM     38  O   UNL A   1      35.297  34.682  32.419  1.00  0.00    -0.460 OA
BRANCH  38  39
ATOM     39  C   UNL A   1      35.237  33.376  32.862  1.00  0.00     0.338 C 
ATOM     40  O   UNL A   1      34.949  33.042  33.996  1.00  0.00    -0.246 OA
BRANCH  39  41
ATOM     41  C   UNL A   1      35.841  32.459  31.824  1.00  0.00     0.060 A 
ATOM     42  C   UNL A   1      35.960  31.057  31.882  1.00  0.00     0.016 A 
ATOM     43  C   UNL A   1      36.718  33.063  31.008  1.00  0.00     0.016 A 
ATOM     44  C   UNL A   1      37.112  30.339  31.299  1.00  0.00     0.010 A 
ATOM     45  C   UNL A   1      37.924  32.384  30.887  1.00  0.00     0.010 A 
ATOM     46  C   UNL A   1      38.256  30.999  30.827  1.00  0.00    -0.014 A 
BRANCH  46  47
ATOM     47  C   UNL A   1      39.770  30.296  30.436  1.00  0.00     0.031 A 
ATOM     48  C   UNL A   1      40.320  28.944  29.496  1.00  0.00     0.074 A 
ATOM     49  C   UNL A   1      40.834  30.966  30.947  1.00  0.00     0.049 A 
ATOM     50  N   UNL A   1      41.330  28.164  29.853  1.00  0.00    -0.248 NA
ATOM     51  C   UNL A   1      39.770  28.294  28.229  1.00  0.00     0.031 C 
ATOM     52  C   UNL A   1      42.258  30.797  30.653  1.00  0.00     0.029 A 
ATOM     53  N   UNL A   1      40.821  32.010  31.888  1.00  0.00    -0.354 N 
ATOM     54  C   UNL A   1      41.474  27.109  28.922  1.00  0.00     0.074 A 
ATOM     55  C   UNL A   1      40.397  27.158  28.032  1.00  0.00     0.031 C 
ATOM     56  C   UNL A   1      42.974  31.446  31.588  1.00  0.00     0.029 A 
ATOM     57  C   UNL A   1      42.038  31.947  32.577  1.00  0.00     0.049 A 
ATOM     58  H   UNL A   1      40.096  32.660  32.035  1.00  0.00     0.167 HD
ATOM     59  C   UNL A   1      42.540  26.280  28.772  1.00  0.00     0.037 A 
ATOM     60  C   UNL A   1      42.049  31.694  33.913  1.00  0.00     0.037 A 
ATOM     61  C   UNL A   1      43.568  26.707  29.661  1.00  0.00     0.049 A 
ATOM     62  C   UNL A   1      42.766  30.398  34.205  1.00  0.00     0.074 A 
ATOM     63  C   UNL A   1      44.515  27.705  29.524  1.00  0.00     0.029 A 
ATOM     64  N   UNL A   1      43.361  26.513  31.013  1.00  0.00    -0.354 N 
ATOM     65  N   UNL A   1      42.977  29.466  33.313  1.00  0.00    -0.248 NA
ATOM     66  C   UNL A   1      43.337  30.067  35.505  1.00  0.00     0.031 C 
ATOM     67  C   UNL A   1      44.793  28.197  30.824  1.00  0.00     0.029 A 
ATOM     68  C   UNL A   1      44.091  27.429  31.740  1.00  0.00     0.049 A 
ATOM     69  H   UNL A   1      42.777  25.821  31.401  1.00  0.00     0.167 HD
ATOM     70  C   UNL A   1      43.703  28.454  33.875  1.00  0.00     0.074 A 
ATOM     71  C   UNL A   1      43.903  28.875  35.248  1.00  0.00     0.031 C 
ATOM     72  C   UNL A   1      44.097  27.347  33.184  1.00  0.00     0.037 A 
BRANCH  59  73
ATOM     73  C   UNL A   1      42.660  25.418  27.523  1.00  0.00     0.064 A 
ATOM     74  C   UNL A   1      42.013  24.174  27.442  1.00  0.00     0.173 A 
ATOM     75  C   UNL A   1      43.555  25.702  26.463  1.00  0.00     0.173 A 
ATOM     76  F   UNL A   1      41.107  23.814  28.360  1.00  0.00    -0.203 F 
ATOM     77  C   UNL A   1      42.324  23.237  26.447  1.00  0.00     0.198 A 
ATOM     78  C   UNL A   1      43.916  24.739  25.507  1.00  0.00     0.198 A 
ATOM     79  F   UNL A   1      44.171  26.893  26.394  1.00  0.00    -0.203 F 
ATOM     80  F   UNL A   1      41.698  22.052  26.433  1.00  0.00    -0.200 F 
ATOM     81  C   UNL A   1      43.304  23.501  25.508  1.00  0.00     0.200 A 
ATOM     82  F   UNL A   1      44.894  24.994  24.626  1.00  0.00    -0.200 F 
ATOM     83  F   UNL A   1      43.663  22.563  24.618  1.00  0.00    -0.200 F 
ENDBRANCH  59  73
BRANCH  60  84
ATOM     84  C   UNL A   1      40.889  32.299  34.641  1.00  0.00     0.064 A 
ATOM     85  C   UNL A   1      40.927  33.696  34.878  1.00  0.00     0.173 A 
ATOM     86  C   UNL A   1      39.645  31.674  34.781  1.00  0.00     0.173 A 
ATOM     87  F   UNL A   1      42.089  34.362  34.769  1.00  0.00    -0.203 F 
ATOM     88  C   UNL A   1      39.770  34.444  35.095  1.00  0.00     0.198 A 
ATOM     89  C   UNL A   1      38.485  32.426  35.037  1.00  0.00     0.198 A 
ATOM     90  F   UNL A   1      39.511  30.365  34.526  1.00  0.00    -0.203 F 
ATOM     91  F   UNL A   1      39.835  35.783  35.143  1.00  0.00    -0.200 F 
ATOM     92  C   UNL A   1      38.546  33.809  35.158  1.00  0.00     0.200 A 
ATOM     93  F   UNL A   1      37.284  31.829  35.012  1.00  0.00    -0.200 F 
ATOM     94  F   UNL A   1      37.419  34.531  35.246  1.00  0.00    -0.200 F 
ENDBRANCH  60  84
BRANCH  72  95
ATOM     95  C   UNL A   1      44.595  26.068  33.803  1.00  0.00     0.064 A 
ATOM     96  C   UNL A   1      43.740  25.117  34.376  1.00  0.00     0.173 A 
ATOM     97  C   UNL A   1      45.947  25.674  33.650  1.00  0.00     0.173 A 
ATOM     98  F   UNL A   1      42.419  25.326  34.460  1.00  0.00    -0.203 F 
ATOM     99  C   UNL A   1      44.214  23.887  34.828  1.00  0.00     0.198 A 
ATOM    100  C   UNL A   1      46.398  24.412  34.024  1.00  0.00     0.198 A 
ATOM    101  F   UNL A   1      46.863  26.485  33.097  1.00  0.00    -0.203 F 
ATOM    102  F   UNL A   1      43.372  23.034  35.424  1.00  0.00    -0.200 F 
ATOM    103  C   UNL A   1      45.536  23.527  34.636  1.00  0.00     0.200 A 
ATOM    104  F   UNL A   1      47.664  24.055  33.767  1.00  0.00    -0.200 F 
ATOM    105  F   UNL A   1      45.973  22.322  35.022  1.00  0.00    -0.200 F 
ENDBRANCH  72  95
ENDBRANCH  46  47
ENDBRANCH  39  41
ENDBRANCH  38  39
ENDBRANCH  37  38
ENDBRANCH  36  37
ENDBRANCH  35  36
ENDBRANCH  34  35
ENDBRANCH  33  34
ENDBRANCH   1  33
TORSDOF 22
ENDMDL
