MODEL 1
REMARK VINA RESULT:     -10.6      0.000      0.000
REMARK SMILES CC(C)N(CCCC(=O)OCCOCCOCCOC(=O)c1ccc(-c2c3nc(c(-c4c(F)c(F)c(F)c(F)c4F)c4ccc([nH]4)c(-c4c(F)c(F)c(F)c(F)c4F)c4nc(c(-c5c(F)c(F)c(F)c(F)c5F)c5ccc2[nH]5)C=C4)C=C3)cc1)C(=O)N[C@@H]1CCCC1(C)C
REMARK SMILES IDX 13 1 12 2 11 3 10 4 8 5 9 6 7 7 6 8 5 9 4 10 2 11 1 12 3 13
REMARK SMILES IDX 85 14 86 15 87 16 88 18 89 19 92 20 90 21 91 22 93 23 94 24
REMARK SMILES IDX 14 25 15 26 16 27 17 28 18 29 19 30 20 31 21 32 22 33 23 34
REMARK SMILES IDX 84 35 24 36 83 37 25 38 26 39 27 40 77 41 28 42 82 43 76 44
REMARK SMILES IDX 78 45 29 46 81 47 75 48 74 49 30 51 62 52 42 53 61 54 43 55
REMARK SMILES IDX 46 56 60 57 79 58 44 59 45 60 59 62 80 63 47 64 31 65 32 66
REMARK SMILES IDX 40 67 33 68 34 69 38 70 41 71 35 72 36 73 39 74 37 75 63 76
REMARK SMILES IDX 64 77 72 78 65 79 66 80 70 81 73 82 67 83 68 84 71 85 69 86
REMARK SMILES IDX 48 87 49 88 57 89 50 90 51 91 55 92 58 93 52 94 53 95 56 96
REMARK SMILES IDX 54 97
REMARK H PARENT 87 17 78 50 46 61
REMARK Flexibility Score: inf
ROOT
ATOM      1  O   UNL A   1      41.734  19.885  27.352  1.00  0.00    -0.376 OA
ENDROOT
BRANCH   1   2
ATOM      2  C   UNL A   1      40.816  20.989  27.408  1.00  0.00     0.202 C 
BRANCH   2   3
ATOM      3  C   UNL A   1      40.000  21.220  26.106  1.00  0.00     0.261 C 
BRANCH   3   4
ATOM      4  O   UNL A   1      38.556  21.449  26.198  1.00  0.00    -0.463 OA
BRANCH   4   5
ATOM      5  C   UNL A   1      37.939  22.541  25.639  1.00  0.00     0.305 C 
ATOM      6  O   UNL A   1      37.805  23.615  26.211  1.00  0.00    -0.252 OA
BRANCH   5   7
ATOM      7  C   UNL A   1      37.310  22.205  24.256  1.00  0.00     0.124 C 
BRANCH   7   8
ATOM      8  C   UNL A   1      35.784  22.221  23.919  1.00  0.00     0.033 C 
BRANCH   8   9
ATOM      9  C   UNL A   1      34.795  23.453  23.883  1.00  0.00     0.122 C 
BRANCH   9  10
ATOM     10  N   UNL A   1      33.576  23.467  24.678  1.00  0.00    -0.322 N 
BRANCH  10  11
ATOM     11  C   UNL A   1      32.426  22.609  24.251  1.00  0.00     0.080 C 
ATOM     12  C   UNL A   1      31.850  21.642  25.304  1.00  0.00     0.031 C 
ATOM     13  C   UNL A   1      31.254  23.397  23.663  1.00  0.00     0.031 C 
ENDBRANCH  10  11
BRANCH  10  14
ATOM     14  C   UNL A   1      33.535  24.141  25.853  1.00  0.00     0.317 C 
ATOM     15  O   UNL A   1      34.001  23.685  26.896  1.00  0.00    -0.249 OA
ATOM     16  N   UNL A   1      32.910  25.336  25.918  1.00  0.00    -0.335 N 
ATOM     17  H   UNL A   1      32.520  25.487  26.809  1.00  0.00     0.165 HD
BRANCH  16  18
ATOM     18  C   UNL A   1      32.653  26.470  25.028  1.00  0.00     0.089 C 
ATOM     19  C   UNL A   1      33.750  27.358  24.413  1.00  0.00     0.025 C 
ATOM     20  C   UNL A   1      31.490  27.395  25.440  1.00  0.00    -0.015 C 
ATOM     21  C   UNL A   1      33.324  28.789  24.650  1.00  0.00     0.003 C 
ATOM     22  C   UNL A   1      31.810  28.683  24.672  1.00  0.00     0.008 C 
ATOM     23  C   UNL A   1      30.155  26.769  25.002  1.00  0.00     0.013 C 
ATOM     24  C   UNL A   1      31.412  27.687  26.931  1.00  0.00     0.013 C 
ENDBRANCH  16  18
ENDBRANCH  10  14
ENDBRANCH   9  10
ENDBRANCH   8   9
ENDBRANCH   7   8
ENDBRANCH   5   7
ENDBRANCH   4   5
ENDBRANCH   3   4
ENDBRANCH   2   3
ENDBRANCH   1   2
BRANCH   1  25
ATOM     25  C   UNL A   1      41.898  19.418  26.027  1.00  0.00     0.188 C 
BRANCH  25  26
ATOM     26  C   UNL A   1      43.338  19.164  25.570  1.00  0.00     0.188 C 
BRANCH  26  27
ATOM     27  O   UNL A   1      43.924  20.120  24.700  1.00  0.00    -0.376 OA
BRANCH  27  28
ATOM     28  C   UNL A   1      45.226  20.612  25.066  1.00  0.00     0.202 C 
BRANCH  28  29
ATOM     29  C   UNL A   1      45.575  22.117  25.207  1.00  0.00     0.261 C 
BRANCH  29  30
ATOM     30  O   UNL A   1      44.657  22.933  25.942  1.00  0.00    -0.460 OA
BRANCH  30  31
ATOM     31  C   UNL A   1      43.577  23.430  25.294  1.00  0.00     0.338 C 
ATOM     32  O   UNL A   1      43.039  22.963  24.301  1.00  0.00    -0.246 OA
BRANCH  31  33
ATOM     33  C   UNL A   1      42.997  24.504  26.145  1.00  0.00     0.060 A 
ATOM     34  C   UNL A   1      43.387  25.835  25.929  1.00  0.00     0.016 A 
ATOM     35  C   UNL A   1      42.017  24.215  27.100  1.00  0.00     0.016 A 
ATOM     36  C   UNL A   1      42.836  26.868  26.699  1.00  0.00     0.010 A 
ATOM     37  C   UNL A   1      41.468  25.244  27.868  1.00  0.00     0.010 A 
ATOM     38  C   UNL A   1      41.906  26.572  27.703  1.00  0.00    -0.014 A 
BRANCH  38  39
ATOM     39  C   UNL A   1      41.559  27.562  28.756  1.00  0.00     0.031 A 
ATOM     40  C   UNL A   1      42.362  27.524  30.028  1.00  0.00     0.074 A 
ATOM     41  C   UNL A   1      40.547  28.438  28.628  1.00  0.00     0.049 A 
ATOM     42  N   UNL A   1      42.145  28.110  31.177  1.00  0.00    -0.248 NA
ATOM     43  C   UNL A   1      43.576  26.690  29.999  1.00  0.00     0.031 C 
ATOM     44  C   UNL A   1      39.734  28.632  27.432  1.00  0.00     0.029 A 
ATOM     45  N   UNL A   1      40.014  29.315  29.544  1.00  0.00    -0.354 N 
ATOM     46  C   UNL A   1      43.172  27.691  32.012  1.00  0.00     0.074 A 
ATOM     47  C   UNL A   1      44.003  26.787  31.248  1.00  0.00     0.031 C 
ATOM     48  C   UNL A   1      38.787  29.551  27.694  1.00  0.00     0.029 A 
ATOM     49  C   UNL A   1      38.894  29.971  29.093  1.00  0.00     0.049 A 
ATOM     50  H   UNL A   1      40.400  29.460  30.439  1.00  0.00     0.167 HD
ATOM     51  C   UNL A   1      43.403  28.027  33.303  1.00  0.00     0.037 A 
ATOM     52  C   UNL A   1      38.034  30.777  29.749  1.00  0.00     0.037 A 
ATOM     53  C   UNL A   1      42.582  28.935  34.056  1.00  0.00     0.049 A 
ATOM     54  C   UNL A   1      38.264  31.074  31.214  1.00  0.00     0.074 A 
ATOM     55  C   UNL A   1      42.733  29.346  35.369  1.00  0.00     0.029 A 
ATOM     56  N   UNL A   1      41.451  29.568  33.564  1.00  0.00    -0.354 N 
ATOM     57  N   UNL A   1      39.230  30.671  32.003  1.00  0.00    -0.248 NA
ATOM     58  C   UNL A   1      37.276  31.938  31.881  1.00  0.00     0.031 C 
ATOM     59  C   UNL A   1      41.661  30.184  35.689  1.00  0.00     0.029 A 
ATOM     60  C   UNL A   1      40.883  30.351  34.555  1.00  0.00     0.049 A 
ATOM     61  H   UNL A   1      41.104  29.475  32.648  1.00  0.00     0.167 HD
ATOM     62  C   UNL A   1      38.992  31.265  33.239  1.00  0.00     0.074 A 
ATOM     63  C   UNL A   1      37.792  32.059  33.096  1.00  0.00     0.031 C 
ATOM     64  C   UNL A   1      39.705  31.165  34.387  1.00  0.00     0.037 A 
BRANCH  51  65
ATOM     65  C   UNL A   1      44.568  27.381  33.993  1.00  0.00     0.064 A 
ATOM     66  C   UNL A   1      45.883  27.838  33.819  1.00  0.00     0.173 A 
ATOM     67  C   UNL A   1      44.359  26.306  34.871  1.00  0.00     0.173 A 
ATOM     68  F   UNL A   1      46.139  28.851  32.976  1.00  0.00    -0.203 F 
ATOM     69  C   UNL A   1      46.946  27.228  34.477  1.00  0.00     0.198 A 
ATOM     70  C   UNL A   1      45.421  25.721  35.554  1.00  0.00     0.198 A 
ATOM     71  F   UNL A   1      43.122  25.830  35.075  1.00  0.00    -0.203 F 
ATOM     72  F   UNL A   1      48.199  27.647  34.255  1.00  0.00    -0.200 F 
ATOM     73  C   UNL A   1      46.714  26.176  35.352  1.00  0.00     0.200 A 
ATOM     74  F   UNL A   1      45.192  24.714  36.409  1.00  0.00    -0.200 F 
ATOM     75  F   UNL A   1      47.738  25.597  35.992  1.00  0.00    -0.200 F 
ENDBRANCH  51  65
BRANCH  52  76
ATOM     76  C   UNL A   1      36.845  31.341  29.049  1.00  0.00     0.064 A 
ATOM     77  C   UNL A   1      36.776  32.703  28.721  1.00  0.00     0.173 A 
ATOM     78  C   UNL A   1      35.730  30.545  28.747  1.00  0.00     0.173 A 
ATOM     79  F   UNL A   1      37.800  33.517  29.020  1.00  0.00    -0.203 F 
ATOM     80  C   UNL A   1      35.630  33.251  28.145  1.00  0.00     0.198 A 
ATOM     81  C   UNL A   1      34.598  31.087  28.140  1.00  0.00     0.198 A 
ATOM     82  F   UNL A   1      35.735  29.238  29.049  1.00  0.00    -0.203 F 
ATOM     83  F   UNL A   1      35.567  34.569  27.907  1.00  0.00    -0.200 F 
ATOM     84  C   UNL A   1      34.544  32.442  27.850  1.00  0.00     0.200 A 
ATOM     85  F   UNL A   1      33.554  30.298  27.849  1.00  0.00    -0.200 F 
ATOM     86  F   UNL A   1      33.441  32.969  27.304  1.00  0.00    -0.200 F 
ENDBRANCH  52  76
BRANCH  64  87
ATOM     87  C   UNL A   1      39.266  31.989  35.565  1.00  0.00     0.064 A 
ATOM     88  C   UNL A   1      39.628  33.335  35.711  1.00  0.00     0.173 A 
ATOM     89  C   UNL A   1      38.407  31.433  36.528  1.00  0.00     0.173 A 
ATOM     90  F   UNL A   1      40.455  33.912  34.826  1.00  0.00    -0.203 F 
ATOM     91  C   UNL A   1      39.164  34.089  36.787  1.00  0.00     0.198 A 
ATOM     92  C   UNL A   1      37.916  32.199  37.582  1.00  0.00     0.198 A 
ATOM     93  F   UNL A   1      38.020  30.152  36.430  1.00  0.00    -0.203 F 
ATOM     94  F   UNL A   1      39.556  35.363  36.930  1.00  0.00    -0.200 F 
ATOM     95  C   UNL A   1      38.301  33.524  37.714  1.00  0.00     0.200 A 
ATOM     96  F   UNL A   1      37.067  31.656  38.464  1.00  0.00    -0.200 F 
ATOM     97  F   UNL A   1      37.841  34.256  38.738  1.00  0.00    -0.200 F 
ENDBRANCH  64  87
ENDBRANCH  38  39
ENDBRANCH  31  33
ENDBRANCH  30  31
ENDBRANCH  29  30
ENDBRANCH  28  29
ENDBRANCH  27  28
ENDBRANCH  26  27
ENDBRANCH  25  26
ENDBRANCH   1  25
TORSDOF 23
ENDMDL
MODEL 2
REMARK VINA RESULT:     -10.5      1.323      3.015
REMARK SMILES CC(C)N(CCCC(=O)OCCOCCOCCOC(=O)c1ccc(-c2c3nc(c(-c4c(F)c(F)c(F)c(F)c4F)c4ccc([nH]4)c(-c4c(F)c(F)c(F)c(F)c4F)c4nc(c(-c5c(F)c(F)c(F)c(F)c5F)c5ccc2[nH]5)C=C4)C=C3)cc1)C(=O)N[C@@H]1CCCC1(C)C
REMARK SMILES IDX 13 1 12 2 11 3 10 4 8 5 9 6 7 7 6 8 5 9 4 10 2 11 1 12 3 13
REMARK SMILES IDX 85 14 86 15 87 16 88 18 89 19 92 20 90 21 91 22 93 23 94 24
REMARK SMILES IDX 14 25 15 26 16 27 17 28 18 29 19 30 20 31 21 32 22 33 23 34
REMARK SMILES IDX 84 35 24 36 83 37 25 38 26 39 27 40 77 41 28 42 82 43 76 44
REMARK SMILES IDX 78 45 29 46 81 47 75 48 74 49 30 51 62 52 42 53 61 54 43 55
REMARK SMILES IDX 46 56 60 57 79 58 44 59 45 60 59 62 80 63 47 64 31 65 32 66
REMARK SMILES IDX 40 67 33 68 34 69 38 70 41 71 35 72 36 73 39 74 37 75 63 76
REMARK SMILES IDX 64 77 72 78 65 79 66 80 70 81 73 82 67 83 68 84 71 85 69 86
REMARK SMILES IDX 48 87 49 88 57 89 50 90 51 91 55 92 58 93 52 94 53 95 56 96
REMARK SMILES IDX 54 97
REMARK H PARENT 87 17 78 50 46 61
REMARK Flexibility Score: inf
ROOT
ATOM      1  O   UNL A   1      41.774  19.517  27.174  1.00  0.00    -0.376 OA
ENDROOT
BRANCH   1   2
ATOM      2  C   UNL A   1      41.182  20.818  27.313  1.00  0.00     0.202 C 
BRANCH   2   3
ATOM      3  C   UNL A   1      40.582  21.401  26.002  1.00  0.00     0.261 C 
BRANCH   3   4
ATOM      4  O   UNL A   1      39.190  21.857  25.994  1.00  0.00    -0.463 OA
BRANCH   4   5
ATOM      5  C   UNL A   1      38.806  23.080  26.487  1.00  0.00     0.305 C 
ATOM      6  O   UNL A   1      39.158  23.518  27.575  1.00  0.00    -0.252 OA
BRANCH   5   7
ATOM      7  C   UNL A   1      37.762  23.772  25.564  1.00  0.00     0.124 C 
BRANCH   7   8
ATOM      8  C   UNL A   1      36.209  23.693  25.723  1.00  0.00     0.033 C 
BRANCH   8   9
ATOM      9  C   UNL A   1      35.195  22.700  25.029  1.00  0.00     0.122 C 
BRANCH   9  10
ATOM     10  N   UNL A   1      33.903  22.400  25.627  1.00  0.00    -0.322 N 
BRANCH  10  11
ATOM     11  C   UNL A   1      32.728  23.257  25.271  1.00  0.00     0.080 C 
ATOM     12  C   UNL A   1      31.330  22.633  25.455  1.00  0.00     0.031 C 
ATOM     13  C   UNL A   1      32.719  24.616  25.975  1.00  0.00     0.031 C 
ENDBRANCH  10  11
BRANCH  10  14
ATOM     14  C   UNL A   1      33.742  21.289  26.385  1.00  0.00     0.317 C 
ATOM     15  O   UNL A   1      33.496  21.338  27.590  1.00  0.00    -0.249 OA
ATOM     16  N   UNL A   1      33.913  20.069  25.832  1.00  0.00    -0.335 N 
ATOM     17  H   UNL A   1      34.253  19.423  26.491  1.00  0.00     0.165 HD
BRANCH  16  18
ATOM     18  C   UNL A   1      33.732  19.444  24.520  1.00  0.00     0.089 C 
ATOM     19  C   UNL A   1      32.722  19.924  23.461  1.00  0.00     0.025 C 
ATOM     20  C   UNL A   1      33.709  17.902  24.511  1.00  0.00    -0.015 C 
ATOM     21  C   UNL A   1      31.979  18.694  22.991  1.00  0.00     0.003 C 
ATOM     22  C   UNL A   1      33.007  17.594  23.183  1.00  0.00     0.008 C 
ATOM     23  C   UNL A   1      35.151  17.367  24.547  1.00  0.00     0.013 C 
ATOM     24  C   UNL A   1      32.938  17.273  25.661  1.00  0.00     0.013 C 
ENDBRANCH  16  18
ENDBRANCH  10  14
ENDBRANCH   9  10
ENDBRANCH   8   9
ENDBRANCH   7   8
ENDBRANCH   5   7
ENDBRANCH   4   5
ENDBRANCH   3   4
ENDBRANCH   2   3
ENDBRANCH   1   2
BRANCH   1  25
ATOM     25  C   UNL A   1      42.119  19.248  25.829  1.00  0.00     0.188 C 
BRANCH  25  26
ATOM     26  C   UNL A   1      43.616  19.214  25.506  1.00  0.00     0.188 C 
BRANCH  26  27
ATOM     27  O   UNL A   1      44.136  20.270  24.711  1.00  0.00    -0.376 OA
BRANCH  27  28
ATOM     28  C   UNL A   1      45.383  20.845  25.140  1.00  0.00     0.202 C 
BRANCH  28  29
ATOM     29  C   UNL A   1      45.726  22.354  25.030  1.00  0.00     0.261 C 
BRANCH  29  30
ATOM     30  O   UNL A   1      44.889  23.266  25.750  1.00  0.00    -0.460 OA
BRANCH  30  31
ATOM     31  C   UNL A   1      43.750  23.698  25.159  1.00  0.00     0.338 C 
ATOM     32  O   UNL A   1      43.196  23.204  24.188  1.00  0.00    -0.246 OA
BRANCH  31  33
ATOM     33  C   UNL A   1      43.145  24.727  26.048  1.00  0.00     0.060 A 
ATOM     34  C   UNL A   1      43.341  26.086  25.754  1.00  0.00     0.016 A 
ATOM     35  C   UNL A   1      42.326  24.360  27.120  1.00  0.00     0.016 A 
ATOM     36  C   UNL A   1      42.761  27.074  26.559  1.00  0.00     0.010 A 
ATOM     37  C   UNL A   1      41.748  25.345  27.922  1.00  0.00     0.010 A 
ATOM     38  C   UNL A   1      41.997  26.708  27.674  1.00  0.00    -0.014 A 
BRANCH  38  39
ATOM     39  C   UNL A   1      41.656  27.690  28.737  1.00  0.00     0.031 A 
ATOM     40  C   UNL A   1      42.475  27.651  29.999  1.00  0.00     0.074 A 
ATOM     41  C   UNL A   1      40.635  28.559  28.627  1.00  0.00     0.049 A 
ATOM     42  N   UNL A   1      42.267  28.230  31.153  1.00  0.00    -0.248 NA
ATOM     43  C   UNL A   1      43.695  26.827  29.950  1.00  0.00     0.031 C 
ATOM     44  C   UNL A   1      39.805  28.753  27.442  1.00  0.00     0.029 A 
ATOM     45  N   UNL A   1      40.107  29.427  29.555  1.00  0.00    -0.354 N 
ATOM     46  C   UNL A   1      43.309  27.814  31.973  1.00  0.00     0.074 A 
ATOM     47  C   UNL A   1      44.137  26.922  31.194  1.00  0.00     0.031 C 
ATOM     48  C   UNL A   1      38.854  29.663  27.721  1.00  0.00     0.029 A 
ATOM     49  C   UNL A   1      38.976  30.075  29.121  1.00  0.00     0.049 A 
ATOM     50  H   UNL A   1      40.503  29.570  30.445  1.00  0.00     0.167 HD
ATOM     51  C   UNL A   1      43.553  28.145  33.262  1.00  0.00     0.037 A 
ATOM     52  C   UNL A   1      38.118  30.871  29.792  1.00  0.00     0.037 A 
ATOM     53  C   UNL A   1      42.734  29.042  34.032  1.00  0.00     0.049 A 
ATOM     54  C   UNL A   1      38.364  31.163  31.255  1.00  0.00     0.074 A 
ATOM     55  C   UNL A   1      42.899  29.448  35.344  1.00  0.00     0.029 A 
ATOM     56  N   UNL A   1      41.592  29.669  33.557  1.00  0.00    -0.354 N 
ATOM     57  N   UNL A   1      39.343  30.763  32.030  1.00  0.00    -0.248 NA
ATOM     58  C   UNL A   1      37.378  32.015  31.940  1.00  0.00     0.031 C 
ATOM     59  C   UNL A   1      41.825  30.275  35.682  1.00  0.00     0.029 A 
ATOM     60  C   UNL A   1      41.031  30.443  34.559  1.00  0.00     0.049 A 
ATOM     61  H   UNL A   1      41.235  29.579  32.645  1.00  0.00     0.167 HD
ATOM     62  C   UNL A   1      39.117  31.349  33.273  1.00  0.00     0.074 A 
ATOM     63  C   UNL A   1      37.908  32.134  33.149  1.00  0.00     0.031 C 
ATOM     64  C   UNL A   1      39.845  31.248  34.411  1.00  0.00     0.037 A 
BRANCH  51  65
ATOM     65  C   UNL A   1      44.733  27.506  33.935  1.00  0.00     0.064 A 
ATOM     66  C   UNL A   1      44.634  26.271  34.593  1.00  0.00     0.173 A 
ATOM     67  C   UNL A   1      45.990  28.127  33.892  1.00  0.00     0.173 A 
ATOM     68  F   UNL A   1      43.450  25.645  34.680  1.00  0.00    -0.203 F 
ATOM     69  C   UNL A   1      45.745  25.694  35.202  1.00  0.00     0.198 A 
ATOM     70  C   UNL A   1      47.106  27.530  34.472  1.00  0.00     0.198 A 
ATOM     71  F   UNL A   1      46.141  29.309  33.274  1.00  0.00    -0.203 F 
ATOM     72  F   UNL A   1      45.616  24.539  35.870  1.00  0.00    -0.200 F 
ATOM     73  C   UNL A   1      46.981  26.319  35.133  1.00  0.00     0.200 A 
ATOM     74  F   UNL A   1      48.302  28.129  34.391  1.00  0.00    -0.200 F 
ATOM     75  F   UNL A   1      48.051  25.757  35.711  1.00  0.00    -0.200 F 
ENDBRANCH  51  65
BRANCH  52  76
ATOM     76  C   UNL A   1      36.916  31.430  29.111  1.00  0.00     0.064 A 
ATOM     77  C   UNL A   1      36.825  32.796  28.806  1.00  0.00     0.173 A 
ATOM     78  C   UNL A   1      35.810  30.623  28.803  1.00  0.00     0.173 A 
ATOM     79  F   UNL A   1      37.838  33.619  29.111  1.00  0.00    -0.203 F 
ATOM     80  C   UNL A   1      35.666  33.336  28.248  1.00  0.00     0.198 A 
ATOM     81  C   UNL A   1      34.666  31.158  28.213  1.00  0.00     0.198 A 
ATOM     82  F   UNL A   1      35.836  29.311  29.083  1.00  0.00    -0.203 F 
ATOM     83  F   UNL A   1      35.582  34.657  28.033  1.00  0.00    -0.200 F 
ATOM     84  C   UNL A   1      34.590  32.516  27.947  1.00  0.00     0.200 A 
ATOM     85  F   UNL A   1      33.632  30.359  27.917  1.00  0.00    -0.200 F 
ATOM     86  F   UNL A   1      33.475  33.037  27.418  1.00  0.00    -0.200 F 
ENDBRANCH  52  76
BRANCH  64  87
ATOM     87  C   UNL A   1      39.414  32.062  35.599  1.00  0.00     0.064 A 
ATOM     88  C   UNL A   1      39.826  33.389  35.784  1.00  0.00     0.173 A 
ATOM     89  C   UNL A   1      38.514  31.519  36.531  1.00  0.00     0.173 A 
ATOM     90  F   UNL A   1      40.693  33.953  34.928  1.00  0.00    -0.203 F 
ATOM     91  C   UNL A   1      39.369  34.136  36.867  1.00  0.00     0.198 A 
ATOM     92  C   UNL A   1      38.032  32.280  37.593  1.00  0.00     0.198 A 
ATOM     93  F   UNL A   1      38.079  30.257  36.396  1.00  0.00    -0.203 F 
ATOM     94  F   UNL A   1      39.809  35.390  37.047  1.00  0.00    -0.200 F 
ATOM     95  C   UNL A   1      38.466  33.585  37.763  1.00  0.00     0.200 A 
ATOM     96  F   UNL A   1      37.144  31.751  38.446  1.00  0.00    -0.200 F 
ATOM     97  F   UNL A   1      38.014  34.312  38.795  1.00  0.00    -0.200 F 
ENDBRANCH  64  87
ENDBRANCH  38  39
ENDBRANCH  31  33
ENDBRANCH  30  31
ENDBRANCH  29  30
ENDBRANCH  28  29
ENDBRANCH  27  28
ENDBRANCH  26  27
ENDBRANCH  25  26
ENDBRANCH   1  25
TORSDOF 23
ENDMDL
MODEL 3
REMARK VINA RESULT:     -10.2      1.016      2.027
REMARK SMILES CC(C)N(CCCC(=O)OCCOCCOCCOC(=O)c1ccc(-c2c3nc(c(-c4c(F)c(F)c(F)c(F)c4F)c4ccc([nH]4)c(-c4c(F)c(F)c(F)c(F)c4F)c4nc(c(-c5c(F)c(F)c(F)c(F)c5F)c5ccc2[nH]5)C=C4)C=C3)cc1)C(=O)N[C@@H]1CCCC1(C)C
REMARK SMILES IDX 13 1 12 2 11 3 10 4 8 5 9 6 7 7 6 8 5 9 4 10 2 11 1 12 3 13
REMARK SMILES IDX 85 14 86 15 87 16 88 18 89 19 92 20 90 21 91 22 93 23 94 24
REMARK SMILES IDX 14 25 15 26 16 27 17 28 18 29 19 30 20 31 21 32 22 33 23 34
REMARK SMILES IDX 84 35 24 36 83 37 25 38 26 39 27 40 77 41 28 42 82 43 76 44
REMARK SMILES IDX 78 45 29 46 81 47 75 48 74 49 30 51 62 52 42 53 61 54 43 55
REMARK SMILES IDX 46 56 60 57 79 58 44 59 45 60 59 62 80 63 47 64 31 65 32 66
REMARK SMILES IDX 40 67 33 68 34 69 38 70 41 71 35 72 36 73 39 74 37 75 63 76
REMARK SMILES IDX 64 77 72 78 65 79 66 80 70 81 73 82 67 83 68 84 71 85 69 86
REMARK SMILES IDX 48 87 49 88 57 89 50 90 51 91 55 92 58 93 52 94 53 95 56 96
REMARK SMILES IDX 54 97
REMARK H PARENT 87 17 78 50 46 61
REMARK Flexibility Score: inf
ROOT
ATOM      1  O   UNL A   1      41.041  20.066  25.610  1.00  0.00    -0.376 OA
ENDROOT
BRANCH   1   2
ATOM      2  C   UNL A   1      40.436  20.932  26.583  1.00  0.00     0.202 C 
BRANCH   2   3
ATOM      3  C   UNL A   1      39.346  21.883  26.015  1.00  0.00     0.261 C 
BRANCH   3   4
ATOM      4  O   UNL A   1      37.959  21.418  25.941  1.00  0.00    -0.463 OA
BRANCH   4   5
ATOM      5  C   UNL A   1      37.064  21.893  25.013  1.00  0.00     0.305 C 
ATOM      6  O   UNL A   1      37.272  21.901  23.807  1.00  0.00    -0.252 OA
BRANCH   5   7
ATOM      7  C   UNL A   1      35.824  22.547  25.689  1.00  0.00     0.124 C 
BRANCH   7   8
ATOM      8  C   UNL A   1      34.490  22.930  24.972  1.00  0.00     0.033 C 
BRANCH   8   9
ATOM      9  C   UNL A   1      33.580  24.202  25.194  1.00  0.00     0.122 C 
BRANCH   9  10
ATOM     10  N   UNL A   1      32.155  24.173  24.901  1.00  0.00    -0.322 N 
BRANCH  10  11
ATOM     11  C   UNL A   1      31.233  23.497  25.868  1.00  0.00     0.080 C 
ATOM     12  C   UNL A   1      31.885  22.794  27.075  1.00  0.00     0.031 C 
ATOM     13  C   UNL A   1      30.131  24.410  26.410  1.00  0.00     0.031 C 
ENDBRANCH  10  11
BRANCH  10  14
ATOM     14  C   UNL A   1      31.662  24.857  23.840  1.00  0.00     0.317 C 
ATOM     15  O   UNL A   1      30.892  24.352  23.024  1.00  0.00    -0.249 OA
ATOM     16  N   UNL A   1      32.064  26.127  23.616  1.00  0.00    -0.335 N 
ATOM     17  H   UNL A   1      32.063  26.337  22.654  1.00  0.00     0.165 HD
BRANCH  16  18
ATOM     18  C   UNL A   1      32.502  27.276  24.410  1.00  0.00     0.089 C 
ATOM     19  C   UNL A   1      31.956  27.626  25.806  1.00  0.00     0.025 C 
ATOM     20  C   UNL A   1      32.668  28.600  23.636  1.00  0.00    -0.015 C 
ATOM     21  C   UNL A   1      31.616  29.099  25.775  1.00  0.00     0.003 C 
ATOM     22  C   UNL A   1      32.602  29.643  24.758  1.00  0.00     0.008 C 
ATOM     23  C   UNL A   1      34.025  28.605  22.912  1.00  0.00     0.013 C 
ATOM     24  C   UNL A   1      31.578  28.874  22.610  1.00  0.00     0.013 C 
ENDBRANCH  16  18
ENDBRANCH  10  14
ENDBRANCH   9  10
ENDBRANCH   8   9
ENDBRANCH   7   8
ENDBRANCH   5   7
ENDBRANCH   4   5
ENDBRANCH   3   4
ENDBRANCH   2   3
ENDBRANCH   1   2
BRANCH   1  25
ATOM     25  C   UNL A   1      41.742  19.005  26.229  1.00  0.00     0.188 C 
BRANCH  25  26
ATOM     26  C   UNL A   1      43.168  18.751  25.730  1.00  0.00     0.188 C 
BRANCH  26  27
ATOM     27  O   UNL A   1      43.607  19.495  24.603  1.00  0.00    -0.376 OA
BRANCH  27  28
ATOM     28  C   UNL A   1      44.606  20.502  24.846  1.00  0.00     0.202 C 
BRANCH  28  29
ATOM     29  C   UNL A   1      44.486  21.597  25.938  1.00  0.00     0.261 C 
BRANCH  29  30
ATOM     30  O   UNL A   1      43.443  22.565  25.777  1.00  0.00    -0.460 OA
BRANCH  30  31
ATOM     31  C   UNL A   1      43.769  23.786  25.292  1.00  0.00     0.338 C 
ATOM     32  O   UNL A   1      44.303  24.030  24.220  1.00  0.00    -0.246 OA
BRANCH  31  33
ATOM     33  C   UNL A   1      43.135  24.805  26.174  1.00  0.00     0.060 A 
ATOM     34  C   UNL A   1      43.386  26.166  25.939  1.00  0.00     0.016 A 
ATOM     35  C   UNL A   1      42.239  24.428  27.178  1.00  0.00     0.016 A 
ATOM     36  C   UNL A   1      42.782  27.144  26.738  1.00  0.00     0.010 A 
ATOM     37  C   UNL A   1      41.636  25.404  27.975  1.00  0.00     0.010 A 
ATOM     38  C   UNL A   1      41.938  26.766  27.789  1.00  0.00    -0.014 A 
BRANCH  38  39
ATOM     39  C   UNL A   1      41.555  27.723  28.860  1.00  0.00     0.031 A 
ATOM     40  C   UNL A   1      42.329  27.660  30.149  1.00  0.00     0.074 A 
ATOM     41  C   UNL A   1      40.534  28.590  28.733  1.00  0.00     0.049 A 
ATOM     42  N   UNL A   1      42.079  28.212  31.307  1.00  0.00    -0.248 NA
ATOM     43  C   UNL A   1      43.554  26.842  30.125  1.00  0.00     0.031 C 
ATOM     44  C   UNL A   1      39.746  28.806  27.524  1.00  0.00     0.029 A 
ATOM     45  N   UNL A   1      39.971  29.435  29.660  1.00  0.00    -0.354 N 
ATOM     46  C   UNL A   1      43.093  27.783  32.154  1.00  0.00     0.074 A 
ATOM     47  C   UNL A   1      43.952  26.911  31.385  1.00  0.00     0.031 C 
ATOM     48  C   UNL A   1      38.782  29.707  27.789  1.00  0.00     0.029 A 
ATOM     49  C   UNL A   1      38.853  30.089  29.200  1.00  0.00     0.049 A 
ATOM     50  H   UNL A   1      40.334  29.561  30.566  1.00  0.00     0.167 HD
ATOM     51  C   UNL A   1      43.290  28.087  33.458  1.00  0.00     0.037 A 
ATOM     52  C   UNL A   1      37.968  30.867  29.858  1.00  0.00     0.037 A 
ATOM     53  C   UNL A   1      42.440  28.964  34.217  1.00  0.00     0.049 A 
ATOM     54  C   UNL A   1      38.161  31.127  31.335  1.00  0.00     0.074 A 
ATOM     55  C   UNL A   1      42.557  29.342  35.543  1.00  0.00     0.029 A 
ATOM     56  N   UNL A   1      41.313  29.597  33.716  1.00  0.00    -0.354 N 
ATOM     57  N   UNL A   1      39.114  30.715  32.135  1.00  0.00    -0.248 NA
ATOM     58  C   UNL A   1      37.147  31.961  32.002  1.00  0.00     0.031 C 
ATOM     59  C   UNL A   1      41.467  30.157  35.861  1.00  0.00     0.029 A 
ATOM     60  C   UNL A   1      40.713  30.346  34.714  1.00  0.00     0.049 A 
ATOM     61  H   UNL A   1      40.988  29.525  32.790  1.00  0.00     0.167 HD
ATOM     62  C   UNL A   1      38.841  31.272  33.381  1.00  0.00     0.074 A 
ATOM     63  C   UNL A   1      37.634  32.055  33.232  1.00  0.00     0.031 C 
ATOM     64  C   UNL A   1      39.529  31.150  34.542  1.00  0.00     0.037 A 
BRANCH  51  65
ATOM     65  C   UNL A   1      44.448  27.437  34.158  1.00  0.00     0.064 A 
ATOM     66  C   UNL A   1      44.313  26.224  34.848  1.00  0.00     0.173 A 
ATOM     67  C   UNL A   1      45.721  28.026  34.108  1.00  0.00     0.173 A 
ATOM     68  F   UNL A   1      43.114  25.630  34.942  1.00  0.00    -0.203 F 
ATOM     69  C   UNL A   1      45.405  25.637  35.483  1.00  0.00     0.198 A 
ATOM     70  C   UNL A   1      46.817  27.418  34.714  1.00  0.00     0.198 A 
ATOM     71  F   UNL A   1      45.906  29.186  33.460  1.00  0.00    -0.203 F 
ATOM     72  F   UNL A   1      45.242  24.504  36.180  1.00  0.00    -0.200 F 
ATOM     73  C   UNL A   1      46.657  26.229  35.407  1.00  0.00     0.200 A 
ATOM     74  F   UNL A   1      48.028  27.985  34.627  1.00  0.00    -0.200 F 
ATOM     75  F   UNL A   1      47.708  25.657  36.009  1.00  0.00    -0.200 F 
ENDBRANCH  51  65
BRANCH  52  76
ATOM     76  C   UNL A   1      36.788  31.436  29.147  1.00  0.00     0.064 A 
ATOM     77  C   UNL A   1      36.715  32.803  28.842  1.00  0.00     0.173 A 
ATOM     78  C   UNL A   1      35.684  30.637  28.809  1.00  0.00     0.173 A 
ATOM     79  F   UNL A   1      37.726  33.618  29.175  1.00  0.00    -0.203 F 
ATOM     80  C   UNL A   1      35.575  33.353  28.256  1.00  0.00     0.198 A 
ATOM     81  C   UNL A   1      34.560  31.182  28.191  1.00  0.00     0.198 A 
ATOM     82  F   UNL A   1      35.693  29.325  29.087  1.00  0.00    -0.203 F 
ATOM     83  F   UNL A   1      35.506  34.674  28.041  1.00  0.00    -0.200 F 
ATOM     84  C   UNL A   1      34.501  32.541  27.926  1.00  0.00     0.200 A 
ATOM     85  F   UNL A   1      33.528  30.391  27.866  1.00  0.00    -0.200 F 
ATOM     86  F   UNL A   1      33.404  33.071  27.369  1.00  0.00    -0.200 F 
ENDBRANCH  52  76
BRANCH  64  87
ATOM     87  C   UNL A   1      39.053  31.936  35.731  1.00  0.00     0.064 A 
ATOM     88  C   UNL A   1      38.218  31.377  36.709  1.00  0.00     0.173 A 
ATOM     89  C   UNL A   1      39.503  33.252  35.927  1.00  0.00     0.173 A 
ATOM     90  F   UNL A   1      37.751  30.127  36.565  1.00  0.00    -0.203 F 
ATOM     91  C   UNL A   1      37.834  32.113  37.828  1.00  0.00     0.198 A 
ATOM     92  C   UNL A   1      39.146  33.972  37.064  1.00  0.00     0.198 A 
ATOM     93  F   UNL A   1      40.313  33.831  35.028  1.00  0.00    -0.203 F 
ATOM     94  F   UNL A   1      37.001  31.574  38.729  1.00  0.00    -0.200 F 
ATOM     95  C   UNL A   1      38.307  33.404  38.010  1.00  0.00     0.200 A 
ATOM     96  F   UNL A   1      39.621  35.212  37.247  1.00  0.00    -0.200 F 
ATOM     97  F   UNL A   1      37.950  34.103  39.096  1.00  0.00    -0.200 F 
ENDBRANCH  64  87
ENDBRANCH  38  39
ENDBRANCH  31  33
ENDBRANCH  30  31
ENDBRANCH  29  30
ENDBRANCH  28  29
ENDBRANCH  27  28
ENDBRANCH  26  27
ENDBRANCH  25  26
ENDBRANCH   1  25
TORSDOF 23
ENDMDL
