MODEL 1
REMARK VINA RESULT:     -10.4      0.000      0.000
REMARK SMILES CCc1ccc(C(=O)[C@@H](Br)CC(=O)OCCOCCOCCOC(=O)c2ccc(-c3c4nc(c(-c5c(F)c(F)c(F)c(F)c5F)c5ccc([nH]5)c(-c5c(F)c(F)c(F)c(F)c5F)c5nc(c(-c6c(F)c(F)c(F)c(F)c6F)c6ccc3[nH]6)C=C5)C=C4)cc2)cc1
REMARK SMILES IDX 18 1 17 2 16 3 15 4 14 5 12 6 13 7 11 8 9 9 10 10 7 11 8 12
REMARK SMILES IDX 6 13 3 14 4 15 90 16 5 17 89 18 2 19 1 20 19 21 20 22 21 23
REMARK SMILES IDX 22 24 23 25 24 26 25 27 26 28 27 29 88 30 28 31 87 32 29 33
REMARK SMILES IDX 30 34 31 35 81 36 32 37 86 38 80 39 82 40 33 41 85 42 79 43
REMARK SMILES IDX 78 44 34 46 66 47 46 48 65 49 47 50 50 51 64 52 83 53 48 54
REMARK SMILES IDX 49 55 63 57 84 58 51 59 35 60 36 61 44 62 37 63 38 64 42 65
REMARK SMILES IDX 45 66 39 67 40 68 43 69 41 70 67 71 68 72 76 73 69 74 70 75
REMARK SMILES IDX 74 76 77 77 71 78 72 79 75 80 73 81 52 82 53 83 61 84 54 85
REMARK SMILES IDX 55 86 59 87 62 88 56 89 57 90 60 91 58 92
REMARK H PARENT 82 45 50 56
REMARK Flexibility Score: inf
ROOT
ATOM      1  C   UNL A   1      39.471  21.077  25.815  1.00  0.00     0.188 C 
ENDROOT
BRANCH   1   2
ATOM      2  O   UNL A   1      38.967  22.202  26.524  1.00  0.00    -0.376 OA
BRANCH   2   3
ATOM      3  C   UNL A   1      38.112  23.088  25.796  1.00  0.00     0.202 C 
BRANCH   3   4
ATOM      4  C   UNL A   1      37.042  22.433  24.903  1.00  0.00     0.261 C 
BRANCH   4   5
ATOM      5  O   UNL A   1      36.138  21.564  25.621  1.00  0.00    -0.463 OA
BRANCH   5   6
ATOM      6  C   UNL A   1      34.920  22.085  25.916  1.00  0.00     0.307 C 
ATOM      7  O   UNL A   1      34.715  22.980  26.728  1.00  0.00    -0.252 OA
BRANCH   6   8
ATOM      8  C   UNL A   1      33.822  21.586  25.004  1.00  0.00     0.146 C 
BRANCH   8   9
ATOM      9  C   UNL A   1      33.103  22.612  24.152  1.00  0.00     0.140 C 
ATOM     10  Br  UNL A   1      32.046  21.697  22.770  1.00  0.00    -0.080 Br
BRANCH   9  11
ATOM     11  C   UNL A   1      33.869  23.720  23.456  1.00  0.00     0.177 C 
ATOM     12  O   UNL A   1      34.745  23.438  22.632  1.00  0.00    -0.293 OA
BRANCH  11  13
ATOM     13  C   UNL A   1      33.617  25.162  23.741  1.00  0.00     0.019 A 
ATOM     14  C   UNL A   1      33.119  27.842  24.435  1.00  0.00    -0.048 A 
ATOM     15  C   UNL A   1      32.750  26.810  25.302  1.00  0.00     0.004 A 
ATOM     16  C   UNL A   1      33.719  27.524  23.213  1.00  0.00     0.004 A 
ATOM     17  C   UNL A   1      32.997  25.480  24.956  1.00  0.00     0.012 A 
ATOM     18  C   UNL A   1      33.950  26.193  22.859  1.00  0.00     0.012 A 
BRANCH  14  19
ATOM     19  C   UNL A   1      32.904  29.284  24.818  1.00  0.00     0.032 C 
ATOM     20  C   UNL A   1      31.443  29.559  25.136  1.00  0.00     0.009 C 
ENDBRANCH  14  19
ENDBRANCH  11  13
ENDBRANCH   9  11
ENDBRANCH   8   9
ENDBRANCH   6   8
ENDBRANCH   5   6
ENDBRANCH   4   5
ENDBRANCH   3   4
ENDBRANCH   2   3
ENDBRANCH   1   2
BRANCH   1  21
ATOM     21  C   UNL A   1      40.579  20.275  26.501  1.00  0.00     0.188 C 
BRANCH  21  22
ATOM     22  O   UNL A   1      41.823  20.941  26.639  1.00  0.00    -0.376 OA
BRANCH  22  23
ATOM     23  C   UNL A   1      42.925  20.404  25.898  1.00  0.00     0.202 C 
BRANCH  23  24
ATOM     24  C   UNL A   1      43.740  21.411  25.057  1.00  0.00     0.261 C 
BRANCH  24  25
ATOM     25  O   UNL A   1      43.096  22.683  24.810  1.00  0.00    -0.460 OA
BRANCH  25  26
ATOM     26  C   UNL A   1      43.850  23.801  24.909  1.00  0.00     0.338 C 
ATOM     27  O   UNL A   1      44.784  24.113  24.190  1.00  0.00    -0.246 OA
BRANCH  26  28
ATOM     28  C   UNL A   1      43.196  24.737  25.866  1.00  0.00     0.060 A 
ATOM     29  C   UNL A   1      43.664  26.059  25.919  1.00  0.00     0.016 A 
ATOM     30  C   UNL A   1      42.103  24.361  26.653  1.00  0.00     0.016 A 
ATOM     31  C   UNL A   1      43.075  26.989  26.782  1.00  0.00     0.010 A 
ATOM     32  C   UNL A   1      41.524  25.289  27.531  1.00  0.00     0.010 A 
ATOM     33  C   UNL A   1      42.027  26.599  27.628  1.00  0.00    -0.014 A 
BRANCH  33  34
ATOM     34  C   UNL A   1      41.606  27.485  28.748  1.00  0.00     0.031 A 
ATOM     35  C   UNL A   1      42.363  27.392  30.049  1.00  0.00     0.074 A 
ATOM     36  C   UNL A   1      40.595  28.366  28.631  1.00  0.00     0.049 A 
ATOM     37  N   UNL A   1      42.149  28.007  31.185  1.00  0.00    -0.248 NA
ATOM     38  C   UNL A   1      43.518  26.480  30.069  1.00  0.00     0.031 C 
ATOM     39  C   UNL A   1      39.801  28.594  27.426  1.00  0.00     0.029 A 
ATOM     40  N   UNL A   1      40.053  29.228  29.558  1.00  0.00    -0.354 N 
ATOM     41  C   UNL A   1      43.127  27.542  32.056  1.00  0.00     0.074 A 
ATOM     42  C   UNL A   1      43.926  26.583  31.324  1.00  0.00     0.031 C 
ATOM     43  C   UNL A   1      38.859  29.518  27.693  1.00  0.00     0.029 A 
ATOM     44  C   UNL A   1      38.958  29.922  29.096  1.00  0.00     0.049 A 
ATOM     45  H   UNL A   1      40.414  29.338  30.467  1.00  0.00     0.167 HD
ATOM     46  C   UNL A   1      43.344  27.883  33.346  1.00  0.00     0.037 A 
ATOM     47  C   UNL A   1      38.118  30.759  29.740  1.00  0.00     0.037 A 
ATOM     48  C   UNL A   1      42.570  28.852  34.076  1.00  0.00     0.049 A 
ATOM     49  C   UNL A   1      38.349  31.076  31.201  1.00  0.00     0.074 A 
ATOM     50  C   UNL A   1      42.752  29.295  35.374  1.00  0.00     0.029 A 
ATOM     51  N   UNL A   1      41.463  29.519  33.577  1.00  0.00    -0.354 N 
ATOM     52  N   UNL A   1      39.304  30.667  32.000  1.00  0.00    -0.248 NA
ATOM     53  C   UNL A   1      37.381  31.977  31.850  1.00  0.00     0.031 C 
ATOM     54  C   UNL A   1      41.715  30.180  35.685  1.00  0.00     0.029 A 
ATOM     55  C   UNL A   1      40.930  30.342  34.556  1.00  0.00     0.049 A 
ATOM     56  H   UNL A   1      41.109  29.423  32.664  1.00  0.00     0.167 HD
ATOM     57  C   UNL A   1      39.074  31.287  33.224  1.00  0.00     0.074 A 
ATOM     58  C   UNL A   1      37.899  32.113  33.062  1.00  0.00     0.031 C 
ATOM     59  C   UNL A   1      39.773  31.180  34.380  1.00  0.00     0.037 A 
BRANCH  46  60
ATOM     60  C   UNL A   1      44.450  27.188  34.084  1.00  0.00     0.064 A 
ATOM     61  C   UNL A   1      45.682  27.809  34.331  1.00  0.00     0.173 A 
ATOM     62  C   UNL A   1      44.235  25.911  34.626  1.00  0.00     0.173 A 
ATOM     63  F   UNL A   1      45.940  29.023  33.822  1.00  0.00    -0.203 F 
ATOM     64  C   UNL A   1      46.662  27.174  35.088  1.00  0.00     0.198 A 
ATOM     65  C   UNL A   1      45.206  25.291  35.407  1.00  0.00     0.198 A 
ATOM     66  F   UNL A   1      43.071  25.276  34.420  1.00  0.00    -0.203 F 
ATOM     67  F   UNL A   1      47.843  27.774  35.291  1.00  0.00    -0.200 F 
ATOM     68  C   UNL A   1      46.419  25.922  35.636  1.00  0.00     0.200 A 
ATOM     69  F   UNL A   1      44.961  24.090  35.948  1.00  0.00    -0.200 F 
ATOM     70  F   UNL A   1      47.354  25.324  36.386  1.00  0.00    -0.200 F 
ENDBRANCH  46  60
BRANCH  47  71
ATOM     71  C   UNL A   1      36.936  31.336  29.038  1.00  0.00     0.064 A 
ATOM     72  C   UNL A   1      36.865  32.702  28.728  1.00  0.00     0.173 A 
ATOM     73  C   UNL A   1      35.815  30.545  28.741  1.00  0.00     0.173 A 
ATOM     74  F   UNL A   1      37.895  33.510  29.021  1.00  0.00    -0.203 F 
ATOM     75  C   UNL A   1      35.707  33.261  28.187  1.00  0.00     0.198 A 
ATOM     76  C   UNL A   1      34.671  31.099  28.166  1.00  0.00     0.198 A 
ATOM     77  F   UNL A   1      35.823  29.234  29.024  1.00  0.00    -0.203 F 
ATOM     78  F   UNL A   1      35.640  34.583  27.977  1.00  0.00    -0.200 F 
ATOM     79  C   UNL A   1      34.613  32.458  27.904  1.00  0.00     0.200 A 
ATOM     80  F   UNL A   1      33.620  30.317  27.887  1.00  0.00    -0.200 F 
ATOM     81  F   UNL A   1      33.496  32.998  27.397  1.00  0.00    -0.200 F 
ENDBRANCH  47  71
BRANCH  59  82
ATOM     82  C   UNL A   1      39.330  32.013  35.552  1.00  0.00     0.064 A 
ATOM     83  C   UNL A   1      39.744  33.342  35.717  1.00  0.00     0.173 A 
ATOM     84  C   UNL A   1      38.435  31.485  36.497  1.00  0.00     0.173 A 
ATOM     85  F   UNL A   1      40.607  33.893  34.849  1.00  0.00    -0.203 F 
ATOM     86  C   UNL A   1      39.303  34.103  36.797  1.00  0.00     0.198 A 
ATOM     87  C   UNL A   1      37.969  32.259  37.556  1.00  0.00     0.198 A 
ATOM     88  F   UNL A   1      37.997  30.222  36.383  1.00  0.00    -0.203 F 
ATOM     89  F   UNL A   1      39.752  35.355  36.961  1.00  0.00    -0.200 F 
ATOM     90  C   UNL A   1      38.409  33.564  37.711  1.00  0.00     0.200 A 
ATOM     91  F   UNL A   1      37.090  31.742  38.425  1.00  0.00    -0.200 F 
ATOM     92  F   UNL A   1      37.976  34.300  38.743  1.00  0.00    -0.200 F 
ENDBRANCH  59  82
ENDBRANCH  33  34
ENDBRANCH  26  28
ENDBRANCH  25  26
ENDBRANCH  24  25
ENDBRANCH  23  24
ENDBRANCH  22  23
ENDBRANCH  21  22
ENDBRANCH   1  21
TORSDOF 21
ENDMDL
MODEL 2
REMARK VINA RESULT:     -10.2      5.251      7.800
REMARK SMILES CCc1ccc(C(=O)[C@@H](Br)CC(=O)OCCOCCOCCOC(=O)c2ccc(-c3c4nc(c(-c5c(F)c(F)c(F)c(F)c5F)c5ccc([nH]5)c(-c5c(F)c(F)c(F)c(F)c5F)c5nc(c(-c6c(F)c(F)c(F)c(F)c6F)c6ccc3[nH]6)C=C5)C=C4)cc2)cc1
REMARK SMILES IDX 18 1 17 2 16 3 15 4 14 5 12 6 13 7 11 8 9 9 10 10 7 11 8 12
REMARK SMILES IDX 6 13 3 14 4 15 90 16 5 17 89 18 2 19 1 20 19 21 20 22 21 23
REMARK SMILES IDX 22 24 23 25 24 26 25 27 26 28 27 29 88 30 28 31 87 32 29 33
REMARK SMILES IDX 30 34 31 35 81 36 32 37 86 38 80 39 82 40 33 41 85 42 79 43
REMARK SMILES IDX 78 44 34 46 66 47 46 48 65 49 47 50 50 51 64 52 83 53 48 54
REMARK SMILES IDX 49 55 63 57 84 58 51 59 35 60 36 61 44 62 37 63 38 64 42 65
REMARK SMILES IDX 45 66 39 67 40 68 43 69 41 70 67 71 68 72 76 73 69 74 70 75
REMARK SMILES IDX 74 76 77 77 71 78 72 79 75 80 73 81 52 82 53 83 61 84 54 85
REMARK SMILES IDX 55 86 59 87 62 88 56 89 57 90 60 91 58 92
REMARK H PARENT 82 45 50 56
REMARK Flexibility Score: inf
ROOT
ATOM      1  C   UNL A   1      39.531  21.975  26.228  1.00  0.00     0.188 C 
ENDROOT
BRANCH   1   2
ATOM      2  O   UNL A   1      39.190  23.259  26.737  1.00  0.00    -0.376 OA
BRANCH   2   3
ATOM      3  C   UNL A   1      38.092  23.926  26.109  1.00  0.00     0.202 C 
BRANCH   3   4
ATOM      4  C   UNL A   1      36.973  23.031  25.546  1.00  0.00     0.261 C 
BRANCH   4   5
ATOM      5  O   UNL A   1      35.829  23.766  25.059  1.00  0.00    -0.463 OA
BRANCH   5   6
ATOM      6  C   UNL A   1      35.538  23.610  23.742  1.00  0.00     0.307 C 
ATOM      7  O   UNL A   1      36.222  22.985  22.939  1.00  0.00    -0.252 OA
BRANCH   6   8
ATOM      8  C   UNL A   1      34.169  24.131  23.368  1.00  0.00     0.146 C 
BRANCH   8   9
ATOM      9  C   UNL A   1      33.026  23.138  23.349  1.00  0.00     0.140 C 
ATOM     10  Br  UNL A   1      31.317  24.102  23.222  1.00  0.00    -0.080 Br
BRANCH   9  11
ATOM     11  C   UNL A   1      32.868  22.111  24.456  1.00  0.00     0.177 C 
ATOM     12  O   UNL A   1      32.521  22.473  25.584  1.00  0.00    -0.293 OA
BRANCH  11  13
ATOM     13  C   UNL A   1      33.136  20.660  24.237  1.00  0.00     0.019 A 
ATOM     14  C   UNL A   1      33.747  17.930  23.950  1.00  0.00    -0.048 A 
ATOM     15  C   UNL A   1      34.597  18.770  24.674  1.00  0.00     0.004 A 
ATOM     16  C   UNL A   1      32.602  18.469  23.356  1.00  0.00     0.004 A 
ATOM     17  C   UNL A   1      34.294  20.125  24.816  1.00  0.00     0.012 A 
ATOM     18  C   UNL A   1      32.307  19.828  23.483  1.00  0.00     0.012 A 
BRANCH  14  19
ATOM     19  C   UNL A   1      34.036  16.456  23.832  1.00  0.00     0.032 C 
ATOM     20  C   UNL A   1      34.853  15.957  25.013  1.00  0.00     0.009 C 
ENDBRANCH  14  19
ENDBRANCH  11  13
ENDBRANCH   9  11
ENDBRANCH   8   9
ENDBRANCH   6   8
ENDBRANCH   5   6
ENDBRANCH   4   5
ENDBRANCH   3   4
ENDBRANCH   2   3
ENDBRANCH   1   2
BRANCH   1  21
ATOM     21  C   UNL A   1      40.661  21.233  26.944  1.00  0.00     0.188 C 
BRANCH  21  22
ATOM     22  O   UNL A   1      40.951  19.934  26.454  1.00  0.00    -0.376 OA
BRANCH  22  23
ATOM     23  C   UNL A   1      42.138  19.309  26.953  1.00  0.00     0.202 C 
BRANCH  23  24
ATOM     24  C   UNL A   1      43.008  18.564  25.916  1.00  0.00     0.261 C 
BRANCH  24  25
ATOM     25  O   UNL A   1      43.230  19.266  24.670  1.00  0.00    -0.460 OA
BRANCH  25  26
ATOM     26  C   UNL A   1      44.508  19.542  24.321  1.00  0.00     0.338 C 
ATOM     27  O   UNL A   1      45.242  18.843  23.643  1.00  0.00    -0.246 OA
BRANCH  26  28
ATOM     28  C   UNL A   1      44.802  20.961  24.663  1.00  0.00     0.060 A 
ATOM     29  C   UNL A   1      45.329  21.239  25.933  1.00  0.00     0.016 A 
ATOM     30  C   UNL A   1      44.632  22.003  23.745  1.00  0.00     0.016 A 
ATOM     31  C   UNL A   1      45.646  22.550  26.303  1.00  0.00     0.010 A 
ATOM     32  C   UNL A   1      44.933  23.320  24.122  1.00  0.00     0.010 A 
ATOM     33  C   UNL A   1      45.408  23.608  25.415  1.00  0.00    -0.014 A 
BRANCH  33  34
ATOM     34  C   UNL A   1      45.454  25.014  25.903  1.00  0.00     0.031 A 
ATOM     35  C   UNL A   1      46.783  25.727  25.889  1.00  0.00     0.074 A 
ATOM     36  C   UNL A   1      44.357  25.665  26.335  1.00  0.00     0.049 A 
ATOM     37  N   UNL A   1      47.093  26.923  26.321  1.00  0.00    -0.248 NA
ATOM     38  C   UNL A   1      47.915  24.985  25.311  1.00  0.00     0.031 C 
ATOM     39  C   UNL A   1      43.003  25.119  26.368  1.00  0.00     0.029 A 
ATOM     40  N   UNL A   1      44.219  26.936  26.847  1.00  0.00    -0.354 N 
ATOM     41  C   UNL A   1      48.454  27.069  26.084  1.00  0.00     0.074 A 
ATOM     42  C   UNL A   1      48.916  25.836  25.485  1.00  0.00     0.031 C 
ATOM     43  C   UNL A   1      42.174  26.040  26.894  1.00  0.00     0.029 A 
ATOM     44  C   UNL A   1      42.943  27.228  27.268  1.00  0.00     0.049 A 
ATOM     45  H   UNL A   1      44.964  27.576  26.906  1.00  0.00     0.167 HD
ATOM     46  C   UNL A   1      49.249  28.133  26.337  1.00  0.00     0.037 A 
ATOM     47  C   UNL A   1      42.461  28.313  27.909  1.00  0.00     0.037 A 
ATOM     48  C   UNL A   1      48.796  29.373  26.910  1.00  0.00     0.049 A 
ATOM     49  C   UNL A   1      43.386  29.465  28.234  1.00  0.00     0.074 A 
ATOM     50  C   UNL A   1      49.526  30.523  27.157  1.00  0.00     0.029 A 
ATOM     51  N   UNL A   1      47.501  29.621  27.336  1.00  0.00    -0.354 N 
ATOM     52  N   UNL A   1      44.660  29.610  27.963  1.00  0.00    -0.248 NA
ATOM     53  C   UNL A   1      42.802  30.607  28.957  1.00  0.00     0.031 C 
ATOM     54  C   UNL A   1      48.690  31.444  27.794  1.00  0.00     0.029 A 
ATOM     55  C   UNL A   1      47.422  30.894  27.879  1.00  0.00     0.049 A 
ATOM     56  H   UNL A   1      46.751  28.989  27.264  1.00  0.00     0.167 HD
ATOM     57  C   UNL A   1      45.015  30.866  28.445  1.00  0.00     0.074 A 
ATOM     58  C   UNL A   1      43.822  31.452  29.011  1.00  0.00     0.031 C 
ATOM     59  C   UNL A   1      46.224  31.480  28.420  1.00  0.00     0.037 A 
BRANCH  46  60
ATOM     60  C   UNL A   1      50.711  28.011  26.027  1.00  0.00     0.064 A 
ATOM     61  C   UNL A   1      51.216  28.219  24.736  1.00  0.00     0.173 A 
ATOM     62  C   UNL A   1      51.629  27.770  27.062  1.00  0.00     0.173 A 
ATOM     63  F   UNL A   1      50.378  28.439  23.711  1.00  0.00    -0.203 F 
ATOM     64  C   UNL A   1      52.585  28.181  24.490  1.00  0.00     0.198 A 
ATOM     65  C   UNL A   1      52.999  27.762  26.817  1.00  0.00     0.198 A 
ATOM     66  F   UNL A   1      51.196  27.568  28.316  1.00  0.00    -0.203 F 
ATOM     67  F   UNL A   1      53.046  28.355  23.243  1.00  0.00    -0.200 F 
ATOM     68  C   UNL A   1      53.476  27.965  25.532  1.00  0.00     0.200 A 
ATOM     69  F   UNL A   1      53.856  27.570  27.829  1.00  0.00    -0.200 F 
ATOM     70  F   UNL A   1      54.796  27.955  25.297  1.00  0.00    -0.200 F 
ENDBRANCH  46  60
BRANCH  47  71
ATOM     71  C   UNL A   1      41.035  28.367  28.342  1.00  0.00     0.064 A 
ATOM     72  C   UNL A   1      40.040  28.909  27.515  1.00  0.00     0.173 A 
ATOM     73  C   UNL A   1      40.655  27.958  29.630  1.00  0.00     0.173 A 
ATOM     74  F   UNL A   1      40.355  29.347  26.287  1.00  0.00    -0.203 F 
ATOM     75  C   UNL A   1      38.733  29.075  27.972  1.00  0.00     0.198 A 
ATOM     76  C   UNL A   1      39.339  28.090  30.072  1.00  0.00     0.198 A 
ATOM     77  F   UNL A   1      41.566  27.441  30.467  1.00  0.00    -0.203 F 
ATOM     78  F   UNL A   1      37.822  29.669  27.188  1.00  0.00    -0.200 F 
ATOM     79  C   UNL A   1      38.383  28.662  29.248  1.00  0.00     0.200 A 
ATOM     80  F   UNL A   1      39.005  27.682  31.303  1.00  0.00    -0.200 F 
ATOM     81  F   UNL A   1      37.130  28.835  29.692  1.00  0.00    -0.200 F 
ENDBRANCH  47  71
BRANCH  59  82
ATOM     82  C   UNL A   1      46.316  32.877  28.969  1.00  0.00     0.064 A 
ATOM     83  C   UNL A   1      46.077  34.005  28.172  1.00  0.00     0.173 A 
ATOM     84  C   UNL A   1      46.600  33.086  30.329  1.00  0.00     0.173 A 
ATOM     85  F   UNL A   1      45.812  33.865  26.865  1.00  0.00    -0.203 F 
ATOM     86  C   UNL A   1      46.145  35.289  28.707  1.00  0.00     0.198 A 
ATOM     87  C   UNL A   1      46.633  34.369  30.868  1.00  0.00     0.198 A 
ATOM     88  F   UNL A   1      46.826  32.042  31.142  1.00  0.00    -0.203 F 
ATOM     89  F   UNL A   1      45.962  36.355  27.914  1.00  0.00    -0.200 F 
ATOM     90  C   UNL A   1      46.414  35.470  30.056  1.00  0.00     0.200 A 
ATOM     91  F   UNL A   1      46.873  34.538  32.176  1.00  0.00    -0.200 F 
ATOM     92  F   UNL A   1      46.468  36.706  30.572  1.00  0.00    -0.200 F 
ENDBRANCH  59  82
ENDBRANCH  33  34
ENDBRANCH  26  28
ENDBRANCH  25  26
ENDBRANCH  24  25
ENDBRANCH  23  24
ENDBRANCH  22  23
ENDBRANCH  21  22
ENDBRANCH   1  21
TORSDOF 21
ENDMDL
MODEL 3
REMARK VINA RESULT:     -10.2      3.865      9.485
REMARK SMILES CCc1ccc(C(=O)[C@@H](Br)CC(=O)OCCOCCOCCOC(=O)c2ccc(-c3c4nc(c(-c5c(F)c(F)c(F)c(F)c5F)c5ccc([nH]5)c(-c5c(F)c(F)c(F)c(F)c5F)c5nc(c(-c6c(F)c(F)c(F)c(F)c6F)c6ccc3[nH]6)C=C5)C=C4)cc2)cc1
REMARK SMILES IDX 18 1 17 2 16 3 15 4 14 5 12 6 13 7 11 8 9 9 10 10 7 11 8 12
REMARK SMILES IDX 6 13 3 14 4 15 90 16 5 17 89 18 2 19 1 20 19 21 20 22 21 23
REMARK SMILES IDX 22 24 23 25 24 26 25 27 26 28 27 29 88 30 28 31 87 32 29 33
REMARK SMILES IDX 30 34 31 35 81 36 32 37 86 38 80 39 82 40 33 41 85 42 79 43
REMARK SMILES IDX 78 44 34 46 66 47 46 48 65 49 47 50 50 51 64 52 83 53 48 54
REMARK SMILES IDX 49 55 63 57 84 58 51 59 35 60 36 61 44 62 37 63 38 64 42 65
REMARK SMILES IDX 45 66 39 67 40 68 43 69 41 70 67 71 68 72 76 73 69 74 70 75
REMARK SMILES IDX 74 76 77 77 71 78 72 79 75 80 73 81 52 82 53 83 61 84 54 85
REMARK SMILES IDX 55 86 59 87 62 88 56 89 57 90 60 91 58 92
REMARK H PARENT 82 45 50 56
REMARK Flexibility Score: inf
ROOT
ATOM      1  C   UNL A   1      34.691  32.859  29.333  1.00  0.00     0.188 C 
ENDROOT
BRANCH   1   2
ATOM      2  O   UNL A   1      34.738  31.527  28.839  1.00  0.00    -0.376 OA
BRANCH   2   3
ATOM      3  C   UNL A   1      34.084  31.283  27.591  1.00  0.00     0.202 C 
BRANCH   3   4
ATOM      4  C   UNL A   1      33.644  29.833  27.317  1.00  0.00     0.261 C 
BRANCH   4   5
ATOM      5  O   UNL A   1      32.212  29.668  27.215  1.00  0.00    -0.463 OA
BRANCH   5   6
ATOM      6  C   UNL A   1      31.778  28.801  26.266  1.00  0.00     0.307 C 
ATOM      7  O   UNL A   1      31.841  28.992  25.056  1.00  0.00    -0.252 OA
BRANCH   6   8
ATOM      8  C   UNL A   1      31.364  27.460  26.827  1.00  0.00     0.146 C 
BRANCH   8   9
ATOM      9  C   UNL A   1      31.510  26.251  25.927  1.00  0.00     0.140 C 
ATOM     10  Br  UNL A   1      29.868  26.011  24.872  1.00  0.00    -0.080 Br
BRANCH   9  11
ATOM     11  C   UNL A   1      31.864  24.892  26.501  1.00  0.00     0.177 C 
ATOM     12  O   UNL A   1      31.037  24.279  27.183  1.00  0.00    -0.293 OA
BRANCH  11  13
ATOM     13  C   UNL A   1      33.198  24.261  26.286  1.00  0.00     0.019 A 
ATOM     14  C   UNL A   1      35.770  23.217  25.830  1.00  0.00    -0.048 A 
ATOM     15  C   UNL A   1      35.394  24.437  25.261  1.00  0.00     0.004 A 
ATOM     16  C   UNL A   1      34.845  22.516  26.610  1.00  0.00     0.004 A 
ATOM     17  C   UNL A   1      34.117  24.954  25.488  1.00  0.00     0.012 A 
ATOM     18  C   UNL A   1      33.562  23.024  26.822  1.00  0.00     0.012 A 
BRANCH  14  19
ATOM     19  C   UNL A   1      37.160  22.671  25.635  1.00  0.00     0.032 C 
ATOM     20  C   UNL A   1      38.212  23.653  26.126  1.00  0.00     0.009 C 
ENDBRANCH  14  19
ENDBRANCH  11  13
ENDBRANCH   9  11
ENDBRANCH   8   9
ENDBRANCH   6   8
ENDBRANCH   5   6
ENDBRANCH   4   5
ENDBRANCH   3   4
ENDBRANCH   2   3
ENDBRANCH   1   2
BRANCH   1  21
ATOM     21  C   UNL A   1      35.233  33.952  28.408  1.00  0.00     0.188 C 
BRANCH  21  22
ATOM     22  O   UNL A   1      34.504  35.168  28.401  1.00  0.00    -0.376 OA
BRANCH  22  23
ATOM     23  C   UNL A   1      33.209  35.144  29.010  1.00  0.00     0.202 C 
BRANCH  23  24
ATOM     24  C   UNL A   1      32.735  36.461  29.665  1.00  0.00     0.261 C 
BRANCH  24  25
ATOM     25  O   UNL A   1      33.137  36.652  31.042  1.00  0.00    -0.460 OA
BRANCH  25  26
ATOM     26  C   UNL A   1      32.698  35.757  31.957  1.00  0.00     0.338 C 
ATOM     27  O   UNL A   1      31.538  35.452  32.175  1.00  0.00    -0.246 OA
BRANCH  26  28
ATOM     28  C   UNL A   1      33.865  34.991  32.476  1.00  0.00     0.060 A 
ATOM     29  C   UNL A   1      35.142  35.557  32.333  1.00  0.00     0.016 A 
ATOM     30  C   UNL A   1      33.723  33.775  33.152  1.00  0.00     0.016 A 
ATOM     31  C   UNL A   1      36.273  34.894  32.821  1.00  0.00     0.010 A 
ATOM     32  C   UNL A   1      34.859  33.103  33.626  1.00  0.00     0.010 A 
ATOM     33  C   UNL A   1      36.145  33.640  33.433  1.00  0.00    -0.014 A 
BRANCH  33  34
ATOM     34  C   UNL A   1      37.353  32.804  33.675  1.00  0.00     0.031 A 
ATOM     35  C   UNL A   1      38.149  33.055  34.931  1.00  0.00     0.074 A 
ATOM     36  C   UNL A   1      37.742  31.833  32.827  1.00  0.00     0.049 A 
ATOM     37  N   UNL A   1      39.268  32.508  35.334  1.00  0.00    -0.248 NA
ATOM     38  C   UNL A   1      37.606  34.063  35.857  1.00  0.00     0.031 C 
ATOM     39  C   UNL A   1      37.051  31.451  31.598  1.00  0.00     0.029 A 
ATOM     40  N   UNL A   1      38.835  30.996  32.872  1.00  0.00    -0.354 N 
ATOM     41  C   UNL A   1      39.571  33.117  36.546  1.00  0.00     0.074 A 
ATOM     42  C   UNL A   1      38.529  34.085  36.807  1.00  0.00     0.031 C 
ATOM     43  C   UNL A   1      37.748  30.471  30.993  1.00  0.00     0.029 A 
ATOM     44  C   UNL A   1      38.953  30.180  31.771  1.00  0.00     0.049 A 
ATOM     45  H   UNL A   1      39.473  30.984  33.621  1.00  0.00     0.167 HD
ATOM     46  C   UNL A   1      40.620  32.889  37.369  1.00  0.00     0.037 A 
ATOM     47  C   UNL A   1      39.934  29.322  31.420  1.00  0.00     0.037 A 
ATOM     48  C   UNL A   1      41.648  31.911  37.130  1.00  0.00     0.049 A 
ATOM     49  C   UNL A   1      41.125  29.131  32.332  1.00  0.00     0.074 A 
ATOM     50  C   UNL A   1      42.722  31.581  37.938  1.00  0.00     0.029 A 
ATOM     51  N   UNL A   1      41.739  31.118  35.999  1.00  0.00    -0.354 N 
ATOM     52  N   UNL A   1      41.378  29.678  33.497  1.00  0.00    -0.248 NA
ATOM     53  C   UNL A   1      42.172  28.200  31.877  1.00  0.00     0.031 C 
ATOM     54  C   UNL A   1      43.501  30.635  37.265  1.00  0.00     0.029 A 
ATOM     55  C   UNL A   1      42.872  30.325  36.071  1.00  0.00     0.049 A 
ATOM     56  H   UNL A   1      41.094  31.117  35.255  1.00  0.00     0.167 HD
ATOM     57  C   UNL A   1      42.582  29.130  33.926  1.00  0.00     0.074 A 
ATOM     58  C   UNL A   1      43.006  28.197  32.907  1.00  0.00     0.031 C 
ATOM     59  C   UNL A   1      43.276  29.380  35.063  1.00  0.00     0.037 A 
BRANCH  46  60
ATOM     60  C   UNL A   1      40.740  33.728  38.606  1.00  0.00     0.064 A 
ATOM     61  C   UNL A   1      40.097  33.382  39.803  1.00  0.00     0.173 A 
ATOM     62  C   UNL A   1      41.586  34.848  38.613  1.00  0.00     0.173 A 
ATOM     63  F   UNL A   1      39.268  32.328  39.843  1.00  0.00    -0.203 F 
ATOM     64  C   UNL A   1      40.290  34.132  40.960  1.00  0.00     0.198 A 
ATOM     65  C   UNL A   1      41.799  35.578  39.779  1.00  0.00     0.198 A 
ATOM     66  F   UNL A   1      42.226  35.218  37.494  1.00  0.00    -0.203 F 
ATOM     67  F   UNL A   1      39.645  33.800  42.087  1.00  0.00    -0.200 F 
ATOM     68  C   UNL A   1      41.150  35.221  40.950  1.00  0.00     0.200 A 
ATOM     69  F   UNL A   1      42.643  36.619  39.769  1.00  0.00    -0.200 F 
ATOM     70  F   UNL A   1      41.355  35.926  42.072  1.00  0.00    -0.200 F 
ENDBRANCH  46  60
BRANCH  47  71
ATOM     71  C   UNL A   1      39.877  28.596  30.118  1.00  0.00     0.064 A 
ATOM     72  C   UNL A   1      39.315  27.315  30.020  1.00  0.00     0.173 A 
ATOM     73  C   UNL A   1      40.465  29.136  28.964  1.00  0.00     0.173 A 
ATOM     74  F   UNL A   1      38.769  26.738  31.101  1.00  0.00    -0.203 F 
ATOM     75  C   UNL A   1      39.378  26.588  28.831  1.00  0.00     0.198 A 
ATOM     76  C   UNL A   1      40.494  28.423  27.766  1.00  0.00     0.198 A 
ATOM     77  F   UNL A   1      41.026  30.354  29.002  1.00  0.00    -0.203 F 
ATOM     78  F   UNL A   1      38.904  25.335  28.790  1.00  0.00    -0.200 F 
ATOM     79  C   UNL A   1      39.965  27.144  27.705  1.00  0.00     0.200 A 
ATOM     80  F   UNL A   1      41.055  28.969  26.679  1.00  0.00    -0.200 F 
ATOM     81  F   UNL A   1      40.037  26.440  26.567  1.00  0.00    -0.200 F 
ENDBRANCH  47  71
BRANCH  59  82
ATOM     82  C   UNL A   1      44.539  28.598  35.304  1.00  0.00     0.064 A 
ATOM     83  C   UNL A   1      44.531  27.359  35.961  1.00  0.00     0.173 A 
ATOM     84  C   UNL A   1      45.769  29.076  34.825  1.00  0.00     0.173 A 
ATOM     85  F   UNL A   1      43.385  26.861  36.449  1.00  0.00    -0.203 F 
ATOM     86  C   UNL A   1      45.709  26.641  36.152  1.00  0.00     0.198 A 
ATOM     87  C   UNL A   1      46.940  28.339  34.988  1.00  0.00     0.198 A 
ATOM     88  F   UNL A   1      45.834  30.251  34.179  1.00  0.00    -0.203 F 
ATOM     89  F   UNL A   1      45.684  25.483  36.827  1.00  0.00    -0.200 F 
ATOM     90  C   UNL A   1      46.910  27.128  35.659  1.00  0.00     0.200 A 
ATOM     91  F   UNL A   1      48.095  28.802  34.491  1.00  0.00    -0.200 F 
ATOM     92  F   UNL A   1      48.041  26.430  35.834  1.00  0.00    -0.200 F 
ENDBRANCH  59  82
ENDBRANCH  33  34
ENDBRANCH  26  28
ENDBRANCH  25  26
ENDBRANCH  24  25
ENDBRANCH  23  24
ENDBRANCH  22  23
ENDBRANCH  21  22
ENDBRANCH   1  21
TORSDOF 21
ENDMDL
