MODEL 1
REMARK VINA RESULT:     -11.4      0.000      0.000
REMARK SMILES O=C(OCCOCCOCCOC(=O)[C@@H]1[C@@H](C(=O)Nc2nc(-c3ccc(F)cc3)cs2)[C@H]2C=C[C@@H]1O2)c1ccc(-c2c3nc(c(-c4c(F)c(F)c(F)c(F)c4F)c4ccc([nH]4)c(-c4c(F)c(F)c(F)c(F)c4F)c4nc(c(-c5c(F)c(F)c(F)c(F)c5F)c5ccc2[nH]5)C=C4)C=C3)cc1
REMARK SMILES IDX 8 1 7 2 6 3 5 4 4 5 3 6 2 7 1 8 37 9 38 10 99 11 39 12 98 13
REMARK SMILES IDX 40 14 41 15 42 16 92 17 43 18 97 19 91 20 93 21 44 22 96 23
REMARK SMILES IDX 90 24 89 25 45 27 77 28 57 29 76 30 58 31 61 32 75 33 94 34
REMARK SMILES IDX 59 35 60 36 74 38 95 39 62 40 46 41 47 42 55 43 48 44 49 45
REMARK SMILES IDX 53 46 56 47 50 48 51 49 54 50 52 51 78 52 79 53 87 54 80 55
REMARK SMILES IDX 81 56 85 57 88 58 82 59 83 60 86 61 84 62 63 63 64 64 72 65
REMARK SMILES IDX 65 66 66 67 70 68 73 69 67 70 68 71 71 72 69 73 9 74 10 75
REMARK SMILES IDX 11 76 12 77 13 78 14 79 15 80 16 81 35 82 32 83 34 84 36 85
REMARK SMILES IDX 33 86 17 87 18 88 19 89 20 91 21 92 31 93 22 94 30 95 23 96
REMARK SMILES IDX 24 97 29 98 25 99 28 100 26 101 27 102
REMARK H PARENT 93 26 61 37 19 90
REMARK Flexibility Score: inf
ROOT
ATOM      1  C   UNL A   1      34.503  31.811  28.313  1.00  0.00     0.188 C 
ENDROOT
BRANCH   1   2
ATOM      2  C   UNL A   1      34.719  32.851  29.410  1.00  0.00     0.188 C 
BRANCH   2   3
ATOM      3  O   UNL A   1      34.621  34.197  28.935  1.00  0.00    -0.376 OA
BRANCH   3   4
ATOM      4  C   UNL A   1      33.276  34.616  28.712  1.00  0.00     0.202 C 
BRANCH   4   5
ATOM      5  C   UNL A   1      32.837  35.911  29.406  1.00  0.00     0.261 C 
BRANCH   5   6
ATOM      6  O   UNL A   1      32.163  35.708  30.653  1.00  0.00    -0.460 OA
BRANCH   6   7
ATOM      7  C   UNL A   1      32.649  35.748  31.914  1.00  0.00     0.338 C 
ATOM      8  O   UNL A   1      32.010  36.385  32.752  1.00  0.00    -0.246 OA
BRANCH   7   9
ATOM      9  C   UNL A   1      33.905  35.070  32.381  1.00  0.00     0.060 A 
ATOM     10  C   UNL A   1      35.184  35.623  32.406  1.00  0.00     0.016 A 
ATOM     11  C   UNL A   1      33.757  33.763  32.891  1.00  0.00     0.016 A 
ATOM     12  C   UNL A   1      36.277  34.907  32.890  1.00  0.00     0.010 A 
ATOM     13  C   UNL A   1      34.847  33.041  33.393  1.00  0.00     0.010 A 
ATOM     14  C   UNL A   1      36.118  33.614  33.382  1.00  0.00    -0.014 A 
BRANCH  14  15
ATOM     15  C   UNL A   1      37.329  32.839  33.720  1.00  0.00     0.031 A 
ATOM     16  C   UNL A   1      37.892  33.011  35.076  1.00  0.00     0.074 A 
ATOM     17  C   UNL A   1      37.846  31.935  32.871  1.00  0.00     0.049 A 
ATOM     18  N   UNL A   1      38.987  32.510  35.566  1.00  0.00    -0.248 NA
ATOM     19  C   UNL A   1      37.129  33.861  36.002  1.00  0.00     0.031 C 
ATOM     20  C   UNL A   1      37.272  31.669  31.577  1.00  0.00     0.029 A 
ATOM     21  N   UNL A   1      38.907  31.073  32.932  1.00  0.00    -0.354 N 
ATOM     22  C   UNL A   1      39.090  33.048  36.834  1.00  0.00     0.074 A 
ATOM     23  C   UNL A   1      37.919  33.865  37.061  1.00  0.00     0.031 C 
ATOM     24  C   UNL A   1      37.935  30.684  30.963  1.00  0.00     0.029 A 
ATOM     25  C   UNL A   1      39.052  30.300  31.798  1.00  0.00     0.049 A 
ATOM     26  H   UNL A   1      39.509  31.010  33.708  1.00  0.00     0.167 HD
ATOM     27  C   UNL A   1      40.125  32.903  37.686  1.00  0.00     0.037 A 
ATOM     28  C   UNL A   1      40.005  29.415  31.446  1.00  0.00     0.037 A 
ATOM     29  C   UNL A   1      41.277  32.102  37.377  1.00  0.00     0.049 A 
ATOM     30  C   UNL A   1      41.150  29.278  32.400  1.00  0.00     0.074 A 
ATOM     31  C   UNL A   1      42.425  31.923  38.119  1.00  0.00     0.029 A 
ATOM     32  N   UNL A   1      41.428  31.353  36.210  1.00  0.00    -0.354 N 
ATOM     33  N   UNL A   1      41.296  29.855  33.570  1.00  0.00    -0.248 NA
ATOM     34  C   UNL A   1      42.282  28.445  31.987  1.00  0.00     0.031 C 
ATOM     35  C   UNL A   1      43.295  31.121  37.376  1.00  0.00     0.029 A 
ATOM     36  C   UNL A   1      42.662  30.730  36.202  1.00  0.00     0.049 A 
ATOM     37  H   UNL A   1      40.754  31.279  35.496  1.00  0.00     0.167 HD
ATOM     38  C   UNL A   1      42.542  29.478  34.030  1.00  0.00     0.074 A 
ATOM     39  C   UNL A   1      43.101  28.591  33.024  1.00  0.00     0.031 C 
ATOM     40  C   UNL A   1      43.170  29.850  35.172  1.00  0.00     0.037 A 
BRANCH  27  41
ATOM     41  C   UNL A   1      40.090  33.748  38.921  1.00  0.00     0.064 A 
ATOM     42  C   UNL A   1      40.705  35.008  38.911  1.00  0.00     0.173 A 
ATOM     43  C   UNL A   1      39.385  33.369  40.073  1.00  0.00     0.173 A 
ATOM     44  F   UNL A   1      41.369  35.429  37.824  1.00  0.00    -0.203 F 
ATOM     45  C   UNL A   1      40.615  35.859  40.008  1.00  0.00     0.198 A 
ATOM     46  C   UNL A   1      39.267  34.238  41.155  1.00  0.00     0.198 A 
ATOM     47  F   UNL A   1      38.736  32.195  40.112  1.00  0.00    -0.203 F 
ATOM     48  F   UNL A   1      41.212  37.059  39.972  1.00  0.00    -0.200 F 
ATOM     49  C   UNL A   1      39.886  35.479  41.123  1.00  0.00     0.200 A 
ATOM     50  F   UNL A   1      38.518  33.891  42.211  1.00  0.00    -0.200 F 
ATOM     51  F   UNL A   1      39.761  36.318  42.161  1.00  0.00    -0.200 F 
ENDBRANCH  27  41
BRANCH  28  52
ATOM     52  C   UNL A   1      39.910  28.673  30.155  1.00  0.00     0.064 A 
ATOM     53  C   UNL A   1      39.344  27.387  30.082  1.00  0.00     0.173 A 
ATOM     54  C   UNL A   1      40.481  29.185  28.982  1.00  0.00     0.173 A 
ATOM     55  F   UNL A   1      38.777  26.843  31.170  1.00  0.00    -0.203 F 
ATOM     56  C   UNL A   1      39.408  26.626  28.914  1.00  0.00     0.198 A 
ATOM     57  C   UNL A   1      40.513  28.436  27.802  1.00  0.00     0.198 A 
ATOM     58  F   UNL A   1      41.016  30.415  28.981  1.00  0.00    -0.203 F 
ATOM     59  F   UNL A   1      38.919  25.378  28.903  1.00  0.00    -0.200 F 
ATOM     60  C   UNL A   1      39.992  27.151  27.775  1.00  0.00     0.200 A 
ATOM     61  F   UNL A   1      41.055  28.959  26.694  1.00  0.00    -0.200 F 
ATOM     62  F   UNL A   1      40.053  26.421  26.651  1.00  0.00    -0.200 F 
ENDBRANCH  28  52
BRANCH  40  63
ATOM     63  C   UNL A   1      44.532  29.284  35.407  1.00  0.00     0.064 A 
ATOM     64  C   UNL A   1      45.655  29.935  34.880  1.00  0.00     0.173 A 
ATOM     65  C   UNL A   1      44.706  28.034  36.014  1.00  0.00     0.173 A 
ATOM     66  F   UNL A   1      45.525  31.131  34.285  1.00  0.00    -0.203 F 
ATOM     67  C   UNL A   1      46.904  29.329  34.908  1.00  0.00     0.198 A 
ATOM     68  C   UNL A   1      45.963  27.444  36.068  1.00  0.00     0.198 A 
ATOM     69  F   UNL A   1      43.657  27.387  36.546  1.00  0.00    -0.203 F 
ATOM     70  F   UNL A   1      47.953  29.937  34.339  1.00  0.00    -0.200 F 
ATOM     71  C   UNL A   1      47.055  28.083  35.499  1.00  0.00     0.200 A 
ATOM     72  F   UNL A   1      46.115  26.250  36.656  1.00  0.00    -0.200 F 
ATOM     73  F   UNL A   1      48.258  27.492  35.512  1.00  0.00    -0.200 F 
ENDBRANCH  40  63
ENDBRANCH  14  15
ENDBRANCH   7   9
ENDBRANCH   6   7
ENDBRANCH   5   6
ENDBRANCH   4   5
ENDBRANCH   3   4
ENDBRANCH   2   3
ENDBRANCH   1   2
BRANCH   1  74
ATOM     74  O   UNL A   1      35.652  31.048  27.946  1.00  0.00    -0.376 OA
BRANCH  74  75
ATOM     75  C   UNL A   1      35.427  29.752  27.392  1.00  0.00     0.202 C 
BRANCH  75  76
ATOM     76  C   UNL A   1      33.968  29.307  27.278  1.00  0.00     0.261 C 
BRANCH  76  77
ATOM     77  O   UNL A   1      33.489  29.361  25.933  1.00  0.00    -0.463 OA
BRANCH  77  78
ATOM     78  C   UNL A   1      32.218  29.794  25.757  1.00  0.00     0.312 C 
ATOM     79  O   UNL A   1      31.805  30.907  26.039  1.00  0.00    -0.252 OA
BRANCH  78  80
ATOM     80  C   UNL A   1      31.336  28.731  25.174  1.00  0.00     0.147 C 
ATOM     81  C   UNL A   1      32.012  27.342  24.963  1.00  0.00     0.129 C 
ATOM     82  C   UNL A   1      30.949  29.144  23.742  1.00  0.00     0.157 C 
ATOM     83  C   UNL A   1      31.668  27.115  23.471  1.00  0.00     0.155 C 
ATOM     84  C   UNL A   1      29.759  28.351  23.301  1.00  0.00     0.004 C 
ATOM     85  O   UNL A   1      31.968  28.449  22.970  1.00  0.00    -0.365 OA
ATOM     86  C   UNL A   1      30.197  27.098  23.139  1.00  0.00     0.004 C 
BRANCH  81  87
ATOM     87  C   UNL A   1      31.454  26.319  25.938  1.00  0.00     0.233 C 
ATOM     88  O   UNL A   1      30.700  26.670  26.855  1.00  0.00    -0.274 OA
ATOM     89  N   UNL A   1      31.659  24.979  25.799  1.00  0.00    -0.302 N 
ATOM     90  H   UNL A   1      30.916  24.404  26.093  1.00  0.00     0.172 HD
BRANCH  89  91
ATOM     91  C   UNL A   1      32.749  24.322  25.307  1.00  0.00     0.189 A 
ATOM     92  N   UNL A   1      33.950  24.183  25.802  1.00  0.00    -0.220 NA
ATOM     93  S   UNL A   1      32.430  23.458  23.860  1.00  0.00    -0.105 S 
ATOM     94  C   UNL A   1      34.683  23.304  25.003  1.00  0.00     0.084 A 
ATOM     95  C   UNL A   1      34.051  22.889  23.848  1.00  0.00     0.097 A 
BRANCH  94  96
ATOM     96  C   UNL A   1      36.005  22.857  25.411  1.00  0.00     0.001 A 
ATOM     97  C   UNL A   1      36.879  23.787  25.989  1.00  0.00     0.013 A 
ATOM     98  C   UNL A   1      36.464  21.559  25.146  1.00  0.00     0.013 A 
ATOM     99  C   UNL A   1      38.221  23.466  26.192  1.00  0.00     0.040 A 
ATOM    100  C   UNL A   1      37.817  21.250  25.317  1.00  0.00     0.040 A 
ATOM    101  C   UNL A   1      38.687  22.214  25.816  1.00  0.00     0.123 A 
ATOM    102  F   UNL A   1      39.993  21.940  25.910  1.00  0.00    -0.207 F 
ENDBRANCH  94  96
ENDBRANCH  89  91
ENDBRANCH  81  87
ENDBRANCH  78  80
ENDBRANCH  77  78
ENDBRANCH  76  77
ENDBRANCH  75  76
ENDBRANCH  74  75
ENDBRANCH   1  74
TORSDOF 20
ENDMDL
MODEL 2
REMARK VINA RESULT:     -11.4      6.506     11.935
REMARK SMILES O=C(OCCOCCOCCOC(=O)[C@@H]1[C@@H](C(=O)Nc2nc(-c3ccc(F)cc3)cs2)[C@H]2C=C[C@@H]1O2)c1ccc(-c2c3nc(c(-c4c(F)c(F)c(F)c(F)c4F)c4ccc([nH]4)c(-c4c(F)c(F)c(F)c(F)c4F)c4nc(c(-c5c(F)c(F)c(F)c(F)c5F)c5ccc2[nH]5)C=C4)C=C3)cc1
REMARK SMILES IDX 8 1 7 2 6 3 5 4 4 5 3 6 2 7 1 8 37 9 38 10 99 11 39 12 98 13
REMARK SMILES IDX 40 14 41 15 42 16 92 17 43 18 97 19 91 20 93 21 44 22 96 23
REMARK SMILES IDX 90 24 89 25 45 27 77 28 57 29 76 30 58 31 61 32 75 33 94 34
REMARK SMILES IDX 59 35 60 36 74 38 95 39 62 40 46 41 47 42 55 43 48 44 49 45
REMARK SMILES IDX 53 46 56 47 50 48 51 49 54 50 52 51 78 52 79 53 87 54 80 55
REMARK SMILES IDX 81 56 85 57 88 58 82 59 83 60 86 61 84 62 63 63 64 64 72 65
REMARK SMILES IDX 65 66 66 67 70 68 73 69 67 70 68 71 71 72 69 73 9 74 10 75
REMARK SMILES IDX 11 76 12 77 13 78 14 79 15 80 16 81 35 82 32 83 34 84 36 85
REMARK SMILES IDX 33 86 17 87 18 88 19 89 20 91 21 92 31 93 22 94 30 95 23 96
REMARK SMILES IDX 24 97 29 98 25 99 28 100 26 101 27 102
REMARK H PARENT 93 26 61 37 19 90
REMARK Flexibility Score: inf
ROOT
ATOM      1  C   UNL A   1      38.924  21.597  25.912  1.00  0.00     0.188 C 
ENDROOT
BRANCH   1   2
ATOM      2  C   UNL A   1      40.408  21.851  26.166  1.00  0.00     0.188 C 
BRANCH   2   3
ATOM      3  O   UNL A   1      41.052  20.775  26.855  1.00  0.00    -0.376 OA
BRANCH   3   4
ATOM      4  C   UNL A   1      41.114  19.575  26.087  1.00  0.00     0.202 C 
BRANCH   4   5
ATOM      5  C   UNL A   1      42.446  18.815  26.110  1.00  0.00     0.261 C 
BRANCH   5   6
ATOM      6  O   UNL A   1      43.152  18.832  24.864  1.00  0.00    -0.460 OA
BRANCH   6   7
ATOM      7  C   UNL A   1      44.249  19.535  24.501  1.00  0.00     0.338 C 
ATOM      8  O   UNL A   1      45.051  18.991  23.743  1.00  0.00    -0.246 OA
BRANCH   7   9
ATOM      9  C   UNL A   1      44.565  20.935  24.944  1.00  0.00     0.060 A 
ATOM     10  C   UNL A   1      45.273  21.301  26.088  1.00  0.00     0.016 A 
ATOM     11  C   UNL A   1      44.149  21.972  24.084  1.00  0.00     0.016 A 
ATOM     12  C   UNL A   1      45.535  22.637  26.384  1.00  0.00     0.010 A 
ATOM     13  C   UNL A   1      44.419  23.317  24.366  1.00  0.00     0.010 A 
ATOM     14  C   UNL A   1      45.109  23.652  25.531  1.00  0.00    -0.014 A 
BRANCH  14  15
ATOM     15  C   UNL A   1      45.258  25.051  25.977  1.00  0.00     0.031 A 
ATOM     16  C   UNL A   1      46.554  25.715  25.716  1.00  0.00     0.074 A 
ATOM     17  C   UNL A   1      44.232  25.736  26.508  1.00  0.00     0.049 A 
ATOM     18  N   UNL A   1      46.947  26.896  26.090  1.00  0.00    -0.248 NA
ATOM     19  C   UNL A   1      47.540  24.949  24.939  1.00  0.00     0.031 C 
ATOM     20  C   UNL A   1      42.926  25.155  26.692  1.00  0.00     0.029 A 
ATOM     21  N   UNL A   1      44.077  27.017  26.962  1.00  0.00    -0.354 N 
ATOM     22  C   UNL A   1      48.258  26.989  25.664  1.00  0.00     0.074 A 
ATOM     23  C   UNL A   1      48.575  25.771  24.952  1.00  0.00     0.031 C 
ATOM     24  C   UNL A   1      42.072  26.064  27.173  1.00  0.00     0.029 A 
ATOM     25  C   UNL A   1      42.803  27.289  27.415  1.00  0.00     0.049 A 
ATOM     26  H   UNL A   1      44.804  27.681  26.964  1.00  0.00     0.167 HD
ATOM     27  C   UNL A   1      49.116  27.996  25.921  1.00  0.00     0.037 A 
ATOM     28  C   UNL A   1      42.289  28.385  28.007  1.00  0.00     0.037 A 
ATOM     29  C   UNL A   1      48.740  29.163  26.669  1.00  0.00     0.049 A 
ATOM     30  C   UNL A   1      43.261  29.485  28.295  1.00  0.00     0.074 A 
ATOM     31  C   UNL A   1      49.527  30.225  27.060  1.00  0.00     0.029 A 
ATOM     32  N   UNL A   1      47.456  29.410  27.155  1.00  0.00    -0.354 N 
ATOM     33  N   UNL A   1      44.532  29.542  27.969  1.00  0.00    -0.248 NA
ATOM     34  C   UNL A   1      42.781  30.630  29.074  1.00  0.00     0.031 C 
ATOM     35  C   UNL A   1      48.739  31.081  27.835  1.00  0.00     0.029 A 
ATOM     36  C   UNL A   1      47.436  30.597  27.864  1.00  0.00     0.049 A 
ATOM     37  H   UNL A   1      46.677  28.823  27.014  1.00  0.00     0.167 HD
ATOM     38  C   UNL A   1      45.016  30.713  28.517  1.00  0.00     0.074 A 
ATOM     39  C   UNL A   1      43.889  31.357  29.172  1.00  0.00     0.031 C 
ATOM     40  C   UNL A   1      46.281  31.197  28.496  1.00  0.00     0.037 A 
BRANCH  27  41
ATOM     41  C   UNL A   1      50.541  27.771  25.520  1.00  0.00     0.064 A 
ATOM     42  C   UNL A   1      51.455  27.287  26.467  1.00  0.00     0.173 A 
ATOM     43  C   UNL A   1      50.988  27.940  24.201  1.00  0.00     0.173 A 
ATOM     44  F   UNL A   1      51.070  27.081  27.736  1.00  0.00    -0.203 F 
ATOM     45  C   UNL A   1      52.763  26.979  26.109  1.00  0.00     0.198 A 
ATOM     46  C   UNL A   1      52.288  27.597  23.839  1.00  0.00     0.198 A 
ATOM     47  F   UNL A   1      50.138  28.351  23.248  1.00  0.00    -0.203 F 
ATOM     48  F   UNL A   1      53.617  26.517  27.033  1.00  0.00    -0.200 F 
ATOM     49  C   UNL A   1      53.175  27.122  24.794  1.00  0.00     0.200 A 
ATOM     50  F   UNL A   1      52.669  27.686  22.557  1.00  0.00    -0.200 F 
ATOM     51  F   UNL A   1      54.422  26.781  24.441  1.00  0.00    -0.200 F 
ENDBRANCH  27  41
BRANCH  28  52
ATOM     52  C   UNL A   1      40.845  28.438  28.379  1.00  0.00     0.064 A 
ATOM     53  C   UNL A   1      39.881  28.994  27.517  1.00  0.00     0.173 A 
ATOM     54  C   UNL A   1      40.408  28.036  29.649  1.00  0.00     0.173 A 
ATOM     55  F   UNL A   1      40.234  29.392  26.286  1.00  0.00    -0.203 F 
ATOM     56  C   UNL A   1      38.564  29.198  27.930  1.00  0.00     0.198 A 
ATOM     57  C   UNL A   1      39.081  28.209  30.049  1.00  0.00     0.198 A 
ATOM     58  F   UNL A   1      41.274  27.478  30.507  1.00  0.00    -0.203 F 
ATOM     59  F   UNL A   1      37.690  29.793  27.106  1.00  0.00    -0.200 F 
ATOM     60  C   UNL A   1      38.164  28.806  29.196  1.00  0.00     0.200 A 
ATOM     61  F   UNL A   1      38.691  27.803  31.266  1.00  0.00    -0.200 F 
ATOM     62  F   UNL A   1      36.898  29.001  29.594  1.00  0.00    -0.200 F 
ENDBRANCH  28  52
BRANCH  40  63
ATOM     63  C   UNL A   1      46.517  32.500  29.187  1.00  0.00     0.064 A 
ATOM     64  C   UNL A   1      46.796  32.517  30.560  1.00  0.00     0.173 A 
ATOM     65  C   UNL A   1      46.315  33.720  28.529  1.00  0.00     0.173 A 
ATOM     66  F   UNL A   1      46.989  31.367  31.224  1.00  0.00    -0.203 F 
ATOM     67  C   UNL A   1      46.818  33.713  31.264  1.00  0.00     0.198 A 
ATOM     68  C   UNL A   1      46.368  34.918  29.232  1.00  0.00     0.198 A 
ATOM     69  F   UNL A   1      46.062  33.745  27.212  1.00  0.00    -0.203 F 
ATOM     70  F   UNL A   1      47.020  33.704  32.589  1.00  0.00    -0.200 F 
ATOM     71  C   UNL A   1      46.600  34.911  30.600  1.00  0.00     0.200 A 
ATOM     72  F   UNL A   1      46.178  36.078  28.589  1.00  0.00    -0.200 F 
ATOM     73  F   UNL A   1      46.605  36.064  31.283  1.00  0.00    -0.200 F 
ENDBRANCH  40  63
ENDBRANCH  14  15
ENDBRANCH   7   9
ENDBRANCH   6   7
ENDBRANCH   5   6
ENDBRANCH   4   5
ENDBRANCH   3   4
ENDBRANCH   2   3
ENDBRANCH   1   2
BRANCH   1  74
ATOM     74  O   UNL A   1      38.063  22.722  26.082  1.00  0.00    -0.376 OA
BRANCH  74  75
ATOM     75  C   UNL A   1      36.728  22.605  25.593  1.00  0.00     0.202 C 
BRANCH  75  76
ATOM     76  C   UNL A   1      36.409  23.360  24.301  1.00  0.00     0.261 C 
BRANCH  76  77
ATOM     77  O   UNL A   1      35.223  24.147  24.414  1.00  0.00    -0.463 OA
BRANCH  77  78
ATOM     78  C   UNL A   1      34.410  24.180  23.331  1.00  0.00     0.312 C 
ATOM     79  O   UNL A   1      34.446  23.398  22.396  1.00  0.00    -0.252 OA
BRANCH  78  80
ATOM     80  C   UNL A   1      33.438  25.320  23.390  1.00  0.00     0.147 C 
ATOM     81  C   UNL A   1      32.009  25.011  22.851  1.00  0.00     0.129 C 
ATOM     82  C   UNL A   1      33.926  26.433  22.445  1.00  0.00     0.157 C 
ATOM     83  C   UNL A   1      31.858  26.176  21.842  1.00  0.00     0.155 C 
ATOM     84  C   UNL A   1      33.243  27.717  22.794  1.00  0.00     0.004 C 
ATOM     85  O   UNL A   1      33.180  26.115  21.237  1.00  0.00    -0.365 OA
ATOM     86  C   UNL A   1      31.966  27.560  22.431  1.00  0.00     0.004 C 
BRANCH  81  87
ATOM     87  C   UNL A   1      31.000  24.979  23.987  1.00  0.00     0.233 C 
ATOM     88  O   UNL A   1      30.359  25.993  24.288  1.00  0.00    -0.274 OA
ATOM     89  N   UNL A   1      30.675  23.835  24.653  1.00  0.00    -0.302 N 
ATOM     90  H   UNL A   1      29.740  23.773  24.957  1.00  0.00     0.172 HD
BRANCH  89  91
ATOM     91  C   UNL A   1      31.462  22.761  24.955  1.00  0.00     0.189 A 
ATOM     92  N   UNL A   1      31.686  21.659  24.290  1.00  0.00    -0.220 NA
ATOM     93  S   UNL A   1      32.376  22.969  26.391  1.00  0.00    -0.105 S 
ATOM     94  C   UNL A   1      32.677  20.920  24.936  1.00  0.00     0.084 A 
ATOM     95  C   UNL A   1      33.098  21.429  26.147  1.00  0.00     0.097 A 
BRANCH  94  96
ATOM     96  C   UNL A   1      33.224  19.720  24.325  1.00  0.00     0.001 A 
ATOM     97  C   UNL A   1      32.454  19.042  23.371  1.00  0.00     0.013 A 
ATOM     98  C   UNL A   1      34.443  19.166  24.740  1.00  0.00     0.013 A 
ATOM     99  C   UNL A   1      32.834  17.777  22.923  1.00  0.00     0.040 A 
ATOM    100  C   UNL A   1      34.806  17.883  24.317  1.00  0.00     0.040 A 
ATOM    101  C   UNL A   1      33.986  17.192  23.431  1.00  0.00     0.123 A 
ATOM    102  F   UNL A   1      34.296  15.937  23.084  1.00  0.00    -0.207 F 
ENDBRANCH  94  96
ENDBRANCH  89  91
ENDBRANCH  81  87
ENDBRANCH  78  80
ENDBRANCH  77  78
ENDBRANCH  76  77
ENDBRANCH  75  76
ENDBRANCH  74  75
ENDBRANCH   1  74
TORSDOF 20
ENDMDL
MODEL 3
REMARK VINA RESULT:     -11.3      0.949      1.958
REMARK SMILES O=C(OCCOCCOCCOC(=O)[C@@H]1[C@@H](C(=O)Nc2nc(-c3ccc(F)cc3)cs2)[C@H]2C=C[C@@H]1O2)c1ccc(-c2c3nc(c(-c4c(F)c(F)c(F)c(F)c4F)c4ccc([nH]4)c(-c4c(F)c(F)c(F)c(F)c4F)c4nc(c(-c5c(F)c(F)c(F)c(F)c5F)c5ccc2[nH]5)C=C4)C=C3)cc1
REMARK SMILES IDX 8 1 7 2 6 3 5 4 4 5 3 6 2 7 1 8 37 9 38 10 99 11 39 12 98 13
REMARK SMILES IDX 40 14 41 15 42 16 92 17 43 18 97 19 91 20 93 21 44 22 96 23
REMARK SMILES IDX 90 24 89 25 45 27 77 28 57 29 76 30 58 31 61 32 75 33 94 34
REMARK SMILES IDX 59 35 60 36 74 38 95 39 62 40 46 41 47 42 55 43 48 44 49 45
REMARK SMILES IDX 53 46 56 47 50 48 51 49 54 50 52 51 78 52 79 53 87 54 80 55
REMARK SMILES IDX 81 56 85 57 88 58 82 59 83 60 86 61 84 62 63 63 64 64 72 65
REMARK SMILES IDX 65 66 66 67 70 68 73 69 67 70 68 71 71 72 69 73 9 74 10 75
REMARK SMILES IDX 11 76 12 77 13 78 14 79 15 80 16 81 35 82 32 83 34 84 36 85
REMARK SMILES IDX 33 86 17 87 18 88 19 89 20 91 21 92 31 93 22 94 30 95 23 96
REMARK SMILES IDX 24 97 29 98 25 99 28 100 26 101 27 102
REMARK H PARENT 93 26 61 37 19 90
REMARK Flexibility Score: inf
ROOT
ATOM      1  C   UNL A   1      34.484  32.776  28.270  1.00  0.00     0.188 C 
ENDROOT
BRANCH   1   2
ATOM      2  C   UNL A   1      33.230  33.485  27.763  1.00  0.00     0.188 C 
BRANCH   2   3
ATOM      3  O   UNL A   1      32.745  34.481  28.667  1.00  0.00    -0.376 OA
BRANCH   3   4
ATOM      4  C   UNL A   1      33.753  35.399  29.085  1.00  0.00     0.202 C 
BRANCH   4   5
ATOM      5  C   UNL A   1      33.268  36.700  29.735  1.00  0.00     0.261 C 
BRANCH   5   6
ATOM      6  O   UNL A   1      32.326  36.510  30.797  1.00  0.00    -0.460 OA
BRANCH   6   7
ATOM      7  C   UNL A   1      32.421  35.750  31.911  1.00  0.00     0.338 C 
ATOM      8  O   UNL A   1      31.401  35.591  32.582  1.00  0.00    -0.246 OA
BRANCH   7   9
ATOM      9  C   UNL A   1      33.671  35.074  32.395  1.00  0.00     0.060 A 
ATOM     10  C   UNL A   1      34.917  35.672  32.579  1.00  0.00     0.016 A 
ATOM     11  C   UNL A   1      33.552  33.713  32.745  1.00  0.00     0.016 A 
ATOM     12  C   UNL A   1      36.005  34.950  33.064  1.00  0.00     0.010 A 
ATOM     13  C   UNL A   1      34.636  32.982  33.246  1.00  0.00     0.010 A 
ATOM     14  C   UNL A   1      35.875  33.604  33.397  1.00  0.00    -0.014 A 
BRANCH  14  15
ATOM     15  C   UNL A   1      37.095  32.845  33.738  1.00  0.00     0.031 A 
ATOM     16  C   UNL A   1      37.639  33.009  35.104  1.00  0.00     0.074 A 
ATOM     17  C   UNL A   1      37.638  31.963  32.885  1.00  0.00     0.049 A 
ATOM     18  N   UNL A   1      38.736  32.520  35.601  1.00  0.00    -0.248 NA
ATOM     19  C   UNL A   1      36.850  33.833  36.032  1.00  0.00     0.031 C 
ATOM     20  C   UNL A   1      37.084  31.704  31.579  1.00  0.00     0.029 A 
ATOM     21  N   UNL A   1      38.713  31.118  32.946  1.00  0.00    -0.354 N 
ATOM     22  C   UNL A   1      38.815  33.042  36.877  1.00  0.00     0.074 A 
ATOM     23  C   UNL A   1      37.627  33.835  37.101  1.00  0.00     0.031 C 
ATOM     24  C   UNL A   1      37.771  30.739  30.961  1.00  0.00     0.029 A 
ATOM     25  C   UNL A   1      38.885  30.363  31.805  1.00  0.00     0.049 A 
ATOM     26  H   UNL A   1      39.306  31.055  33.730  1.00  0.00     0.167 HD
ATOM     27  C   UNL A   1      39.842  32.903  37.739  1.00  0.00     0.037 A 
ATOM     28  C   UNL A   1      39.857  29.500  31.452  1.00  0.00     0.037 A 
ATOM     29  C   UNL A   1      41.011  32.126  37.434  1.00  0.00     0.049 A 
ATOM     30  C   UNL A   1      40.993  29.369  32.418  1.00  0.00     0.074 A 
ATOM     31  C   UNL A   1      42.152  31.957  38.188  1.00  0.00     0.029 A 
ATOM     32  N   UNL A   1      41.189  31.396  36.259  1.00  0.00    -0.354 N 
ATOM     33  N   UNL A   1      41.115  29.933  33.597  1.00  0.00    -0.248 NA
ATOM     34  C   UNL A   1      42.144  28.561  32.008  1.00  0.00     0.031 C 
ATOM     35  C   UNL A   1      43.045  31.180  37.445  1.00  0.00     0.029 A 
ATOM     36  C   UNL A   1      42.433  30.794  36.258  1.00  0.00     0.049 A 
ATOM     37  H   UNL A   1      40.525  31.321  35.536  1.00  0.00     0.167 HD
ATOM     38  C   UNL A   1      42.361  29.570  34.068  1.00  0.00     0.074 A 
ATOM     39  C   UNL A   1      42.947  28.707  33.057  1.00  0.00     0.031 C 
ATOM     40  C   UNL A   1      42.969  29.938  35.222  1.00  0.00     0.037 A 
BRANCH  27  41
ATOM     41  C   UNL A   1      39.777  33.730  38.986  1.00  0.00     0.064 A 
ATOM     42  C   UNL A   1      39.140  33.213  40.123  1.00  0.00     0.173 A 
ATOM     43  C   UNL A   1      40.412  34.976  39.097  1.00  0.00     0.173 A 
ATOM     44  F   UNL A   1      38.542  32.013  40.077  1.00  0.00    -0.203 F 
ATOM     45  C   UNL A   1      39.140  33.912  41.325  1.00  0.00     0.198 A 
ATOM     46  C   UNL A   1      40.441  35.656  40.311  1.00  0.00     0.198 A 
ATOM     47  F   UNL A   1      41.080  35.489  38.052  1.00  0.00    -0.203 F 
ATOM     48  F   UNL A   1      38.524  33.396  42.398  1.00  0.00    -0.200 F 
ATOM     49  C   UNL A   1      39.801  35.126  41.423  1.00  0.00     0.200 A 
ATOM     50  F   UNL A   1      41.125  36.804  40.417  1.00  0.00    -0.200 F 
ATOM     51  F   UNL A   1      39.840  35.777  42.594  1.00  0.00    -0.200 F 
ENDBRANCH  27  41
BRANCH  28  52
ATOM     52  C   UNL A   1      39.791  28.774  30.150  1.00  0.00     0.064 A 
ATOM     53  C   UNL A   1      39.263  27.473  30.056  1.00  0.00     0.173 A 
ATOM     54  C   UNL A   1      40.353  29.319  28.988  1.00  0.00     0.173 A 
ATOM     55  F   UNL A   1      38.706  26.897  31.132  1.00  0.00    -0.203 F 
ATOM     56  C   UNL A   1      39.355  26.731  28.878  1.00  0.00     0.198 A 
ATOM     57  C   UNL A   1      40.412  28.589  27.798  1.00  0.00     0.198 A 
ATOM     58  F   UNL A   1      40.851  30.564  29.007  1.00  0.00    -0.203 F 
ATOM     59  F   UNL A   1      38.903  25.470  28.846  1.00  0.00    -0.200 F 
ATOM     60  C   UNL A   1      39.930  27.289  27.749  1.00  0.00     0.200 A 
ATOM     61  F   UNL A   1      40.945  29.143  26.700  1.00  0.00    -0.200 F 
ATOM     62  F   UNL A   1      40.018  26.578  26.616  1.00  0.00    -0.200 F 
ENDBRANCH  28  52
BRANCH  40  63
ATOM     63  C   UNL A   1      44.337  29.392  35.467  1.00  0.00     0.064 A 
ATOM     64  C   UNL A   1      44.493  28.224  36.226  1.00  0.00     0.173 A 
ATOM     65  C   UNL A   1      45.483  30.103  35.087  1.00  0.00     0.173 A 
ATOM     66  F   UNL A   1      43.418  27.522  36.613  1.00  0.00    -0.203 F 
ATOM     67  C   UNL A   1      45.753  27.810  36.638  1.00  0.00     0.198 A 
ATOM     68  C   UNL A   1      46.745  29.668  35.476  1.00  0.00     0.198 A 
ATOM     69  F   UNL A   1      45.375  31.216  34.347  1.00  0.00    -0.203 F 
ATOM     70  F   UNL A   1      45.877  26.728  37.419  1.00  0.00    -0.200 F 
ATOM     71  C   UNL A   1      46.876  28.534  36.266  1.00  0.00     0.200 A 
ATOM     72  F   UNL A   1      47.833  30.355  35.102  1.00  0.00    -0.200 F 
ATOM     73  F   UNL A   1      48.090  28.143  36.679  1.00  0.00    -0.200 F 
ENDBRANCH  40  63
ENDBRANCH  14  15
ENDBRANCH   7   9
ENDBRANCH   6   7
ENDBRANCH   5   6
ENDBRANCH   4   5
ENDBRANCH   3   4
ENDBRANCH   2   3
ENDBRANCH   1   2
BRANCH   1  74
ATOM     74  O   UNL A   1      34.559  31.377  27.997  1.00  0.00    -0.376 OA
BRANCH  74  75
ATOM     75  C   UNL A   1      33.527  30.810  27.192  1.00  0.00     0.202 C 
BRANCH  75  76
ATOM     76  C   UNL A   1      33.377  29.289  27.250  1.00  0.00     0.261 C 
BRANCH  76  77
ATOM     77  O   UNL A   1      32.102  28.851  26.780  1.00  0.00    -0.463 OA
BRANCH  77  78
ATOM     78  C   UNL A   1      32.092  27.767  25.968  1.00  0.00     0.312 C 
ATOM     79  O   UNL A   1      32.866  26.827  26.035  1.00  0.00    -0.252 OA
BRANCH  78  80
ATOM     80  C   UNL A   1      31.008  27.847  24.935  1.00  0.00     0.147 C 
ATOM     81  C   UNL A   1      31.120  26.823  23.766  1.00  0.00     0.129 C 
ATOM     82  C   UNL A   1      31.116  29.202  24.213  1.00  0.00     0.157 C 
ATOM     83  C   UNL A   1      31.032  27.795  22.564  1.00  0.00     0.155 C 
ATOM     84  C   UNL A   1      29.831  29.491  23.503  1.00  0.00     0.004 C 
ATOM     85  O   UNL A   1      31.922  28.836  23.058  1.00  0.00    -0.365 OA
ATOM     86  C   UNL A   1      29.773  28.621  22.490  1.00  0.00     0.004 C 
BRANCH  81  87
ATOM     87  C   UNL A   1      30.021  25.778  23.859  1.00  0.00     0.233 C 
ATOM     88  O   UNL A   1      28.832  26.103  23.746  1.00  0.00    -0.274 OA
ATOM     89  N   UNL A   1      30.278  24.443  23.963  1.00  0.00    -0.302 N 
ATOM     90  H   UNL A   1      29.630  23.851  23.518  1.00  0.00     0.172 HD
BRANCH  89  91
ATOM     91  C   UNL A   1      31.310  23.813  24.597  1.00  0.00     0.189 A 
ATOM     92  N   UNL A   1      32.510  23.515  24.175  1.00  0.00    -0.220 NA
ATOM     93  S   UNL A   1      30.987  23.466  26.246  1.00  0.00    -0.105 S 
ATOM     94  C   UNL A   1      33.258  22.997  25.232  1.00  0.00     0.084 A 
ATOM     95  C   UNL A   1      32.564  22.803  26.409  1.00  0.00     0.097 A 
BRANCH  94  96
ATOM     96  C   UNL A   1      34.677  22.722  25.072  1.00  0.00     0.001 A 
ATOM     97  C   UNL A   1      35.095  21.388  24.974  1.00  0.00     0.013 A 
ATOM     98  C   UNL A   1      35.640  23.740  25.122  1.00  0.00     0.013 A 
ATOM     99  C   UNL A   1      36.450  21.064  25.042  1.00  0.00     0.040 A 
ATOM    100  C   UNL A   1      36.996  23.412  25.225  1.00  0.00     0.040 A 
ATOM    101  C   UNL A   1      37.386  22.077  25.209  1.00  0.00     0.123 A 
ATOM    102  F   UNL A   1      38.675  21.762  25.381  1.00  0.00    -0.207 F 
ENDBRANCH  94  96
ENDBRANCH  89  91
ENDBRANCH  81  87
ENDBRANCH  78  80
ENDBRANCH  77  78
ENDBRANCH  76  77
ENDBRANCH  75  76
ENDBRANCH  74  75
ENDBRANCH   1  74
TORSDOF 20
ENDMDL
