MODEL 1
REMARK VINA RESULT:     -10.8      0.000      0.000
REMARK SMILES Cc1ccc(Cl)c(Nc2ccccc2C(=O)OCCOCCOCCOC(=O)c2ccc(-c3c4nc(c(-c5c(F)c(F)c(F)c(F)c5F)c5ccc([nH]5)c(-c5c(F)c(F)c(F)c(F)c5F)c5nc(c(-c6c(F)c(F)c(F)c(F)c6F)c6ccc3[nH]6)C=C5)C=C4)cc2)c1Cl
REMARK SMILES IDX 21 1 20 2 19 3 18 4 17 5 15 6 16 7 14 8 9 9 10 10 11 11
REMARK SMILES IDX 13 12 12 13 8 14 7 16 1 17 2 18 3 19 92 20 4 21 93 22 5 23
REMARK SMILES IDX 6 24 22 25 23 26 24 27 25 28 26 29 27 30 28 31 29 32 30 33
REMARK SMILES IDX 91 34 31 35 90 36 32 37 33 38 34 39 84 40 35 41 89 42 83 43
REMARK SMILES IDX 85 44 36 45 88 46 82 47 81 48 37 50 69 51 49 52 68 53 50 54
REMARK SMILES IDX 53 55 67 56 86 57 51 58 52 59 66 61 87 62 54 63 38 64 39 65
REMARK SMILES IDX 47 66 40 67 41 68 45 69 48 70 42 71 43 72 46 73 44 74 70 75
REMARK SMILES IDX 71 76 79 77 72 78 73 79 77 80 80 81 74 82 75 83 78 84 76 85
REMARK SMILES IDX 55 86 56 87 64 88 57 89 58 90 62 91 65 92 59 93 60 94 63 95
REMARK SMILES IDX 61 96
REMARK H PARENT 8 15 85 49 53 60
REMARK Flexibility Score: inf
ROOT
ATOM      1  C   UNL A   1      35.058  33.668  27.628  1.00  0.00     0.188 C 
ENDROOT
BRANCH   1   2
ATOM      2  O   UNL A   1      35.236  32.267  27.628  1.00  0.00    -0.376 OA
BRANCH   2   3
ATOM      3  C   UNL A   1      34.121  31.412  27.819  1.00  0.00     0.202 C 
BRANCH   3   4
ATOM      4  C   UNL A   1      34.195  29.890  27.652  1.00  0.00     0.261 C 
BRANCH   4   5
ATOM      5  O   UNL A   1      33.817  29.386  26.366  1.00  0.00    -0.460 OA
BRANCH   5   6
ATOM      6  C   UNL A   1      33.132  28.212  26.368  1.00  0.00     0.340 C 
ATOM      7  O   UNL A   1      32.346  27.849  27.230  1.00  0.00    -0.246 OA
BRANCH   6   8
ATOM      8  C   UNL A   1      33.287  27.488  25.077  1.00  0.00     0.083 A 
ATOM      9  C   UNL A   1      33.512  26.101  24.925  1.00  0.00     0.053 A 
ATOM     10  C   UNL A   1      33.695  25.615  23.614  1.00  0.00     0.027 A 
ATOM     11  C   UNL A   1      33.653  26.457  22.498  1.00  0.00     0.002 A 
ATOM     12  C   UNL A   1      33.246  28.329  23.944  1.00  0.00     0.018 A 
ATOM     13  C   UNL A   1      33.427  27.817  22.663  1.00  0.00     0.001 A 
BRANCH   9  14
ATOM     14  N   UNL A   1      33.474  25.124  25.947  1.00  0.00    -0.352 N 
ATOM     15  H   UNL A   1      33.870  25.413  26.800  1.00  0.00     0.167 HD
BRANCH  14  16
ATOM     16  C   UNL A   1      32.966  23.801  25.955  1.00  0.00     0.077 A 
ATOM     17  C   UNL A   1      34.124  20.329  24.877  1.00  0.00     0.046 C 
ATOM     18  C   UNL A   1      33.246  21.427  25.413  1.00  0.00    -0.030 A 
ATOM     19  C   UNL A   1      31.853  21.282  25.350  1.00  0.00     0.006 A 
ATOM     20  C   UNL A   1      33.787  22.662  25.817  1.00  0.00     0.069 A 
ATOM     21  C   UNL A   1      31.016  22.355  25.651  1.00  0.00     0.023 A 
ATOM     22  Cl  UNL A   1      35.486  22.753  26.195  1.00  0.00    -0.082 Cl
ATOM     23  C   UNL A   1      31.569  23.609  25.917  1.00  0.00     0.066 A 
ATOM     24  Cl  UNL A   1      30.482  24.939  26.147  1.00  0.00    -0.082 Cl
ENDBRANCH  14  16
ENDBRANCH   9  14
ENDBRANCH   6   8
ENDBRANCH   5   6
ENDBRANCH   4   5
ENDBRANCH   3   4
ENDBRANCH   2   3
ENDBRANCH   1   2
BRANCH   1  25
ATOM     25  C   UNL A   1      35.005  34.435  28.967  1.00  0.00     0.188 C 
BRANCH  25  26
ATOM     26  O   UNL A   1      33.786  34.571  29.661  1.00  0.00    -0.376 OA
BRANCH  26  27
ATOM     27  C   UNL A   1      33.781  34.846  31.051  1.00  0.00     0.202 C 
BRANCH  27  28
ATOM     28  C   UNL A   1      34.744  34.214  32.073  1.00  0.00     0.261 C 
BRANCH  28  29
ATOM     29  O   UNL A   1      35.084  32.833  31.892  1.00  0.00    -0.460 OA
BRANCH  29  30
ATOM     30  C   UNL A   1      35.996  32.340  32.768  1.00  0.00     0.338 C 
ATOM     31  O   UNL A   1      35.928  32.325  33.982  1.00  0.00    -0.246 OA
BRANCH  30  32
ATOM     32  C   UNL A   1      37.041  31.615  32.015  1.00  0.00     0.060 A 
ATOM     33  C   UNL A   1      38.055  30.963  32.733  1.00  0.00     0.016 A 
ATOM     34  C   UNL A   1      37.036  31.599  30.621  1.00  0.00     0.016 A 
ATOM     35  C   UNL A   1      39.079  30.303  32.055  1.00  0.00     0.010 A 
ATOM     36  C   UNL A   1      38.081  30.962  29.942  1.00  0.00     0.010 A 
ATOM     37  C   UNL A   1      39.120  30.336  30.656  1.00  0.00    -0.014 A 
BRANCH  37  38
ATOM     38  C   UNL A   1      40.339  29.877  29.945  1.00  0.00     0.031 A 
ATOM     39  C   UNL A   1      41.441  30.869  29.699  1.00  0.00     0.074 A 
ATOM     40  C   UNL A   1      40.474  28.605  29.532  1.00  0.00     0.049 A 
ATOM     41  N   UNL A   1      42.567  30.723  29.048  1.00  0.00    -0.248 NA
ATOM     42  C   UNL A   1      41.241  32.215  30.262  1.00  0.00     0.031 C 
ATOM     43  C   UNL A   1      39.496  27.541  29.742  1.00  0.00     0.029 A 
ATOM     44  N   UNL A   1      41.488  28.002  28.830  1.00  0.00    -0.354 N 
ATOM     45  C   UNL A   1      43.200  31.957  29.109  1.00  0.00     0.074 A 
ATOM     46  C   UNL A   1      42.324  32.848  29.838  1.00  0.00     0.031 C 
ATOM     47  C   UNL A   1      39.949  26.417  29.158  1.00  0.00     0.029 A 
ATOM     48  C   UNL A   1      41.229  26.693  28.507  1.00  0.00     0.049 A 
ATOM     49  H   UNL A   1      42.323  28.463  28.583  1.00  0.00     0.167 HD
ATOM     50  C   UNL A   1      44.406  32.313  28.605  1.00  0.00     0.037 A 
ATOM     51  C   UNL A   1      41.930  25.829  27.746  1.00  0.00     0.037 A 
ATOM     52  C   UNL A   1      45.275  31.424  27.879  1.00  0.00     0.049 A 
ATOM     53  C   UNL A   1      43.240  26.268  27.139  1.00  0.00     0.074 A 
ATOM     54  C   UNL A   1      46.532  31.681  27.362  1.00  0.00     0.029 A 
ATOM     55  N   UNL A   1      44.969  30.111  27.553  1.00  0.00    -0.354 N 
ATOM     56  N   UNL A   1      43.854  27.423  27.234  1.00  0.00    -0.248 NA
ATOM     57  C   UNL A   1      43.958  25.277  26.323  1.00  0.00     0.031 C 
ATOM     58  C   UNL A   1      46.957  30.546  26.663  1.00  0.00     0.029 A 
ATOM     59  C   UNL A   1      45.998  29.557  26.808  1.00  0.00     0.049 A 
ATOM     60  H   UNL A   1      44.143  29.642  27.812  1.00  0.00     0.167 HD
ATOM     61  C   UNL A   1      45.037  27.290  26.516  1.00  0.00     0.074 A 
ATOM     62  C   UNL A   1      45.064  25.936  26.004  1.00  0.00     0.031 C 
ATOM     63  C   UNL A   1      46.015  28.206  26.303  1.00  0.00     0.037 A 
BRANCH  50  64
ATOM     64  C   UNL A   1      44.837  33.740  28.786  1.00  0.00     0.064 A 
ATOM     65  C   UNL A   1      44.501  34.741  27.861  1.00  0.00     0.173 A 
ATOM     66  C   UNL A   1      45.579  34.116  29.917  1.00  0.00     0.173 A 
ATOM     67  F   UNL A   1      43.805  34.435  26.756  1.00  0.00    -0.203 F 
ATOM     68  C   UNL A   1      44.920  36.057  28.046  1.00  0.00     0.198 A 
ATOM     69  C   UNL A   1      45.966  35.437  30.116  1.00  0.00     0.198 A 
ATOM     70  F   UNL A   1      45.924  33.199  30.834  1.00  0.00    -0.203 F 
ATOM     71  F   UNL A   1      44.636  36.985  27.122  1.00  0.00    -0.200 F 
ATOM     72  C   UNL A   1      45.645  36.405  29.176  1.00  0.00     0.200 A 
ATOM     73  F   UNL A   1      46.654  35.774  31.216  1.00  0.00    -0.200 F 
ATOM     74  F   UNL A   1      46.042  37.672  29.356  1.00  0.00    -0.200 F 
ENDBRANCH  50  64
BRANCH  51  75
ATOM     75  C   UNL A   1      41.397  24.464  27.493  1.00  0.00     0.064 A 
ATOM     76  C   UNL A   1      40.271  24.261  26.684  1.00  0.00     0.173 A 
ATOM     77  C   UNL A   1      41.995  23.334  28.072  1.00  0.00     0.173 A 
ATOM     78  F   UNL A   1      39.646  25.311  26.132  1.00  0.00    -0.203 F 
ATOM     79  C   UNL A   1      39.755  22.983  26.476  1.00  0.00     0.198 A 
ATOM     80  C   UNL A   1      41.497  22.054  27.838  1.00  0.00     0.198 A 
ATOM     81  F   UNL A   1      43.071  23.473  28.861  1.00  0.00    -0.203 F 
ATOM     82  F   UNL A   1      38.647  22.823  25.738  1.00  0.00    -0.200 F 
ATOM     83  C   UNL A   1      40.373  21.880  27.046  1.00  0.00     0.200 A 
ATOM     84  F   UNL A   1      42.104  20.992  28.384  1.00  0.00    -0.200 F 
ATOM     85  F   UNL A   1      39.879  20.651  26.842  1.00  0.00    -0.200 F 
ENDBRANCH  51  75
BRANCH  63  86
ATOM     86  C   UNL A   1      47.218  27.770  25.512  1.00  0.00     0.064 A 
ATOM     87  C   UNL A   1      47.243  27.825  24.111  1.00  0.00     0.173 A 
ATOM     88  C   UNL A   1      48.379  27.334  26.170  1.00  0.00     0.173 A 
ATOM     89  F   UNL A   1      46.158  28.223  23.430  1.00  0.00    -0.203 F 
ATOM     90  C   UNL A   1      48.374  27.431  23.397  1.00  0.00     0.198 A 
ATOM     91  C   UNL A   1      49.519  26.975  25.457  1.00  0.00     0.198 A 
ATOM     92  F   UNL A   1      48.414  27.271  27.510  1.00  0.00    -0.203 F 
ATOM     93  F   UNL A   1      48.357  27.442  22.058  1.00  0.00    -0.200 F 
ATOM     94  C   UNL A   1      49.514  27.015  24.072  1.00  0.00     0.200 A 
ATOM     95  F   UNL A   1      50.624  26.591  26.110  1.00  0.00    -0.200 F 
ATOM     96  F   UNL A   1      50.603  26.647  23.384  1.00  0.00    -0.200 F 
ENDBRANCH  63  86
ENDBRANCH  37  38
ENDBRANCH  30  32
ENDBRANCH  29  30
ENDBRANCH  28  29
ENDBRANCH  27  28
ENDBRANCH  26  27
ENDBRANCH  25  26
ENDBRANCH   1  25
TORSDOF 19
ENDMDL
MODEL 2
REMARK VINA RESULT:     -10.3      3.513      8.867
REMARK SMILES Cc1ccc(Cl)c(Nc2ccccc2C(=O)OCCOCCOCCOC(=O)c2ccc(-c3c4nc(c(-c5c(F)c(F)c(F)c(F)c5F)c5ccc([nH]5)c(-c5c(F)c(F)c(F)c(F)c5F)c5nc(c(-c6c(F)c(F)c(F)c(F)c6F)c6ccc3[nH]6)C=C5)C=C4)cc2)c1Cl
REMARK SMILES IDX 21 1 20 2 19 3 18 4 17 5 15 6 16 7 14 8 9 9 10 10 11 11
REMARK SMILES IDX 13 12 12 13 8 14 7 16 1 17 2 18 3 19 92 20 4 21 93 22 5 23
REMARK SMILES IDX 6 24 22 25 23 26 24 27 25 28 26 29 27 30 28 31 29 32 30 33
REMARK SMILES IDX 91 34 31 35 90 36 32 37 33 38 34 39 84 40 35 41 89 42 83 43
REMARK SMILES IDX 85 44 36 45 88 46 82 47 81 48 37 50 69 51 49 52 68 53 50 54
REMARK SMILES IDX 53 55 67 56 86 57 51 58 52 59 66 61 87 62 54 63 38 64 39 65
REMARK SMILES IDX 47 66 40 67 41 68 45 69 48 70 42 71 43 72 46 73 44 74 70 75
REMARK SMILES IDX 71 76 79 77 72 78 73 79 77 80 80 81 74 82 75 83 78 84 76 85
REMARK SMILES IDX 55 86 56 87 64 88 57 89 58 90 62 91 65 92 59 93 60 94 63 95
REMARK SMILES IDX 61 96
REMARK H PARENT 8 15 85 49 53 60
REMARK Flexibility Score: inf
ROOT
ATOM      1  C   UNL A   1      36.615  22.154  25.851  1.00  0.00     0.188 C 
ENDROOT
BRANCH   1   2
ATOM      2  O   UNL A   1      35.392  22.775  25.517  1.00  0.00    -0.376 OA
BRANCH   2   3
ATOM      3  C   UNL A   1      35.254  23.443  24.274  1.00  0.00     0.202 C 
BRANCH   3   4
ATOM      4  C   UNL A   1      34.132  24.447  23.983  1.00  0.00     0.261 C 
BRANCH   4   5
ATOM      5  O   UNL A   1      34.004  24.857  22.617  1.00  0.00    -0.460 OA
BRANCH   5   6
ATOM      6  C   UNL A   1      33.455  26.085  22.417  1.00  0.00     0.340 C 
ATOM      7  O   UNL A   1      33.942  26.980  21.743  1.00  0.00    -0.246 OA
BRANCH   6   8
ATOM      8  C   UNL A   1      32.067  26.154  22.950  1.00  0.00     0.083 A 
ATOM      9  C   UNL A   1      31.532  27.201  23.736  1.00  0.00     0.053 A 
ATOM     10  C   UNL A   1      30.208  27.050  24.197  1.00  0.00     0.027 A 
ATOM     11  C   UNL A   1      29.440  25.920  23.893  1.00  0.00     0.002 A 
ATOM     12  C   UNL A   1      31.284  25.020  22.648  1.00  0.00     0.018 A 
ATOM     13  C   UNL A   1      29.979  24.904  23.116  1.00  0.00     0.001 A 
BRANCH   9  14
ATOM     14  N   UNL A   1      32.152  28.437  24.029  1.00  0.00    -0.352 N 
ATOM     15  H   UNL A   1      32.571  28.875  23.254  1.00  0.00     0.167 HD
BRANCH  14  16
ATOM     16  C   UNL A   1      32.275  29.154  25.246  1.00  0.00     0.077 A 
ATOM     17  C   UNL A   1      31.498  32.657  26.545  1.00  0.00     0.046 C 
ATOM     18  C   UNL A   1      31.990  31.235  26.509  1.00  0.00    -0.030 A 
ATOM     19  C   UNL A   1      33.022  30.846  27.374  1.00  0.00     0.006 A 
ATOM     20  C   UNL A   1      31.556  30.338  25.515  1.00  0.00     0.069 A 
ATOM     21  C   UNL A   1      33.633  29.601  27.230  1.00  0.00     0.023 A 
ATOM     22  Cl  UNL A   1      30.082  30.686  24.651  1.00  0.00    -0.082 Cl
ATOM     23  C   UNL A   1      33.285  28.780  26.156  1.00  0.00     0.066 A 
ATOM     24  Cl  UNL A   1      34.173  27.308  25.944  1.00  0.00    -0.082 Cl
ENDBRANCH  14  16
ENDBRANCH   9  14
ENDBRANCH   6   8
ENDBRANCH   5   6
ENDBRANCH   4   5
ENDBRANCH   3   4
ENDBRANCH   2   3
ENDBRANCH   1   2
BRANCH   1  25
ATOM     25  C   UNL A   1      37.514  21.579  24.735  1.00  0.00     0.188 C 
BRANCH  25  26
ATOM     26  O   UNL A   1      37.560  20.190  24.504  1.00  0.00    -0.376 OA
BRANCH  26  27
ATOM     27  C   UNL A   1      38.343  19.352  25.335  1.00  0.00     0.202 C 
BRANCH  27  28
ATOM     28  C   UNL A   1      39.826  19.591  25.672  1.00  0.00     0.261 C 
BRANCH  28  29
ATOM     29  O   UNL A   1      40.140  20.018  27.003  1.00  0.00    -0.460 OA
BRANCH  29  30
ATOM     30  C   UNL A   1      41.445  20.320  27.223  1.00  0.00     0.338 C 
ATOM     31  O   UNL A   1      42.412  19.600  27.066  1.00  0.00    -0.246 OA
BRANCH  30  32
ATOM     32  C   UNL A   1      41.561  21.766  27.505  1.00  0.00     0.060 A 
ATOM     33  C   UNL A   1      41.035  22.675  26.574  1.00  0.00     0.016 A 
ATOM     34  C   UNL A   1      42.201  22.222  28.657  1.00  0.00     0.016 A 
ATOM     35  C   UNL A   1      41.161  24.047  26.787  1.00  0.00     0.010 A 
ATOM     36  C   UNL A   1      42.353  23.598  28.854  1.00  0.00     0.010 A 
ATOM     37  C   UNL A   1      41.859  24.516  27.908  1.00  0.00    -0.014 A 
BRANCH  37  38
ATOM     38  C   UNL A   1      42.231  25.949  27.996  1.00  0.00     0.031 A 
ATOM     39  C   UNL A   1      43.539  26.388  27.400  1.00  0.00     0.074 A 
ATOM     40  C   UNL A   1      41.424  26.848  28.585  1.00  0.00     0.049 A 
ATOM     41  N   UNL A   1      44.106  27.567  27.408  1.00  0.00    -0.248 NA
ATOM     42  C   UNL A   1      44.315  25.351  26.701  1.00  0.00     0.031 C 
ATOM     43  C   UNL A   1      40.117  26.557  29.167  1.00  0.00     0.029 A 
ATOM     44  N   UNL A   1      41.602  28.192  28.805  1.00  0.00    -0.354 N 
ATOM     45  C   UNL A   1      45.309  27.410  26.733  1.00  0.00     0.074 A 
ATOM     46  C   UNL A   1      45.403  26.018  26.350  1.00  0.00     0.031 C 
ATOM     47  C   UNL A   1      39.619  27.687  29.701  1.00  0.00     0.029 A 
ATOM     48  C   UNL A   1      40.587  28.769  29.527  1.00  0.00     0.049 A 
ATOM     49  H   UNL A   1      42.382  28.694  28.475  1.00  0.00     0.167 HD
ATOM     50  C   UNL A   1      46.250  28.345  26.456  1.00  0.00     0.037 A 
ATOM     51  C   UNL A   1      40.470  30.019  30.018  1.00  0.00     0.037 A 
ATOM     52  C   UNL A   1      46.155  29.729  26.839  1.00  0.00     0.049 A 
ATOM     53  C   UNL A   1      41.561  31.027  29.753  1.00  0.00     0.074 A 
ATOM     54  C   UNL A   1      47.038  30.760  26.571  1.00  0.00     0.029 A 
ATOM     55  N   UNL A   1      45.122  30.272  27.589  1.00  0.00    -0.354 N 
ATOM     56  N   UNL A   1      42.678  30.884  29.079  1.00  0.00    -0.248 NA
ATOM     57  C   UNL A   1      41.371  32.373  30.312  1.00  0.00     0.031 C 
ATOM     58  C   UNL A   1      46.574  31.910  27.217  1.00  0.00     0.029 A 
ATOM     59  C   UNL A   1      45.365  31.616  27.825  1.00  0.00     0.049 A 
ATOM     60  H   UNL A   1      44.333  29.776  27.906  1.00  0.00     0.167 HD
ATOM     61  C   UNL A   1      43.307  32.123  29.111  1.00  0.00     0.074 A 
ATOM     62  C   UNL A   1      42.441  33.011  29.857  1.00  0.00     0.031 C 
ATOM     63  C   UNL A   1      44.494  32.493  28.568  1.00  0.00     0.037 A 
BRANCH  50  64
ATOM     64  C   UNL A   1      47.487  27.889  25.736  1.00  0.00     0.064 A 
ATOM     65  C   UNL A   1      47.540  27.792  24.337  1.00  0.00     0.173 A 
ATOM     66  C   UNL A   1      48.646  27.566  26.459  1.00  0.00     0.173 A 
ATOM     67  F   UNL A   1      46.457  28.075  23.597  1.00  0.00    -0.203 F 
ATOM     68  C   UNL A   1      48.697  27.358  23.692  1.00  0.00     0.198 A 
ATOM     69  C   UNL A   1      49.810  27.167  25.810  1.00  0.00     0.198 A 
ATOM     70  F   UNL A   1      48.651  27.645  27.799  1.00  0.00    -0.203 F 
ATOM     71  F   UNL A   1      48.707  27.219  22.359  1.00  0.00    -0.200 F 
ATOM     72  C   UNL A   1      49.832  27.053  24.428  1.00  0.00     0.200 A 
ATOM     73  F   UNL A   1      50.910  26.887  26.522  1.00  0.00    -0.200 F 
ATOM     74  F   UNL A   1      50.946  26.642  23.806  1.00  0.00    -0.200 F 
ENDBRANCH  50  64
BRANCH  51  75
ATOM     75  C   UNL A   1      39.282  30.385  30.834  1.00  0.00     0.064 A 
ATOM     76  C   UNL A   1      39.264  30.192  32.222  1.00  0.00     0.173 A 
ATOM     77  C   UNL A   1      38.131  30.922  30.236  1.00  0.00     0.173 A 
ATOM     78  F   UNL A   1      40.327  29.654  32.835  1.00  0.00    -0.203 F 
ATOM     79  C   UNL A   1      38.136  30.506  32.977  1.00  0.00     0.198 A 
ATOM     80  C   UNL A   1      37.016  31.266  30.997  1.00  0.00     0.198 A 
ATOM     81  F   UNL A   1      38.092  31.121  28.910  1.00  0.00    -0.203 F 
ATOM     82  F   UNL A   1      38.127  30.264  34.296  1.00  0.00    -0.200 F 
ATOM     83  C   UNL A   1      37.016  31.051  32.366  1.00  0.00     0.200 A 
ATOM     84  F   UNL A   1      35.941  31.800  30.403  1.00  0.00    -0.200 F 
ATOM     85  F   UNL A   1      35.934  31.356  33.095  1.00  0.00    -0.200 F 
ENDBRANCH  51  75
BRANCH  63  86
ATOM     86  C   UNL A   1      44.916  33.928  28.726  1.00  0.00     0.064 A 
ATOM     87  C   UNL A   1      44.533  34.918  27.809  1.00  0.00     0.173 A 
ATOM     88  C   UNL A   1      45.680  34.325  29.835  1.00  0.00     0.173 A 
ATOM     89  F   UNL A   1      43.814  34.594  26.724  1.00  0.00    -0.203 F 
ATOM     90  C   UNL A   1      44.922  36.245  27.982  1.00  0.00     0.198 A 
ATOM     91  C   UNL A   1      46.037  35.657  30.024  1.00  0.00     0.198 A 
ATOM     92  F   UNL A   1      46.066  33.421  30.748  1.00  0.00    -0.203 F 
ATOM     93  F   UNL A   1      44.588  37.164  27.066  1.00  0.00    -0.200 F 
ATOM     94  C   UNL A   1      45.666  36.615  29.093  1.00  0.00     0.200 A 
ATOM     95  F   UNL A   1      46.739  36.014  31.107  1.00  0.00    -0.200 F 
ATOM     96  F   UNL A   1      46.031  37.893  29.263  1.00  0.00    -0.200 F 
ENDBRANCH  63  86
ENDBRANCH  37  38
ENDBRANCH  30  32
ENDBRANCH  29  30
ENDBRANCH  28  29
ENDBRANCH  27  28
ENDBRANCH  26  27
ENDBRANCH  25  26
ENDBRANCH   1  25
TORSDOF 19
ENDMDL
MODEL 3
REMARK VINA RESULT:     -10.1      3.193      8.427
REMARK SMILES Cc1ccc(Cl)c(Nc2ccccc2C(=O)OCCOCCOCCOC(=O)c2ccc(-c3c4nc(c(-c5c(F)c(F)c(F)c(F)c5F)c5ccc([nH]5)c(-c5c(F)c(F)c(F)c(F)c5F)c5nc(c(-c6c(F)c(F)c(F)c(F)c6F)c6ccc3[nH]6)C=C5)C=C4)cc2)c1Cl
REMARK SMILES IDX 21 1 20 2 19 3 18 4 17 5 15 6 16 7 14 8 9 9 10 10 11 11
REMARK SMILES IDX 13 12 12 13 8 14 7 16 1 17 2 18 3 19 92 20 4 21 93 22 5 23
REMARK SMILES IDX 6 24 22 25 23 26 24 27 25 28 26 29 27 30 28 31 29 32 30 33
REMARK SMILES IDX 91 34 31 35 90 36 32 37 33 38 34 39 84 40 35 41 89 42 83 43
REMARK SMILES IDX 85 44 36 45 88 46 82 47 81 48 37 50 69 51 49 52 68 53 50 54
REMARK SMILES IDX 53 55 67 56 86 57 51 58 52 59 66 61 87 62 54 63 38 64 39 65
REMARK SMILES IDX 47 66 40 67 41 68 45 69 48 70 42 71 43 72 46 73 44 74 70 75
REMARK SMILES IDX 71 76 79 77 72 78 73 79 77 80 80 81 74 82 75 83 78 84 76 85
REMARK SMILES IDX 55 86 56 87 64 88 57 89 58 90 62 91 65 92 59 93 60 94 63 95
REMARK SMILES IDX 61 96
REMARK H PARENT 8 15 85 49 53 60
REMARK Flexibility Score: inf
ROOT
ATOM      1  C   UNL A   1      36.225  22.783  25.913  1.00  0.00     0.188 C 
ENDROOT
BRANCH   1   2
ATOM      2  O   UNL A   1      34.944  23.363  25.774  1.00  0.00    -0.376 OA
BRANCH   2   3
ATOM      3  C   UNL A   1      34.817  24.689  25.291  1.00  0.00     0.202 C 
BRANCH   3   4
ATOM      4  C   UNL A   1      33.957  25.754  25.983  1.00  0.00     0.261 C 
BRANCH   4   5
ATOM      5  O   UNL A   1      33.111  26.525  25.124  1.00  0.00    -0.460 OA
BRANCH   5   6
ATOM      6  C   UNL A   1      32.168  27.282  25.745  1.00  0.00     0.340 C 
ATOM      7  O   UNL A   1      32.275  27.782  26.856  1.00  0.00    -0.246 OA
BRANCH   6   8
ATOM      8  C   UNL A   1      31.045  27.617  24.827  1.00  0.00     0.083 A 
ATOM      9  C   UNL A   1      30.123  26.699  24.276  1.00  0.00     0.053 A 
ATOM     10  C   UNL A   1      29.165  27.208  23.373  1.00  0.00     0.027 A 
ATOM     11  C   UNL A   1      29.114  28.563  23.032  1.00  0.00     0.002 A 
ATOM     12  C   UNL A   1      30.984  28.982  24.477  1.00  0.00     0.018 A 
ATOM     13  C   UNL A   1      30.024  29.453  23.586  1.00  0.00     0.001 A 
BRANCH   9  14
ATOM     14  N   UNL A   1      29.992  25.331  24.609  1.00  0.00    -0.352 N 
ATOM     15  H   UNL A   1      29.118  25.088  24.991  1.00  0.00     0.167 HD
BRANCH  14  16
ATOM     16  C   UNL A   1      30.901  24.250  24.490  1.00  0.00     0.077 A 
ATOM     17  C   UNL A   1      32.648  22.331  21.693  1.00  0.00     0.046 C 
ATOM     18  C   UNL A   1      32.204  22.733  23.074  1.00  0.00    -0.030 A 
ATOM     19  C   UNL A   1      32.184  21.771  24.093  1.00  0.00     0.006 A 
ATOM     20  C   UNL A   1      31.651  24.003  23.321  1.00  0.00     0.069 A 
ATOM     21  C   UNL A   1      31.595  22.058  25.324  1.00  0.00     0.023 A 
ATOM     22  Cl  UNL A   1      31.950  25.288  22.182  1.00  0.00    -0.082 Cl
ATOM     23  C   UNL A   1      30.931  23.272  25.506  1.00  0.00     0.066 A 
ATOM     24  Cl  UNL A   1      30.096  23.519  27.003  1.00  0.00    -0.082 Cl
ENDBRANCH  14  16
ENDBRANCH   9  14
ENDBRANCH   6   8
ENDBRANCH   5   6
ENDBRANCH   4   5
ENDBRANCH   3   4
ENDBRANCH   2   3
ENDBRANCH   1   2
BRANCH   1  25
ATOM     25  C   UNL A   1      37.000  22.325  24.659  1.00  0.00     0.188 C 
BRANCH  25  26
ATOM     26  O   UNL A   1      37.194  20.953  24.405  1.00  0.00    -0.376 OA
BRANCH  26  27
ATOM     27  C   UNL A   1      38.033  20.182  25.247  1.00  0.00     0.202 C 
BRANCH  27  28
ATOM     28  C   UNL A   1      39.477  20.559  25.628  1.00  0.00     0.261 C 
BRANCH  28  29
ATOM     29  O   UNL A   1      39.976  20.076  26.881  1.00  0.00    -0.460 OA
BRANCH  29  30
ATOM     30  C   UNL A   1      41.283  20.347  27.129  1.00  0.00     0.338 C 
ATOM     31  O   UNL A   1      42.237  19.610  26.976  1.00  0.00    -0.246 OA
BRANCH  30  32
ATOM     32  C   UNL A   1      41.424  21.786  27.438  1.00  0.00     0.060 A 
ATOM     33  C   UNL A   1      40.862  22.720  26.554  1.00  0.00     0.016 A 
ATOM     34  C   UNL A   1      42.120  22.209  28.570  1.00  0.00     0.016 A 
ATOM     35  C   UNL A   1      41.010  24.085  26.792  1.00  0.00     0.010 A 
ATOM     36  C   UNL A   1      42.292  23.580  28.790  1.00  0.00     0.010 A 
ATOM     37  C   UNL A   1      41.762  24.523  27.889  1.00  0.00    -0.014 A 
BRANCH  37  38
ATOM     38  C   UNL A   1      42.150  25.951  27.993  1.00  0.00     0.031 A 
ATOM     39  C   UNL A   1      43.468  26.380  27.413  1.00  0.00     0.074 A 
ATOM     40  C   UNL A   1      41.348  26.855  28.581  1.00  0.00     0.049 A 
ATOM     41  N   UNL A   1      44.050  27.552  27.436  1.00  0.00    -0.248 NA
ATOM     42  C   UNL A   1      44.240  25.339  26.714  1.00  0.00     0.031 C 
ATOM     43  C   UNL A   1      40.032  26.573  29.148  1.00  0.00     0.029 A 
ATOM     44  N   UNL A   1      41.539  28.194  28.814  1.00  0.00    -0.354 N 
ATOM     45  C   UNL A   1      45.258  27.387  26.772  1.00  0.00     0.074 A 
ATOM     46  C   UNL A   1      45.339  25.996  26.378  1.00  0.00     0.031 C 
ATOM     47  C   UNL A   1      39.542  27.705  29.686  1.00  0.00     0.029 A 
ATOM     48  C   UNL A   1      40.523  28.777  29.531  1.00  0.00     0.049 A 
ATOM     49  H   UNL A   1      42.328  28.690  28.496  1.00  0.00     0.167 HD
ATOM     50  C   UNL A   1      46.211  28.312  26.512  1.00  0.00     0.037 A 
ATOM     51  C   UNL A   1      40.416  30.025  30.031  1.00  0.00     0.037 A 
ATOM     52  C   UNL A   1      46.128  29.694  26.906  1.00  0.00     0.049 A 
ATOM     53  C   UNL A   1      41.521  31.021  29.784  1.00  0.00     0.074 A 
ATOM     54  C   UNL A   1      47.026  30.717  26.654  1.00  0.00     0.029 A 
ATOM     55  N   UNL A   1      45.094  30.243  27.649  1.00  0.00    -0.354 N 
ATOM     56  N   UNL A   1      42.643  30.872  29.121  1.00  0.00    -0.248 NA
ATOM     57  C   UNL A   1      41.341  32.366  30.353  1.00  0.00     0.031 C 
ATOM     58  C   UNL A   1      46.569  31.868  27.305  1.00  0.00     0.029 A 
ATOM     59  C   UNL A   1      45.350  31.582  27.899  1.00  0.00     0.049 A 
ATOM     60  H   UNL A   1      44.296  29.754  27.954  1.00  0.00     0.167 HD
ATOM     61  C   UNL A   1      43.286  32.103  29.169  1.00  0.00     0.074 A 
ATOM     62  C   UNL A   1      42.423  32.995  29.913  1.00  0.00     0.031 C 
ATOM     63  C   UNL A   1      44.482  32.463  28.641  1.00  0.00     0.037 A 
BRANCH  50  64
ATOM     64  C   UNL A   1      47.450  27.848  25.800  1.00  0.00     0.064 A 
ATOM     65  C   UNL A   1      48.600  27.445  26.496  1.00  0.00     0.173 A 
ATOM     66  C   UNL A   1      47.477  27.783  24.398  1.00  0.00     0.173 A 
ATOM     67  F   UNL A   1      48.635  27.500  27.836  1.00  0.00    -0.203 F 
ATOM     68  C   UNL A   1      49.740  27.026  25.813  1.00  0.00     0.198 A 
ATOM     69  C   UNL A   1      48.605  27.331  23.721  1.00  0.00     0.198 A 
ATOM     70  F   UNL A   1      46.402  28.152  23.684  1.00  0.00    -0.203 F 
ATOM     71  F   UNL A   1      50.846  26.700  26.496  1.00  0.00    -0.200 F 
ATOM     72  C   UNL A   1      49.739  26.962  24.428  1.00  0.00     0.200 A 
ATOM     73  F   UNL A   1      48.596  27.256  22.383  1.00  0.00    -0.200 F 
ATOM     74  F   UNL A   1      50.834  26.553  23.773  1.00  0.00    -0.200 F 
ENDBRANCH  50  64
BRANCH  51  75
ATOM     75  C   UNL A   1      39.224  30.398  30.838  1.00  0.00     0.064 A 
ATOM     76  C   UNL A   1      38.107  31.004  30.248  1.00  0.00     0.173 A 
ATOM     77  C   UNL A   1      39.186  30.168  32.222  1.00  0.00     0.173 A 
ATOM     78  F   UNL A   1      38.107  31.272  28.935  1.00  0.00    -0.203 F 
ATOM     79  C   UNL A   1      37.005  31.382  31.013  1.00  0.00     0.198 A 
ATOM     80  C   UNL A   1      38.071  30.517  32.981  1.00  0.00     0.198 A 
ATOM     81  F   UNL A   1      40.231  29.597  32.838  1.00  0.00    -0.203 F 
ATOM     82  F   UNL A   1      35.971  32.007  30.432  1.00  0.00    -0.200 F 
ATOM     83  C   UNL A   1      36.984  31.131  32.377  1.00  0.00     0.200 A 
ATOM     84  F   UNL A   1      38.052  30.263  34.296  1.00  0.00    -0.200 F 
ATOM     85  F   UNL A   1      35.922  31.490  33.112  1.00  0.00    -0.200 F 
ENDBRANCH  51  75
BRANCH  63  86
ATOM     86  C   UNL A   1      44.920  33.892  28.814  1.00  0.00     0.064 A 
ATOM     87  C   UNL A   1      45.671  34.309  29.922  1.00  0.00     0.173 A 
ATOM     88  C   UNL A   1      44.618  34.850  27.832  1.00  0.00     0.173 A 
ATOM     89  F   UNL A   1      45.977  33.439  30.897  1.00  0.00    -0.203 F 
ATOM     90  C   UNL A   1      46.079  35.635  30.056  1.00  0.00     0.198 A 
ATOM     91  C   UNL A   1      45.057  36.165  27.950  1.00  0.00     0.198 A 
ATOM     92  F   UNL A   1      43.910  34.505  26.746  1.00  0.00    -0.203 F 
ATOM     93  F   UNL A   1      46.751  36.020  31.149  1.00  0.00    -0.200 F 
ATOM     94  C   UNL A   1      45.779  36.559  29.066  1.00  0.00     0.200 A 
ATOM     95  F   UNL A   1      44.783  37.052  26.984  1.00  0.00    -0.200 F 
ATOM     96  F   UNL A   1      46.181  37.831  29.191  1.00  0.00    -0.200 F 
ENDBRANCH  63  86
ENDBRANCH  37  38
ENDBRANCH  30  32
ENDBRANCH  29  30
ENDBRANCH  28  29
ENDBRANCH  27  28
ENDBRANCH  26  27
ENDBRANCH  25  26
ENDBRANCH   1  25
TORSDOF 19
ENDMDL
