MODEL 1
REMARK VINA RESULT:     -12.9      0.000      0.000
REMARK SMILES O=C(OCCOCCOCCOC(=O)c1cccnc1C(=O)Nc1ccc([N+](=O)[O-])cc1)c1ccc(-c2c3nc(c(-c4c(F)c(F)c(F)c(F)c4F)c4ccc([nH]4)c(-c4c(F)c(F)c(F)c(F)c4F)c4nc(c(-c5c(F)c(F)c(F)c(F)c5F)c5ccc2[nH]5)C=C4)C=C3)cc1
REMARK SMILES IDX 8 1 7 2 6 3 5 4 4 5 3 6 2 7 1 8 33 9 34 10 95 11 35 12 94 13
REMARK SMILES IDX 36 14 37 15 38 16 88 17 39 18 93 19 87 20 89 21 40 22 92 23
REMARK SMILES IDX 86 24 85 25 41 27 73 28 53 29 72 30 54 31 57 32 71 33 90 34
REMARK SMILES IDX 55 35 56 36 70 38 91 39 58 40 42 41 43 42 51 43 44 44 45 45
REMARK SMILES IDX 49 46 52 47 46 48 47 49 50 50 48 51 74 52 75 53 83 54 76 55
REMARK SMILES IDX 77 56 81 57 84 58 78 59 79 60 82 61 80 62 59 63 60 64 68 65
REMARK SMILES IDX 61 66 62 67 66 68 69 69 63 70 64 71 67 72 65 73 9 74 10 75
REMARK SMILES IDX 11 76 12 77 13 78 14 79 15 80 16 81 20 82 17 83 19 84 18 85
REMARK SMILES IDX 21 86 22 87 23 88 24 90 25 91 32 92 26 93 31 94 27 95 28 96
REMARK SMILES IDX 29 97 30 98
REMARK H PARENT 89 26 57 37 23 89
REMARK Flexibility Score: inf
ROOT
ATOM      1  C   UNL A   1      30.747  29.384  24.396  1.00  0.00     0.188 C 
ENDROOT
BRANCH   1   2
ATOM      2  C   UNL A   1      32.278  29.370  24.446  1.00  0.00     0.188 C 
BRANCH   2   3
ATOM      3  O   UNL A   1      32.872  30.061  25.532  1.00  0.00    -0.376 OA
BRANCH   3   4
ATOM      4  C   UNL A   1      32.070  30.280  26.677  1.00  0.00     0.202 C 
BRANCH   4   5
ATOM      5  C   UNL A   1      31.746  31.732  27.018  1.00  0.00     0.261 C 
BRANCH   5   6
ATOM      6  O   UNL A   1      32.790  32.700  27.292  1.00  0.00    -0.460 OA
BRANCH   6   7
ATOM      7  C   UNL A   1      33.714  32.954  28.236  1.00  0.00     0.338 C 
ATOM      8  O   UNL A   1      33.426  33.742  29.135  1.00  0.00    -0.246 OA
BRANCH   7   9
ATOM      9  C   UNL A   1      35.069  32.346  28.269  1.00  0.00     0.060 A 
ATOM     10  C   UNL A   1      35.296  30.973  28.295  1.00  0.00     0.016 A 
ATOM     11  C   UNL A   1      36.175  33.218  28.387  1.00  0.00     0.016 A 
ATOM     12  C   UNL A   1      36.586  30.466  28.393  1.00  0.00     0.010 A 
ATOM     13  C   UNL A   1      37.463  32.719  28.594  1.00  0.00     0.010 A 
ATOM     14  C   UNL A   1      37.652  31.335  28.645  1.00  0.00    -0.014 A 
BRANCH  14  15
ATOM     15  C   UNL A   1      38.793  30.740  29.372  1.00  0.00     0.031 A 
ATOM     16  C   UNL A   1      38.930  31.125  30.821  1.00  0.00     0.074 A 
ATOM     17  C   UNL A   1      39.523  29.751  28.837  1.00  0.00     0.049 A 
ATOM     18  N   UNL A   1      39.691  30.616  31.752  1.00  0.00    -0.248 NA
ATOM     19  C   UNL A   1      38.035  32.196  31.297  1.00  0.00     0.031 C 
ATOM     20  C   UNL A   1      39.359  29.223  27.486  1.00  0.00     0.029 A 
ATOM     21  N   UNL A   1      40.514  28.985  29.387  1.00  0.00    -0.354 N 
ATOM     22  C   UNL A   1      39.346  31.286  32.920  1.00  0.00     0.074 A 
ATOM     23  C   UNL A   1      38.318  32.242  32.586  1.00  0.00     0.031 C 
ATOM     24  C   UNL A   1      40.214  28.198  27.317  1.00  0.00     0.029 A 
ATOM     25  C   UNL A   1      41.010  28.035  28.531  1.00  0.00     0.049 A 
ATOM     26  H   UNL A   1      40.842  29.105  30.308  1.00  0.00     0.167 HD
ATOM     27  C   UNL A   1      39.852  31.125  34.163  1.00  0.00     0.037 A 
ATOM     28  C   UNL A   1      42.008  27.149  28.717  1.00  0.00     0.037 A 
ATOM     29  C   UNL A   1      40.925  30.218  34.460  1.00  0.00     0.049 A 
ATOM     30  C   UNL A   1      42.675  27.103  30.069  1.00  0.00     0.074 A 
ATOM     31  C   UNL A   1      41.589  30.021  35.653  1.00  0.00     0.029 A 
ATOM     32  N   UNL A   1      41.509  29.371  33.525  1.00  0.00    -0.354 N 
ATOM     33  N   UNL A   1      42.373  27.760  31.165  1.00  0.00    -0.248 NA
ATOM     34  C   UNL A   1      43.820  26.195  30.212  1.00  0.00     0.031 C 
ATOM     35  C   UNL A   1      42.623  29.106  35.423  1.00  0.00     0.029 A 
ATOM     36  C   UNL A   1      42.551  28.672  34.106  1.00  0.00     0.049 A 
ATOM     37  H   UNL A   1      41.222  29.281  32.587  1.00  0.00     0.167 HD
ATOM     38  C   UNL A   1      43.265  27.322  32.135  1.00  0.00     0.074 A 
ATOM     39  C   UNL A   1      44.115  26.336  31.496  1.00  0.00     0.031 C 
ATOM     40  C   UNL A   1      43.371  27.692  33.437  1.00  0.00     0.037 A 
BRANCH  27  41
ATOM     41  C   UNL A   1      39.319  32.031  35.234  1.00  0.00     0.064 A 
ATOM     42  C   UNL A   1      39.739  33.365  35.364  1.00  0.00     0.173 A 
ATOM     43  C   UNL A   1      38.427  31.531  36.195  1.00  0.00     0.173 A 
ATOM     44  F   UNL A   1      40.619  33.883  34.493  1.00  0.00    -0.203 F 
ATOM     45  C   UNL A   1      39.322  34.147  36.439  1.00  0.00     0.198 A 
ATOM     46  C   UNL A   1      37.986  32.325  37.249  1.00  0.00     0.198 A 
ATOM     47  F   UNL A   1      38.002  30.260  36.125  1.00  0.00    -0.203 F 
ATOM     48  F   UNL A   1      39.799  35.391  36.587  1.00  0.00    -0.200 F 
ATOM     49  C   UNL A   1      38.444  33.627  37.379  1.00  0.00     0.200 A 
ATOM     50  F   UNL A   1      37.136  31.821  38.155  1.00  0.00    -0.200 F 
ATOM     51  F   UNL A   1      38.056  34.375  38.422  1.00  0.00    -0.200 F 
ENDBRANCH  27  41
BRANCH  28  52
ATOM     52  C   UNL A   1      42.445  26.267  27.601  1.00  0.00     0.064 A 
ATOM     53  C   UNL A   1      43.458  26.651  26.712  1.00  0.00     0.173 A 
ATOM     54  C   UNL A   1      41.846  25.013  27.396  1.00  0.00     0.173 A 
ATOM     55  F   UNL A   1      44.053  27.845  26.851  1.00  0.00    -0.203 F 
ATOM     56  C   UNL A   1      43.844  25.826  25.655  1.00  0.00     0.198 A 
ATOM     57  C   UNL A   1      42.253  24.176  26.359  1.00  0.00     0.198 A 
ATOM     58  F   UNL A   1      40.878  24.585  28.220  1.00  0.00    -0.203 F 
ATOM     59  F   UNL A   1      44.789  26.236  24.799  1.00  0.00    -0.200 F 
ATOM     60  C   UNL A   1      43.245  24.587  25.484  1.00  0.00     0.200 A 
ATOM     61  F   UNL A   1      41.688  22.969  26.216  1.00  0.00    -0.200 F 
ATOM     62  F   UNL A   1      43.624  23.789  24.476  1.00  0.00    -0.200 F 
ENDBRANCH  28  52
BRANCH  40  63
ATOM     63  C   UNL A   1      44.408  26.992  34.266  1.00  0.00     0.064 A 
ATOM     64  C   UNL A   1      45.695  27.517  34.443  1.00  0.00     0.173 A 
ATOM     65  C   UNL A   1      44.081  25.803  34.939  1.00  0.00     0.173 A 
ATOM     66  F   UNL A   1      46.058  28.644  33.814  1.00  0.00    -0.203 F 
ATOM     67  C   UNL A   1      46.630  26.860  35.239  1.00  0.00     0.198 A 
ATOM     68  C   UNL A   1      45.005  25.170  35.763  1.00  0.00     0.198 A 
ATOM     69  F   UNL A   1      42.858  25.267  34.810  1.00  0.00    -0.203 F 
ATOM     70  F   UNL A   1      47.872  27.349  35.351  1.00  0.00    -0.200 F 
ATOM     71  C   UNL A   1      46.281  25.693  35.904  1.00  0.00     0.200 A 
ATOM     72  F   UNL A   1      44.660  24.055  36.421  1.00  0.00    -0.200 F 
ATOM     73  F   UNL A   1      47.178  25.068  36.680  1.00  0.00    -0.200 F 
ENDBRANCH  40  63
ENDBRANCH  14  15
ENDBRANCH   7   9
ENDBRANCH   6   7
ENDBRANCH   5   6
ENDBRANCH   4   5
ENDBRANCH   3   4
ENDBRANCH   2   3
ENDBRANCH   1   2
BRANCH   1  74
ATOM     74  O   UNL A   1      30.214  29.738  23.127  1.00  0.00    -0.376 OA
BRANCH  74  75
ATOM     75  C   UNL A   1      28.806  29.557  22.928  1.00  0.00     0.202 C 
BRANCH  75  76
ATOM     76  C   UNL A   1      28.282  28.017  23.106  1.00  0.00     0.261 C 
BRANCH  76  77
ATOM     77  O   UNL A   1      29.344  26.341  23.476  1.00  0.00    -0.460 OA
BRANCH  77  78
ATOM     78  C   UNL A   1      30.355  25.343  23.622  1.00  0.00     0.340 C 
ATOM     79  O   UNL A   1      30.107  24.186  23.278  1.00  0.00    -0.246 OA
BRANCH  78  80
ATOM     80  C   UNL A   1      31.682  25.573  24.305  1.00  0.00     0.091 A 
ATOM     81  C   UNL A   1      31.562  25.941  25.660  1.00  0.00     0.020 A 
ATOM     82  C   UNL A   1      32.989  25.465  23.799  1.00  0.00     0.142 A 
ATOM     83  C   UNL A   1      32.689  26.205  26.436  1.00  0.00     0.021 A 
ATOM     84  N   UNL A   1      34.095  25.764  24.554  1.00  0.00    -0.250 NA
ATOM     85  C   UNL A   1      33.928  26.114  25.841  1.00  0.00     0.112 A 
BRANCH  82  86
ATOM     86  C   UNL A   1      33.406  24.991  22.426  1.00  0.00     0.275 C 
ATOM     87  O   UNL A   1      33.609  25.790  21.511  1.00  0.00    -0.267 OA
ATOM     88  N   UNL A   1      33.637  23.668  22.175  1.00  0.00    -0.321 N 
ATOM     89  H   UNL A   1      34.048  23.424  21.314  1.00  0.00     0.170 HD
BRANCH  88  90
ATOM     90  C   UNL A   1      33.325  22.653  23.055  1.00  0.00     0.042 A 
ATOM     91  C   UNL A   1      32.160  21.441  22.397  1.00  0.00     0.033 A 
ATOM     92  C   UNL A   1      34.485  22.210  24.391  1.00  0.00     0.033 A 
ATOM     93  C   UNL A   1      32.125  19.781  23.099  1.00  0.00     0.088 A 
ATOM     94  C   UNL A   1      34.458  20.530  25.049  1.00  0.00     0.088 A 
ATOM     95  C   UNL A   1      33.297  19.324  24.380  1.00  0.00     0.269 A 
BRANCH  95  96
ATOM     96  N   UNL A   1      33.166  18.040  25.025  1.00  0.00     0.062 N 
ATOM     97  O   UNL A   1      32.395  17.972  25.990  1.00  0.00    -0.258 OA
ATOM     98  O   UNL A   1      33.886  17.126  24.607  1.00  0.00    -0.258 OA
ENDBRANCH  95  96
ENDBRANCH  88  90
ENDBRANCH  82  86
ENDBRANCH  78  80
ENDBRANCH  77  78
ENDBRANCH  76  77
ENDBRANCH  75  76
ENDBRANCH  74  75
ENDBRANCH   1  74
TORSDOF 20
ENDMDL
MODEL 2
REMARK VINA RESULT:     -12.5      1.832      7.693
REMARK SMILES O=C(OCCOCCOCCOC(=O)c1cccnc1C(=O)Nc1ccc([N+](=O)[O-])cc1)c1ccc(-c2c3nc(c(-c4c(F)c(F)c(F)c(F)c4F)c4ccc([nH]4)c(-c4c(F)c(F)c(F)c(F)c4F)c4nc(c(-c5c(F)c(F)c(F)c(F)c5F)c5ccc2[nH]5)C=C4)C=C3)cc1
REMARK SMILES IDX 8 1 7 2 6 3 5 4 4 5 3 6 2 7 1 8 33 9 34 10 95 11 35 12 94 13
REMARK SMILES IDX 36 14 37 15 38 16 88 17 39 18 93 19 87 20 89 21 40 22 92 23
REMARK SMILES IDX 86 24 85 25 41 27 73 28 53 29 72 30 54 31 57 32 71 33 90 34
REMARK SMILES IDX 55 35 56 36 70 38 91 39 58 40 42 41 43 42 51 43 44 44 45 45
REMARK SMILES IDX 49 46 52 47 46 48 47 49 50 50 48 51 74 52 75 53 83 54 76 55
REMARK SMILES IDX 77 56 81 57 84 58 78 59 79 60 82 61 80 62 59 63 60 64 68 65
REMARK SMILES IDX 61 66 62 67 66 68 69 69 63 70 64 71 67 72 65 73 9 74 10 75
REMARK SMILES IDX 11 76 12 77 13 78 14 79 15 80 16 81 20 82 17 83 19 84 18 85
REMARK SMILES IDX 21 86 22 87 23 88 24 90 25 91 32 92 26 93 31 94 27 95 28 96
REMARK SMILES IDX 29 97 30 98
REMARK H PARENT 89 26 57 37 23 89
REMARK Flexibility Score: inf
ROOT
ATOM      1  C   UNL A   1      32.351  27.646  24.966  1.00  0.00     0.188 C 
ENDROOT
BRANCH   1   2
ATOM      2  C   UNL A   1      33.008  28.533  26.027  1.00  0.00     0.188 C 
BRANCH   2   3
ATOM      3  O   UNL A   1      32.994  29.928  25.770  1.00  0.00    -0.376 OA
BRANCH   3   4
ATOM      4  C   UNL A   1      31.751  30.594  25.887  1.00  0.00     0.202 C 
BRANCH   4   5
ATOM      5  C   UNL A   1      31.657  31.686  26.948  1.00  0.00     0.261 C 
BRANCH   5   6
ATOM      6  O   UNL A   1      32.647  32.742  27.044  1.00  0.00    -0.460 OA
BRANCH   6   7
ATOM      7  C   UNL A   1      33.623  33.143  27.878  1.00  0.00     0.338 C 
ATOM      8  O   UNL A   1      33.506  34.238  28.426  1.00  0.00    -0.246 OA
BRANCH   7   9
ATOM      9  C   UNL A   1      34.842  32.351  28.186  1.00  0.00     0.060 A 
ATOM     10  C   UNL A   1      34.816  31.003  28.530  1.00  0.00     0.016 A 
ATOM     11  C   UNL A   1      36.075  33.040  28.233  1.00  0.00     0.016 A 
ATOM     12  C   UNL A   1      35.984  30.334  28.873  1.00  0.00     0.010 A 
ATOM     13  C   UNL A   1      37.235  32.404  28.679  1.00  0.00     0.010 A 
ATOM     14  C   UNL A   1      37.169  31.056  29.046  1.00  0.00    -0.014 A 
BRANCH  14  15
ATOM     15  C   UNL A   1      38.131  30.470  30.002  1.00  0.00     0.031 A 
ATOM     16  C   UNL A   1      39.151  29.526  29.423  1.00  0.00     0.074 A 
ATOM     17  C   UNL A   1      38.229  30.922  31.260  1.00  0.00     0.049 A 
ATOM     18  N   UNL A   1      40.229  29.026  29.964  1.00  0.00    -0.248 NA
ATOM     19  C   UNL A   1      38.954  29.141  28.013  1.00  0.00     0.031 C 
ATOM     20  C   UNL A   1      37.369  31.940  31.856  1.00  0.00     0.029 A 
ATOM     21  N   UNL A   1      39.130  30.616  32.244  1.00  0.00    -0.354 N 
ATOM     22  C   UNL A   1      40.846  28.295  28.956  1.00  0.00     0.074 A 
ATOM     23  C   UNL A   1      40.024  28.405  27.774  1.00  0.00     0.031 C 
ATOM     24  C   UNL A   1      37.799  32.190  33.106  1.00  0.00     0.029 A 
ATOM     25  C   UNL A   1      38.931  31.317  33.406  1.00  0.00     0.049 A 
ATOM     26  H   UNL A   1      39.852  29.955  32.129  1.00  0.00     0.167 HD
ATOM     27  C   UNL A   1      41.995  27.584  29.013  1.00  0.00     0.037 A 
ATOM     28  C   UNL A   1      39.590  31.240  34.578  1.00  0.00     0.037 A 
ATOM     29  C   UNL A   1      42.759  27.430  30.218  1.00  0.00     0.049 A 
ATOM     30  C   UNL A   1      40.772  30.307  34.670  1.00  0.00     0.074 A 
ATOM     31  C   UNL A   1      43.889  26.668  30.437  1.00  0.00     0.029 A 
ATOM     32  N   UNL A   1      42.440  28.040  31.426  1.00  0.00    -0.354 N 
ATOM     33  N   UNL A   1      41.336  29.589  33.727  1.00  0.00    -0.248 NA
ATOM     34  C   UNL A   1      41.409  30.174  35.986  1.00  0.00     0.031 C 
ATOM     35  C   UNL A   1      44.213  26.761  31.796  1.00  0.00     0.029 A 
ATOM     36  C   UNL A   1      43.333  27.644  32.406  1.00  0.00     0.049 A 
ATOM     37  H   UNL A   1      41.690  28.662  31.564  1.00  0.00     0.167 HD
ATOM     38  C   UNL A   1      42.413  28.947  34.323  1.00  0.00     0.074 A 
ATOM     39  C   UNL A   1      42.425  29.368  35.710  1.00  0.00     0.031 C 
ATOM     40  C   UNL A   1      43.315  28.092  33.777  1.00  0.00     0.037 A 
BRANCH  27  41
ATOM     41  C   UNL A   1      42.397  26.848  27.770  1.00  0.00     0.064 A 
ATOM     42  C   UNL A   1      42.046  25.506  27.547  1.00  0.00     0.173 A 
ATOM     43  C   UNL A   1      43.217  27.474  26.819  1.00  0.00     0.173 A 
ATOM     44  F   UNL A   1      41.293  24.848  28.442  1.00  0.00    -0.203 F 
ATOM     45  C   UNL A   1      42.536  24.810  26.443  1.00  0.00     0.198 A 
ATOM     46  C   UNL A   1      43.678  26.785  25.700  1.00  0.00     0.198 A 
ATOM     47  F   UNL A   1      43.594  28.751  26.988  1.00  0.00    -0.203 F 
ATOM     48  F   UNL A   1      42.253  23.509  26.293  1.00  0.00    -0.200 F 
ATOM     49  C   UNL A   1      43.349  25.451  25.521  1.00  0.00     0.200 A 
ATOM     50  F   UNL A   1      44.462  27.408  24.809  1.00  0.00    -0.200 F 
ATOM     51  F   UNL A   1      43.834  24.776  24.469  1.00  0.00    -0.200 F 
ENDBRANCH  27  41
BRANCH  28  52
ATOM     52  C   UNL A   1      39.132  32.037  35.748  1.00  0.00     0.064 A 
ATOM     53  C   UNL A   1      39.552  33.359  35.949  1.00  0.00     0.173 A 
ATOM     54  C   UNL A   1      38.264  31.483  36.704  1.00  0.00     0.173 A 
ATOM     55  F   UNL A   1      40.394  33.933  35.077  1.00  0.00    -0.203 F 
ATOM     56  C   UNL A   1      39.135  34.089  37.063  1.00  0.00     0.198 A 
ATOM     57  C   UNL A   1      37.823  32.222  37.799  1.00  0.00     0.198 A 
ATOM     58  F   UNL A   1      37.820  30.224  36.561  1.00  0.00    -0.203 F 
ATOM     59  F   UNL A   1      39.582  35.338  37.248  1.00  0.00    -0.200 F 
ATOM     60  C   UNL A   1      38.266  33.522  37.983  1.00  0.00     0.200 A 
ATOM     61  F   UNL A   1      36.963  31.675  38.670  1.00  0.00    -0.200 F 
ATOM     62  F   UNL A   1      37.856  34.227  39.046  1.00  0.00    -0.200 F 
ENDBRANCH  28  52
BRANCH  40  63
ATOM     63  C   UNL A   1      44.418  27.598  34.668  1.00  0.00     0.064 A 
ATOM     64  C   UNL A   1      45.611  28.313  34.836  1.00  0.00     0.173 A 
ATOM     65  C   UNL A   1      44.245  26.416  35.406  1.00  0.00     0.173 A 
ATOM     66  F   UNL A   1      45.827  29.441  34.145  1.00  0.00    -0.203 F 
ATOM     67  C   UNL A   1      46.608  27.845  35.689  1.00  0.00     0.198 A 
ATOM     68  C   UNL A   1      45.227  25.972  36.285  1.00  0.00     0.198 A 
ATOM     69  F   UNL A   1      43.116  25.703  35.288  1.00  0.00    -0.203 F 
ATOM     70  F   UNL A   1      47.764  28.514  35.795  1.00  0.00    -0.200 F 
ATOM     71  C   UNL A   1      46.411  26.682  36.418  1.00  0.00     0.200 A 
ATOM     72  F   UNL A   1      45.027  24.860  37.005  1.00  0.00    -0.200 F 
ATOM     73  F   UNL A   1      47.366  26.240  37.248  1.00  0.00    -0.200 F 
ENDBRANCH  40  63
ENDBRANCH  14  15
ENDBRANCH   7   9
ENDBRANCH   6   7
ENDBRANCH   5   6
ENDBRANCH   4   5
ENDBRANCH   3   4
ENDBRANCH   2   3
ENDBRANCH   1   2
BRANCH   1  74
ATOM     74  O   UNL A   1      32.836  27.866  23.648  1.00  0.00    -0.376 OA
BRANCH  74  75
ATOM     75  C   UNL A   1      33.312  26.726  22.921  1.00  0.00     0.202 C 
BRANCH  75  76
ATOM     76  C   UNL A   1      33.488  25.368  23.816  1.00  0.00     0.261 C 
BRANCH  76  77
ATOM     77  O   UNL A   1      35.052  24.096  23.914  1.00  0.00    -0.460 OA
BRANCH  77  78
ATOM     78  C   UNL A   1      36.250  23.350  23.693  1.00  0.00     0.340 C 
ATOM     79  O   UNL A   1      36.458  22.871  22.577  1.00  0.00    -0.246 OA
BRANCH  78  80
ATOM     80  C   UNL A   1      37.232  22.982  24.779  1.00  0.00     0.091 A 
ATOM     81  C   UNL A   1      37.914  24.090  25.320  1.00  0.00     0.020 A 
ATOM     82  C   UNL A   1      37.548  21.725  25.323  1.00  0.00     0.142 A 
ATOM     83  C   UNL A   1      38.868  23.928  26.324  1.00  0.00     0.021 A 
ATOM     84  N   UNL A   1      38.515  21.563  26.283  1.00  0.00    -0.250 NA
ATOM     85  C   UNL A   1      39.141  22.651  26.764  1.00  0.00     0.112 A 
BRANCH  82  86
ATOM     86  C   UNL A   1      36.899  20.398  25.007  1.00  0.00     0.275 C 
ATOM     87  O   UNL A   1      37.565  19.441  24.612  1.00  0.00    -0.267 OA
ATOM     88  N   UNL A   1      35.562  20.198  25.213  1.00  0.00    -0.321 N 
ATOM     89  H   UNL A   1      35.214  19.280  25.136  1.00  0.00     0.170 HD
BRANCH  88  90
ATOM     90  C   UNL A   1      34.674  21.205  25.521  1.00  0.00     0.042 A 
ATOM     91  C   UNL A   1      33.289  21.341  24.371  1.00  0.00     0.033 A 
ATOM     92  C   UNL A   1      34.530  21.809  27.236  1.00  0.00     0.033 A 
ATOM     93  C   UNL A   1      31.757  22.117  24.922  1.00  0.00     0.088 A 
ATOM     94  C   UNL A   1      32.973  22.545  27.776  1.00  0.00     0.088 A 
ATOM     95  C   UNL A   1      31.594  22.669  26.622  1.00  0.00     0.269 A 
BRANCH  95  96
ATOM     96  N   UNL A   1      30.417  23.409  27.010  1.00  0.00     0.062 N 
ATOM     97  O   UNL A   1      29.575  22.810  27.689  1.00  0.00    -0.258 OA
ATOM     98  O   UNL A   1      30.310  24.561  26.574  1.00  0.00    -0.258 OA
ENDBRANCH  95  96
ENDBRANCH  88  90
ENDBRANCH  82  86
ENDBRANCH  78  80
ENDBRANCH  77  78
ENDBRANCH  76  77
ENDBRANCH  75  76
ENDBRANCH  74  75
ENDBRANCH   1  74
TORSDOF 20
ENDMDL
MODEL 3
REMARK VINA RESULT:     -12.5      3.138      8.037
REMARK SMILES O=C(OCCOCCOCCOC(=O)c1cccnc1C(=O)Nc1ccc([N+](=O)[O-])cc1)c1ccc(-c2c3nc(c(-c4c(F)c(F)c(F)c(F)c4F)c4ccc([nH]4)c(-c4c(F)c(F)c(F)c(F)c4F)c4nc(c(-c5c(F)c(F)c(F)c(F)c5F)c5ccc2[nH]5)C=C4)C=C3)cc1
REMARK SMILES IDX 8 1 7 2 6 3 5 4 4 5 3 6 2 7 1 8 33 9 34 10 95 11 35 12 94 13
REMARK SMILES IDX 36 14 37 15 38 16 88 17 39 18 93 19 87 20 89 21 40 22 92 23
REMARK SMILES IDX 86 24 85 25 41 27 73 28 53 29 72 30 54 31 57 32 71 33 90 34
REMARK SMILES IDX 55 35 56 36 70 38 91 39 58 40 42 41 43 42 51 43 44 44 45 45
REMARK SMILES IDX 49 46 52 47 46 48 47 49 50 50 48 51 74 52 75 53 83 54 76 55
REMARK SMILES IDX 77 56 81 57 84 58 78 59 79 60 82 61 80 62 59 63 60 64 68 65
REMARK SMILES IDX 61 66 62 67 66 68 69 69 63 70 64 71 67 72 65 73 9 74 10 75
REMARK SMILES IDX 11 76 12 77 13 78 14 79 15 80 16 81 20 82 17 83 19 84 18 85
REMARK SMILES IDX 21 86 22 87 23 88 24 90 25 91 32 92 26 93 31 94 27 95 28 96
REMARK SMILES IDX 29 97 30 98
REMARK H PARENT 89 26 57 37 23 89
REMARK Flexibility Score: inf
ROOT
ATOM      1  C   UNL A   1      39.869  22.482  27.159  1.00  0.00     0.188 C 
ENDROOT
BRANCH   1   2
ATOM      2  C   UNL A   1      40.488  21.205  26.581  1.00  0.00     0.188 C 
BRANCH   2   3
ATOM      3  O   UNL A   1      41.503  21.389  25.608  1.00  0.00    -0.376 OA
BRANCH   3   4
ATOM      4  C   UNL A   1      42.840  21.181  26.022  1.00  0.00     0.202 C 
BRANCH   4   5
ATOM      5  C   UNL A   1      43.813  22.335  25.801  1.00  0.00     0.261 C 
BRANCH   5   6
ATOM      6  O   UNL A   1      43.387  23.586  25.204  1.00  0.00    -0.460 OA
BRANCH   6   7
ATOM      7  C   UNL A   1      43.702  24.893  25.257  1.00  0.00     0.338 C 
ATOM      8  O   UNL A   1      44.686  25.280  24.630  1.00  0.00    -0.246 OA
BRANCH   7   9
ATOM      9  C   UNL A   1      42.940  25.908  26.029  1.00  0.00     0.060 A 
ATOM     10  C   UNL A   1      43.342  27.235  26.160  1.00  0.00     0.016 A 
ATOM     11  C   UNL A   1      41.808  25.469  26.750  1.00  0.00     0.016 A 
ATOM     12  C   UNL A   1      42.623  28.121  26.951  1.00  0.00     0.010 A 
ATOM     13  C   UNL A   1      41.141  26.324  27.631  1.00  0.00     0.010 A 
ATOM     14  C   UNL A   1      41.589  27.642  27.763  1.00  0.00    -0.014 A 
BRANCH  14  15
ATOM     15  C   UNL A   1      41.339  28.421  28.993  1.00  0.00     0.031 A 
ATOM     16  C   UNL A   1      40.104  29.281  28.995  1.00  0.00     0.074 A 
ATOM     17  C   UNL A   1      42.044  28.203  30.112  1.00  0.00     0.049 A 
ATOM     18  N   UNL A   1      39.521  29.905  29.982  1.00  0.00    -0.248 NA
ATOM     19  C   UNL A   1      39.393  29.402  27.708  1.00  0.00     0.031 C 
ATOM     20  C   UNL A   1      43.167  27.279  30.231  1.00  0.00     0.029 A 
ATOM     21  N   UNL A   1      41.881  28.710  31.373  1.00  0.00    -0.354 N 
ATOM     22  C   UNL A   1      38.371  30.466  29.441  1.00  0.00     0.074 A 
ATOM     23  C   UNL A   1      38.336  30.120  28.040  1.00  0.00     0.031 C 
ATOM     24  C   UNL A   1      43.585  27.271  31.510  1.00  0.00     0.029 A 
ATOM     25  C   UNL A   1      42.787  28.221  32.280  1.00  0.00     0.049 A 
ATOM     26  H   UNL A   1      41.183  29.364  31.607  1.00  0.00     0.167 HD
ATOM     27  C   UNL A   1      37.428  31.214  30.058  1.00  0.00     0.037 A 
ATOM     28  C   UNL A   1      42.949  28.528  33.582  1.00  0.00     0.037 A 
ATOM     29  C   UNL A   1      37.519  31.606  31.436  1.00  0.00     0.049 A 
ATOM     30  C   UNL A   1      41.982  29.501  34.209  1.00  0.00     0.074 A 
ATOM     31  C   UNL A   1      36.684  32.433  32.159  1.00  0.00     0.029 A 
ATOM     32  N   UNL A   1      38.540  31.210  32.292  1.00  0.00    -0.354 N 
ATOM     33  N   UNL A   1      40.914  30.058  33.689  1.00  0.00    -0.248 NA
ATOM     34  C   UNL A   1      42.243  29.888  35.601  1.00  0.00     0.031 C 
ATOM     35  C   UNL A   1      37.238  32.594  33.434  1.00  0.00     0.029 A 
ATOM     36  C   UNL A   1      38.375  31.804  33.530  1.00  0.00     0.049 A 
ATOM     37  H   UNL A   1      39.272  30.598  32.053  1.00  0.00     0.167 HD
ATOM     38  C   UNL A   1      40.354  30.833  34.696  1.00  0.00     0.074 A 
ATOM     39  C   UNL A   1      41.201  30.666  35.861  1.00  0.00     0.031 C 
ATOM     40  C   UNL A   1      39.239  31.607  34.668  1.00  0.00     0.037 A 
BRANCH  27  41
ATOM     41  C   UNL A   1      36.309  31.731  29.202  1.00  0.00     0.064 A 
ATOM     42  C   UNL A   1      36.208  33.083  28.837  1.00  0.00     0.173 A 
ATOM     43  C   UNL A   1      35.275  30.869  28.806  1.00  0.00     0.173 A 
ATOM     44  F   UNL A   1      37.152  33.958  29.221  1.00  0.00    -0.203 F 
ATOM     45  C   UNL A   1      35.095  33.559  28.147  1.00  0.00     0.198 A 
ATOM     46  C   UNL A   1      34.180  31.341  28.088  1.00  0.00     0.198 A 
ATOM     47  F   UNL A   1      35.314  29.570  29.138  1.00  0.00    -0.203 F 
ATOM     48  F   UNL A   1      34.982  34.868  27.880  1.00  0.00    -0.200 F 
ATOM     49  C   UNL A   1      34.084  32.688  27.772  1.00  0.00     0.200 A 
ATOM     50  F   UNL A   1      33.205  30.497  27.724  1.00  0.00    -0.200 F 
ATOM     51  F   UNL A   1      33.005  33.149  27.123  1.00  0.00    -0.200 F 
ENDBRANCH  27  41
BRANCH  28  52
ATOM     52  C   UNL A   1      44.074  27.937  34.356  1.00  0.00     0.064 A 
ATOM     53  C   UNL A   1      45.272  28.634  34.565  1.00  0.00     0.173 A 
ATOM     54  C   UNL A   1      43.973  26.646  34.903  1.00  0.00     0.173 A 
ATOM     55  F   UNL A   1      45.429  29.863  34.051  1.00  0.00    -0.203 F 
ATOM     56  C   UNL A   1      46.328  28.060  35.273  1.00  0.00     0.198 A 
ATOM     57  C   UNL A   1      45.016  26.086  35.637  1.00  0.00     0.198 A 
ATOM     58  F   UNL A   1      42.847  25.934  34.746  1.00  0.00    -0.203 F 
ATOM     59  F   UNL A   1      47.476  28.734  35.424  1.00  0.00    -0.200 F 
ATOM     60  C   UNL A   1      46.197  26.789  35.814  1.00  0.00     0.200 A 
ATOM     61  F   UNL A   1      44.871  24.869  36.178  1.00  0.00    -0.200 F 
ATOM     62  F   UNL A   1      47.207  26.243  36.505  1.00  0.00    -0.200 F 
ENDBRANCH  28  52
BRANCH  40  63
ATOM     63  C   UNL A   1      38.846  32.289  35.947  1.00  0.00     0.064 A 
ATOM     64  C   UNL A   1      38.138  31.622  36.955  1.00  0.00     0.173 A 
ATOM     65  C   UNL A   1      39.237  33.617  36.182  1.00  0.00     0.173 A 
ATOM     66  F   UNL A   1      37.733  30.356  36.773  1.00  0.00    -0.203 F 
ATOM     67  C   UNL A   1      37.808  32.270  38.143  1.00  0.00     0.198 A 
ATOM     68  C   UNL A   1      38.938  34.249  37.384  1.00  0.00     0.198 A 
ATOM     69  F   UNL A   1      39.926  34.294  35.251  1.00  0.00    -0.203 F 
ATOM     70  F   UNL A   1      37.083  31.632  39.072  1.00  0.00    -0.200 F 
ATOM     71  C   UNL A   1      38.216  33.578  38.359  1.00  0.00     0.200 A 
ATOM     72  F   UNL A   1      39.351  35.505  37.599  1.00  0.00    -0.200 F 
ATOM     73  F   UNL A   1      37.907  34.196  39.507  1.00  0.00    -0.200 F 
ENDBRANCH  40  63
ENDBRANCH  14  15
ENDBRANCH   7   9
ENDBRANCH   6   7
ENDBRANCH   5   6
ENDBRANCH   4   5
ENDBRANCH   3   4
ENDBRANCH   2   3
ENDBRANCH   1   2
BRANCH   1  74
ATOM     74  O   UNL A   1      39.262  23.321  26.186  1.00  0.00    -0.376 OA
BRANCH  74  75
ATOM     75  C   UNL A   1      38.092  24.050  26.580  1.00  0.00     0.202 C 
BRANCH  75  76
ATOM     76  C   UNL A   1      36.768  23.767  25.661  1.00  0.00     0.261 C 
BRANCH  76  77
ATOM     77  O   UNL A   1      35.062  24.835  25.516  1.00  0.00    -0.460 OA
BRANCH  77  78
ATOM     78  C   UNL A   1      34.069  25.854  25.390  1.00  0.00     0.340 C 
ATOM     79  O   UNL A   1      34.296  26.970  25.862  1.00  0.00    -0.246 OA
BRANCH  78  80
ATOM     80  C   UNL A   1      32.684  25.626  24.834  1.00  0.00     0.091 A 
ATOM     81  C   UNL A   1      31.654  25.993  25.722  1.00  0.00     0.020 A 
ATOM     82  C   UNL A   1      32.285  25.121  23.584  1.00  0.00     0.142 A 
ATOM     83  C   UNL A   1      30.313  25.835  25.373  1.00  0.00     0.021 A 
ATOM     84  N   UNL A   1      30.966  24.930  23.258  1.00  0.00    -0.250 NA
ATOM     85  C   UNL A   1      30.019  25.292  24.141  1.00  0.00     0.112 A 
BRANCH  82  86
ATOM     86  C   UNL A   1      33.170  24.755  22.417  1.00  0.00     0.275 C 
ATOM     87  O   UNL A   1      33.564  25.610  21.624  1.00  0.00    -0.267 OA
ATOM     88  N   UNL A   1      33.617  23.475  22.242  1.00  0.00    -0.321 N 
ATOM     89  H   UNL A   1      34.307  23.314  21.558  1.00  0.00     0.170 HD
BRANCH  88  90
ATOM     90  C   UNL A   1      33.156  22.395  22.965  1.00  0.00     0.042 A 
ATOM     91  C   UNL A   1      32.114  21.266  22.018  1.00  0.00     0.033 A 
ATOM     92  C   UNL A   1      34.071  21.817  24.434  1.00  0.00     0.033 A 
ATOM     93  C   UNL A   1      31.953  19.553  22.556  1.00  0.00     0.088 A 
ATOM     94  C   UNL A   1      33.925  20.088  24.929  1.00  0.00     0.088 A 
ATOM     95  C   UNL A   1      32.888  18.967  23.971  1.00  0.00     0.269 A 
BRANCH  95  96
ATOM     96  N   UNL A   1      32.644  17.635  24.471  1.00  0.00     0.062 N 
ATOM     97  O   UNL A   1      32.017  17.539  25.532  1.00  0.00    -0.258 OA
ATOM     98  O   UNL A   1      33.141  16.697  23.836  1.00  0.00    -0.258 OA
ENDBRANCH  95  96
ENDBRANCH  88  90
ENDBRANCH  82  86
ENDBRANCH  78  80
ENDBRANCH  77  78
ENDBRANCH  76  77
ENDBRANCH  75  76
ENDBRANCH  74  75
ENDBRANCH   1  74
TORSDOF 20
ENDMDL
