MODEL 1
REMARK VINA RESULT:     -12.0      0.000      0.000
REMARK SMILES O=C(OCCOCCOCCOC(=O)c1cccn(Cc2ccc3c(c2)OC(F)(F)O3)c1=O)c1ccc(-c2c3nc(c(-c4c(F)c(F)c(F)c(F)c4F)c4ccc([nH]4)c(-c4c(F)c(F)c(F)c(F)c4F)c4nc(c(-c5c(F)c(F)c(F)c(F)c5F)c5ccc2[nH]5)C=C4)C=C3)cc1
REMARK SMILES IDX 7 1 6 2 5 3 4 4 3 5 2 6 1 7 34 8 35 9 96 10 36 11 95 12
REMARK SMILES IDX 37 13 38 14 39 15 89 16 40 17 94 18 88 19 90 20 41 21 93 22
REMARK SMILES IDX 87 23 86 24 42 26 74 27 54 28 73 29 55 30 58 31 72 32 91 33
REMARK SMILES IDX 56 34 57 35 71 37 92 38 59 39 43 40 44 41 52 42 45 43 46 44
REMARK SMILES IDX 50 45 53 46 47 47 48 48 51 49 49 50 75 51 76 52 84 53 77 54
REMARK SMILES IDX 78 55 82 56 85 57 79 58 80 59 83 60 81 61 60 62 61 63 69 64
REMARK SMILES IDX 62 65 63 66 67 67 70 68 64 69 65 70 68 71 66 72 8 73 9 74
REMARK SMILES IDX 10 75 11 76 12 77 13 78 14 79 15 80 16 81 32 82 17 83 19 84
REMARK SMILES IDX 33 85 18 86 20 87 21 88 22 89 26 90 23 91 25 92 24 93 27 94
REMARK SMILES IDX 31 95 28 96 29 97 30 98
REMARK H PARENT 90 25 58 36
REMARK Flexibility Score: inf
ROOT
ATOM      1  C   UNL A   1      42.363  20.298  26.379  1.00  0.00     0.188 C 
ENDROOT
BRANCH   1   2
ATOM      2  O   UNL A   1      43.171  20.424  25.200  1.00  0.00    -0.376 OA
BRANCH   2   3
ATOM      3  C   UNL A   1      44.249  21.350  25.368  1.00  0.00     0.202 C 
BRANCH   3   4
ATOM      4  C   UNL A   1      44.437  22.341  24.212  1.00  0.00     0.261 C 
BRANCH   4   5
ATOM      5  O   UNL A   1      43.893  23.643  24.468  1.00  0.00    -0.460 OA
BRANCH   5   6
ATOM      6  C   UNL A   1      44.479  24.741  25.004  1.00  0.00     0.338 C 
ATOM      7  O   UNL A   1      45.619  25.013  24.627  1.00  0.00    -0.246 OA
BRANCH   6   8
ATOM      8  C   UNL A   1      43.866  25.644  26.040  1.00  0.00     0.060 A 
ATOM      9  C   UNL A   1      42.744  25.136  26.727  1.00  0.00     0.016 A 
ATOM     10  C   UNL A   1      44.288  26.929  26.383  1.00  0.00     0.016 A 
ATOM     11  C   UNL A   1      42.086  25.879  27.719  1.00  0.00     0.010 A 
ATOM     12  C   UNL A   1      43.654  27.667  27.387  1.00  0.00     0.010 A 
ATOM     13  C   UNL A   1      42.549  27.152  28.064  1.00  0.00    -0.014 A 
BRANCH  13  14
ATOM     14  C   UNL A   1      42.026  27.879  29.241  1.00  0.00     0.031 A 
ATOM     15  C   UNL A   1      42.565  27.678  30.622  1.00  0.00     0.074 A 
ATOM     16  C   UNL A   1      40.920  28.625  29.076  1.00  0.00     0.049 A 
ATOM     17  N   UNL A   1      42.358  28.403  31.695  1.00  0.00    -0.248 NA
ATOM     18  C   UNL A   1      43.421  26.509  30.849  1.00  0.00     0.031 C 
ATOM     19  C   UNL A   1      40.190  28.785  27.818  1.00  0.00     0.029 A 
ATOM     20  N   UNL A   1      40.188  29.336  29.988  1.00  0.00    -0.354 N 
ATOM     21  C   UNL A   1      43.162  27.853  32.683  1.00  0.00     0.074 A 
ATOM     22  C   UNL A   1      43.727  26.647  32.135  1.00  0.00     0.031 C 
ATOM     23  C   UNL A   1      39.090  29.519  28.047  1.00  0.00     0.029 A 
ATOM     24  C   UNL A   1      39.054  29.892  29.459  1.00  0.00     0.049 A 
ATOM     25  H   UNL A   1      40.450  29.438  30.931  1.00  0.00     0.167 HD
ATOM     26  C   UNL A   1      43.429  28.361  33.907  1.00  0.00     0.037 A 
ATOM     27  C   UNL A   1      38.096  30.627  30.051  1.00  0.00     0.037 A 
ATOM     28  C   UNL A   1      42.657  29.409  34.514  1.00  0.00     0.049 A 
ATOM     29  C   UNL A   1      38.249  31.010  31.493  1.00  0.00     0.074 A 
ATOM     30  C   UNL A   1      42.818  29.989  35.759  1.00  0.00     0.029 A 
ATOM     31  N   UNL A   1      41.509  29.945  33.960  1.00  0.00    -0.354 N 
ATOM     32  N   UNL A   1      39.236  30.749  32.315  1.00  0.00    -0.248 NA
ATOM     33  C   UNL A   1      37.170  31.812  32.083  1.00  0.00     0.031 C 
ATOM     34  C   UNL A   1      41.713  30.812  35.993  1.00  0.00     0.029 A 
ATOM     35  C   UNL A   1      40.894  30.777  34.876  1.00  0.00     0.049 A 
ATOM     36  H   UNL A   1      41.180  29.762  33.050  1.00  0.00     0.167 HD
ATOM     37  C   UNL A   1      38.918  31.383  33.508  1.00  0.00     0.074 A 
ATOM     38  C   UNL A   1      37.644  32.041  33.302  1.00  0.00     0.031 C 
ATOM     39  C   UNL A   1      39.626  31.424  34.663  1.00  0.00     0.037 A 
BRANCH  26  40
ATOM     40  C   UNL A   1      44.613  27.865  34.679  1.00  0.00     0.064 A 
ATOM     41  C   UNL A   1      44.441  26.777  35.555  1.00  0.00     0.173 A 
ATOM     42  C   UNL A   1      45.914  28.325  34.458  1.00  0.00     0.173 A 
ATOM     43  F   UNL A   1      43.210  26.309  35.814  1.00  0.00    -0.203 F 
ATOM     44  C   UNL A   1      45.526  26.174  36.183  1.00  0.00     0.198 A 
ATOM     45  C   UNL A   1      47.000  27.727  35.101  1.00  0.00     0.198 A 
ATOM     46  F   UNL A   1      46.133  29.341  33.612  1.00  0.00    -0.203 F 
ATOM     47  F   UNL A   1      45.328  25.135  37.007  1.00  0.00    -0.200 F 
ATOM     48  C   UNL A   1      46.805  26.652  35.959  1.00  0.00     0.200 A 
ATOM     49  F   UNL A   1      48.240  28.178  34.872  1.00  0.00    -0.200 F 
ATOM     50  F   UNL A   1      47.851  26.075  36.568  1.00  0.00    -0.200 F 
ENDBRANCH  26  40
BRANCH  27  51
ATOM     51  C   UNL A   1      36.961  31.105  29.228  1.00  0.00     0.064 A 
ATOM     52  C   UNL A   1      35.903  30.243  28.917  1.00  0.00     0.173 A 
ATOM     53  C   UNL A   1      36.863  32.445  28.825  1.00  0.00     0.173 A 
ATOM     54  F   UNL A   1      35.962  28.954  29.280  1.00  0.00    -0.203 F 
ATOM     55  C   UNL A   1      34.779  30.706  28.238  1.00  0.00     0.198 A 
ATOM     56  C   UNL A   1      35.731  32.910  28.161  1.00  0.00     0.198 A 
ATOM     57  F   UNL A   1      37.847  33.308  29.115  1.00  0.00    -0.203 F 
ATOM     58  F   UNL A   1      33.780  29.861  27.950  1.00  0.00    -0.200 F 
ATOM     59  C   UNL A   1      34.690  32.040  27.869  1.00  0.00     0.200 A 
ATOM     60  F   UNL A   1      35.638  34.203  27.824  1.00  0.00    -0.200 F 
ATOM     61  F   UNL A   1      33.596  32.491  27.240  1.00  0.00    -0.200 F 
ENDBRANCH  27  51
BRANCH  39  62
ATOM     62  C   UNL A   1      39.055  32.195  35.812  1.00  0.00     0.064 A 
ATOM     63  C   UNL A   1      38.234  31.576  36.765  1.00  0.00     0.173 A 
ATOM     64  C   UNL A   1      39.421  33.533  36.024  1.00  0.00     0.173 A 
ATOM     65  F   UNL A   1      37.855  30.299  36.602  1.00  0.00    -0.203 F 
ATOM     66  C   UNL A   1      37.789  32.274  37.883  1.00  0.00     0.198 A 
ATOM     67  C   UNL A   1      39.002  34.217  37.159  1.00  0.00     0.198 A 
ATOM     68  F   UNL A   1      40.221  34.161  35.149  1.00  0.00    -0.203 F 
ATOM     69  F   UNL A   1      36.982  31.672  38.767  1.00  0.00    -0.200 F 
ATOM     70  C   UNL A   1      38.182  33.588  38.085  1.00  0.00     0.200 A 
ATOM     71  F   UNL A   1      39.403  35.478  37.366  1.00  0.00    -0.200 F 
ATOM     72  F   UNL A   1      37.773  34.250  39.176  1.00  0.00    -0.200 F 
ENDBRANCH  39  62
ENDBRANCH  13  14
ENDBRANCH   6   8
ENDBRANCH   5   6
ENDBRANCH   4   5
ENDBRANCH   3   4
ENDBRANCH   2   3
ENDBRANCH   1   2
BRANCH   1  73
ATOM     73  C   UNL A   1      41.022  19.606  26.114  1.00  0.00     0.188 C 
BRANCH  73  74
ATOM     74  O   UNL A   1      39.861  20.430  26.120  1.00  0.00    -0.376 OA
BRANCH  74  75
ATOM     75  C   UNL A   1      40.034  21.838  26.247  1.00  0.00     0.202 C 
BRANCH  75  76
ATOM     76  C   UNL A   1      38.781  22.719  26.256  1.00  0.00     0.261 C 
BRANCH  76  77
ATOM     77  O   UNL A   1      37.607  22.064  25.750  1.00  0.00    -0.459 OA
BRANCH  77  78
ATOM     78  C   UNL A   1      36.769  22.870  25.059  1.00  0.00     0.343 C 
ATOM     79  O   UNL A   1      37.060  23.579  24.095  1.00  0.00    -0.246 OA
BRANCH  78  80
ATOM     80  C   UNL A   1      35.406  22.795  25.580  1.00  0.00     0.125 A 
ATOM     81  C   UNL A   1      35.143  22.944  26.891  1.00  0.00     0.023 A 
ATOM     82  C   UNL A   1      34.338  22.340  24.663  1.00  0.00     0.265 A 
ATOM     83  C   UNL A   1      33.843  22.611  27.421  1.00  0.00     0.019 A 
ATOM     84  N   UNL A   1      33.180  21.867  25.276  1.00  0.00    -0.310 N 
ATOM     85  O   UNL A   1      34.491  22.407  23.445  1.00  0.00    -0.268 OA
ATOM     86  C   UNL A   1      32.933  22.036  26.627  1.00  0.00     0.089 A 
BRANCH  84  87
ATOM     87  C   UNL A   1      32.181  21.240  24.440  1.00  0.00     0.161 C 
BRANCH  87  88
ATOM     88  C   UNL A   1      32.386  19.760  24.249  1.00  0.00    -0.024 A 
ATOM     89  C   UNL A   1      32.509  19.229  22.947  1.00  0.00     0.010 A 
ATOM     90  C   UNL A   1      32.556  18.926  25.366  1.00  0.00     0.056 A 
ATOM     91  C   UNL A   1      32.858  17.892  22.751  1.00  0.00     0.051 A 
ATOM     92  C   UNL A   1      32.920  17.619  25.143  1.00  0.00     0.173 A 
ATOM     93  C   UNL A   1      33.081  17.119  23.870  1.00  0.00     0.172 A 
ATOM     94  O   UNL A   1      33.214  16.704  26.104  1.00  0.00    -0.395 OA
ATOM     95  O   UNL A   1      33.509  15.828  23.876  1.00  0.00    -0.395 OA
ATOM     96  C   UNL A   1      33.767  15.673  25.280  1.00  0.00     0.586 C 
ATOM     97  F   UNL A   1      35.112  15.654  25.468  1.00  0.00    -0.125 F 
ATOM     98  F   UNL A   1      33.281  14.475  25.684  1.00  0.00    -0.125 F 
ENDBRANCH  87  88
ENDBRANCH  84  87
ENDBRANCH  78  80
ENDBRANCH  77  78
ENDBRANCH  76  77
ENDBRANCH  75  76
ENDBRANCH  74  75
ENDBRANCH  73  74
ENDBRANCH   1  73
TORSDOF 19
ENDMDL
MODEL 2
REMARK VINA RESULT:     -11.9      3.370      8.356
REMARK SMILES O=C(OCCOCCOCCOC(=O)c1cccn(Cc2ccc3c(c2)OC(F)(F)O3)c1=O)c1ccc(-c2c3nc(c(-c4c(F)c(F)c(F)c(F)c4F)c4ccc([nH]4)c(-c4c(F)c(F)c(F)c(F)c4F)c4nc(c(-c5c(F)c(F)c(F)c(F)c5F)c5ccc2[nH]5)C=C4)C=C3)cc1
REMARK SMILES IDX 7 1 6 2 5 3 4 4 3 5 2 6 1 7 34 8 35 9 96 10 36 11 95 12
REMARK SMILES IDX 37 13 38 14 39 15 89 16 40 17 94 18 88 19 90 20 41 21 93 22
REMARK SMILES IDX 87 23 86 24 42 26 74 27 54 28 73 29 55 30 58 31 72 32 91 33
REMARK SMILES IDX 56 34 57 35 71 37 92 38 59 39 43 40 44 41 52 42 45 43 46 44
REMARK SMILES IDX 50 45 53 46 47 47 48 48 51 49 49 50 75 51 76 52 84 53 77 54
REMARK SMILES IDX 78 55 82 56 85 57 79 58 80 59 83 60 81 61 60 62 61 63 69 64
REMARK SMILES IDX 62 65 63 66 67 67 70 68 64 69 65 70 68 71 66 72 8 73 9 74
REMARK SMILES IDX 10 75 11 76 12 77 13 78 14 79 15 80 16 81 32 82 17 83 19 84
REMARK SMILES IDX 33 85 18 86 20 87 21 88 22 89 26 90 23 91 25 92 24 93 27 94
REMARK SMILES IDX 31 95 28 96 29 97 30 98
REMARK H PARENT 90 25 58 36
REMARK Flexibility Score: inf
ROOT
ATOM      1  C   UNL A   1      31.816  29.157  26.670  1.00  0.00     0.188 C 
ENDROOT
BRANCH   1   2
ATOM      2  O   UNL A   1      31.540  30.478  26.185  1.00  0.00    -0.376 OA
BRANCH   2   3
ATOM      3  C   UNL A   1      32.469  31.451  26.677  1.00  0.00     0.202 C 
BRANCH   3   4
ATOM      4  C   UNL A   1      31.893  32.860  26.864  1.00  0.00     0.261 C 
BRANCH   4   5
ATOM      5  O   UNL A   1      32.558  33.630  27.874  1.00  0.00    -0.460 OA
BRANCH   5   6
ATOM      6  C   UNL A   1      33.863  33.974  27.988  1.00  0.00     0.338 C 
ATOM      7  O   UNL A   1      34.196  35.077  27.554  1.00  0.00    -0.246 OA
BRANCH   6   8
ATOM      8  C   UNL A   1      34.948  33.113  28.576  1.00  0.00     0.060 A 
ATOM      9  C   UNL A   1      36.275  33.511  28.312  1.00  0.00     0.016 A 
ATOM     10  C   UNL A   1      34.775  31.961  29.345  1.00  0.00     0.016 A 
ATOM     11  C   UNL A   1      37.374  32.795  28.809  1.00  0.00     0.010 A 
ATOM     12  C   UNL A   1      35.864  31.255  29.864  1.00  0.00     0.010 A 
ATOM     13  C   UNL A   1      37.172  31.662  29.602  1.00  0.00    -0.014 A 
BRANCH  13  14
ATOM     14  C   UNL A   1      38.285  31.003  30.319  1.00  0.00     0.031 A 
ATOM     15  C   UNL A   1      38.755  31.448  31.669  1.00  0.00     0.074 A 
ATOM     16  C   UNL A   1      38.997  30.077  29.655  1.00  0.00     0.049 A 
ATOM     17  N   UNL A   1      39.558  30.830  32.500  1.00  0.00    -0.248 NA
ATOM     18  C   UNL A   1      38.295  32.757  32.145  1.00  0.00     0.031 C 
ATOM     19  C   UNL A   1      38.756  29.656  28.275  1.00  0.00     0.029 A 
ATOM     20  N   UNL A   1      40.105  29.370  30.038  1.00  0.00    -0.354 N 
ATOM     21  C   UNL A   1      39.590  31.613  33.645  1.00  0.00     0.074 A 
ATOM     22  C   UNL A   1      38.867  32.821  33.343  1.00  0.00     0.031 C 
ATOM     23  C   UNL A   1      39.713  28.788  27.913  1.00  0.00     0.029 A 
ATOM     24  C   UNL A   1      40.618  28.582  29.042  1.00  0.00     0.049 A 
ATOM     25  H   UNL A   1      40.495  29.422  30.940  1.00  0.00     0.167 HD
ATOM     26  C   UNL A   1      40.136  31.301  34.843  1.00  0.00     0.037 A 
ATOM     27  C   UNL A   1      41.696  27.778  29.046  1.00  0.00     0.037 A 
ATOM     28  C   UNL A   1      41.064  30.222  35.032  1.00  0.00     0.049 A 
ATOM     29  C   UNL A   1      42.473  27.596  30.316  1.00  0.00     0.074 A 
ATOM     30  C   UNL A   1      41.699  29.825  36.194  1.00  0.00     0.029 A 
ATOM     31  N   UNL A   1      41.573  29.449  34.005  1.00  0.00    -0.354 N 
ATOM     32  N   UNL A   1      42.244  28.107  31.502  1.00  0.00    -0.248 NA
ATOM     33  C   UNL A   1      43.640  26.708  30.257  1.00  0.00     0.031 C 
ATOM     34  C   UNL A   1      42.660  28.870  35.851  1.00  0.00     0.029 A 
ATOM     35  C   UNL A   1      42.586  28.643  34.486  1.00  0.00     0.049 A 
ATOM     36  H   UNL A   1      41.259  29.470  33.071  1.00  0.00     0.167 HD
ATOM     37  C   UNL A   1      43.215  27.573  32.340  1.00  0.00     0.074 A 
ATOM     38  C   UNL A   1      44.036  26.702  31.524  1.00  0.00     0.031 C 
ATOM     39  C   UNL A   1      43.398  27.782  33.666  1.00  0.00     0.037 A 
BRANCH  26  40
ATOM     40  C   UNL A   1      39.735  32.066  36.067  1.00  0.00     0.064 A 
ATOM     41  C   UNL A   1      40.481  33.204  36.427  1.00  0.00     0.173 A 
ATOM     42  C   UNL A   1      38.565  31.801  36.783  1.00  0.00     0.173 A 
ATOM     43  F   UNL A   1      41.622  33.493  35.780  1.00  0.00    -0.203 F 
ATOM     44  C   UNL A   1      40.072  34.042  37.459  1.00  0.00     0.198 A 
ATOM     45  C   UNL A   1      38.164  32.636  37.828  1.00  0.00     0.198 A 
ATOM     46  F   UNL A   1      37.805  30.745  36.461  1.00  0.00    -0.203 F 
ATOM     47  F   UNL A   1      40.803  35.122  37.772  1.00  0.00    -0.200 F 
ATOM     48  C   UNL A   1      38.916  33.755  38.163  1.00  0.00     0.200 A 
ATOM     49  F   UNL A   1      37.036  32.369  38.499  1.00  0.00    -0.200 F 
ATOM     50  F   UNL A   1      38.524  34.559  39.161  1.00  0.00    -0.200 F 
ENDBRANCH  26  40
BRANCH  27  51
ATOM     51  C   UNL A   1      42.027  27.034  27.810  1.00  0.00     0.064 A 
ATOM     52  C   UNL A   1      42.926  27.570  26.881  1.00  0.00     0.173 A 
ATOM     53  C   UNL A   1      41.534  25.740  27.581  1.00  0.00     0.173 A 
ATOM     54  F   UNL A   1      43.415  28.805  27.062  1.00  0.00    -0.203 F 
ATOM     55  C   UNL A   1      43.330  26.836  25.770  1.00  0.00     0.198 A 
ATOM     56  C   UNL A   1      41.952  25.000  26.478  1.00  0.00     0.198 A 
ATOM     57  F   UNL A   1      40.682  25.182  28.453  1.00  0.00    -0.203 F 
ATOM     58  F   UNL A   1      44.191  27.372  24.894  1.00  0.00    -0.200 F 
ATOM     59  C   UNL A   1      42.851  25.549  25.575  1.00  0.00     0.200 A 
ATOM     60  F   UNL A   1      41.504  23.750  26.303  1.00  0.00    -0.200 F 
ATOM     61  F   UNL A   1      43.262  24.833  24.519  1.00  0.00    -0.200 F 
ENDBRANCH  27  51
BRANCH  39  62
ATOM     62  C   UNL A   1      44.529  27.070  34.341  1.00  0.00     0.064 A 
ATOM     63  C   UNL A   1      45.762  27.702  34.552  1.00  0.00     0.173 A 
ATOM     64  C   UNL A   1      44.343  25.788  34.880  1.00  0.00     0.173 A 
ATOM     65  F   UNL A   1      45.987  28.927  34.052  1.00  0.00    -0.203 F 
ATOM     66  C   UNL A   1      46.773  27.070  35.268  1.00  0.00     0.198 A 
ATOM     67  C   UNL A   1      45.344  25.173  35.623  1.00  0.00     0.198 A 
ATOM     68  F   UNL A   1      43.172  25.151  34.720  1.00  0.00    -0.203 F 
ATOM     69  F   UNL A   1      47.955  27.680  35.433  1.00  0.00    -0.200 F 
ATOM     70  C   UNL A   1      46.561  25.812  35.811  1.00  0.00     0.200 A 
ATOM     71  F   UNL A   1      45.127  23.968  36.169  1.00  0.00    -0.200 F 
ATOM     72  F   UNL A   1      47.527  25.216  36.522  1.00  0.00    -0.200 F 
ENDBRANCH  39  62
ENDBRANCH  13  14
ENDBRANCH   6   8
ENDBRANCH   5   6
ENDBRANCH   4   5
ENDBRANCH   3   4
ENDBRANCH   2   3
ENDBRANCH   1   2
BRANCH   1  73
ATOM     73  C   UNL A   1      31.773  28.094  25.567  1.00  0.00     0.188 C 
BRANCH  73  74
ATOM     74  O   UNL A   1      32.954  27.322  25.372  1.00  0.00    -0.376 OA
BRANCH  74  75
ATOM     75  C   UNL A   1      33.807  27.659  24.283  1.00  0.00     0.202 C 
BRANCH  75  76
ATOM     76  C   UNL A   1      33.345  27.299  22.868  1.00  0.00     0.261 C 
BRANCH  76  77
ATOM     77  O   UNL A   1      32.532  26.117  22.806  1.00  0.00    -0.459 OA
BRANCH  77  78
ATOM     78  C   UNL A   1      33.126  25.058  22.211  1.00  0.00     0.343 C 
ATOM     79  O   UNL A   1      33.304  24.899  21.003  1.00  0.00    -0.246 OA
BRANCH  78  80
ATOM     80  C   UNL A   1      33.585  24.080  23.195  1.00  0.00     0.125 A 
ATOM     81  C   UNL A   1      34.889  23.788  23.343  1.00  0.00     0.023 A 
ATOM     82  C   UNL A   1      32.565  23.258  23.881  1.00  0.00     0.265 A 
ATOM     83  C   UNL A   1      35.302  22.646  24.123  1.00  0.00     0.019 A 
ATOM     84  N   UNL A   1      33.031  22.077  24.456  1.00  0.00    -0.310 N 
ATOM     85  O   UNL A   1      31.396  23.632  23.938  1.00  0.00    -0.268 OA
ATOM     86  C   UNL A   1      34.379  21.803  24.599  1.00  0.00     0.089 A 
BRANCH  84  87
ATOM     87  C   UNL A   1      32.054  21.148  24.976  1.00  0.00     0.161 C 
BRANCH  87  88
ATOM     88  C   UNL A   1      32.324  19.710  24.617  1.00  0.00    -0.024 A 
ATOM     89  C   UNL A   1      32.383  19.322  23.261  1.00  0.00     0.010 A 
ATOM     90  C   UNL A   1      32.619  18.778  25.626  1.00  0.00     0.056 A 
ATOM     91  C   UNL A   1      32.789  18.036  22.903  1.00  0.00     0.051 A 
ATOM     92  C   UNL A   1      33.037  17.526  25.243  1.00  0.00     0.173 A 
ATOM     93  C   UNL A   1      33.133  17.169  23.917  1.00  0.00     0.172 A 
ATOM     94  O   UNL A   1      33.448  16.538  26.082  1.00  0.00    -0.395 OA
ATOM     95  O   UNL A   1      33.630  15.912  23.759  1.00  0.00    -0.395 OA
ATOM     96  C   UNL A   1      33.996  15.632  25.118  1.00  0.00     0.586 C 
ATOM     97  F   UNL A   1      35.349  15.677  25.214  1.00  0.00    -0.125 F 
ATOM     98  F   UNL A   1      33.606  14.372  25.426  1.00  0.00    -0.125 F 
ENDBRANCH  87  88
ENDBRANCH  84  87
ENDBRANCH  78  80
ENDBRANCH  77  78
ENDBRANCH  76  77
ENDBRANCH  75  76
ENDBRANCH  74  75
ENDBRANCH  73  74
ENDBRANCH   1  73
TORSDOF 19
ENDMDL
MODEL 3
REMARK VINA RESULT:     -11.9      2.479      8.047
REMARK SMILES O=C(OCCOCCOCCOC(=O)c1cccn(Cc2ccc3c(c2)OC(F)(F)O3)c1=O)c1ccc(-c2c3nc(c(-c4c(F)c(F)c(F)c(F)c4F)c4ccc([nH]4)c(-c4c(F)c(F)c(F)c(F)c4F)c4nc(c(-c5c(F)c(F)c(F)c(F)c5F)c5ccc2[nH]5)C=C4)C=C3)cc1
REMARK SMILES IDX 7 1 6 2 5 3 4 4 3 5 2 6 1 7 34 8 35 9 96 10 36 11 95 12
REMARK SMILES IDX 37 13 38 14 39 15 89 16 40 17 94 18 88 19 90 20 41 21 93 22
REMARK SMILES IDX 87 23 86 24 42 26 74 27 54 28 73 29 55 30 58 31 72 32 91 33
REMARK SMILES IDX 56 34 57 35 71 37 92 38 59 39 43 40 44 41 52 42 45 43 46 44
REMARK SMILES IDX 50 45 53 46 47 47 48 48 51 49 49 50 75 51 76 52 84 53 77 54
REMARK SMILES IDX 78 55 82 56 85 57 79 58 80 59 83 60 81 61 60 62 61 63 69 64
REMARK SMILES IDX 62 65 63 66 67 67 70 68 64 69 65 70 68 71 66 72 8 73 9 74
REMARK SMILES IDX 10 75 11 76 12 77 13 78 14 79 15 80 16 81 32 82 17 83 19 84
REMARK SMILES IDX 33 85 18 86 20 87 21 88 22 89 26 90 23 91 25 92 24 93 27 94
REMARK SMILES IDX 31 95 28 96 29 97 30 98
REMARK H PARENT 90 25 58 36
REMARK Flexibility Score: inf
ROOT
ATOM      1  C   UNL A   1      40.493  19.820  26.114  1.00  0.00     0.188 C 
ENDROOT
BRANCH   1   2
ATOM      2  O   UNL A   1      41.832  19.616  25.640  1.00  0.00    -0.376 OA
BRANCH   2   3
ATOM      3  C   UNL A   1      42.768  20.527  26.225  1.00  0.00     0.202 C 
BRANCH   3   4
ATOM      4  C   UNL A   1      43.657  21.274  25.223  1.00  0.00     0.261 C 
BRANCH   4   5
ATOM      5  O   UNL A   1      43.119  22.531  24.791  1.00  0.00    -0.460 OA
BRANCH   5   6
ATOM      6  C   UNL A   1      43.600  23.786  24.956  1.00  0.00     0.338 C 
ATOM      7  O   UNL A   1      44.555  24.121  24.255  1.00  0.00    -0.246 OA
BRANCH   6   8
ATOM      8  C   UNL A   1      43.085  24.800  25.942  1.00  0.00     0.060 A 
ATOM      9  C   UNL A   1      42.015  24.386  26.763  1.00  0.00     0.016 A 
ATOM     10  C   UNL A   1      43.549  26.104  26.119  1.00  0.00     0.016 A 
ATOM     11  C   UNL A   1      41.450  25.237  27.725  1.00  0.00     0.010 A 
ATOM     12  C   UNL A   1      43.008  26.950  27.091  1.00  0.00     0.010 A 
ATOM     13  C   UNL A   1      41.956  26.528  27.903  1.00  0.00    -0.014 A 
BRANCH  13  14
ATOM     14  C   UNL A   1      41.540  27.379  29.038  1.00  0.00     0.031 A 
ATOM     15  C   UNL A   1      40.492  28.440  28.914  1.00  0.00     0.074 A 
ATOM     16  C   UNL A   1      42.249  27.296  30.177  1.00  0.00     0.049 A 
ATOM     17  N   UNL A   1      39.876  29.097  29.866  1.00  0.00    -0.248 NA
ATOM     18  C   UNL A   1      40.095  28.840  27.560  1.00  0.00     0.031 C 
ATOM     19  C   UNL A   1      43.403  26.421  30.391  1.00  0.00     0.029 A 
ATOM     20  N   UNL A   1      42.137  28.003  31.343  1.00  0.00    -0.354 N 
ATOM     21  C   UNL A   1      38.931  29.888  29.228  1.00  0.00     0.074 A 
ATOM     22  C   UNL A   1      39.165  29.755  27.813  1.00  0.00     0.031 C 
ATOM     23  C   UNL A   1      43.915  26.671  31.605  1.00  0.00     0.029 A 
ATOM     24  C   UNL A   1      43.115  27.705  32.255  1.00  0.00     0.049 A 
ATOM     25  H   UNL A   1      41.424  28.660  31.511  1.00  0.00     0.167 HD
ATOM     26  C   UNL A   1      37.936  30.606  29.797  1.00  0.00     0.037 A 
ATOM     27  C   UNL A   1      43.334  28.211  33.482  1.00  0.00     0.037 A 
ATOM     28  C   UNL A   1      37.892  30.926  31.196  1.00  0.00     0.049 A 
ATOM     29  C   UNL A   1      42.364  29.203  34.052  1.00  0.00     0.074 A 
ATOM     30  C   UNL A   1      36.947  31.666  31.882  1.00  0.00     0.029 A 
ATOM     31  N   UNL A   1      38.901  30.622  32.092  1.00  0.00    -0.354 N 
ATOM     32  N   UNL A   1      41.257  29.669  33.526  1.00  0.00    -0.248 NA
ATOM     33  C   UNL A   1      42.657  29.719  35.394  1.00  0.00     0.031 C 
ATOM     34  C   UNL A   1      37.431  31.884  33.175  1.00  0.00     0.029 A 
ATOM     35  C   UNL A   1      38.652  31.240  33.302  1.00  0.00     0.049 A 
ATOM     36  H   UNL A   1      39.678  30.050  31.897  1.00  0.00     0.167 HD
ATOM     37  C   UNL A   1      40.701  30.504  34.486  1.00  0.00     0.074 A 
ATOM     38  C   UNL A   1      41.595  30.482  35.625  1.00  0.00     0.031 C 
ATOM     39  C   UNL A   1      39.548  31.214  34.427  1.00  0.00     0.037 A 
BRANCH  26  40
ATOM     40  C   UNL A   1      36.777  31.063  28.966  1.00  0.00     0.064 A 
ATOM     41  C   UNL A   1      35.790  30.125  28.609  1.00  0.00     0.173 A 
ATOM     42  C   UNL A   1      36.544  32.405  28.655  1.00  0.00     0.173 A 
ATOM     43  F   UNL A   1      35.974  28.821  28.870  1.00  0.00    -0.203 F 
ATOM     44  C   UNL A   1      34.617  30.515  27.970  1.00  0.00     0.198 A 
ATOM     45  C   UNL A   1      35.372  32.792  28.001  1.00  0.00     0.198 A 
ATOM     46  F   UNL A   1      37.441  33.340  28.997  1.00  0.00    -0.203 F 
ATOM     47  F   UNL A   1      33.693  29.597  27.651  1.00  0.00    -0.200 F 
ATOM     48  C   UNL A   1      34.410  31.848  27.663  1.00  0.00     0.200 A 
ATOM     49  F   UNL A   1      35.163  34.085  27.718  1.00  0.00    -0.200 F 
ATOM     50  F   UNL A   1      33.283  32.225  27.042  1.00  0.00    -0.200 F 
ENDBRANCH  26  40
BRANCH  27  51
ATOM     51  C   UNL A   1      44.485  27.702  34.261  1.00  0.00     0.064 A 
ATOM     52  C   UNL A   1      44.361  26.535  35.023  1.00  0.00     0.173 A 
ATOM     53  C   UNL A   1      45.748  28.308  34.181  1.00  0.00     0.173 A 
ATOM     54  F   UNL A   1      43.170  25.929  35.128  1.00  0.00    -0.203 F 
ATOM     55  C   UNL A   1      45.462  25.984  35.673  1.00  0.00     0.198 A 
ATOM     56  C   UNL A   1      46.852  27.747  34.818  1.00  0.00     0.198 A 
ATOM     57  F   UNL A   1      45.915  29.419  33.450  1.00  0.00    -0.203 F 
ATOM     58  F   UNL A   1      45.317  24.867  36.398  1.00  0.00    -0.200 F 
ATOM     59  C   UNL A   1      46.707  26.585  35.562  1.00  0.00     0.200 A 
ATOM     60  F   UNL A   1      48.057  28.317  34.692  1.00  0.00    -0.200 F 
ATOM     61  F   UNL A   1      47.772  26.039  36.166  1.00  0.00    -0.200 F 
ENDBRANCH  27  51
BRANCH  39  62
ATOM     62  C   UNL A   1      39.169  32.040  35.617  1.00  0.00     0.064 A 
ATOM     63  C   UNL A   1      39.537  33.390  35.711  1.00  0.00     0.173 A 
ATOM     64  C   UNL A   1      38.339  31.510  36.616  1.00  0.00     0.173 A 
ATOM     65  F   UNL A   1      40.334  33.939  34.781  1.00  0.00    -0.203 F 
ATOM     66  C   UNL A   1      39.097  34.176  36.771  1.00  0.00     0.198 A 
ATOM     67  C   UNL A   1      37.873  32.308  37.656  1.00  0.00     0.198 A 
ATOM     68  F   UNL A   1      37.945  30.229  36.558  1.00  0.00    -0.203 F 
ATOM     69  F   UNL A   1      39.483  35.456  36.858  1.00  0.00    -0.200 F 
ATOM     70  C   UNL A   1      38.257  33.638  37.735  1.00  0.00     0.200 A 
ATOM     71  F   UNL A   1      37.042  31.793  38.572  1.00  0.00    -0.200 F 
ATOM     72  F   UNL A   1      37.814  34.404  38.741  1.00  0.00    -0.200 F 
ENDBRANCH  39  62
ENDBRANCH  13  14
ENDBRANCH   6   8
ENDBRANCH   5   6
ENDBRANCH   4   5
ENDBRANCH   3   4
ENDBRANCH   2   3
ENDBRANCH   1   2
BRANCH   1  73
ATOM     73  C   UNL A   1      40.101  21.299  26.181  1.00  0.00     0.188 C 
BRANCH  73  74
ATOM     74  O   UNL A   1      38.720  21.591  26.367  1.00  0.00    -0.376 OA
BRANCH  74  75
ATOM     75  C   UNL A   1      38.047  22.337  25.358  1.00  0.00     0.202 C 
BRANCH  75  76
ATOM     76  C   UNL A   1      36.843  21.689  24.666  1.00  0.00     0.261 C 
BRANCH  76  77
ATOM     77  O   UNL A   1      36.303  20.563  25.374  1.00  0.00    -0.459 OA
BRANCH  77  78
ATOM     78  C   UNL A   1      34.988  20.339  25.152  1.00  0.00     0.343 C 
ATOM     79  O   UNL A   1      34.497  19.391  24.540  1.00  0.00    -0.246 OA
BRANCH  78  80
ATOM     80  C   UNL A   1      34.160  21.376  25.765  1.00  0.00     0.125 A 
ATOM     81  C   UNL A   1      34.021  21.469  27.100  1.00  0.00     0.023 A 
ATOM     82  C   UNL A   1      33.304  22.193  24.878  1.00  0.00     0.265 A 
ATOM     83  C   UNL A   1      33.006  22.319  27.674  1.00  0.00     0.019 A 
ATOM     84  N   UNL A   1      32.237  22.839  25.499  1.00  0.00    -0.310 N 
ATOM     85  O   UNL A   1      33.558  22.287  23.679  1.00  0.00    -0.268 OA
ATOM     86  C   UNL A   1      32.120  22.923  26.875  1.00  0.00     0.089 A 
BRANCH  84  87
ATOM     87  C   UNL A   1      31.264  23.498  24.657  1.00  0.00     0.161 C 
BRANCH  87  88
ATOM     88  C   UNL A   1      31.616  24.922  24.315  1.00  0.00    -0.024 A 
ATOM     89  C   UNL A   1      32.021  25.253  23.004  1.00  0.00     0.010 A 
ATOM     90  C   UNL A   1      31.443  25.936  25.272  1.00  0.00     0.056 A 
ATOM     91  C   UNL A   1      32.197  26.584  22.625  1.00  0.00     0.051 A 
ATOM     92  C   UNL A   1      31.602  27.239  24.864  1.00  0.00     0.173 A 
ATOM     93  C   UNL A   1      31.955  27.555  23.572  1.00  0.00     0.172 A 
ATOM     94  O   UNL A   1      31.384  28.341  25.631  1.00  0.00    -0.395 OA
ATOM     95  O   UNL A   1      31.990  28.900  23.363  1.00  0.00    -0.395 OA
ATOM     96  C   UNL A   1      31.438  29.345  24.611  1.00  0.00     0.586 C 
ATOM     97  F   UNL A   1      30.176  29.790  24.387  1.00  0.00    -0.125 F 
ATOM     98  F   UNL A   1      32.167  30.393  25.063  1.00  0.00    -0.125 F 
ENDBRANCH  87  88
ENDBRANCH  84  87
ENDBRANCH  78  80
ENDBRANCH  77  78
ENDBRANCH  76  77
ENDBRANCH  75  76
ENDBRANCH  74  75
ENDBRANCH  73  74
ENDBRANCH   1  73
TORSDOF 19
ENDMDL
