MODEL 1
REMARK VINA RESULT:     -10.8      0.000      0.000
REMARK SMILES O=C(OCCOCCOCCOC(=O)c1ccc(Br)c(NC(=S)NC(=O)c2cccs2)c1)c1ccc(-c2c3nc(c(-c4c(F)c(F)c(F)c(F)c4F)c4ccc([nH]4)c(-c4c(F)c(F)c(F)c(F)c4F)c4nc(c(-c5c(F)c(F)c(F)c(F)c5F)c5ccc2[nH]5)C=C4)C=C3)cc1
REMARK SMILES IDX 8 1 7 2 6 3 5 4 4 5 3 6 2 7 1 8 33 9 34 10 95 11 35 12 94 13
REMARK SMILES IDX 36 14 37 15 38 16 88 17 39 18 93 19 87 20 89 21 40 22 92 23
REMARK SMILES IDX 86 24 85 25 41 27 73 28 53 29 72 30 54 31 57 32 71 33 90 34
REMARK SMILES IDX 55 35 56 36 70 38 91 39 58 40 42 41 43 42 51 43 44 44 45 45
REMARK SMILES IDX 49 46 52 47 46 48 47 49 50 50 48 51 74 52 75 53 83 54 76 55
REMARK SMILES IDX 77 56 81 57 84 58 78 59 79 60 82 61 80 62 59 63 60 64 68 65
REMARK SMILES IDX 61 66 62 67 66 68 69 69 63 70 64 71 67 72 65 73 9 74 10 75
REMARK SMILES IDX 11 76 12 77 13 78 14 79 15 80 16 81 32 82 17 83 20 84 18 85
REMARK SMILES IDX 19 86 21 87 22 89 23 90 24 91 25 92 26 94 27 95 28 96 31 97
REMARK SMILES IDX 29 98 30 99
REMARK H PARENT 89 26 57 37 21 88 24 93
REMARK Flexibility Score: inf
ROOT
ATOM      1  C   UNL A   1      43.991  18.815  25.321  1.00  0.00     0.188 C 
ENDROOT
BRANCH   1   2
ATOM      2  C   UNL A   1      45.029  19.480  24.413  1.00  0.00     0.188 C 
BRANCH   2   3
ATOM      3  O   UNL A   1      44.549  20.585  23.647  1.00  0.00    -0.376 OA
BRANCH   3   4
ATOM      4  C   UNL A   1      44.788  21.881  24.204  1.00  0.00     0.202 C 
BRANCH   4   5
ATOM      5  C   UNL A   1      45.349  21.946  25.637  1.00  0.00     0.261 C 
BRANCH   5   6
ATOM      6  O   UNL A   1      45.832  23.227  26.102  1.00  0.00    -0.460 OA
BRANCH   6   7
ATOM      7  C   UNL A   1      45.494  24.504  25.826  1.00  0.00     0.338 C 
ATOM      8  O   UNL A   1      45.862  24.999  24.762  1.00  0.00    -0.246 OA
BRANCH   7   9
ATOM      9  C   UNL A   1      44.729  25.386  26.747  1.00  0.00     0.060 A 
ATOM     10  C   UNL A   1      44.807  26.773  26.750  1.00  0.00     0.016 A 
ATOM     11  C   UNL A   1      43.776  24.786  27.587  1.00  0.00     0.016 A 
ATOM     12  C   UNL A   1      44.051  27.560  27.596  1.00  0.00     0.010 A 
ATOM     13  C   UNL A   1      42.961  25.568  28.411  1.00  0.00     0.010 A 
ATOM     14  C   UNL A   1      43.129  26.963  28.436  1.00  0.00    -0.014 A 
BRANCH  14  15
ATOM     15  C   UNL A   1      42.543  27.797  29.492  1.00  0.00     0.031 A 
ATOM     16  C   UNL A   1      43.292  27.849  30.778  1.00  0.00     0.074 A 
ATOM     17  C   UNL A   1      41.495  28.606  29.260  1.00  0.00     0.049 A 
ATOM     18  N   UNL A   1      42.975  28.438  31.894  1.00  0.00    -0.248 NA
ATOM     19  C   UNL A   1      44.606  27.179  30.794  1.00  0.00     0.031 C 
ATOM     20  C   UNL A   1      40.880  28.842  27.957  1.00  0.00     0.029 A 
ATOM     21  N   UNL A   1      40.758  29.385  30.109  1.00  0.00    -0.354 N 
ATOM     22  C   UNL A   1      44.047  28.208  32.740  1.00  0.00     0.074 A 
ATOM     23  C   UNL A   1      44.997  27.379  32.038  1.00  0.00     0.031 C 
ATOM     24  C   UNL A   1      39.795  29.618  28.106  1.00  0.00     0.029 A 
ATOM     25  C   UNL A   1      39.642  29.924  29.516  1.00  0.00     0.049 A 
ATOM     26  H   UNL A   1      41.002  29.543  31.051  1.00  0.00     0.167 HD
ATOM     27  C   UNL A   1      44.218  28.681  33.991  1.00  0.00     0.037 A 
ATOM     28  C   UNL A   1      38.597  30.563  30.071  1.00  0.00     0.037 A 
ATOM     29  C   UNL A   1      43.235  29.492  34.650  1.00  0.00     0.049 A 
ATOM     30  C   UNL A   1      38.686  30.866  31.535  1.00  0.00     0.074 A 
ATOM     31  C   UNL A   1      43.250  29.989  35.937  1.00  0.00     0.029 A 
ATOM     32  N   UNL A   1      42.042  29.905  34.067  1.00  0.00    -0.354 N 
ATOM     33  N   UNL A   1      39.662  30.594  32.367  1.00  0.00    -0.248 NA
ATOM     34  C   UNL A   1      37.563  31.595  32.128  1.00  0.00     0.031 C 
ATOM     35  C   UNL A   1      42.026  30.624  36.162  1.00  0.00     0.029 A 
ATOM     36  C   UNL A   1      41.289  30.613  34.984  1.00  0.00     0.049 A 
ATOM     37  H   UNL A   1      41.774  29.722  33.137  1.00  0.00     0.167 HD
ATOM     38  C   UNL A   1      39.308  31.177  33.570  1.00  0.00     0.074 A 
ATOM     39  C   UNL A   1      38.014  31.801  33.358  1.00  0.00     0.031 C 
ATOM     40  C   UNL A   1      40.002  31.217  34.733  1.00  0.00     0.037 A 
BRANCH  27  41
ATOM     41  C   UNL A   1      45.451  28.236  34.715  1.00  0.00     0.064 A 
ATOM     42  C   UNL A   1      45.479  27.080  35.514  1.00  0.00     0.173 A 
ATOM     43  C   UNL A   1      46.603  29.032  34.673  1.00  0.00     0.173 A 
ATOM     44  F   UNL A   1      44.387  26.307  35.625  1.00  0.00    -0.203 F 
ATOM     45  C   UNL A   1      46.600  26.767  36.278  1.00  0.00     0.198 A 
ATOM     46  C   UNL A   1      47.737  28.691  35.402  1.00  0.00     0.198 A 
ATOM     47  F   UNL A   1      46.621  30.157  33.944  1.00  0.00    -0.203 F 
ATOM     48  F   UNL A   1      46.572  25.713  37.105  1.00  0.00    -0.200 F 
ATOM     49  C   UNL A   1      47.730  27.568  36.215  1.00  0.00     0.200 A 
ATOM     50  F   UNL A   1      48.827  29.467  35.339  1.00  0.00    -0.200 F 
ATOM     51  F   UNL A   1      48.805  27.271  36.956  1.00  0.00    -0.200 F 
ENDBRANCH  27  41
BRANCH  28  52
ATOM     52  C   UNL A   1      37.399  30.909  29.267  1.00  0.00     0.064 A 
ATOM     53  C   UNL A   1      37.179  32.199  28.773  1.00  0.00     0.173 A 
ATOM     54  C   UNL A   1      36.425  29.937  28.997  1.00  0.00     0.173 A 
ATOM     55  F   UNL A   1      38.066  33.171  29.024  1.00  0.00    -0.203 F 
ATOM     56  C   UNL A   1      36.025  32.506  28.050  1.00  0.00     0.198 A 
ATOM     57  C   UNL A   1      35.287  30.234  28.250  1.00  0.00     0.198 A 
ATOM     58  F   UNL A   1      36.589  28.690  29.459  1.00  0.00    -0.203 F 
ATOM     59  F   UNL A   1      35.819  33.759  27.622  1.00  0.00    -0.200 F 
ATOM     60  C   UNL A   1      35.084  31.522  27.782  1.00  0.00     0.200 A 
ATOM     61  F   UNL A   1      34.396  29.272  27.974  1.00  0.00    -0.200 F 
ATOM     62  F   UNL A   1      33.983  31.814  27.077  1.00  0.00    -0.200 F 
ENDBRANCH  28  52
BRANCH  40  63
ATOM     63  C   UNL A   1      39.402  32.019  35.844  1.00  0.00     0.064 A 
ATOM     64  C   UNL A   1      38.462  31.477  36.730  1.00  0.00     0.173 A 
ATOM     65  C   UNL A   1      39.821  33.343  36.049  1.00  0.00     0.173 A 
ATOM     66  F   UNL A   1      38.018  30.222  36.560  1.00  0.00    -0.203 F 
ATOM     67  C   UNL A   1      37.939  32.243  37.765  1.00  0.00     0.198 A 
ATOM     68  C   UNL A   1      39.335  34.088  37.115  1.00  0.00     0.198 A 
ATOM     69  F   UNL A   1      40.724  33.903  35.229  1.00  0.00    -0.203 F 
ATOM     70  F   UNL A   1      36.992  31.729  38.561  1.00  0.00    -0.200 F 
ATOM     71  C   UNL A   1      38.385  33.541  37.965  1.00  0.00     0.200 A 
ATOM     72  F   UNL A   1      39.787  35.332  37.320  1.00  0.00    -0.200 F 
ATOM     73  F   UNL A   1      37.894  34.270  38.975  1.00  0.00    -0.200 F 
ENDBRANCH  40  63
ENDBRANCH  14  15
ENDBRANCH   7   9
ENDBRANCH   6   7
ENDBRANCH   5   6
ENDBRANCH   4   5
ENDBRANCH   3   4
ENDBRANCH   2   3
ENDBRANCH   1   2
BRANCH   1  74
ATOM     74  O   UNL A   1      42.631  19.108  25.046  1.00  0.00    -0.376 OA
BRANCH  74  75
ATOM     75  C   UNL A   1      41.873  19.559  26.160  1.00  0.00     0.202 C 
BRANCH  75  76
ATOM     76  C   UNL A   1      41.751  21.080  26.447  1.00  0.00     0.261 C 
BRANCH  76  77
ATOM     77  O   UNL A   1      40.764  21.860  25.707  1.00  0.00    -0.460 OA
BRANCH  77  78
ATOM     78  C   UNL A   1      39.815  22.476  26.472  1.00  0.00     0.338 C 
ATOM     79  O   UNL A   1      39.994  22.819  27.637  1.00  0.00    -0.246 OA
BRANCH  78  80
ATOM     80  C   UNL A   1      38.356  22.536  25.898  1.00  0.00     0.062 A 
ATOM     81  C   UNL A   1      38.004  20.808  25.456  1.00  0.00     0.017 A 
ATOM     82  C   UNL A   1      36.700  23.763  25.801  1.00  0.00     0.043 A 
ATOM     83  C   UNL A   1      36.331  20.415  24.996  1.00  0.00     0.019 A 
ATOM     84  C   UNL A   1      35.220  23.310  25.220  1.00  0.00     0.055 A 
ATOM     85  C   UNL A   1      35.021  21.629  24.875  1.00  0.00     0.041 A 
ATOM     86  Br  UNL A   1      33.364  21.078  24.137  1.00  0.00    -0.049 Br
BRANCH  84  87
ATOM     87  N   UNL A   1      34.609  24.458  24.660  1.00  0.00    -0.331 N 
ATOM     88  H   UNL A   1      35.206  25.233  24.548  1.00  0.00     0.169 HD
BRANCH  87  89
ATOM     89  C   UNL A   1      33.295  24.661  24.240  1.00  0.00     0.177 C 
ATOM     90  S   UNL A   1      33.071  24.827  22.581  1.00  0.00    -0.040 S 
BRANCH  89  91
ATOM     91  N   UNL A   1      32.087  24.730  25.036  1.00  0.00    -0.298 N 
ATOM     92  C   UNL A   1      30.972  25.492  25.745  1.00  0.00     0.267 C 
ATOM     93  H   UNL A   1      31.872  23.786  25.214  1.00  0.00     0.172 HD
ATOM     94  O   UNL A   1      30.364  24.938  26.657  1.00  0.00    -0.268 OA
BRANCH  92  95
ATOM     95  C   UNL A   1      30.667  26.926  25.297  1.00  0.00     0.092 A 
ATOM     96  C   UNL A   1      29.856  26.969  23.819  1.00  0.00     0.025 A 
ATOM     97  S   UNL A   1      32.572  28.227  25.414  1.00  0.00    -0.139 S 
ATOM     98  C   UNL A   1      30.901  27.687  22.404  1.00  0.00     0.012 A 
ATOM     99  C   UNL A   1      32.585  28.489  23.084  1.00  0.00     0.065 A 
ENDBRANCH  92  95
ENDBRANCH  89  91
ENDBRANCH  87  89
ENDBRANCH  84  87
ENDBRANCH  78  80
ENDBRANCH  77  78
ENDBRANCH  76  77
ENDBRANCH  75  76
ENDBRANCH  74  75
ENDBRANCH   1  74
TORSDOF 21
ENDMDL
MODEL 2
REMARK VINA RESULT:     -10.5      4.674      7.510
REMARK SMILES O=C(OCCOCCOCCOC(=O)c1ccc(Br)c(NC(=S)NC(=O)c2cccs2)c1)c1ccc(-c2c3nc(c(-c4c(F)c(F)c(F)c(F)c4F)c4ccc([nH]4)c(-c4c(F)c(F)c(F)c(F)c4F)c4nc(c(-c5c(F)c(F)c(F)c(F)c5F)c5ccc2[nH]5)C=C4)C=C3)cc1
REMARK SMILES IDX 8 1 7 2 6 3 5 4 4 5 3 6 2 7 1 8 33 9 34 10 95 11 35 12 94 13
REMARK SMILES IDX 36 14 37 15 38 16 88 17 39 18 93 19 87 20 89 21 40 22 92 23
REMARK SMILES IDX 86 24 85 25 41 27 73 28 53 29 72 30 54 31 57 32 71 33 90 34
REMARK SMILES IDX 55 35 56 36 70 38 91 39 58 40 42 41 43 42 51 43 44 44 45 45
REMARK SMILES IDX 49 46 52 47 46 48 47 49 50 50 48 51 74 52 75 53 83 54 76 55
REMARK SMILES IDX 77 56 81 57 84 58 78 59 79 60 82 61 80 62 59 63 60 64 68 65
REMARK SMILES IDX 61 66 62 67 66 68 69 69 63 70 64 71 67 72 65 73 9 74 10 75
REMARK SMILES IDX 11 76 12 77 13 78 14 79 15 80 16 81 32 82 17 83 20 84 18 85
REMARK SMILES IDX 19 86 21 87 22 89 23 90 24 91 25 92 26 94 27 95 28 96 31 97
REMARK SMILES IDX 29 98 30 99
REMARK H PARENT 89 26 57 37 21 88 24 93
REMARK Flexibility Score: inf
ROOT
ATOM      1  C   UNL A   1      36.280  20.559  25.000  1.00  0.00     0.188 C 
ENDROOT
BRANCH   1   2
ATOM      2  C   UNL A   1      37.056  21.658  25.730  1.00  0.00     0.188 C 
BRANCH   2   3
ATOM      3  O   UNL A   1      38.427  21.790  25.353  1.00  0.00    -0.376 OA
BRANCH   3   4
ATOM      4  C   UNL A   1      39.350  20.952  26.053  1.00  0.00     0.202 C 
BRANCH   4   5
ATOM      5  C   UNL A   1      39.595  19.538  25.490  1.00  0.00     0.261 C 
BRANCH   5   6
ATOM      6  O   UNL A   1      40.782  18.843  25.935  1.00  0.00    -0.460 OA
BRANCH   6   7
ATOM      7  C   UNL A   1      42.079  19.200  26.051  1.00  0.00     0.338 C 
ATOM      8  O   UNL A   1      42.946  18.333  25.946  1.00  0.00    -0.246 OA
BRANCH   7   9
ATOM      9  C   UNL A   1      42.545  20.582  26.343  1.00  0.00     0.060 A 
ATOM     10  C   UNL A   1      42.612  21.135  27.615  1.00  0.00     0.016 A 
ATOM     11  C   UNL A   1      43.065  21.335  25.277  1.00  0.00     0.016 A 
ATOM     12  C   UNL A   1      43.087  22.411  27.849  1.00  0.00     0.010 A 
ATOM     13  C   UNL A   1      43.603  22.607  25.500  1.00  0.00     0.010 A 
ATOM     14  C   UNL A   1      43.579  23.156  26.793  1.00  0.00    -0.014 A 
BRANCH  14  15
ATOM     15  C   UNL A   1      43.826  24.583  27.035  1.00  0.00     0.031 A 
ATOM     16  C   UNL A   1      45.224  25.051  26.821  1.00  0.00     0.074 A 
ATOM     17  C   UNL A   1      42.824  25.450  27.260  1.00  0.00     0.049 A 
ATOM     18  N   UNL A   1      45.740  26.228  27.027  1.00  0.00    -0.248 NA
ATOM     19  C   UNL A   1      46.160  24.066  26.250  1.00  0.00     0.031 C 
ATOM     20  C   UNL A   1      41.401  25.134  27.197  1.00  0.00     0.029 A 
ATOM     21  N   UNL A   1      42.845  26.778  27.588  1.00  0.00    -0.354 N 
ATOM     22  C   UNL A   1      47.057  26.121  26.614  1.00  0.00     0.074 A 
ATOM     23  C   UNL A   1      47.283  24.756  26.201  1.00  0.00     0.031 C 
ATOM     24  C   UNL A   1      40.686  26.203  27.581  1.00  0.00     0.029 A 
ATOM     25  C   UNL A   1      41.606  27.272  27.922  1.00  0.00     0.049 A 
ATOM     26  H   UNL A   1      43.664  27.325  27.585  1.00  0.00     0.167 HD
ATOM     27  C   UNL A   1      47.982  27.101  26.566  1.00  0.00     0.037 A 
ATOM     28  C   UNL A   1      41.271  28.449  28.476  1.00  0.00     0.037 A 
ATOM     29  C   UNL A   1      47.710  28.440  27.002  1.00  0.00     0.049 A 
ATOM     30  C   UNL A   1      42.368  29.453  28.654  1.00  0.00     0.074 A 
ATOM     31  C   UNL A   1      48.569  29.517  27.066  1.00  0.00     0.029 A 
ATOM     32  N   UNL A   1      46.474  28.875  27.472  1.00  0.00    -0.354 N 
ATOM     33  N   UNL A   1      43.634  29.343  28.333  1.00  0.00    -0.248 NA
ATOM     34  C   UNL A   1      41.992  30.748  29.224  1.00  0.00     0.031 C 
ATOM     35  C   UNL A   1      47.879  30.577  27.661  1.00  0.00     0.029 A 
ATOM     36  C   UNL A   1      46.560  30.194  27.873  1.00  0.00     0.049 A 
ATOM     37  H   UNL A   1      45.659  28.324  27.511  1.00  0.00     0.167 HD
ATOM     38  C   UNL A   1      44.200  30.577  28.597  1.00  0.00     0.074 A 
ATOM     39  C   UNL A   1      43.135  31.413  29.123  1.00  0.00     0.031 C 
ATOM     40  C   UNL A   1      45.475  30.990  28.395  1.00  0.00     0.037 A 
BRANCH  27  41
ATOM     41  C   UNL A   1      49.358  26.706  26.127  1.00  0.00     0.064 A 
ATOM     42  C   UNL A   1      50.307  26.172  27.015  1.00  0.00     0.173 A 
ATOM     43  C   UNL A   1      49.758  26.946  24.806  1.00  0.00     0.173 A 
ATOM     44  F   UNL A   1      49.989  25.963  28.302  1.00  0.00    -0.203 F 
ATOM     45  C   UNL A   1      51.617  25.938  26.605  1.00  0.00     0.198 A 
ATOM     46  C   UNL A   1      51.056  26.670  24.388  1.00  0.00     0.198 A 
ATOM     47  F   UNL A   1      48.898  27.476  23.925  1.00  0.00    -0.203 F 
ATOM     48  F   UNL A   1      52.531  25.519  27.491  1.00  0.00    -0.200 F 
ATOM     49  C   UNL A   1      51.987  26.181  25.290  1.00  0.00     0.200 A 
ATOM     50  F   UNL A   1      51.410  26.904  23.118  1.00  0.00    -0.200 F 
ATOM     51  F   UNL A   1      53.250  25.964  24.898  1.00  0.00    -0.200 F 
ENDBRANCH  27  41
BRANCH  28  52
ATOM     52  C   UNL A   1      39.882  28.713  28.926  1.00  0.00     0.064 A 
ATOM     53  C   UNL A   1      39.447  28.411  30.222  1.00  0.00     0.173 A 
ATOM     54  C   UNL A   1      38.945  29.260  28.040  1.00  0.00     0.173 A 
ATOM     55  F   UNL A   1      40.297  27.863  31.101  1.00  0.00    -0.203 F 
ATOM     56  C   UNL A   1      38.125  28.636  30.608  1.00  0.00     0.198 A 
ATOM     57  C   UNL A   1      37.631  29.513  28.433  1.00  0.00     0.198 A 
ATOM     58  F   UNL A   1      39.313  29.556  26.786  1.00  0.00    -0.203 F 
ATOM     59  F   UNL A   1      37.724  28.301  31.842  1.00  0.00    -0.200 F 
ATOM     60  C   UNL A   1      37.220  29.194  29.716  1.00  0.00     0.200 A 
ATOM     61  F   UNL A   1      36.772  30.077  27.573  1.00  0.00    -0.200 F 
ATOM     62  F   UNL A   1      35.954  29.422  30.092  1.00  0.00    -0.200 F 
ENDBRANCH  28  52
BRANCH  40  63
ATOM     63  C   UNL A   1      45.767  32.429  28.682  1.00  0.00     0.064 A 
ATOM     64  C   UNL A   1      46.284  32.851  29.914  1.00  0.00     0.173 A 
ATOM     65  C   UNL A   1      45.570  33.391  27.679  1.00  0.00     0.173 A 
ATOM     66  F   UNL A   1      46.470  31.969  30.908  1.00  0.00    -0.203 F 
ATOM     67  C   UNL A   1      46.564  34.194  30.142  1.00  0.00     0.198 A 
ATOM     68  C   UNL A   1      45.900  34.723  27.894  1.00  0.00     0.198 A 
ATOM     69  F   UNL A   1      45.082  33.032  26.482  1.00  0.00    -0.203 F 
ATOM     70  F   UNL A   1      46.995  34.588  31.347  1.00  0.00    -0.200 F 
ATOM     71  C   UNL A   1      46.385  35.124  29.129  1.00  0.00     0.200 A 
ATOM     72  F   UNL A   1      45.749  35.614  26.906  1.00  0.00    -0.200 F 
ATOM     73  F   UNL A   1      46.675  36.414  29.345  1.00  0.00    -0.200 F 
ENDBRANCH  40  63
ENDBRANCH  14  15
ENDBRANCH   7   9
ENDBRANCH   6   7
ENDBRANCH   5   6
ENDBRANCH   4   5
ENDBRANCH   3   4
ENDBRANCH   2   3
ENDBRANCH   1   2
BRANCH   1  74
ATOM     74  O   UNL A   1      35.032  20.933  24.442  1.00  0.00    -0.376 OA
BRANCH  74  75
ATOM     75  C   UNL A   1      33.948  20.068  24.755  1.00  0.00     0.202 C 
BRANCH  75  76
ATOM     76  C   UNL A   1      33.111  20.311  26.040  1.00  0.00     0.261 C 
BRANCH  76  77
ATOM     77  O   UNL A   1      33.729  21.008  27.163  1.00  0.00    -0.460 OA
BRANCH  77  78
ATOM     78  C   UNL A   1      33.195  22.229  27.457  1.00  0.00     0.338 C 
ATOM     79  O   UNL A   1      32.851  22.571  28.585  1.00  0.00    -0.246 OA
BRANCH  78  80
ATOM     80  C   UNL A   1      32.796  23.149  26.250  1.00  0.00     0.062 A 
ATOM     81  C   UNL A   1      34.362  23.950  25.794  1.00  0.00     0.017 A 
ATOM     82  C   UNL A   1      31.280  23.472  24.888  1.00  0.00     0.043 A 
ATOM     83  C   UNL A   1      34.379  24.894  24.285  1.00  0.00     0.019 A 
ATOM     84  C   UNL A   1      31.377  24.489  23.589  1.00  0.00     0.055 A 
ATOM     85  C   UNL A   1      32.938  25.151  23.256  1.00  0.00     0.041 A 
ATOM     86  Br  UNL A   1      33.078  26.381  21.821  1.00  0.00    -0.049 Br
BRANCH  84  87
ATOM     87  N   UNL A   1      30.076  24.990  23.338  1.00  0.00    -0.331 N 
ATOM     88  H   UNL A   1      29.424  24.318  23.035  1.00  0.00     0.169 HD
BRANCH  87  89
ATOM     89  C   UNL A   1      29.576  26.287  23.456  1.00  0.00     0.177 C 
ATOM     90  S   UNL A   1      28.055  26.426  24.162  1.00  0.00    -0.040 S 
BRANCH  89  91
ATOM     91  N   UNL A   1      30.194  27.538  23.069  1.00  0.00    -0.298 N 
ATOM     92  C   UNL A   1      30.143  28.986  22.595  1.00  0.00     0.267 C 
ATOM     93  H   UNL A   1      31.157  27.358  23.160  1.00  0.00     0.172 HD
ATOM     94  O   UNL A   1      31.131  29.464  22.043  1.00  0.00    -0.268 OA
BRANCH  92  95
ATOM     95  C   UNL A   1      28.850  29.782  22.814  1.00  0.00     0.092 A 
ATOM     96  C   UNL A   1      28.086  30.161  21.359  1.00  0.00     0.025 A 
ATOM     97  S   UNL A   1      29.237  31.573  24.220  1.00  0.00    -0.139 S 
ATOM     98  C   UNL A   1      28.116  32.016  20.950  1.00  0.00     0.012 A 
ATOM     99  C   UNL A   1      28.778  33.084  22.488  1.00  0.00     0.065 A 
ENDBRANCH  92  95
ENDBRANCH  89  91
ENDBRANCH  87  89
ENDBRANCH  84  87
ENDBRANCH  78  80
ENDBRANCH  77  78
ENDBRANCH  76  77
ENDBRANCH  75  76
ENDBRANCH  74  75
ENDBRANCH   1  74
TORSDOF 21
ENDMDL
MODEL 3
REMARK VINA RESULT:     -10.5      4.547      9.308
REMARK SMILES O=C(OCCOCCOCCOC(=O)c1ccc(Br)c(NC(=S)NC(=O)c2cccs2)c1)c1ccc(-c2c3nc(c(-c4c(F)c(F)c(F)c(F)c4F)c4ccc([nH]4)c(-c4c(F)c(F)c(F)c(F)c4F)c4nc(c(-c5c(F)c(F)c(F)c(F)c5F)c5ccc2[nH]5)C=C4)C=C3)cc1
REMARK SMILES IDX 8 1 7 2 6 3 5 4 4 5 3 6 2 7 1 8 33 9 34 10 95 11 35 12 94 13
REMARK SMILES IDX 36 14 37 15 38 16 88 17 39 18 93 19 87 20 89 21 40 22 92 23
REMARK SMILES IDX 86 24 85 25 41 27 73 28 53 29 72 30 54 31 57 32 71 33 90 34
REMARK SMILES IDX 55 35 56 36 70 38 91 39 58 40 42 41 43 42 51 43 44 44 45 45
REMARK SMILES IDX 49 46 52 47 46 48 47 49 50 50 48 51 74 52 75 53 83 54 76 55
REMARK SMILES IDX 77 56 81 57 84 58 78 59 79 60 82 61 80 62 59 63 60 64 68 65
REMARK SMILES IDX 61 66 62 67 66 68 69 69 63 70 64 71 67 72 65 73 9 74 10 75
REMARK SMILES IDX 11 76 12 77 13 78 14 79 15 80 16 81 32 82 17 83 20 84 18 85
REMARK SMILES IDX 19 86 21 87 22 89 23 90 24 91 25 92 26 94 27 95 28 96 31 97
REMARK SMILES IDX 29 98 30 99
REMARK H PARENT 89 26 57 37 21 88 24 93
REMARK Flexibility Score: inf
ROOT
ATOM      1  C   UNL A   1      36.298  20.584  25.002  1.00  0.00     0.188 C 
ENDROOT
BRANCH   1   2
ATOM      2  C   UNL A   1      37.125  21.706  25.632  1.00  0.00     0.188 C 
BRANCH   2   3
ATOM      3  O   UNL A   1      38.509  21.714  25.280  1.00  0.00    -0.376 OA
BRANCH   3   4
ATOM      4  C   UNL A   1      39.371  20.940  26.120  1.00  0.00     0.202 C 
BRANCH   4   5
ATOM      5  C   UNL A   1      39.763  19.532  25.630  1.00  0.00     0.261 C 
BRANCH   5   6
ATOM      6  O   UNL A   1      41.067  19.037  26.012  1.00  0.00    -0.460 OA
BRANCH   6   7
ATOM      7  C   UNL A   1      42.309  19.562  25.969  1.00  0.00     0.338 C 
ATOM      8  O   UNL A   1      43.257  18.825  25.701  1.00  0.00    -0.246 OA
BRANCH   7   9
ATOM      9  C   UNL A   1      42.629  20.984  26.267  1.00  0.00     0.060 A 
ATOM     10  C   UNL A   1      42.786  21.971  25.302  1.00  0.00     0.016 A 
ATOM     11  C   UNL A   1      42.657  21.380  27.615  1.00  0.00     0.016 A 
ATOM     12  C   UNL A   1      43.046  23.290  25.621  1.00  0.00     0.010 A 
ATOM     13  C   UNL A   1      42.862  22.720  27.958  1.00  0.00     0.010 A 
ATOM     14  C   UNL A   1      43.092  23.671  26.950  1.00  0.00    -0.014 A 
BRANCH  14  15
ATOM     15  C   UNL A   1      43.624  25.006  27.248  1.00  0.00     0.031 A 
ATOM     16  C   UNL A   1      42.649  25.994  27.787  1.00  0.00     0.074 A 
ATOM     17  C   UNL A   1      44.941  25.272  27.209  1.00  0.00     0.049 A 
ATOM     18  N   UNL A   1      42.821  27.253  28.067  1.00  0.00    -0.248 NA
ATOM     19  C   UNL A   1      41.304  25.478  28.098  1.00  0.00     0.031 C 
ATOM     20  C   UNL A   1      45.996  24.290  26.977  1.00  0.00     0.029 A 
ATOM     21  N   UNL A   1      45.624  26.447  27.364  1.00  0.00    -0.354 N 
ATOM     22  C   UNL A   1      41.608  27.676  28.583  1.00  0.00     0.074 A 
ATOM     23  C   UNL A   1      40.689  26.565  28.526  1.00  0.00     0.031 C 
ATOM     24  C   UNL A   1      47.182  24.915  26.896  1.00  0.00     0.029 A 
ATOM     25  C   UNL A   1      46.961  26.339  27.066  1.00  0.00     0.049 A 
ATOM     26  H   UNL A   1      45.200  27.286  27.660  1.00  0.00     0.167 HD
ATOM     27  C   UNL A   1      41.311  28.893  29.083  1.00  0.00     0.037 A 
ATOM     28  C   UNL A   1      47.888  27.300  26.912  1.00  0.00     0.037 A 
ATOM     29  C   UNL A   1      42.258  29.970  29.104  1.00  0.00     0.049 A 
ATOM     30  C   UNL A   1      47.472  28.702  27.233  1.00  0.00     0.074 A 
ATOM     31  C   UNL A   1      42.074  31.271  29.526  1.00  0.00     0.029 A 
ATOM     32  N   UNL A   1      43.572  29.867  28.660  1.00  0.00    -0.354 N 
ATOM     33  N   UNL A   1      46.307  29.131  27.656  1.00  0.00    -0.248 NA
ATOM     34  C   UNL A   1      48.494  29.742  27.102  1.00  0.00     0.031 C 
ATOM     35  C   UNL A   1      43.248  31.977  29.249  1.00  0.00     0.029 A 
ATOM     36  C   UNL A   1      44.199  31.095  28.752  1.00  0.00     0.049 A 
ATOM     37  H   UNL A   1      43.993  29.040  28.329  1.00  0.00     0.167 HD
ATOM     38  C   UNL A   1      46.469  30.481  27.909  1.00  0.00     0.074 A 
ATOM     39  C   UNL A   1      47.846  30.799  27.571  1.00  0.00     0.031 C 
ATOM     40  C   UNL A   1      45.573  31.369  28.402  1.00  0.00     0.037 A 
BRANCH  27  41
ATOM     41  C   UNL A   1      39.898  29.109  29.531  1.00  0.00     0.064 A 
ATOM     42  C   UNL A   1      39.487  28.889  30.856  1.00  0.00     0.173 A 
ATOM     43  C   UNL A   1      38.922  29.465  28.592  1.00  0.00     0.173 A 
ATOM     44  F   UNL A   1      40.374  28.502  31.786  1.00  0.00    -0.203 F 
ATOM     45  C   UNL A   1      38.143  28.972  31.210  1.00  0.00     0.198 A 
ATOM     46  C   UNL A   1      37.586  29.591  28.958  1.00  0.00     0.198 A 
ATOM     47  F   UNL A   1      39.258  29.665  27.309  1.00  0.00    -0.203 F 
ATOM     48  F   UNL A   1      37.760  28.665  32.457  1.00  0.00    -0.200 F 
ATOM     49  C   UNL A   1      37.196  29.330  30.263  1.00  0.00     0.200 A 
ATOM     50  F   UNL A   1      36.674  29.938  28.041  1.00  0.00    -0.200 F 
ATOM     51  F   UNL A   1      35.902  29.401  30.602  1.00  0.00    -0.200 F 
ENDBRANCH  27  41
BRANCH  28  52
ATOM     52  C   UNL A   1      49.245  26.978  26.407  1.00  0.00     0.064 A 
ATOM     53  C   UNL A   1      49.567  27.033  25.046  1.00  0.00     0.173 A 
ATOM     54  C   UNL A   1      50.253  26.580  27.296  1.00  0.00     0.173 A 
ATOM     55  F   UNL A   1      48.633  27.384  24.153  1.00  0.00    -0.203 F 
ATOM     56  C   UNL A   1      50.843  26.690  24.594  1.00  0.00     0.198 A 
ATOM     57  C   UNL A   1      51.536  26.266  26.849  1.00  0.00     0.198 A 
ATOM     58  F   UNL A   1      49.988  26.504  28.607  1.00  0.00    -0.203 F 
ATOM     59  F   UNL A   1      51.114  26.712  23.283  1.00  0.00    -0.200 F 
ATOM     60  C   UNL A   1      51.828  26.314  25.496  1.00  0.00     0.200 A 
ATOM     61  F   UNL A   1      52.488  25.930  27.730  1.00  0.00    -0.200 F 
ATOM     62  F   UNL A   1      53.055  25.998  25.063  1.00  0.00    -0.200 F 
ENDBRANCH  28  52
BRANCH  40  63
ATOM     63  C   UNL A   1      46.075  32.753  28.668  1.00  0.00     0.064 A 
ATOM     64  C   UNL A   1      45.954  33.782  27.725  1.00  0.00     0.173 A 
ATOM     65  C   UNL A   1      46.644  33.057  29.915  1.00  0.00     0.173 A 
ATOM     66  F   UNL A   1      45.435  33.532  26.513  1.00  0.00    -0.203 F 
ATOM     67  C   UNL A   1      46.414  35.063  28.011  1.00  0.00     0.198 A 
ATOM     68  C   UNL A   1      47.054  34.349  30.215  1.00  0.00     0.198 A 
ATOM     69  F   UNL A   1      46.775  32.104  30.850  1.00  0.00    -0.203 F 
ATOM     70  F   UNL A   1      46.350  36.018  27.075  1.00  0.00    -0.200 F 
ATOM     71  C   UNL A   1      46.949  35.348  29.259  1.00  0.00     0.200 A 
ATOM     72  F   UNL A   1      47.547  34.627  31.429  1.00  0.00    -0.200 F 
ATOM     73  F   UNL A   1      47.372  36.587  29.539  1.00  0.00    -0.200 F 
ENDBRANCH  40  63
ENDBRANCH  14  15
ENDBRANCH   7   9
ENDBRANCH   6   7
ENDBRANCH   5   6
ENDBRANCH   4   5
ENDBRANCH   3   4
ENDBRANCH   2   3
ENDBRANCH   1   2
BRANCH   1  74
ATOM     74  O   UNL A   1      35.058  20.960  24.426  1.00  0.00    -0.376 OA
BRANCH  74  75
ATOM     75  C   UNL A   1      33.969  20.095  24.719  1.00  0.00     0.202 C 
BRANCH  75  76
ATOM     76  C   UNL A   1      33.091  20.354  25.973  1.00  0.00     0.261 C 
BRANCH  76  77
ATOM     77  O   UNL A   1      33.670  21.071  27.104  1.00  0.00    -0.460 OA
BRANCH  77  78
ATOM     78  C   UNL A   1      33.067  22.256  27.414  1.00  0.00     0.338 C 
ATOM     79  O   UNL A   1      32.612  22.522  28.523  1.00  0.00    -0.246 OA
BRANCH  78  80
ATOM     80  C   UNL A   1      32.741  23.229  26.227  1.00  0.00     0.062 A 
ATOM     81  C   UNL A   1      34.317  24.087  25.940  1.00  0.00     0.017 A 
ATOM     82  C   UNL A   1      31.330  23.592  24.766  1.00  0.00     0.043 A 
ATOM     83  C   UNL A   1      34.430  25.110  24.488  1.00  0.00     0.019 A 
ATOM     84  C   UNL A   1      31.503  24.678  23.533  1.00  0.00     0.055 A 
ATOM     85  C   UNL A   1      33.068  25.390  23.361  1.00  0.00     0.041 A 
ATOM     86  Br  UNL A   1      33.290  26.697  22.006  1.00  0.00    -0.049 Br
BRANCH  84  87
ATOM     87  N   UNL A   1      30.214  25.164  23.204  1.00  0.00    -0.331 N 
ATOM     88  H   UNL A   1      29.602  24.492  22.828  1.00  0.00     0.169 HD
BRANCH  87  89
ATOM     89  C   UNL A   1      29.678  26.445  23.333  1.00  0.00     0.177 C 
ATOM     90  S   UNL A   1      28.201  26.546  24.131  1.00  0.00    -0.040 S 
BRANCH  89  91
ATOM     91  N   UNL A   1      30.228  27.709  22.887  1.00  0.00    -0.298 N 
ATOM     92  C   UNL A   1      30.097  29.146  22.395  1.00  0.00     0.267 C 
ATOM     93  H   UNL A   1      31.200  27.563  22.919  1.00  0.00     0.172 HD
ATOM     94  O   UNL A   1      31.031  29.646  21.774  1.00  0.00    -0.268 OA
BRANCH  92  95
ATOM     95  C   UNL A   1      28.795  29.903  22.686  1.00  0.00     0.092 A 
ATOM     96  C   UNL A   1      28.026  30.405  21.272  1.00  0.00     0.025 A 
ATOM     97  S   UNL A   1      29.161  31.561  24.252  1.00  0.00    -0.139 S 
ATOM     98  C   UNL A   1      28.035  32.291  21.036  1.00  0.00     0.012 A 
ATOM     99  C   UNL A   1      28.684  33.220  22.666  1.00  0.00     0.065 A 
ENDBRANCH  92  95
ENDBRANCH  89  91
ENDBRANCH  87  89
ENDBRANCH  84  87
ENDBRANCH  78  80
ENDBRANCH  77  78
ENDBRANCH  76  77
ENDBRANCH  75  76
ENDBRANCH  74  75
ENDBRANCH   1  74
TORSDOF 21
ENDMDL
