MODEL 1
REMARK VINA RESULT:     -11.5      0.000      0.000
REMARK SMILES O=C(OCCOCCOCCOC(=O)c1ccc(-c2c3nc(c(-c4c(F)c(F)c(F)c(F)c4F)c4ccc([nH]4)c(-c4c(F)c(F)c(F)c(F)c4F)c4nc(c(-c5c(F)c(F)c(F)c(F)c5F)c5ccc2[nH]5)C=C4)C=C3)cc1)c1ccc(Cn2cc(Cl)c(=O)[nH]c2=O)cc1
REMARK SMILES IDX 7 1 6 2 5 3 4 4 3 5 2 6 1 7 78 8 79 9 93 10 80 11 92 12
REMARK SMILES IDX 81 13 82 14 83 15 84 16 90 17 85 18 89 19 91 20 86 21 87 22
REMARK SMILES IDX 88 24 8 25 9 26 10 27 11 28 12 29 13 30 14 31 15 32 16 33
REMARK SMILES IDX 77 34 17 35 76 36 18 37 19 38 20 39 70 40 21 41 75 42 69 43
REMARK SMILES IDX 71 44 22 45 74 46 68 47 67 48 23 50 55 51 35 52 54 53 36 54
REMARK SMILES IDX 39 55 53 56 72 57 37 58 38 59 52 61 73 62 40 63 24 64 25 65
REMARK SMILES IDX 33 66 26 67 27 68 31 69 34 70 28 71 29 72 32 73 30 74 56 75
REMARK SMILES IDX 57 76 65 77 58 78 59 79 63 80 66 81 60 82 61 83 64 84 62 85
REMARK SMILES IDX 41 86 42 87 50 88 43 89 44 90 48 91 51 92 45 93 46 94 49 95
REMARK SMILES IDX 47 96
REMARK H PARENT 89 23 71 49 39 60
REMARK Flexibility Score: inf
ROOT
ATOM      1  C   UNL A   1      33.265  36.163  29.564  1.00  0.00     0.188 C 
ENDROOT
BRANCH   1   2
ATOM      2  O   UNL A   1      33.969  35.012  29.081  1.00  0.00    -0.376 OA
BRANCH   2   3
ATOM      3  C   UNL A   1      33.147  34.039  28.448  1.00  0.00     0.202 C 
BRANCH   3   4
ATOM      4  C   UNL A   1      33.887  32.987  27.615  1.00  0.00     0.261 C 
BRANCH   4   5
ATOM      5  O   UNL A   1      33.672  31.635  28.056  1.00  0.00    -0.460 OA
BRANCH   5   6
ATOM      6  C   UNL A   1      34.166  30.537  27.434  1.00  0.00     0.338 C 
ATOM      7  O   UNL A   1      35.361  30.268  27.450  1.00  0.00    -0.246 OA
BRANCH   6   8
ATOM      8  C   UNL A   1      33.238  29.628  26.735  1.00  0.00     0.060 A 
ATOM      9  C   UNL A   1      32.296  30.126  25.834  1.00  0.00     0.016 A 
ATOM     10  C   UNL A   1      33.390  28.249  26.900  1.00  0.00     0.016 A 
ATOM     11  C   UNL A   1      31.451  29.252  25.152  1.00  0.00     0.006 A 
ATOM     12  C   UNL A   1      32.555  27.373  26.203  1.00  0.00     0.006 A 
ATOM     13  C   UNL A   1      31.572  27.867  25.330  1.00  0.00    -0.028 A 
BRANCH  13  14
ATOM     14  C   UNL A   1      30.623  26.922  24.624  1.00  0.00     0.162 C 
BRANCH  14  15
ATOM     15  N   UNL A   1      31.256  26.340  23.441  1.00  0.00    -0.295 N 
ATOM     16  C   UNL A   1      32.085  25.243  23.586  1.00  0.00     0.117 A 
ATOM     17  C   UNL A   1      31.067  26.962  22.213  1.00  0.00     0.328 A 
ATOM     18  C   UNL A   1      32.771  24.728  22.562  1.00  0.00     0.122 A 
ATOM     19  N   UNL A   1      31.750  26.406  21.163  1.00  0.00    -0.273 N 
ATOM     20  O   UNL A   1      30.364  27.956  22.043  1.00  0.00    -0.248 OA
ATOM     21  Cl  UNL A   1      33.832  23.395  22.759  1.00  0.00    -0.077 Cl
ATOM     22  C   UNL A   1      32.625  25.353  21.225  1.00  0.00     0.272 A 
ATOM     23  H   UNL A   1      31.598  26.804  20.275  1.00  0.00     0.175 HD
ATOM     24  O   UNL A   1      33.244  24.974  20.237  1.00  0.00    -0.268 OA
ENDBRANCH  14  15
ENDBRANCH  13  14
ENDBRANCH   6   8
ENDBRANCH   5   6
ENDBRANCH   4   5
ENDBRANCH   3   4
ENDBRANCH   2   3
ENDBRANCH   1   2
BRANCH   1  25
ATOM     25  C   UNL A   1      32.874  35.916  31.025  1.00  0.00     0.188 C 
BRANCH  25  26
ATOM     26  O   UNL A   1      33.522  36.783  31.960  1.00  0.00    -0.376 OA
BRANCH  26  27
ATOM     27  C   UNL A   1      34.775  36.348  32.484  1.00  0.00     0.202 C 
BRANCH  27  28
ATOM     28  C   UNL A   1      34.819  34.895  32.961  1.00  0.00     0.261 C 
BRANCH  28  29
ATOM     29  O   UNL A   1      35.676  34.043  32.180  1.00  0.00    -0.460 OA
BRANCH  29  30
ATOM     30  C   UNL A   1      35.123  32.859  31.825  1.00  0.00     0.338 C 
ATOM     31  O   UNL A   1      33.956  32.520  31.906  1.00  0.00    -0.246 OA
BRANCH  30  32
ATOM     32  C   UNL A   1      36.162  31.932  31.354  1.00  0.00     0.060 A 
ATOM     33  C   UNL A   1      36.913  31.201  32.281  1.00  0.00     0.016 A 
ATOM     34  C   UNL A   1      36.526  31.958  30.005  1.00  0.00     0.016 A 
ATOM     35  C   UNL A   1      38.067  30.528  31.863  1.00  0.00     0.010 A 
ATOM     36  C   UNL A   1      37.675  31.283  29.592  1.00  0.00     0.010 A 
ATOM     37  C   UNL A   1      38.476  30.599  30.523  1.00  0.00    -0.014 A 
BRANCH  37  38
ATOM     38  C   UNL A   1      39.796  30.080  30.081  1.00  0.00     0.031 A 
ATOM     39  C   UNL A   1      40.959  31.028  29.966  1.00  0.00     0.074 A 
ATOM     40  C   UNL A   1      39.945  28.799  29.703  1.00  0.00     0.049 A 
ATOM     41  N   UNL A   1      42.129  30.844  29.409  1.00  0.00    -0.248 NA
ATOM     42  C   UNL A   1      40.771  32.363  30.553  1.00  0.00     0.031 C 
ATOM     43  C   UNL A   1      38.923  27.766  29.811  1.00  0.00     0.029 A 
ATOM     44  N   UNL A   1      41.008  28.165  29.109  1.00  0.00    -0.354 N 
ATOM     45  C   UNL A   1      42.811  32.043  29.561  1.00  0.00     0.074 A 
ATOM     46  C   UNL A   1      41.917  32.954  30.247  1.00  0.00     0.031 C 
ATOM     47  C   UNL A   1      39.380  26.639  29.238  1.00  0.00     0.029 A 
ATOM     48  C   UNL A   1      40.719  26.885  28.706  1.00  0.00     0.049 A 
ATOM     49  H   UNL A   1      41.890  28.586  28.984  1.00  0.00     0.167 HD
ATOM     50  C   UNL A   1      44.070  32.356  29.170  1.00  0.00     0.037 A 
ATOM     51  C   UNL A   1      41.433  26.024  27.956  1.00  0.00     0.037 A 
ATOM     52  C   UNL A   1      44.968  31.447  28.508  1.00  0.00     0.049 A 
ATOM     53  C   UNL A   1      42.805  26.408  27.473  1.00  0.00     0.074 A 
ATOM     54  C   UNL A   1      46.282  31.658  28.125  1.00  0.00     0.029 A 
ATOM     55  N   UNL A   1      44.641  30.157  28.122  1.00  0.00    -0.354 N 
ATOM     56  N   UNL A   1      43.454  27.534  27.642  1.00  0.00    -0.248 NA
ATOM     57  C   UNL A   1      43.547  25.398  26.703  1.00  0.00     0.031 C 
ATOM     58  C   UNL A   1      46.736  30.508  27.467  1.00  0.00     0.029 A 
ATOM     59  C   UNL A   1      45.718  29.568  27.477  1.00  0.00     0.049 A 
ATOM     60  H   UNL A   1      43.772  29.723  28.282  1.00  0.00     0.167 HD
ATOM     61  C   UNL A   1      44.686  27.361  27.024  1.00  0.00     0.074 A 
ATOM     62  C   UNL A   1      44.695  26.023  26.474  1.00  0.00     0.031 C 
ATOM     63  C   UNL A   1      45.719  28.235  26.933  1.00  0.00     0.037 A 
BRANCH  50  64
ATOM     64  C   UNL A   1      44.544  33.755  29.425  1.00  0.00     0.064 A 
ATOM     65  C   UNL A   1      45.241  34.097  30.592  1.00  0.00     0.173 A 
ATOM     66  C   UNL A   1      44.321  34.760  28.472  1.00  0.00     0.173 A 
ATOM     67  F   UNL A   1      45.468  33.174  31.538  1.00  0.00    -0.203 F 
ATOM     68  C   UNL A   1      45.675  35.403  30.810  1.00  0.00     0.198 A 
ATOM     69  C   UNL A   1      44.777  36.058  28.681  1.00  0.00     0.198 A 
ATOM     70  F   UNL A   1      43.665  34.481  27.336  1.00  0.00    -0.203 F 
ATOM     71  F   UNL A   1      46.301  35.718  31.951  1.00  0.00    -0.200 F 
ATOM     72  C   UNL A   1      45.446  36.380  29.851  1.00  0.00     0.200 A 
ATOM     73  F   UNL A   1      44.564  37.000  27.751  1.00  0.00    -0.200 F 
ATOM     74  F   UNL A   1      45.866  37.636  30.061  1.00  0.00    -0.200 F 
ENDBRANCH  50  64
BRANCH  51  75
ATOM     75  C   UNL A   1      40.834  24.718  27.589  1.00  0.00     0.064 A 
ATOM     76  C   UNL A   1      39.777  24.636  26.675  1.00  0.00     0.173 A 
ATOM     77  C   UNL A   1      41.324  23.522  28.137  1.00  0.00     0.173 A 
ATOM     78  F   UNL A   1      39.263  25.756  26.146  1.00  0.00    -0.203 F 
ATOM     79  C   UNL A   1      39.225  23.405  26.326  1.00  0.00     0.198 A 
ATOM     80  C   UNL A   1      40.781  22.291  27.776  1.00  0.00     0.198 A 
ATOM     81  F   UNL A   1      42.340  23.553  29.013  1.00  0.00    -0.203 F 
ATOM     82  F   UNL A   1      38.195  23.355  25.471  1.00  0.00    -0.200 F 
ATOM     83  C   UNL A   1      39.730  22.235  26.873  1.00  0.00     0.200 A 
ATOM     84  F   UNL A   1      41.270  21.164  28.311  1.00  0.00    -0.200 F 
ATOM     85  F   UNL A   1      39.198  21.053  26.536  1.00  0.00    -0.200 F 
ENDBRANCH  51  75
BRANCH  63  86
ATOM     86  C   UNL A   1      46.962  27.769  26.236  1.00  0.00     0.064 A 
ATOM     87  C   UNL A   1      47.084  27.819  24.841  1.00  0.00     0.173 A 
ATOM     88  C   UNL A   1      48.069  27.330  26.979  1.00  0.00     0.173 A 
ATOM     89  F   UNL A   1      46.048  28.218  24.088  1.00  0.00    -0.203 F 
ATOM     90  C   UNL A   1      48.266  27.435  24.212  1.00  0.00     0.198 A 
ATOM     91  C   UNL A   1      49.256  26.967  26.349  1.00  0.00     0.198 A 
ATOM     92  F   UNL A   1      48.004  27.270  28.318  1.00  0.00    -0.203 F 
ATOM     93  F   UNL A   1      48.352  27.464  22.875  1.00  0.00    -0.200 F 
ATOM     94  C   UNL A   1      49.353  27.018  24.967  1.00  0.00     0.200 A 
ATOM     95  F   UNL A   1      50.309  26.574  27.080  1.00  0.00    -0.200 F 
ATOM     96  F   UNL A   1      50.495  26.661  24.361  1.00  0.00    -0.200 F 
ENDBRANCH  63  86
ENDBRANCH  37  38
ENDBRANCH  30  32
ENDBRANCH  29  30
ENDBRANCH  28  29
ENDBRANCH  27  28
ENDBRANCH  26  27
ENDBRANCH  25  26
ENDBRANCH   1  25
TORSDOF 19
ENDMDL
MODEL 2
REMARK VINA RESULT:     -11.2      4.080      9.974
REMARK SMILES O=C(OCCOCCOCCOC(=O)c1ccc(-c2c3nc(c(-c4c(F)c(F)c(F)c(F)c4F)c4ccc([nH]4)c(-c4c(F)c(F)c(F)c(F)c4F)c4nc(c(-c5c(F)c(F)c(F)c(F)c5F)c5ccc2[nH]5)C=C4)C=C3)cc1)c1ccc(Cn2cc(Cl)c(=O)[nH]c2=O)cc1
REMARK SMILES IDX 7 1 6 2 5 3 4 4 3 5 2 6 1 7 78 8 79 9 93 10 80 11 92 12
REMARK SMILES IDX 81 13 82 14 83 15 84 16 90 17 85 18 89 19 91 20 86 21 87 22
REMARK SMILES IDX 88 24 8 25 9 26 10 27 11 28 12 29 13 30 14 31 15 32 16 33
REMARK SMILES IDX 77 34 17 35 76 36 18 37 19 38 20 39 70 40 21 41 75 42 69 43
REMARK SMILES IDX 71 44 22 45 74 46 68 47 67 48 23 50 55 51 35 52 54 53 36 54
REMARK SMILES IDX 39 55 53 56 72 57 37 58 38 59 52 61 73 62 40 63 24 64 25 65
REMARK SMILES IDX 33 66 26 67 27 68 31 69 34 70 28 71 29 72 32 73 30 74 56 75
REMARK SMILES IDX 57 76 65 77 58 78 59 79 63 80 66 81 60 82 61 83 64 84 62 85
REMARK SMILES IDX 41 86 42 87 50 88 43 89 44 90 48 91 51 92 45 93 46 94 49 95
REMARK SMILES IDX 47 96
REMARK H PARENT 89 23 71 49 39 60
REMARK Flexibility Score: inf
ROOT
ATOM      1  C   UNL A   1      41.779  21.594  27.810  1.00  0.00     0.188 C 
ENDROOT
BRANCH   1   2
ATOM      2  O   UNL A   1      40.569  22.343  27.647  1.00  0.00    -0.376 OA
BRANCH   2   3
ATOM      3  C   UNL A   1      40.117  22.450  26.302  1.00  0.00     0.202 C 
BRANCH   3   4
ATOM      4  C   UNL A   1      38.660  22.890  26.126  1.00  0.00     0.261 C 
BRANCH   4   5
ATOM      5  O   UNL A   1      37.713  21.807  26.168  1.00  0.00    -0.460 OA
BRANCH   5   6
ATOM      6  C   UNL A   1      37.180  21.212  25.074  1.00  0.00     0.338 C 
ATOM      7  O   UNL A   1      37.628  20.163  24.626  1.00  0.00    -0.246 OA
BRANCH   6   8
ATOM      8  C   UNL A   1      36.013  21.829  24.415  1.00  0.00     0.060 A 
ATOM      9  C   UNL A   1      36.183  22.818  23.446  1.00  0.00     0.016 A 
ATOM     10  C   UNL A   1      34.738  21.330  24.691  1.00  0.00     0.016 A 
ATOM     11  C   UNL A   1      35.074  23.366  22.804  1.00  0.00     0.006 A 
ATOM     12  C   UNL A   1      33.628  21.868  24.035  1.00  0.00     0.006 A 
ATOM     13  C   UNL A   1      33.786  22.897  23.093  1.00  0.00    -0.028 A 
BRANCH  13  14
ATOM     14  C   UNL A   1      32.579  23.525  22.429  1.00  0.00     0.162 C 
BRANCH  14  15
ATOM     15  N   UNL A   1      32.577  24.974  22.621  1.00  0.00    -0.295 N 
ATOM     16  C   UNL A   1      32.176  25.496  23.838  1.00  0.00     0.117 A 
ATOM     17  C   UNL A   1      32.903  25.788  21.543  1.00  0.00     0.328 A 
ATOM     18  C   UNL A   1      32.055  26.810  24.044  1.00  0.00     0.122 A 
ATOM     19  N   UNL A   1      32.807  27.135  21.775  1.00  0.00    -0.273 N 
ATOM     20  O   UNL A   1      33.235  25.368  20.437  1.00  0.00    -0.248 OA
ATOM     21  Cl  UNL A   1      31.514  27.449  25.541  1.00  0.00    -0.077 Cl
ATOM     22  C   UNL A   1      32.375  27.735  22.930  1.00  0.00     0.272 A 
ATOM     23  H   UNL A   1      33.074  27.732  21.039  1.00  0.00     0.175 HD
ATOM     24  O   UNL A   1      32.257  28.953  23.014  1.00  0.00    -0.268 OA
ENDBRANCH  14  15
ENDBRANCH  13  14
ENDBRANCH   6   8
ENDBRANCH   5   6
ENDBRANCH   4   5
ENDBRANCH   3   4
ENDBRANCH   2   3
ENDBRANCH   1   2
BRANCH   1  25
ATOM     25  C   UNL A   1      41.669  20.307  26.985  1.00  0.00     0.188 C 
BRANCH  25  26
ATOM     26  O   UNL A   1      42.278  19.165  27.596  1.00  0.00    -0.376 OA
BRANCH  26  27
ATOM     27  C   UNL A   1      42.739  18.134  26.725  1.00  0.00     0.202 C 
BRANCH  27  28
ATOM     28  C   UNL A   1      43.284  18.608  25.376  1.00  0.00     0.261 C 
BRANCH  28  29
ATOM     29  O   UNL A   1      44.702  18.422  25.215  1.00  0.00    -0.460 OA
BRANCH  29  30
ATOM     30  C   UNL A   1      45.289  19.280  24.347  1.00  0.00     0.338 C 
ATOM     31  O   UNL A   1      46.028  19.017  23.414  1.00  0.00    -0.246 OA
BRANCH  30  32
ATOM     32  C   UNL A   1      44.971  20.668  24.709  1.00  0.00     0.060 A 
ATOM     33  C   UNL A   1      44.633  21.587  23.708  1.00  0.00     0.016 A 
ATOM     34  C   UNL A   1      45.222  21.098  26.014  1.00  0.00     0.016 A 
ATOM     35  C   UNL A   1      44.590  22.953  24.007  1.00  0.00     0.010 A 
ATOM     36  C   UNL A   1      45.175  22.461  26.308  1.00  0.00     0.010 A 
ATOM     37  C   UNL A   1      44.900  23.401  25.299  1.00  0.00    -0.014 A 
BRANCH  37  38
ATOM     38  C   UNL A   1      45.072  24.845  25.605  1.00  0.00     0.031 A 
ATOM     39  C   UNL A   1      46.442  25.459  25.511  1.00  0.00     0.074 A 
ATOM     40  C   UNL A   1      44.042  25.587  26.045  1.00  0.00     0.049 A 
ATOM     41  N   UNL A   1      46.860  26.628  25.927  1.00  0.00    -0.248 NA
ATOM     42  C   UNL A   1      47.479  24.641  24.866  1.00  0.00     0.031 C 
ATOM     43  C   UNL A   1      42.659  25.136  26.135  1.00  0.00     0.029 A 
ATOM     44  N   UNL A   1      44.015  26.866  26.542  1.00  0.00    -0.354 N 
ATOM     45  C   UNL A   1      48.210  26.680  25.613  1.00  0.00     0.074 A 
ATOM     46  C   UNL A   1      48.547  25.418  24.986  1.00  0.00     0.031 C 
ATOM     47  C   UNL A   1      41.924  26.098  26.718  1.00  0.00     0.029 A 
ATOM     48  C   UNL A   1      42.795  27.221  27.061  1.00  0.00     0.049 A 
ATOM     49  H   UNL A   1      44.793  27.470  26.527  1.00  0.00     0.167 HD
ATOM     50  C   UNL A   1      49.089  27.690  25.822  1.00  0.00     0.037 A 
ATOM     51  C   UNL A   1      42.430  28.305  27.770  1.00  0.00     0.037 A 
ATOM     52  C   UNL A   1      48.753  28.953  26.425  1.00  0.00     0.049 A 
ATOM     53  C   UNL A   1      43.433  29.391  28.051  1.00  0.00     0.074 A 
ATOM     54  C   UNL A   1      49.565  30.057  26.625  1.00  0.00     0.029 A 
ATOM     55  N   UNL A   1      47.505  29.276  26.933  1.00  0.00    -0.354 N 
ATOM     56  N   UNL A   1      44.702  29.445  27.729  1.00  0.00    -0.248 NA
ATOM     57  C   UNL A   1      42.951  30.570  28.787  1.00  0.00     0.031 C 
ATOM     58  C   UNL A   1      48.817  31.033  27.295  1.00  0.00     0.029 A 
ATOM     59  C   UNL A   1      47.530  30.552  27.474  1.00  0.00     0.049 A 
ATOM     60  H   UNL A   1      46.717  28.687  26.912  1.00  0.00     0.167 HD
ATOM     61  C   UNL A   1      45.163  30.669  28.197  1.00  0.00     0.074 A 
ATOM     62  C   UNL A   1      44.040  31.327  28.829  1.00  0.00     0.031 C 
ATOM     63  C   UNL A   1      46.407  31.199  28.100  1.00  0.00     0.037 A 
BRANCH  50  64
ATOM     64  C   UNL A   1      50.514  27.458  25.418  1.00  0.00     0.064 A 
ATOM     65  C   UNL A   1      50.961  27.703  24.112  1.00  0.00     0.173 A 
ATOM     66  C   UNL A   1      51.452  27.012  26.362  1.00  0.00     0.173 A 
ATOM     67  F   UNL A   1      50.099  28.119  23.171  1.00  0.00    -0.203 F 
ATOM     68  C   UNL A   1      52.290  27.483  23.757  1.00  0.00     0.198 A 
ATOM     69  C   UNL A   1      52.783  26.817  26.010  1.00  0.00     0.198 A 
ATOM     70  F   UNL A   1      51.075  26.770  27.627  1.00  0.00    -0.203 F 
ATOM     71  F   UNL A   1      52.686  27.682  22.493  1.00  0.00    -0.200 F 
ATOM     72  C   UNL A   1      53.200  27.045  24.708  1.00  0.00     0.200 A 
ATOM     73  F   UNL A   1      53.664  26.402  26.932  1.00  0.00    -0.200 F 
ATOM     74  F   UNL A   1      54.479  26.836  24.366  1.00  0.00    -0.200 F 
ENDBRANCH  50  64
BRANCH  51  75
ATOM     75  C   UNL A   1      41.045  28.393  28.295  1.00  0.00     0.064 A 
ATOM     76  C   UNL A   1      40.735  27.978  29.594  1.00  0.00     0.173 A 
ATOM     77  C   UNL A   1      40.008  28.913  27.504  1.00  0.00     0.173 A 
ATOM     78  F   UNL A   1      41.691  27.453  30.375  1.00  0.00    -0.203 F 
ATOM     79  C   UNL A   1      39.434  28.072  30.086  1.00  0.00     0.198 A 
ATOM     80  C   UNL A   1      38.712  29.021  28.001  1.00  0.00     0.198 A 
ATOM     81  F   UNL A   1      40.262  29.328  26.254  1.00  0.00    -0.203 F 
ATOM     82  F   UNL A   1      39.156  27.642  31.324  1.00  0.00    -0.200 F 
ATOM     83  C   UNL A   1      38.426  28.597  29.290  1.00  0.00     0.200 A 
ATOM     84  F   UNL A   1      37.740  29.524  27.228  1.00  0.00    -0.200 F 
ATOM     85  F   UNL A   1      37.176  28.688  29.765  1.00  0.00    -0.200 F 
ENDBRANCH  51  75
BRANCH  63  86
ATOM     86  C   UNL A   1      46.622  32.572  28.665  1.00  0.00     0.064 A 
ATOM     87  C   UNL A   1      47.060  32.764  29.982  1.00  0.00     0.173 A 
ATOM     88  C   UNL A   1      46.450  33.706  27.856  1.00  0.00     0.173 A 
ATOM     89  F   UNL A   1      47.225  31.711  30.797  1.00  0.00    -0.203 F 
ATOM     90  C   UNL A   1      47.309  34.043  30.474  1.00  0.00     0.198 A 
ATOM     91  C   UNL A   1      46.719  34.982  28.344  1.00  0.00     0.198 A 
ATOM     92  F   UNL A   1      46.037  33.575  26.586  1.00  0.00    -0.203 F 
ATOM     93  F   UNL A   1      47.701  34.206  31.745  1.00  0.00    -0.200 F 
ATOM     94  C   UNL A   1      47.146  35.149  29.653  1.00  0.00     0.200 A 
ATOM     95  F   UNL A   1      46.572  36.049  27.546  1.00  0.00    -0.200 F 
ATOM     96  F   UNL A   1      47.398  36.379  30.124  1.00  0.00    -0.200 F 
ENDBRANCH  63  86
ENDBRANCH  37  38
ENDBRANCH  30  32
ENDBRANCH  29  30
ENDBRANCH  28  29
ENDBRANCH  27  28
ENDBRANCH  26  27
ENDBRANCH  25  26
ENDBRANCH   1  25
TORSDOF 19
ENDMDL
MODEL 3
REMARK VINA RESULT:     -11.1      5.262      7.341
REMARK SMILES O=C(OCCOCCOCCOC(=O)c1ccc(-c2c3nc(c(-c4c(F)c(F)c(F)c(F)c4F)c4ccc([nH]4)c(-c4c(F)c(F)c(F)c(F)c4F)c4nc(c(-c5c(F)c(F)c(F)c(F)c5F)c5ccc2[nH]5)C=C4)C=C3)cc1)c1ccc(Cn2cc(Cl)c(=O)[nH]c2=O)cc1
REMARK SMILES IDX 7 1 6 2 5 3 4 4 3 5 2 6 1 7 78 8 79 9 93 10 80 11 92 12
REMARK SMILES IDX 81 13 82 14 83 15 84 16 90 17 85 18 89 19 91 20 86 21 87 22
REMARK SMILES IDX 88 24 8 25 9 26 10 27 11 28 12 29 13 30 14 31 15 32 16 33
REMARK SMILES IDX 77 34 17 35 76 36 18 37 19 38 20 39 70 40 21 41 75 42 69 43
REMARK SMILES IDX 71 44 22 45 74 46 68 47 67 48 23 50 55 51 35 52 54 53 36 54
REMARK SMILES IDX 39 55 53 56 72 57 37 58 38 59 52 61 73 62 40 63 24 64 25 65
REMARK SMILES IDX 33 66 26 67 27 68 31 69 34 70 28 71 29 72 32 73 30 74 56 75
REMARK SMILES IDX 57 76 65 77 58 78 59 79 63 80 66 81 60 82 61 83 64 84 62 85
REMARK SMILES IDX 41 86 42 87 50 88 43 89 44 90 48 91 51 92 45 93 46 94 49 95
REMARK SMILES IDX 47 96
REMARK H PARENT 89 23 71 49 39 60
REMARK Flexibility Score: inf
ROOT
ATOM      1  C   UNL A   1      35.314  32.278  28.971  1.00  0.00     0.188 C 
ENDROOT
BRANCH   1   2
ATOM      2  O   UNL A   1      35.975  31.669  27.855  1.00  0.00    -0.376 OA
BRANCH   2   3
ATOM      3  C   UNL A   1      35.868  30.251  27.808  1.00  0.00     0.202 C 
BRANCH   3   4
ATOM      4  C   UNL A   1      34.485  29.703  27.443  1.00  0.00     0.261 C 
BRANCH   4   5
ATOM      5  O   UNL A   1      33.663  30.631  26.712  1.00  0.00    -0.460 OA
BRANCH   5   6
ATOM      6  C   UNL A   1      32.325  30.499  26.538  1.00  0.00     0.338 C 
ATOM      7  O   UNL A   1      31.565  31.456  26.626  1.00  0.00    -0.246 OA
BRANCH   6   8
ATOM      8  C   UNL A   1      31.769  29.173  26.211  1.00  0.00     0.060 A 
ATOM      9  C   UNL A   1      31.492  28.822  24.889  1.00  0.00     0.016 A 
ATOM     10  C   UNL A   1      31.631  28.228  27.231  1.00  0.00     0.016 A 
ATOM     11  C   UNL A   1      31.003  27.552  24.591  1.00  0.00     0.006 A 
ATOM     12  C   UNL A   1      31.157  26.949  26.929  1.00  0.00     0.006 A 
ATOM     13  C   UNL A   1      30.830  26.603  25.607  1.00  0.00    -0.028 A 
BRANCH  13  14
ATOM     14  C   UNL A   1      30.255  25.239  25.288  1.00  0.00     0.162 C 
BRANCH  14  15
ATOM     15  N   UNL A   1      31.202  24.182  25.640  1.00  0.00    -0.295 N 
ATOM     16  C   UNL A   1      32.338  24.005  24.871  1.00  0.00     0.117 A 
ATOM     17  C   UNL A   1      30.887  23.333  26.694  1.00  0.00     0.328 A 
ATOM     18  C   UNL A   1      33.189  22.997  25.078  1.00  0.00     0.122 A 
ATOM     19  N   UNL A   1      31.784  22.320  26.919  1.00  0.00    -0.273 N 
ATOM     20  O   UNL A   1      29.876  23.435  27.384  1.00  0.00    -0.248 OA
ATOM     21  Cl  UNL A   1      34.571  22.758  24.092  1.00  0.00    -0.077 Cl
ATOM     22  C   UNL A   1      32.905  22.045  26.179  1.00  0.00     0.272 A 
ATOM     23  H   UNL A   1      31.604  21.732  27.687  1.00  0.00     0.175 HD
ATOM     24  O   UNL A   1      33.607  21.069  26.419  1.00  0.00    -0.268 OA
ENDBRANCH  14  15
ENDBRANCH  13  14
ENDBRANCH   6   8
ENDBRANCH   5   6
ENDBRANCH   4   5
ENDBRANCH   3   4
ENDBRANCH   2   3
ENDBRANCH   1   2
BRANCH   1  25
ATOM     25  C   UNL A   1      35.562  33.789  28.918  1.00  0.00     0.188 C 
BRANCH  25  26
ATOM     26  O   UNL A   1      34.651  34.504  28.078  1.00  0.00    -0.376 OA
BRANCH  26  27
ATOM     27  C   UNL A   1      34.272  35.812  28.501  1.00  0.00     0.202 C 
BRANCH  27  28
ATOM     28  C   UNL A   1      32.935  35.903  29.239  1.00  0.00     0.261 C 
BRANCH  28  29
ATOM     29  O   UNL A   1      32.808  34.990  30.345  1.00  0.00    -0.460 OA
BRANCH  29  30
ATOM     30  C   UNL A   1      32.857  35.573  31.566  1.00  0.00     0.338 C 
ATOM     31  O   UNL A   1      32.173  36.487  31.991  1.00  0.00    -0.246 OA
BRANCH  30  32
ATOM     32  C   UNL A   1      33.941  34.987  32.367  1.00  0.00     0.060 A 
ATOM     33  C   UNL A   1      35.215  35.565  32.340  1.00  0.00     0.016 A 
ATOM     34  C   UNL A   1      33.737  33.743  32.969  1.00  0.00     0.016 A 
ATOM     35  C   UNL A   1      36.304  34.871  32.879  1.00  0.00     0.010 A 
ATOM     36  C   UNL A   1      34.825  33.055  33.508  1.00  0.00     0.010 A 
ATOM     37  C   UNL A   1      36.122  33.594  33.430  1.00  0.00    -0.014 A 
BRANCH  37  38
ATOM     38  C   UNL A   1      37.272  32.739  33.819  1.00  0.00     0.031 A 
ATOM     39  C   UNL A   1      38.026  33.049  35.084  1.00  0.00     0.074 A 
ATOM     40  C   UNL A   1      37.701  31.749  33.018  1.00  0.00     0.049 A 
ATOM     41  N   UNL A   1      39.171  32.577  35.506  1.00  0.00    -0.248 NA
ATOM     42  C   UNL A   1      37.404  34.028  35.988  1.00  0.00     0.031 C 
ATOM     43  C   UNL A   1      37.039  31.309  31.797  1.00  0.00     0.029 A 
ATOM     44  N   UNL A   1      38.825  30.965  33.096  1.00  0.00    -0.354 N 
ATOM     45  C   UNL A   1      39.418  33.213  36.715  1.00  0.00     0.074 A 
ATOM     46  C   UNL A   1      38.312  34.118  36.950  1.00  0.00     0.031 C 
ATOM     47  C   UNL A   1      37.801  30.378  31.199  1.00  0.00     0.029 A 
ATOM     48  C   UNL A   1      39.015  30.178  31.988  1.00  0.00     0.049 A 
ATOM     49  H   UNL A   1      39.435  30.968  33.869  1.00  0.00     0.167 HD
ATOM     50  C   UNL A   1      40.469  33.053  37.555  1.00  0.00     0.037 A 
ATOM     51  C   UNL A   1      40.065  29.416  31.628  1.00  0.00     0.037 A 
ATOM     52  C   UNL A   1      41.559  32.140  37.335  1.00  0.00     0.049 A 
ATOM     53  C   UNL A   1      41.254  29.297  32.542  1.00  0.00     0.074 A 
ATOM     54  C   UNL A   1      42.638  31.868  38.159  1.00  0.00     0.029 A 
ATOM     55  N   UNL A   1      41.713  31.354  36.203  1.00  0.00    -0.354 N 
ATOM     56  N   UNL A   1      41.471  29.881  33.695  1.00  0.00    -0.248 NA
ATOM     57  C   UNL A   1      42.342  28.407  32.108  1.00  0.00     0.031 C 
ATOM     58  C   UNL A   1      43.468  30.950  37.505  1.00  0.00     0.029 A 
ATOM     59  C   UNL A   1      42.885  30.620  36.292  1.00  0.00     0.049 A 
ATOM     60  H   UNL A   1      41.082  31.323  35.448  1.00  0.00     0.167 HD
ATOM     61  C   UNL A   1      42.702  29.412  34.136  1.00  0.00     0.074 A 
ATOM     62  C   UNL A   1      43.188  28.497  33.127  1.00  0.00     0.031 C 
ATOM     63  C   UNL A   1      43.361  29.710  35.283  1.00  0.00     0.037 A 
BRANCH  50  64
ATOM     64  C   UNL A   1      40.505  33.909  38.785  1.00  0.00     0.064 A 
ATOM     65  C   UNL A   1      39.906  33.503  39.986  1.00  0.00     0.173 A 
ATOM     66  C   UNL A   1      41.174  35.143  38.767  1.00  0.00     0.173 A 
ATOM     67  F   UNL A   1      39.245  32.337  40.049  1.00  0.00    -0.203 F 
ATOM     68  C   UNL A   1      39.951  34.313  41.118  1.00  0.00     0.198 A 
ATOM     69  C   UNL A   1      41.239  35.938  39.907  1.00  0.00     0.198 A 
ATOM     70  F   UNL A   1      41.768  35.573  37.644  1.00  0.00    -0.203 F 
ATOM     71  F   UNL A   1      39.336  33.924  42.243  1.00  0.00    -0.200 F 
ATOM     72  C   UNL A   1      40.622  35.527  41.078  1.00  0.00     0.200 A 
ATOM     73  F   UNL A   1      41.895  37.107  39.871  1.00  0.00    -0.200 F 
ATOM     74  F   UNL A   1      40.667  36.304  42.170  1.00  0.00    -0.200 F 
ENDBRANCH  50  64
BRANCH  51  75
ATOM     75  C   UNL A   1      40.044  28.731  30.313  1.00  0.00     0.064 A 
ATOM     76  C   UNL A   1      40.611  29.321  29.179  1.00  0.00     0.173 A 
ATOM     77  C   UNL A   1      39.466  27.459  30.174  1.00  0.00     0.173 A 
ATOM     78  F   UNL A   1      41.153  30.546  29.263  1.00  0.00    -0.203 F 
ATOM     79  C   UNL A   1      40.597  28.669  27.948  1.00  0.00     0.198 A 
ATOM     80  C   UNL A   1      39.465  26.801  28.946  1.00  0.00     0.198 A 
ATOM     81  F   UNL A   1      38.914  26.853  31.237  1.00  0.00    -0.203 F 
ATOM     82  F   UNL A   1      41.122  29.267  26.870  1.00  0.00    -0.200 F 
ATOM     83  C   UNL A   1      40.029  27.408  27.834  1.00  0.00     0.200 A 
ATOM     84  F   UNL A   1      38.911  25.586  28.840  1.00  0.00    -0.200 F 
ATOM     85  F   UNL A   1      40.017  26.782  26.650  1.00  0.00    -0.200 F 
ENDBRANCH  51  75
BRANCH  63  86
ATOM     86  C   UNL A   1      44.671  29.022  35.529  1.00  0.00     0.064 A 
ATOM     87  C   UNL A   1      45.888  29.605  35.152  1.00  0.00     0.173 A 
ATOM     88  C   UNL A   1      44.710  27.795  36.210  1.00  0.00     0.173 A 
ATOM     89  F   UNL A   1      45.900  30.770  34.487  1.00  0.00    -0.203 F 
ATOM     90  C   UNL A   1      47.099  28.979  35.438  1.00  0.00     0.198 A 
ATOM     91  C   UNL A   1      45.923  27.183  36.512  1.00  0.00     0.198 A 
ATOM     92  F   UNL A   1      43.572  27.200  36.596  1.00  0.00    -0.203 F 
ATOM     93  F   UNL A   1      48.251  29.540  35.044  1.00  0.00    -0.200 F 
ATOM     94  C   UNL A   1      47.116  27.774  36.124  1.00  0.00     0.200 A 
ATOM     95  F   UNL A   1      45.938  26.023  37.185  1.00  0.00    -0.200 F 
ATOM     96  F   UNL A   1      48.283  27.179  36.409  1.00  0.00    -0.200 F 
ENDBRANCH  63  86
ENDBRANCH  37  38
ENDBRANCH  30  32
ENDBRANCH  29  30
ENDBRANCH  28  29
ENDBRANCH  27  28
ENDBRANCH  26  27
ENDBRANCH  25  26
ENDBRANCH   1  25
TORSDOF 19
ENDMDL
