MODEL 1
REMARK VINA RESULT:      -9.6      0.000      0.000
REMARK SMILES C[C@@H](C(=O)OCCOCCOCCOC(=O)c1ccc(-c2c3nc(c(-c4c(F)c(F)c(F)c(F)c4F)c4ccc([nH]4)c(-c4c(F)c(F)c(F)c(F)c4F)c4nc(c(-c5c(F)c(F)c(F)c(F)c5F)c5ccc2[nH]5)C=C4)C=C3)cc1)n1ccc(C(=O)N2CC[NH+](Cc3cccc(F)c3)CC2)n1
REMARK SMILES IDX 9 1 8 2 7 3 6 4 5 5 3 6 4 7 2 8 1 9 80 10 81 11 100 12 82 13
REMARK SMILES IDX 83 14 84 15 85 16 86 17 87 18 99 19 88 20 98 21 89 22 90 24
REMARK SMILES IDX 91 25 92 26 97 27 93 28 95 29 94 30 96 31 10 32 11 33 12 34
REMARK SMILES IDX 13 35 14 36 15 37 16 38 17 39 18 40 79 41 19 42 78 43 20 44
REMARK SMILES IDX 21 45 22 46 72 47 23 48 77 49 71 50 73 51 24 52 76 53 70 54
REMARK SMILES IDX 69 55 25 57 57 58 37 59 56 60 38 61 41 62 55 63 74 64 39 65
REMARK SMILES IDX 40 66 54 68 75 69 42 70 26 71 27 72 35 73 28 74 29 75 33 76
REMARK SMILES IDX 36 77 30 78 31 79 34 80 32 81 58 82 59 83 67 84 60 85 61 86
REMARK SMILES IDX 65 87 68 88 62 89 63 90 66 91 64 92 43 93 44 94 52 95 45 96
REMARK SMILES IDX 46 97 50 98 53 99 47 100 48 101 51 102 49 103
REMARK H PARENT 89 23 73 56 41 67
REMARK Flexibility Score: inf
ROOT
ATOM      1  C   UNL A   1      40.163  21.451  26.819  1.00  0.00     0.188 C 
ENDROOT
BRANCH   1   2
ATOM      2  O   UNL A   1      39.501  22.319  25.905  1.00  0.00    -0.376 OA
BRANCH   2   3
ATOM      3  C   UNL A   1      38.425  23.122  26.382  1.00  0.00     0.202 C 
BRANCH   3   4
ATOM      4  C   UNL A   1      37.424  23.698  25.363  1.00  0.00     0.261 C 
BRANCH   4   5
ATOM      5  O   UNL A   1      36.339  22.812  25.000  1.00  0.00    -0.462 OA
BRANCH   5   6
ATOM      6  C   UNL A   1      35.809  22.976  23.759  1.00  0.00     0.330 C 
ATOM      7  O   UNL A   1      36.489  23.057  22.739  1.00  0.00    -0.250 OA
BRANCH   6   8
ATOM      8  C   UNL A   1      34.280  23.021  23.716  1.00  0.00     0.213 C 
ATOM      9  C   UNL A   1      33.601  22.710  22.378  1.00  0.00     0.046 C 
BRANCH   8  10
ATOM     10  N   UNL A   1      33.780  24.216  24.407  1.00  0.00    -0.258 N 
ATOM     11  C   UNL A   1      33.276  24.226  25.679  1.00  0.00     0.110 A 
ATOM     12  N   UNL A   1      33.717  25.437  23.809  1.00  0.00    -0.167 NA
ATOM     13  C   UNL A   1      32.840  25.501  25.911  1.00  0.00     0.056 A 
ATOM     14  C   UNL A   1      33.107  26.230  24.718  1.00  0.00     0.150 A 
BRANCH  14  15
ATOM     15  C   UNL A   1      32.852  27.684  24.603  1.00  0.00     0.274 C 
ATOM     16  O   UNL A   1      32.467  28.133  23.520  1.00  0.00    -0.267 OA
ATOM     17  N   UNL A   1      32.941  28.524  25.725  1.00  0.00    -0.326 N 
ATOM     18  C   UNL A   1      32.310  29.831  25.568  1.00  0.00     0.181 C 
ATOM     19  C   UNL A   1      34.097  28.493  26.619  1.00  0.00     0.181 C 
ATOM     20  C   UNL A   1      32.112  30.589  26.888  1.00  0.00     0.284 C 
ATOM     21  C   UNL A   1      33.963  29.397  27.869  1.00  0.00     0.284 C 
ATOM     22  N   UNL A   1      33.324  30.712  27.704  1.00  0.00    -0.328 N 
ATOM     23  H   UNL A   1      33.049  30.994  28.645  1.00  0.00     0.348 HD
BRANCH  22  24
ATOM     24  C   UNL A   1      34.192  31.852  27.364  1.00  0.00     0.299 C 
BRANCH  24  25
ATOM     25  C   UNL A   1      35.042  32.422  28.476  1.00  0.00     0.009 A 
ATOM     26  C   UNL A   1      36.272  33.031  28.190  1.00  0.00     0.010 A 
ATOM     27  C   UNL A   1      34.557  32.469  29.796  1.00  0.00     0.048 A 
ATOM     28  C   UNL A   1      36.935  33.787  29.160  1.00  0.00     0.004 A 
ATOM     29  C   UNL A   1      35.211  33.249  30.748  1.00  0.00     0.123 A 
ATOM     30  C   UNL A   1      36.381  33.927  30.431  1.00  0.00     0.039 A 
ATOM     31  F   UNL A   1      34.655  33.418  31.954  1.00  0.00    -0.207 F 
ENDBRANCH  24  25
ENDBRANCH  22  24
ENDBRANCH  14  15
ENDBRANCH   8  10
ENDBRANCH   6   8
ENDBRANCH   5   6
ENDBRANCH   4   5
ENDBRANCH   3   4
ENDBRANCH   2   3
ENDBRANCH   1   2
BRANCH   1  32
ATOM     32  C   UNL A   1      41.704  21.411  26.836  1.00  0.00     0.188 C 
BRANCH  32  33
ATOM     33  O   UNL A   1      42.275  20.684  25.773  1.00  0.00    -0.376 OA
BRANCH  33  34
ATOM     34  C   UNL A   1      43.590  21.016  25.368  1.00  0.00     0.202 C 
BRANCH  34  35
ATOM     35  C   UNL A   1      43.991  22.482  25.101  1.00  0.00     0.261 C 
BRANCH  35  36
ATOM     36  O   UNL A   1      45.124  23.001  25.817  1.00  0.00    -0.460 OA
BRANCH  36  37
ATOM     37  C   UNL A   1      45.817  24.010  25.245  1.00  0.00     0.338 C 
ATOM     38  O   UNL A   1      46.515  23.957  24.242  1.00  0.00    -0.246 OA
BRANCH  37  39
ATOM     39  C   UNL A   1      45.446  25.259  25.938  1.00  0.00     0.060 A 
ATOM     40  C   UNL A   1      44.802  26.259  25.215  1.00  0.00     0.016 A 
ATOM     41  C   UNL A   1      45.720  25.453  27.293  1.00  0.00     0.016 A 
ATOM     42  C   UNL A   1      44.404  27.426  25.854  1.00  0.00     0.010 A 
ATOM     43  C   UNL A   1      45.399  26.680  27.902  1.00  0.00     0.010 A 
ATOM     44  C   UNL A   1      44.776  27.703  27.170  1.00  0.00    -0.014 A 
BRANCH  44  45
ATOM     45  C   UNL A   1      44.708  29.118  27.657  1.00  0.00     0.031 A 
ATOM     46  C   UNL A   1      43.515  29.554  28.479  1.00  0.00     0.074 A 
ATOM     47  C   UNL A   1      45.749  29.969  27.555  1.00  0.00     0.049 A 
ATOM     48  N   UNL A   1      43.212  30.736  28.958  1.00  0.00    -0.248 NA
ATOM     49  C   UNL A   1      42.550  28.504  28.844  1.00  0.00     0.031 C 
ATOM     50  C   UNL A   1      47.051  29.653  26.970  1.00  0.00     0.029 A 
ATOM     51  N   UNL A   1      45.880  31.276  27.971  1.00  0.00    -0.354 N 
ATOM     52  C   UNL A   1      42.017  30.577  29.651  1.00  0.00     0.074 A 
ATOM     53  C   UNL A   1      41.647  29.183  29.534  1.00  0.00     0.031 C 
ATOM     54  C   UNL A   1      47.847  30.731  27.069  1.00  0.00     0.029 A 
ATOM     55  C   UNL A   1      47.089  31.840  27.642  1.00  0.00     0.049 A 
ATOM     56  H   UNL A   1      45.174  31.760  28.457  1.00  0.00     0.167 HD
ATOM     57  C   UNL A   1      41.289  31.504  30.318  1.00  0.00     0.037 A 
ATOM     58  C   UNL A   1      47.521  33.115  27.732  1.00  0.00     0.037 A 
ATOM     59  C   UNL A   1      41.645  32.893  30.442  1.00  0.00     0.049 A 
ATOM     60  C   UNL A   1      46.616  34.172  28.314  1.00  0.00     0.074 A 
ATOM     61  C   UNL A   1      40.929  33.918  31.037  1.00  0.00     0.029 A 
ATOM     62  N   UNL A   1      42.821  33.455  29.969  1.00  0.00    -0.354 N 
ATOM     63  N   UNL A   1      45.433  34.042  28.864  1.00  0.00    -0.248 NA
ATOM     64  C   UNL A   1      47.099  35.561  28.268  1.00  0.00     0.031 C 
ATOM     65  C   UNL A   1      41.635  35.111  30.858  1.00  0.00     0.029 A 
ATOM     66  C   UNL A   1      42.827  34.819  30.219  1.00  0.00     0.049 A 
ATOM     67  H   UNL A   1      43.543  32.958  29.519  1.00  0.00     0.167 HD
ATOM     68  C   UNL A   1      45.047  35.318  29.253  1.00  0.00     0.074 A 
ATOM     69  C   UNL A   1      46.126  36.212  28.889  1.00  0.00     0.031 C 
ATOM     70  C   UNL A   1      43.900  35.711  29.860  1.00  0.00     0.037 A 
BRANCH  57  71
ATOM     71  C   UNL A   1      39.978  31.064  30.904  1.00  0.00     0.064 A 
ATOM     72  C   UNL A   1      39.771  30.974  32.288  1.00  0.00     0.173 A 
ATOM     73  C   UNL A   1      38.897  30.770  30.057  1.00  0.00     0.173 A 
ATOM     74  F   UNL A   1      40.778  31.223  33.139  1.00  0.00    -0.203 F 
ATOM     75  C   UNL A   1      38.534  30.589  32.801  1.00  0.00     0.198 A 
ATOM     76  C   UNL A   1      37.655  30.416  30.574  1.00  0.00     0.198 A 
ATOM     77  F   UNL A   1      39.043  30.843  28.726  1.00  0.00    -0.203 F 
ATOM     78  F   UNL A   1      38.369  30.467  34.125  1.00  0.00    -0.200 F 
ATOM     79  C   UNL A   1      37.476  30.320  31.945  1.00  0.00     0.200 A 
ATOM     80  F   UNL A   1      36.632  30.170  29.743  1.00  0.00    -0.200 F 
ATOM     81  F   UNL A   1      36.284  29.960  32.441  1.00  0.00    -0.200 F 
ENDBRANCH  57  71
BRANCH  58  82
ATOM     82  C   UNL A   1      48.845  33.491  27.160  1.00  0.00     0.064 A 
ATOM     83  C   UNL A   1      50.046  33.191  27.817  1.00  0.00     0.173 A 
ATOM     84  C   UNL A   1      48.927  34.208  25.955  1.00  0.00     0.173 A 
ATOM     85  F   UNL A   1      50.026  32.549  28.995  1.00  0.00    -0.203 F 
ATOM     86  C   UNL A   1      51.273  33.601  27.296  1.00  0.00     0.198 A 
ATOM     87  C   UNL A   1      50.154  34.583  25.416  1.00  0.00     0.198 A 
ATOM     88  F   UNL A   1      47.809  34.546  25.295  1.00  0.00    -0.203 F 
ATOM     89  F   UNL A   1      52.403  33.355  27.974  1.00  0.00    -0.200 F 
ATOM     90  C   UNL A   1      51.327  34.288  26.092  1.00  0.00     0.200 A 
ATOM     91  F   UNL A   1      50.199  35.240  24.249  1.00  0.00    -0.200 F 
ATOM     92  F   UNL A   1      52.507  34.679  25.591  1.00  0.00    -0.200 F 
ENDBRANCH  58  82
BRANCH  70  93
ATOM     93  C   UNL A   1      43.753  37.167  30.205  1.00  0.00     0.064 A 
ATOM     94  C   UNL A   1      43.239  38.098  29.289  1.00  0.00     0.173 A 
ATOM     95  C   UNL A   1      44.087  37.631  31.488  1.00  0.00     0.173 A 
ATOM     96  F   UNL A   1      42.911  37.712  28.047  1.00  0.00    -0.203 F 
ATOM     97  C   UNL A   1      43.097  39.440  29.634  1.00  0.00     0.198 A 
ATOM     98  C   UNL A   1      43.911  38.966  31.840  1.00  0.00     0.198 A 
ATOM     99  F   UNL A   1      44.571  36.784  32.409  1.00  0.00    -0.203 F 
ATOM    100  F   UNL A   1      42.653  40.319  28.725  1.00  0.00    -0.200 F 
ATOM    101  C   UNL A   1      43.425  39.872  30.909  1.00  0.00     0.200 A 
ATOM    102  F   UNL A   1      44.211  39.377  33.080  1.00  0.00    -0.200 F 
ATOM    103  F   UNL A   1      43.278  41.161  31.242  1.00  0.00    -0.200 F 
ENDBRANCH  70  93
ENDBRANCH  44  45
ENDBRANCH  37  39
ENDBRANCH  36  37
ENDBRANCH  35  36
ENDBRANCH  34  35
ENDBRANCH  33  34
ENDBRANCH  32  33
ENDBRANCH   1  32
TORSDOF 21
ENDMDL
MODEL 2
REMARK VINA RESULT:      -9.5      6.155      9.930
REMARK SMILES C[C@@H](C(=O)OCCOCCOCCOC(=O)c1ccc(-c2c3nc(c(-c4c(F)c(F)c(F)c(F)c4F)c4ccc([nH]4)c(-c4c(F)c(F)c(F)c(F)c4F)c4nc(c(-c5c(F)c(F)c(F)c(F)c5F)c5ccc2[nH]5)C=C4)C=C3)cc1)n1ccc(C(=O)N2CC[NH+](Cc3cccc(F)c3)CC2)n1
REMARK SMILES IDX 9 1 8 2 7 3 6 4 5 5 3 6 4 7 2 8 1 9 80 10 81 11 100 12 82 13
REMARK SMILES IDX 83 14 84 15 85 16 86 17 87 18 99 19 88 20 98 21 89 22 90 24
REMARK SMILES IDX 91 25 92 26 97 27 93 28 95 29 94 30 96 31 10 32 11 33 12 34
REMARK SMILES IDX 13 35 14 36 15 37 16 38 17 39 18 40 79 41 19 42 78 43 20 44
REMARK SMILES IDX 21 45 22 46 72 47 23 48 77 49 71 50 73 51 24 52 76 53 70 54
REMARK SMILES IDX 69 55 25 57 57 58 37 59 56 60 38 61 41 62 55 63 74 64 39 65
REMARK SMILES IDX 40 66 54 68 75 69 42 70 26 71 27 72 35 73 28 74 29 75 33 76
REMARK SMILES IDX 36 77 30 78 31 79 34 80 32 81 58 82 59 83 67 84 60 85 61 86
REMARK SMILES IDX 65 87 68 88 62 89 63 90 66 91 64 92 43 93 44 94 52 95 45 96
REMARK SMILES IDX 46 97 50 98 53 99 47 100 48 101 51 102 49 103
REMARK H PARENT 89 23 73 56 41 67
REMARK Flexibility Score: inf
ROOT
ATOM      1  C   UNL A   1      40.123  27.184  27.609  1.00  0.00     0.188 C 
ENDROOT
BRANCH   1   2
ATOM      2  O   UNL A   1      39.468  26.009  28.075  1.00  0.00    -0.376 OA
BRANCH   2   3
ATOM      3  C   UNL A   1      39.872  24.747  27.551  1.00  0.00     0.202 C 
BRANCH   3   4
ATOM      4  C   UNL A   1      39.192  24.224  26.273  1.00  0.00     0.261 C 
BRANCH   4   5
ATOM      5  O   UNL A   1      37.853  23.706  26.459  1.00  0.00    -0.462 OA
BRANCH   5   6
ATOM      6  C   UNL A   1      37.258  23.155  25.368  1.00  0.00     0.330 C 
ATOM      7  O   UNL A   1      37.205  23.711  24.273  1.00  0.00    -0.250 OA
BRANCH   6   8
ATOM      8  C   UNL A   1      36.677  21.756  25.592  1.00  0.00     0.213 C 
ATOM      9  C   UNL A   1      37.449  20.568  25.009  1.00  0.00     0.046 C 
BRANCH   8  10
ATOM     10  N   UNL A   1      35.233  21.751  25.333  1.00  0.00    -0.258 N 
ATOM     11  C   UNL A   1      34.565  20.764  24.661  1.00  0.00     0.110 A 
ATOM     12  N   UNL A   1      34.419  22.781  25.694  1.00  0.00    -0.167 NA
ATOM     13  C   UNL A   1      33.267  21.180  24.555  1.00  0.00     0.056 A 
ATOM     14  C   UNL A   1      33.210  22.453  25.189  1.00  0.00     0.150 A 
BRANCH  14  15
ATOM     15  C   UNL A   1      31.942  23.199  25.355  1.00  0.00     0.274 C 
ATOM     16  O   UNL A   1      30.995  22.640  25.914  1.00  0.00    -0.267 OA
ATOM     17  N   UNL A   1      31.844  24.550  24.983  1.00  0.00    -0.326 N 
ATOM     18  C   UNL A   1      30.695  25.260  25.535  1.00  0.00     0.181 C 
ATOM     19  C   UNL A   1      32.301  25.022  23.677  1.00  0.00     0.181 C 
ATOM     20  C   UNL A   1      30.787  26.788  25.409  1.00  0.00     0.284 C 
ATOM     21  C   UNL A   1      32.230  26.559  23.492  1.00  0.00     0.284 C 
ATOM     22  N   UNL A   1      31.070  27.268  24.053  1.00  0.00    -0.328 N 
ATOM     23  H   UNL A   1      31.359  28.244  24.114  1.00  0.00     0.348 HD
BRANCH  22  24
ATOM     24  C   UNL A   1      29.888  27.428  23.190  1.00  0.00     0.299 C 
BRANCH  24  25
ATOM     25  C   UNL A   1      29.261  28.803  23.135  1.00  0.00     0.009 A 
ATOM     26  C   UNL A   1      27.952  28.969  22.661  1.00  0.00     0.010 A 
ATOM     27  C   UNL A   1      29.929  29.917  23.677  1.00  0.00     0.048 A 
ATOM     28  C   UNL A   1      27.275  30.177  22.850  1.00  0.00     0.004 A 
ATOM     29  C   UNL A   1      29.235  31.107  23.886  1.00  0.00     0.123 A 
ATOM     30  C   UNL A   1      27.907  31.235  23.499  1.00  0.00     0.039 A 
ATOM     31  F   UNL A   1      29.829  32.107  24.549  1.00  0.00    -0.207 F 
ENDBRANCH  24  25
ENDBRANCH  22  24
ENDBRANCH  14  15
ENDBRANCH   8  10
ENDBRANCH   6   8
ENDBRANCH   5   6
ENDBRANCH   4   5
ENDBRANCH   3   4
ENDBRANCH   2   3
ENDBRANCH   1   2
BRANCH   1  32
ATOM     32  C   UNL A   1      39.460  28.557  27.841  1.00  0.00     0.188 C 
BRANCH  32  33
ATOM     33  O   UNL A   1      38.358  28.525  28.717  1.00  0.00    -0.376 OA
BRANCH  33  34
ATOM     34  C   UNL A   1      37.424  29.586  28.651  1.00  0.00     0.202 C 
BRANCH  34  35
ATOM     35  C   UNL A   1      36.283  29.705  29.684  1.00  0.00     0.261 C 
BRANCH  35  36
ATOM     36  O   UNL A   1      36.584  29.362  31.047  1.00  0.00    -0.460 OA
BRANCH  36  37
ATOM     37  C   UNL A   1      37.245  30.277  31.790  1.00  0.00     0.338 C 
ATOM     38  O   UNL A   1      36.824  31.355  32.188  1.00  0.00    -0.246 OA
BRANCH  37  39
ATOM     39  C   UNL A   1      38.528  29.678  32.204  1.00  0.00     0.060 A 
ATOM     40  C   UNL A   1      39.637  30.506  32.346  1.00  0.00     0.016 A 
ATOM     41  C   UNL A   1      38.648  28.311  32.462  1.00  0.00     0.016 A 
ATOM     42  C   UNL A   1      40.846  29.975  32.777  1.00  0.00     0.010 A 
ATOM     43  C   UNL A   1      39.902  27.772  32.801  1.00  0.00     0.010 A 
ATOM     44  C   UNL A   1      41.031  28.598  32.917  1.00  0.00    -0.014 A 
BRANCH  44  45
ATOM     45  C   UNL A   1      42.427  28.058  32.950  1.00  0.00     0.031 A 
ATOM     46  C   UNL A   1      43.105  27.858  34.288  1.00  0.00     0.074 A 
ATOM     47  C   UNL A   1      43.039  27.566  31.853  1.00  0.00     0.049 A 
ATOM     48  N   UNL A   1      44.323  27.459  34.562  1.00  0.00    -0.248 NA
ATOM     49  C   UNL A   1      42.282  28.104  35.483  1.00  0.00     0.031 C 
ATOM     50  C   UNL A   1      42.456  27.494  30.515  1.00  0.00     0.029 A 
ATOM     51  N   UNL A   1      44.288  27.005  31.702  1.00  0.00    -0.354 N 
ATOM     52  C   UNL A   1      44.419  27.435  35.948  1.00  0.00     0.074 A 
ATOM     53  C   UNL A   1      43.136  27.857  36.465  1.00  0.00     0.031 C 
ATOM     54  C   UNL A   1      43.341  26.919  29.683  1.00  0.00     0.029 A 
ATOM     55  C   UNL A   1      44.585  26.662  30.404  1.00  0.00     0.049 A 
ATOM     56  H   UNL A   1      44.910  26.863  32.452  1.00  0.00     0.167 HD
ATOM     57  C   UNL A   1      45.479  27.100  36.723  1.00  0.00     0.037 A 
ATOM     58  C   UNL A   1      45.739  26.246  29.844  1.00  0.00     0.037 A 
ATOM     59  C   UNL A   1      46.761  26.679  36.223  1.00  0.00     0.049 A 
ATOM     60  C   UNL A   1      46.963  26.056  30.705  1.00  0.00     0.074 A 
ATOM     61  C   UNL A   1      47.913  26.391  36.934  1.00  0.00     0.029 A 
ATOM     62  N   UNL A   1      47.062  26.478  34.884  1.00  0.00    -0.354 N 
ATOM     63  N   UNL A   1      47.085  26.148  32.007  1.00  0.00    -0.248 NA
ATOM     64  C   UNL A   1      48.218  25.723  30.014  1.00  0.00     0.031 C 
ATOM     65  C   UNL A   1      48.930  26.089  36.024  1.00  0.00     0.029 A 
ATOM     66  C   UNL A   1      48.393  26.114  34.749  1.00  0.00     0.049 A 
ATOM     67  H   UNL A   1      46.424  26.581  34.140  1.00  0.00     0.167 HD
ATOM     68  C   UNL A   1      48.414  25.857  32.290  1.00  0.00     0.074 A 
ATOM     69  C   UNL A   1      49.059  25.573  31.027  1.00  0.00     0.031 C 
ATOM     70  C   UNL A   1      49.039  25.828  33.493  1.00  0.00     0.037 A 
BRANCH  57  71
ATOM     71  C   UNL A   1      45.325  27.252  38.209  1.00  0.00     0.064 A 
ATOM     72  C   UNL A   1      44.802  26.232  39.015  1.00  0.00     0.173 A 
ATOM     73  C   UNL A   1      45.754  28.433  38.838  1.00  0.00     0.173 A 
ATOM     74  F   UNL A   1      44.358  25.094  38.461  1.00  0.00    -0.203 F 
ATOM     75  C   UNL A   1      44.699  26.395  40.396  1.00  0.00     0.198 A 
ATOM     76  C   UNL A   1      45.677  28.580  40.219  1.00  0.00     0.198 A 
ATOM     77  F   UNL A   1      46.263  29.439  38.112  1.00  0.00    -0.203 F 
ATOM     78  F   UNL A   1      44.156  25.425  41.144  1.00  0.00    -0.200 F 
ATOM     79  C   UNL A   1      45.144  27.563  40.997  1.00  0.00     0.200 A 
ATOM     80  F   UNL A   1      46.122  29.705  40.797  1.00  0.00    -0.200 F 
ATOM     81  F   UNL A   1      45.053  27.714  42.325  1.00  0.00    -0.200 F 
ENDBRANCH  57  71
BRANCH  58  82
ATOM     82  C   UNL A   1      45.827  26.081  28.365  1.00  0.00     0.064 A 
ATOM     83  C   UNL A   1      45.716  24.825  27.754  1.00  0.00     0.173 A 
ATOM     84  C   UNL A   1      46.075  27.187  27.535  1.00  0.00     0.173 A 
ATOM     85  F   UNL A   1      45.527  23.728  28.502  1.00  0.00    -0.203 F 
ATOM     86  C   UNL A   1      45.859  24.681  26.374  1.00  0.00     0.198 A 
ATOM     87  C   UNL A   1      46.179  27.047  26.154  1.00  0.00     0.198 A 
ATOM     88  F   UNL A   1      46.216  28.410  28.067  1.00  0.00    -0.203 F 
ATOM     89  F   UNL A   1      45.810  23.461  25.820  1.00  0.00    -0.200 F 
ATOM     90  C   UNL A   1      46.080  25.793  25.574  1.00  0.00     0.200 A 
ATOM     91  F   UNL A   1      46.385  28.127  25.387  1.00  0.00    -0.200 F 
ATOM     92  F   UNL A   1      46.215  25.654  24.249  1.00  0.00    -0.200 F 
ENDBRANCH  58  82
BRANCH  70  93
ATOM     93  C   UNL A   1      50.492  25.445  33.518  1.00  0.00     0.064 A 
ATOM     94  C   UNL A   1      50.904  24.104  33.565  1.00  0.00     0.173 A 
ATOM     95  C   UNL A   1      51.490  26.431  33.448  1.00  0.00     0.173 A 
ATOM     96  F   UNL A   1      49.995  23.120  33.641  1.00  0.00    -0.203 F 
ATOM     97  C   UNL A   1      52.257  23.769  33.573  1.00  0.00     0.198 A 
ATOM     98  C   UNL A   1      52.839  26.090  33.422  1.00  0.00     0.198 A 
ATOM     99  F   UNL A   1      51.155  27.729  33.390  1.00  0.00    -0.203 F 
ATOM    100  F   UNL A   1      52.625  22.484  33.670  1.00  0.00    -0.200 F 
ATOM    101  C   UNL A   1      53.222  24.760  33.494  1.00  0.00     0.200 A 
ATOM    102  F   UNL A   1      53.770  27.050  33.326  1.00  0.00    -0.200 F 
ATOM    103  F   UNL A   1      54.522  24.435  33.492  1.00  0.00    -0.200 F 
ENDBRANCH  70  93
ENDBRANCH  44  45
ENDBRANCH  37  39
ENDBRANCH  36  37
ENDBRANCH  35  36
ENDBRANCH  34  35
ENDBRANCH  33  34
ENDBRANCH  32  33
ENDBRANCH   1  32
TORSDOF 21
ENDMDL
MODEL 3
REMARK VINA RESULT:      -9.4      6.107     10.811
REMARK SMILES C[C@@H](C(=O)OCCOCCOCCOC(=O)c1ccc(-c2c3nc(c(-c4c(F)c(F)c(F)c(F)c4F)c4ccc([nH]4)c(-c4c(F)c(F)c(F)c(F)c4F)c4nc(c(-c5c(F)c(F)c(F)c(F)c5F)c5ccc2[nH]5)C=C4)C=C3)cc1)n1ccc(C(=O)N2CC[NH+](Cc3cccc(F)c3)CC2)n1
REMARK SMILES IDX 9 1 8 2 7 3 6 4 5 5 3 6 4 7 2 8 1 9 80 10 81 11 100 12 82 13
REMARK SMILES IDX 83 14 84 15 85 16 86 17 87 18 99 19 88 20 98 21 89 22 90 24
REMARK SMILES IDX 91 25 92 26 97 27 93 28 95 29 94 30 96 31 10 32 11 33 12 34
REMARK SMILES IDX 13 35 14 36 15 37 16 38 17 39 18 40 79 41 19 42 78 43 20 44
REMARK SMILES IDX 21 45 22 46 72 47 23 48 77 49 71 50 73 51 24 52 76 53 70 54
REMARK SMILES IDX 69 55 25 57 57 58 37 59 56 60 38 61 41 62 55 63 74 64 39 65
REMARK SMILES IDX 40 66 54 68 75 69 42 70 26 71 27 72 35 73 28 74 29 75 33 76
REMARK SMILES IDX 36 77 30 78 31 79 34 80 32 81 58 82 59 83 67 84 60 85 61 86
REMARK SMILES IDX 65 87 68 88 62 89 63 90 66 91 64 92 43 93 44 94 52 95 45 96
REMARK SMILES IDX 46 97 50 98 53 99 47 100 48 101 51 102 49 103
REMARK H PARENT 89 23 73 56 41 67
REMARK Flexibility Score: inf
ROOT
ATOM      1  C   UNL A   1      40.461  26.987  27.719  1.00  0.00     0.188 C 
ENDROOT
BRANCH   1   2
ATOM      2  O   UNL A   1      39.701  25.842  28.092  1.00  0.00    -0.376 OA
BRANCH   2   3
ATOM      3  C   UNL A   1      40.022  24.587  27.502  1.00  0.00     0.202 C 
BRANCH   3   4
ATOM      4  C   UNL A   1      39.187  24.097  26.305  1.00  0.00     0.261 C 
BRANCH   4   5
ATOM      5  O   UNL A   1      37.876  23.583  26.640  1.00  0.00    -0.462 OA
BRANCH   5   6
ATOM      6  C   UNL A   1      37.092  23.194  25.600  1.00  0.00     0.330 C 
ATOM      7  O   UNL A   1      36.832  23.918  24.642  1.00  0.00    -0.250 OA
BRANCH   6   8
ATOM      8  C   UNL A   1      36.574  21.756  25.690  1.00  0.00     0.213 C 
ATOM      9  C   UNL A   1      37.436  20.653  25.069  1.00  0.00     0.046 C 
BRANCH   8  10
ATOM     10  N   UNL A   1      35.147  21.702  25.349  1.00  0.00    -0.258 N 
ATOM     11  C   UNL A   1      34.552  20.690  24.645  1.00  0.00     0.110 A 
ATOM     12  N   UNL A   1      34.280  22.706  25.656  1.00  0.00    -0.167 NA
ATOM     13  C   UNL A   1      33.249  21.061  24.463  1.00  0.00     0.056 A 
ATOM     14  C   UNL A   1      33.113  22.335  25.084  1.00  0.00     0.150 A 
BRANCH  14  15
ATOM     15  C   UNL A   1      31.814  23.039  25.173  1.00  0.00     0.274 C 
ATOM     16  O   UNL A   1      30.829  22.415  25.576  1.00  0.00    -0.267 OA
ATOM     17  N   UNL A   1      31.718  24.415  24.908  1.00  0.00    -0.326 N 
ATOM     18  C   UNL A   1      30.496  25.052  25.388  1.00  0.00     0.181 C 
ATOM     19  C   UNL A   1      32.298  25.007  23.704  1.00  0.00     0.181 C 
ATOM     20  C   UNL A   1      30.557  26.586  25.403  1.00  0.00     0.284 C 
ATOM     21  C   UNL A   1      32.204  26.553  23.643  1.00  0.00     0.284 C 
ATOM     22  N   UNL A   1      30.970  27.188  24.131  1.00  0.00    -0.328 N 
ATOM     23  H   UNL A   1      31.222  28.161  24.305  1.00  0.00     0.348 HD
BRANCH  22  24
ATOM     24  C   UNL A   1      29.883  27.399  23.161  1.00  0.00     0.299 C 
BRANCH  24  25
ATOM     25  C   UNL A   1      29.263  28.777  23.116  1.00  0.00     0.009 A 
ATOM     26  C   UNL A   1      27.951  28.952  22.652  1.00  0.00     0.010 A 
ATOM     27  C   UNL A   1      29.940  29.886  23.658  1.00  0.00     0.048 A 
ATOM     28  C   UNL A   1      27.281  30.162  22.852  1.00  0.00     0.004 A 
ATOM     29  C   UNL A   1      29.253  31.078  23.878  1.00  0.00     0.123 A 
ATOM     30  C   UNL A   1      27.924  31.215  23.501  1.00  0.00     0.039 A 
ATOM     31  F   UNL A   1      29.858  32.072  24.540  1.00  0.00    -0.207 F 
ENDBRANCH  24  25
ENDBRANCH  22  24
ENDBRANCH  14  15
ENDBRANCH   8  10
ENDBRANCH   6   8
ENDBRANCH   5   6
ENDBRANCH   4   5
ENDBRANCH   3   4
ENDBRANCH   2   3
ENDBRANCH   1   2
BRANCH   1  32
ATOM     32  C   UNL A   1      39.819  28.385  27.828  1.00  0.00     0.188 C 
BRANCH  32  33
ATOM     33  O   UNL A   1      38.576  28.399  28.490  1.00  0.00    -0.376 OA
BRANCH  33  34
ATOM     34  C   UNL A   1      37.822  29.597  28.467  1.00  0.00     0.202 C 
BRANCH  34  35
ATOM     35  C   UNL A   1      36.515  29.728  29.277  1.00  0.00     0.261 C 
BRANCH  35  36
ATOM     36  O   UNL A   1      36.545  29.323  30.656  1.00  0.00    -0.460 OA
BRANCH  36  37
ATOM     37  C   UNL A   1      37.049  30.199  31.553  1.00  0.00     0.338 C 
ATOM     38  O   UNL A   1      36.516  31.214  31.979  1.00  0.00    -0.246 OA
BRANCH  37  39
ATOM     39  C   UNL A   1      38.302  29.629  32.083  1.00  0.00     0.060 A 
ATOM     40  C   UNL A   1      39.337  30.493  32.427  1.00  0.00     0.016 A 
ATOM     41  C   UNL A   1      38.465  28.253  32.252  1.00  0.00     0.016 A 
ATOM     42  C   UNL A   1      40.510  29.985  32.969  1.00  0.00     0.010 A 
ATOM     43  C   UNL A   1      39.696  27.746  32.708  1.00  0.00     0.010 A 
ATOM     44  C   UNL A   1      40.754  28.612  33.030  1.00  0.00    -0.014 A 
BRANCH  44  45
ATOM     45  C   UNL A   1      42.163  28.136  33.201  1.00  0.00     0.031 A 
ATOM     46  C   UNL A   1      43.010  27.894  31.971  1.00  0.00     0.074 A 
ATOM     47  C   UNL A   1      42.771  28.092  34.404  1.00  0.00     0.049 A 
ATOM     48  N   UNL A   1      44.232  27.429  31.870  1.00  0.00    -0.248 NA
ATOM     49  C   UNL A   1      42.411  28.265  30.678  1.00  0.00     0.031 C 
ATOM     50  C   UNL A   1      42.167  28.483  35.676  1.00  0.00     0.029 A 
ATOM     51  N   UNL A   1      44.053  27.721  34.746  1.00  0.00    -0.354 N 
ATOM     52  C   UNL A   1      44.532  27.425  30.513  1.00  0.00     0.074 A 
ATOM     53  C   UNL A   1      43.368  27.935  29.823  1.00  0.00     0.031 C 
ATOM     54  C   UNL A   1      43.076  28.336  36.655  1.00  0.00     0.029 A 
ATOM     55  C   UNL A   1      44.296  27.759  36.098  1.00  0.00     0.049 A 
ATOM     56  H   UNL A   1      44.731  27.454  34.084  1.00  0.00     0.167 HD
ATOM     57  C   UNL A   1      45.669  27.027  29.893  1.00  0.00     0.037 A 
ATOM     58  C   UNL A   1      45.352  27.325  36.816  1.00  0.00     0.037 A 
ATOM     59  C   UNL A   1      46.835  26.517  30.566  1.00  0.00     0.049 A 
ATOM     60  C   UNL A   1      46.536  26.713  36.111  1.00  0.00     0.074 A 
ATOM     61  C   UNL A   1      48.004  26.022  30.013  1.00  0.00     0.029 A 
ATOM     62  N   UNL A   1      46.986  26.442  31.942  1.00  0.00    -0.354 N 
ATOM     63  N   UNL A   1      46.771  26.601  34.826  1.00  0.00    -0.248 NA
ATOM     64  C   UNL A   1      47.597  26.147  36.959  1.00  0.00     0.031 C 
ATOM     65  C   UNL A   1      48.830  25.579  31.050  1.00  0.00     0.029 A 
ATOM     66  C   UNL A   1      48.209  25.867  32.253  1.00  0.00     0.049 A 
ATOM     67  H   UNL A   1      46.322  26.750  32.601  1.00  0.00     0.167 HD
ATOM     68  C   UNL A   1      48.010  25.983  34.714  1.00  0.00     0.074 A 
ATOM     69  C   UNL A   1      48.488  25.754  36.060  1.00  0.00     0.031 C 
ATOM     70  C   UNL A   1      48.689  25.639  33.592  1.00  0.00     0.037 A 
BRANCH  57  71
ATOM     71  C   UNL A   1      45.684  27.049  28.392  1.00  0.00     0.064 A 
ATOM     72  C   UNL A   1      45.177  25.992  27.623  1.00  0.00     0.173 A 
ATOM     73  C   UNL A   1      46.179  28.177  27.715  1.00  0.00     0.173 A 
ATOM     74  F   UNL A   1      44.715  24.884  28.221  1.00  0.00    -0.203 F 
ATOM     75  C   UNL A   1      45.181  26.056  26.231  1.00  0.00     0.198 A 
ATOM     76  C   UNL A   1      46.152  28.250  26.326  1.00  0.00     0.198 A 
ATOM     77  F   UNL A   1      46.673  29.216  28.404  1.00  0.00    -0.203 F 
ATOM     78  F   UNL A   1      44.732  25.017  25.514  1.00  0.00    -0.200 F 
ATOM     79  C   UNL A   1      45.659  27.187  25.585  1.00  0.00     0.200 A 
ATOM     80  F   UNL A   1      46.602  29.350  25.706  1.00  0.00    -0.200 F 
ATOM     81  F   UNL A   1      45.651  27.251  24.246  1.00  0.00    -0.200 F 
ENDBRANCH  57  71
BRANCH  58  82
ATOM     82  C   UNL A   1      45.297  27.354  38.306  1.00  0.00     0.064 A 
ATOM     83  C   UNL A   1      44.796  26.276  39.048  1.00  0.00     0.173 A 
ATOM     84  C   UNL A   1      45.705  28.496  39.014  1.00  0.00     0.173 A 
ATOM     85  F   UNL A   1      44.348  25.178  38.421  1.00  0.00    -0.203 F 
ATOM     86  C   UNL A   1      44.698  26.344  40.438  1.00  0.00     0.198 A 
ATOM     87  C   UNL A   1      45.643  28.548  40.404  1.00  0.00     0.198 A 
ATOM     88  F   UNL A   1      46.168  29.569  38.355  1.00  0.00    -0.203 F 
ATOM     89  F   UNL A   1      44.159  25.324  41.121  1.00  0.00    -0.200 F 
ATOM     90  C   UNL A   1      45.130  27.475  41.115  1.00  0.00     0.200 A 
ATOM     91  F   UNL A   1      46.068  29.641  41.052  1.00  0.00    -0.200 F 
ATOM     92  F   UNL A   1      45.038  27.538  42.450  1.00  0.00    -0.200 F 
ENDBRANCH  58  82
BRANCH  70  93
ATOM     93  C   UNL A   1      50.042  25.005  33.758  1.00  0.00     0.064 A 
ATOM     94  C   UNL A   1      51.219  25.770  33.797  1.00  0.00     0.173 A 
ATOM     95  C   UNL A   1      50.162  23.616  33.927  1.00  0.00     0.173 A 
ATOM     96  F   UNL A   1      51.166  27.100  33.632  1.00  0.00    -0.203 F 
ATOM     97  C   UNL A   1      52.463  25.165  33.966  1.00  0.00     0.198 A 
ATOM     98  C   UNL A   1      51.403  23.019  34.131  1.00  0.00     0.198 A 
ATOM     99  F   UNL A   1      49.070  22.837  33.911  1.00  0.00    -0.203 F 
ATOM    100  F   UNL A   1      53.576  25.911  33.948  1.00  0.00    -0.200 F 
ATOM    101  C   UNL A   1      52.553  23.793  34.140  1.00  0.00     0.200 A 
ATOM    102  F   UNL A   1      51.485  21.694  34.318  1.00  0.00    -0.200 F 
ATOM    103  F   UNL A   1      53.749  23.214  34.312  1.00  0.00    -0.200 F 
ENDBRANCH  70  93
ENDBRANCH  44  45
ENDBRANCH  37  39
ENDBRANCH  36  37
ENDBRANCH  35  36
ENDBRANCH  34  35
ENDBRANCH  33  34
ENDBRANCH  32  33
ENDBRANCH   1  32
TORSDOF 21
ENDMDL
