MODEL 1
REMARK VINA RESULT:     -11.4      0.000      0.000
REMARK SMILES O=C(OCCOCCOCCOC(=O)c1ccc(-c2c3nc(c(-c4c(F)c(F)c(F)c(F)c4F)c4ccc([nH]4)c(-c4c(F)c(F)c(F)c(F)c4F)c4nc(c(-c5c(F)c(F)c(F)c(F)c5F)c5ccc2[nH]5)C=C4)C=C3)cc1)C1=Cc2cc(Cl)cc(C#Cc3ccccc3)c2O[C@@H]1C(F)(F)F
REMARK SMILES IDX 7 1 6 2 5 3 4 4 3 5 2 6 1 7 78 8 79 9 96 10 80 11 95 12
REMARK SMILES IDX 81 13 94 14 82 15 85 16 83 17 84 18 97 19 98 20 99 21 100 22
REMARK SMILES IDX 86 23 87 24 88 25 89 26 93 27 90 28 92 29 91 30 8 31 9 32
REMARK SMILES IDX 10 33 11 34 12 35 13 36 14 37 15 38 16 39 77 40 17 41 76 42
REMARK SMILES IDX 18 43 19 44 20 45 70 46 21 47 75 48 69 49 71 50 22 51 74 52
REMARK SMILES IDX 68 53 67 54 23 56 55 57 35 58 54 59 36 60 39 61 53 62 72 63
REMARK SMILES IDX 37 64 38 65 52 67 73 68 40 69 24 70 25 71 33 72 26 73 27 74
REMARK SMILES IDX 31 75 34 76 28 77 29 78 32 79 30 80 56 81 57 82 65 83 58 84
REMARK SMILES IDX 59 85 63 86 66 87 60 88 61 89 64 90 62 91 41 92 42 93 50 94
REMARK SMILES IDX 43 95 44 96 48 97 51 98 45 99 46 100 49 101 47 102
REMARK H PARENT 71 55 39 66
REMARK Flexibility Score: inf
ROOT
ATOM      1  C   UNL A   1      34.943  32.704  28.068  1.00  0.00     0.188 C 
ENDROOT
BRANCH   1   2
ATOM      2  O   UNL A   1      34.381  31.642  27.183  1.00  0.00    -0.376 OA
BRANCH   2   3
ATOM      3  C   UNL A   1      33.851  30.063  27.601  1.00  0.00     0.202 C 
BRANCH   3   4
ATOM      4  C   UNL A   1      31.864  29.270  27.221  1.00  0.00     0.261 C 
BRANCH   4   5
ATOM      5  O   UNL A   1      31.445  28.423  26.019  1.00  0.00    -0.460 OA
BRANCH   5   6
ATOM      6  C   UNL A   1      31.569  27.110  26.256  1.00  0.00     0.338 C 
ATOM      7  O   UNL A   1      31.437  26.520  27.300  1.00  0.00    -0.246 OA
BRANCH   6   8
ATOM      8  C   UNL A   1      32.382  26.808  25.092  1.00  0.00     0.087 C 
ATOM      9  C   UNL A   1      33.805  26.615  25.343  1.00  0.00     0.027 C 
ATOM     10  C   UNL A   1      31.186  25.440  24.473  1.00  0.00     0.316 C 
ATOM     11  C   UNL A   1      34.611  25.008  25.393  1.00  0.00     0.020 A 
ATOM     12  O   UNL A   1      31.991  23.668  24.667  1.00  0.00    -0.474 OA
ATOM     13  C   UNL A   1      35.932  24.966  25.747  1.00  0.00     0.032 A 
ATOM     14  C   UNL A   1      33.752  23.517  25.140  1.00  0.00     0.143 A 
ATOM     15  C   UNL A   1      36.479  23.678  25.830  1.00  0.00     0.043 A 
ATOM     16  C   UNL A   1      34.386  22.297  25.227  1.00  0.00     0.069 A 
ATOM     17  Cl  UNL A   1      38.152  23.570  26.275  1.00  0.00    -0.084 Cl
ATOM     18  C   UNL A   1      35.763  22.436  25.578  1.00  0.00     0.041 A 
BRANCH  10  19
ATOM     19  C   UNL A   1      30.743  26.359  23.125  1.00  0.00     0.430 C 
ATOM     20  F   UNL A   1      31.298  27.537  22.849  1.00  0.00    -0.167 F 
ATOM     21  F   UNL A   1      30.961  25.596  22.016  1.00  0.00    -0.167 F 
ATOM     22  F   UNL A   1      29.396  26.613  23.096  1.00  0.00    -0.167 F 
ENDBRANCH  10  19
BRANCH  16  23
ATOM     23  C   UNL A   1      33.909  20.976  24.962  1.00  0.00    -0.058 C 
ATOM     24  C   UNL A   1      33.678  19.794  24.883  1.00  0.00    -0.062 C 
BRANCH  24  25
ATOM     25  C   UNL A   1      33.499  18.365  24.829  1.00  0.00     0.025 A 
ATOM     26  C   UNL A   1      34.128  17.614  23.834  1.00  0.00     0.017 A 
ATOM     27  C   UNL A   1      32.687  17.701  25.756  1.00  0.00     0.017 A 
ATOM     28  C   UNL A   1      33.969  16.223  23.788  1.00  0.00     0.001 A 
ATOM     29  C   UNL A   1      32.530  16.313  25.717  1.00  0.00     0.001 A 
ATOM     30  C   UNL A   1      33.176  15.572  24.733  1.00  0.00     0.000 A 
ENDBRANCH  24  25
ENDBRANCH  16  23
ENDBRANCH   6   8
ENDBRANCH   5   6
ENDBRANCH   4   5
ENDBRANCH   3   4
ENDBRANCH   2   3
ENDBRANCH   1   2
BRANCH   1  31
ATOM     31  C   UNL A   1      34.162  33.406  29.187  1.00  0.00     0.188 C 
BRANCH  31  32
ATOM     32  O   UNL A   1      34.033  32.794  30.441  1.00  0.00    -0.376 OA
BRANCH  32  33
ATOM     33  C   UNL A   1      34.566  33.512  31.540  1.00  0.00     0.202 C 
BRANCH  33  34
ATOM     34  C   UNL A   1      36.083  33.568  31.674  1.00  0.00     0.261 C 
BRANCH  34  35
ATOM     35  O   UNL A   1      36.606  32.541  32.530  1.00  0.00    -0.460 OA
BRANCH  35  36
ATOM     36  C   UNL A   1      36.831  31.331  31.969  1.00  0.00     0.338 C 
ATOM     37  O   UNL A   1      36.041  30.423  31.793  1.00  0.00    -0.246 OA
BRANCH  36  38
ATOM     38  C   UNL A   1      38.213  31.320  31.466  1.00  0.00     0.060 A 
ATOM     39  C   UNL A   1      39.283  31.309  32.372  1.00  0.00     0.016 A 
ATOM     40  C   UNL A   1      38.437  31.343  30.090  1.00  0.00     0.016 A 
ATOM     41  C   UNL A   1      40.592  31.301  31.896  1.00  0.00     0.010 A 
ATOM     42  C   UNL A   1      39.743  31.387  29.616  1.00  0.00     0.010 A 
ATOM     43  C   UNL A   1      40.822  31.389  30.517  1.00  0.00    -0.014 A 
BRANCH  43  44
ATOM     44  C   UNL A   1      42.161  31.767  30.024  1.00  0.00     0.031 A 
ATOM     45  C   UNL A   1      42.446  33.233  29.873  1.00  0.00     0.074 A 
ATOM     46  C   UNL A   1      43.082  30.846  29.703  1.00  0.00     0.049 A 
ATOM     47  N   UNL A   1      43.504  33.833  29.394  1.00  0.00    -0.248 NA
ATOM     48  C   UNL A   1      41.379  34.150  30.314  1.00  0.00     0.031 C 
ATOM     49  C   UNL A   1      42.920  29.402  29.846  1.00  0.00     0.029 A 
ATOM     50  N   UNL A   1      44.339  30.998  29.173  1.00  0.00    -0.354 N 
ATOM     51  C   UNL A   1      43.230  35.191  29.478  1.00  0.00     0.074 A 
ATOM     52  C   UNL A   1      41.894  35.330  30.012  1.00  0.00     0.031 C 
ATOM     53  C   UNL A   1      44.036  28.795  29.402  1.00  0.00     0.029 A 
ATOM     54  C   UNL A   1      44.971  29.808  28.913  1.00  0.00     0.049 A 
ATOM     55  H   UNL A   1      44.747  31.875  28.998  1.00  0.00     0.167 HD
ATOM     56  C   UNL A   1      44.029  36.231  29.146  1.00  0.00     0.037 A 
ATOM     57  C   UNL A   1      46.161  29.577  28.323  1.00  0.00     0.037 A 
ATOM     58  C   UNL A   1      45.344  36.077  28.587  1.00  0.00     0.049 A 
ATOM     59  C   UNL A   1      46.994  30.752  27.872  1.00  0.00     0.074 A 
ATOM     60  C   UNL A   1      46.242  37.059  28.214  1.00  0.00     0.029 A 
ATOM     61  N   UNL A   1      45.941  34.857  28.303  1.00  0.00    -0.354 N 
ATOM     62  N   UNL A   1      46.750  32.038  27.983  1.00  0.00    -0.248 NA
ATOM     63  C   UNL A   1      48.273  30.445  27.216  1.00  0.00     0.031 C 
ATOM     64  C   UNL A   1      47.351  36.436  27.634  1.00  0.00     0.029 A 
ATOM     65  C   UNL A   1      47.184  35.063  27.727  1.00  0.00     0.049 A 
ATOM     66  H   UNL A   1      45.541  33.975  28.483  1.00  0.00     0.167 HD
ATOM     67  C   UNL A   1      47.856  32.688  27.450  1.00  0.00     0.074 A 
ATOM     68  C   UNL A   1      48.780  31.655  27.028  1.00  0.00     0.031 C 
ATOM     69  C   UNL A   1      48.093  34.019  27.323  1.00  0.00     0.037 A 
BRANCH  56  70
ATOM     70  C   UNL A   1      43.481  37.614  29.341  1.00  0.00     0.064 A 
ATOM     71  C   UNL A   1      43.779  38.374  30.483  1.00  0.00     0.173 A 
ATOM     72  C   UNL A   1      42.658  38.194  28.365  1.00  0.00     0.173 A 
ATOM     73  F   UNL A   1      44.546  37.860  31.456  1.00  0.00    -0.203 F 
ATOM     74  C   UNL A   1      43.246  39.649  30.654  1.00  0.00     0.198 A 
ATOM     75  C   UNL A   1      42.159  39.485  28.522  1.00  0.00     0.198 A 
ATOM     76  F   UNL A   1      42.339  37.512  27.255  1.00  0.00    -0.203 F 
ATOM     77  F   UNL A   1      43.495  40.331  31.780  1.00  0.00    -0.200 F 
ATOM     78  C   UNL A   1      42.445  40.207  29.669  1.00  0.00     0.200 A 
ATOM     79  F   UNL A   1      41.398  40.027  27.561  1.00  0.00    -0.200 F 
ATOM     80  F   UNL A   1      41.942  41.438  29.831  1.00  0.00    -0.200 F 
ENDBRANCH  56  70
BRANCH  57  81
ATOM     81  C   UNL A   1      46.639  28.182  28.117  1.00  0.00     0.064 A 
ATOM     82  C   UNL A   1      46.336  27.480  26.941  1.00  0.00     0.173 A 
ATOM     83  C   UNL A   1      47.373  27.508  29.104  1.00  0.00     0.173 A 
ATOM     84  F   UNL A   1      45.613  28.068  25.977  1.00  0.00    -0.203 F 
ATOM     85  C   UNL A   1      46.725  26.151  26.773  1.00  0.00     0.198 A 
ATOM     86  C   UNL A   1      47.793  26.191  28.919  1.00  0.00     0.198 A 
ATOM     87  F   UNL A   1      47.684  28.127  30.252  1.00  0.00    -0.203 F 
ATOM     88  F   UNL A   1      46.364  25.486  25.667  1.00  0.00    -0.200 F 
ATOM     89  C   UNL A   1      47.458  25.511  27.759  1.00  0.00     0.200 A 
ATOM     90  F   UNL A   1      48.512  25.580  29.870  1.00  0.00    -0.200 F 
ATOM     91  F   UNL A   1      47.829  24.232  27.598  1.00  0.00    -0.200 F 
ENDBRANCH  57  81
BRANCH  69  92
ATOM     92  C   UNL A   1      49.420  34.440  26.755  1.00  0.00     0.064 A 
ATOM     93  C   UNL A   1      49.553  34.921  25.444  1.00  0.00     0.173 A 
ATOM     94  C   UNL A   1      50.572  34.405  27.558  1.00  0.00     0.173 A 
ATOM     95  F   UNL A   1      48.487  34.969  24.630  1.00  0.00    -0.203 F 
ATOM     96  C   UNL A   1      50.793  35.317  24.948  1.00  0.00     0.198 A 
ATOM     97  C   UNL A   1      51.801  34.843  27.073  1.00  0.00     0.198 A 
ATOM     98  F   UNL A   1      50.503  33.967  28.825  1.00  0.00    -0.203 F 
ATOM     99  F   UNL A   1      50.906  35.715  23.674  1.00  0.00    -0.200 F 
ATOM    100  C   UNL A   1      51.913  35.287  25.765  1.00  0.00     0.200 A 
ATOM    101  F   UNL A   1      52.876  34.836  27.873  1.00  0.00    -0.200 F 
ATOM    102  F   UNL A   1      53.102  35.680  25.289  1.00  0.00    -0.200 F 
ENDBRANCH  69  92
ENDBRANCH  43  44
ENDBRANCH  36  38
ENDBRANCH  35  36
ENDBRANCH  34  35
ENDBRANCH  33  34
ENDBRANCH  32  33
ENDBRANCH  31  32
ENDBRANCH   1  31
TORSDOF 20
ENDMDL
MODEL 2
REMARK VINA RESULT:     -10.9      6.907     14.275
REMARK SMILES O=C(OCCOCCOCCOC(=O)c1ccc(-c2c3nc(c(-c4c(F)c(F)c(F)c(F)c4F)c4ccc([nH]4)c(-c4c(F)c(F)c(F)c(F)c4F)c4nc(c(-c5c(F)c(F)c(F)c(F)c5F)c5ccc2[nH]5)C=C4)C=C3)cc1)C1=Cc2cc(Cl)cc(C#Cc3ccccc3)c2O[C@@H]1C(F)(F)F
REMARK SMILES IDX 7 1 6 2 5 3 4 4 3 5 2 6 1 7 78 8 79 9 96 10 80 11 95 12
REMARK SMILES IDX 81 13 94 14 82 15 85 16 83 17 84 18 97 19 98 20 99 21 100 22
REMARK SMILES IDX 86 23 87 24 88 25 89 26 93 27 90 28 92 29 91 30 8 31 9 32
REMARK SMILES IDX 10 33 11 34 12 35 13 36 14 37 15 38 16 39 77 40 17 41 76 42
REMARK SMILES IDX 18 43 19 44 20 45 70 46 21 47 75 48 69 49 71 50 22 51 74 52
REMARK SMILES IDX 68 53 67 54 23 56 55 57 35 58 54 59 36 60 39 61 53 62 72 63
REMARK SMILES IDX 37 64 38 65 52 67 73 68 40 69 24 70 25 71 33 72 26 73 27 74
REMARK SMILES IDX 31 75 34 76 28 77 29 78 32 79 30 80 56 81 57 82 65 83 58 84
REMARK SMILES IDX 59 85 63 86 66 87 60 88 61 89 64 90 62 91 41 92 42 93 50 94
REMARK SMILES IDX 43 95 44 96 48 97 51 98 45 99 46 100 49 101 47 102
REMARK H PARENT 71 55 39 66
REMARK Flexibility Score: inf
ROOT
ATOM      1  C   UNL A   1      49.099  25.610  25.979  1.00  0.00     0.188 C 
ENDROOT
BRANCH   1   2
ATOM      2  O   UNL A   1      49.203  25.860  24.511  1.00  0.00    -0.376 OA
BRANCH   2   3
ATOM      3  C   UNL A   1      48.420  27.062  23.568  1.00  0.00     0.202 C 
BRANCH   3   4
ATOM      4  C   UNL A   1      46.670  28.193  24.185  1.00  0.00     0.261 C 
BRANCH   4   5
ATOM      5  O   UNL A   1      46.068  28.229  25.590  1.00  0.00    -0.460 OA
BRANCH   5   6
ATOM      6  C   UNL A   1      46.088  29.460  26.118  1.00  0.00     0.338 C 
ATOM      7  O   UNL A   1      46.782  30.399  25.811  1.00  0.00    -0.246 OA
BRANCH   6   8
ATOM      8  C   UNL A   1      45.483  29.104  27.388  1.00  0.00     0.087 C 
ATOM      9  C   UNL A   1      46.066  27.954  28.070  1.00  0.00     0.027 C 
ATOM     10  C   UNL A   1      45.535  30.907  28.046  1.00  0.00     0.316 C 
ATOM     11  C   UNL A   1      47.173  28.075  29.483  1.00  0.00     0.020 A 
ATOM     12  O   UNL A   1      46.850  31.088  29.483  1.00  0.00    -0.474 OA
ATOM     13  C   UNL A   1      47.733  26.920  29.957  1.00  0.00     0.032 A 
ATOM     14  C   UNL A   1      47.652  29.597  30.175  1.00  0.00     0.143 A 
ATOM     15  C   UNL A   1      48.635  27.094  31.015  1.00  0.00     0.043 A 
ATOM     16  C   UNL A   1      48.536  29.662  31.230  1.00  0.00     0.069 A 
ATOM     17  Cl  UNL A   1      49.374  25.659  31.652  1.00  0.00    -0.084 Cl
ATOM     18  C   UNL A   1      49.001  28.368  31.615  1.00  0.00     0.041 A 
BRANCH  10  19
ATOM     19  C   UNL A   1      43.849  31.028  28.011  1.00  0.00     0.430 C 
ATOM     20  F   UNL A   1      43.070  30.425  28.906  1.00  0.00    -0.167 F 
ATOM     21  F   UNL A   1      43.529  32.350  28.095  1.00  0.00    -0.167 F 
ATOM     22  F   UNL A   1      43.331  30.635  26.804  1.00  0.00    -0.167 F 
ENDBRANCH  10  19
BRANCH  16  23
ATOM     23  C   UNL A   1      48.982  30.776  32.006  1.00  0.00    -0.058 C 
ATOM     24  C   UNL A   1      49.254  31.605  32.840  1.00  0.00    -0.062 C 
BRANCH  24  25
ATOM     25  C   UNL A   1      49.504  32.551  33.898  1.00  0.00     0.025 A 
ATOM     26  C   UNL A   1      48.548  32.764  34.893  1.00  0.00     0.017 A 
ATOM     27  C   UNL A   1      50.696  33.284  33.948  1.00  0.00     0.017 A 
ATOM     28  C   UNL A   1      48.795  33.672  35.931  1.00  0.00     0.001 A 
ATOM     29  C   UNL A   1      50.948  34.186  34.984  1.00  0.00     0.001 A 
ATOM     30  C   UNL A   1      49.997  34.377  35.980  1.00  0.00     0.000 A 
ENDBRANCH  24  25
ENDBRANCH  16  23
ENDBRANCH   6   8
ENDBRANCH   5   6
ENDBRANCH   4   5
ENDBRANCH   3   4
ENDBRANCH   2   3
ENDBRANCH   1   2
BRANCH   1  31
ATOM     31  C   UNL A   1      47.797  25.258  26.711  1.00  0.00     0.188 C 
BRANCH  31  32
ATOM     32  O   UNL A   1      47.445  23.915  26.906  1.00  0.00    -0.376 OA
BRANCH  32  33
ATOM     33  C   UNL A   1      46.066  23.657  27.106  1.00  0.00     0.202 C 
BRANCH  33  34
ATOM     34  C   UNL A   1      45.438  22.531  26.293  1.00  0.00     0.261 C 
BRANCH  34  35
ATOM     35  O   UNL A   1      44.006  22.615  26.238  1.00  0.00    -0.460 OA
BRANCH  35  36
ATOM     36  C   UNL A   1      43.478  23.533  25.397  1.00  0.00     0.338 C 
ATOM     37  O   UNL A   1      43.403  23.488  24.183  1.00  0.00    -0.246 OA
BRANCH  36  38
ATOM     38  C   UNL A   1      42.866  24.591  26.214  1.00  0.00     0.060 A 
ATOM     39  C   UNL A   1      43.331  25.910  26.105  1.00  0.00     0.016 A 
ATOM     40  C   UNL A   1      41.845  24.261  27.102  1.00  0.00     0.016 A 
ATOM     41  C   UNL A   1      42.753  26.912  26.881  1.00  0.00     0.010 A 
ATOM     42  C   UNL A   1      41.303  25.252  27.913  1.00  0.00     0.010 A 
ATOM     43  C   UNL A   1      41.772  26.574  27.821  1.00  0.00    -0.014 A 
BRANCH  43  44
ATOM     44  C   UNL A   1      41.433  27.526  28.897  1.00  0.00     0.031 A 
ATOM     45  C   UNL A   1      42.264  27.471  30.146  1.00  0.00     0.074 A 
ATOM     46  C   UNL A   1      40.415  28.393  28.780  1.00  0.00     0.049 A 
ATOM     47  N   UNL A   1      42.137  28.136  31.263  1.00  0.00    -0.248 NA
ATOM     48  C   UNL A   1      43.390  26.520  30.134  1.00  0.00     0.031 C 
ATOM     49  C   UNL A   1      39.572  28.552  27.599  1.00  0.00     0.029 A 
ATOM     50  N   UNL A   1      39.913  29.295  29.683  1.00  0.00    -0.354 N 
ATOM     51  C   UNL A   1      43.163  27.686  32.082  1.00  0.00     0.074 A 
ATOM     52  C   UNL A   1      43.879  26.663  31.355  1.00  0.00     0.031 C 
ATOM     53  C   UNL A   1      38.644  29.493  27.854  1.00  0.00     0.029 A 
ATOM     54  C   UNL A   1      38.810  29.971  29.226  1.00  0.00     0.049 A 
ATOM     55  H   UNL A   1      40.308  29.444  30.572  1.00  0.00     0.167 HD
ATOM     56  C   UNL A   1      43.484  28.098  33.330  1.00  0.00     0.037 A 
ATOM     57  C   UNL A   1      38.018  30.856  29.864  1.00  0.00     0.037 A 
ATOM     58  C   UNL A   1      42.744  29.096  34.054  1.00  0.00     0.049 A 
ATOM     59  C   UNL A   1      38.340  31.229  31.291  1.00  0.00     0.074 A 
ATOM     60  C   UNL A   1      42.979  29.591  35.322  1.00  0.00     0.029 A 
ATOM     61  N   UNL A   1      41.609  29.736  33.575  1.00  0.00    -0.354 N 
ATOM     62  N   UNL A   1      39.331  30.830  32.053  1.00  0.00    -0.248 NA
ATOM     63  C   UNL A   1      37.433  32.182  31.947  1.00  0.00     0.031 C 
ATOM     64  C   UNL A   1      41.944  30.475  35.641  1.00  0.00     0.029 A 
ATOM     65  C   UNL A   1      41.113  30.599  34.539  1.00  0.00     0.049 A 
ATOM     66  H   UNL A   1      41.215  29.597  32.684  1.00  0.00     0.167 HD
ATOM     67  C   UNL A   1      39.190  31.509  33.258  1.00  0.00     0.074 A 
ATOM     68  C   UNL A   1      38.024  32.358  33.120  1.00  0.00     0.031 C 
ATOM     69  C   UNL A   1      39.955  31.442  34.377  1.00  0.00     0.037 A 
BRANCH  56  70
ATOM     70  C   UNL A   1      44.657  27.440  33.996  1.00  0.00     0.064 A 
ATOM     71  C   UNL A   1      45.939  28.010  33.970  1.00  0.00     0.173 A 
ATOM     72  C   UNL A   1      44.493  26.228  34.682  1.00  0.00     0.173 A 
ATOM     73  F   UNL A   1      46.155  29.159  33.312  1.00  0.00    -0.203 F 
ATOM     74  C   UNL A   1      47.018  27.374  34.579  1.00  0.00     0.198 A 
ATOM     75  C   UNL A   1      45.566  25.615  35.323  1.00  0.00     0.198 A 
ATOM     76  F   UNL A   1      43.289  25.637  34.736  1.00  0.00    -0.203 F 
ATOM     77  F   UNL A   1      48.244  27.907  34.489  1.00  0.00    -0.200 F 
ATOM     78  C   UNL A   1      46.829  26.183  35.263  1.00  0.00     0.200 A 
ATOM     79  F   UNL A   1      45.377  24.472  35.996  1.00  0.00    -0.200 F 
ATOM     80  F   UNL A   1      47.866  25.578  35.857  1.00  0.00    -0.200 F 
ENDBRANCH  56  70
BRANCH  57  81
ATOM     81  C   UNL A   1      36.843  31.449  29.169  1.00  0.00     0.064 A 
ATOM     82  C   UNL A   1      36.824  32.805  28.809  1.00  0.00     0.173 A 
ATOM     83  C   UNL A   1      35.700  30.687  28.883  1.00  0.00     0.173 A 
ATOM     84  F   UNL A   1      37.879  33.586  29.083  1.00  0.00    -0.203 F 
ATOM     85  C   UNL A   1      35.700  33.380  28.218  1.00  0.00     0.198 A 
ATOM     86  C   UNL A   1      34.591  31.254  28.259  1.00  0.00     0.198 A 
ATOM     87  F   UNL A   1      35.659  29.388  29.212  1.00  0.00    -0.203 F 
ATOM     88  F   UNL A   1      35.686  34.692  27.946  1.00  0.00    -0.200 F 
ATOM     89  C   UNL A   1      34.587  32.602  27.938  1.00  0.00     0.200 A 
ATOM     90  F   UNL A   1      33.522  30.496  27.979  1.00  0.00    -0.200 F 
ATOM     91  F   UNL A   1      33.505  33.156  27.372  1.00  0.00    -0.200 F 
ENDBRANCH  57  81
BRANCH  69  92
ATOM     92  C   UNL A   1      39.595  32.348  35.523  1.00  0.00     0.064 A 
ATOM     93  C   UNL A   1      40.178  33.613  35.686  1.00  0.00     0.173 A 
ATOM     94  C   UNL A   1      38.610  31.958  36.445  1.00  0.00     0.173 A 
ATOM     95  F   UNL A   1      41.131  34.033  34.839  1.00  0.00    -0.203 F 
ATOM     96  C   UNL A   1      39.816  34.437  36.749  1.00  0.00     0.198 A 
ATOM     97  C   UNL A   1      38.219  32.803  37.480  1.00  0.00     0.198 A 
ATOM     98  F   UNL A   1      38.007  30.765  36.330  1.00  0.00    -0.203 F 
ATOM     99  F   UNL A   1      40.431  35.615  36.920  1.00  0.00    -0.200 F 
ATOM    100  C   UNL A   1      38.830  34.036  37.638  1.00  0.00     0.200 A 
ATOM    101  F   UNL A   1      37.249  32.423  38.323  1.00  0.00    -0.200 F 
ATOM    102  F   UNL A   1      38.475  34.836  38.652  1.00  0.00    -0.200 F 
ENDBRANCH  69  92
ENDBRANCH  43  44
ENDBRANCH  36  38
ENDBRANCH  35  36
ENDBRANCH  34  35
ENDBRANCH  33  34
ENDBRANCH  32  33
ENDBRANCH  31  32
ENDBRANCH   1  31
TORSDOF 20
ENDMDL
MODEL 3
REMARK VINA RESULT:     -10.8      2.627      3.737
REMARK SMILES O=C(OCCOCCOCCOC(=O)c1ccc(-c2c3nc(c(-c4c(F)c(F)c(F)c(F)c4F)c4ccc([nH]4)c(-c4c(F)c(F)c(F)c(F)c4F)c4nc(c(-c5c(F)c(F)c(F)c(F)c5F)c5ccc2[nH]5)C=C4)C=C3)cc1)C1=Cc2cc(Cl)cc(C#Cc3ccccc3)c2O[C@@H]1C(F)(F)F
REMARK SMILES IDX 7 1 6 2 5 3 4 4 3 5 2 6 1 7 78 8 79 9 96 10 80 11 95 12
REMARK SMILES IDX 81 13 94 14 82 15 85 16 83 17 84 18 97 19 98 20 99 21 100 22
REMARK SMILES IDX 86 23 87 24 88 25 89 26 93 27 90 28 92 29 91 30 8 31 9 32
REMARK SMILES IDX 10 33 11 34 12 35 13 36 14 37 15 38 16 39 77 40 17 41 76 42
REMARK SMILES IDX 18 43 19 44 20 45 70 46 21 47 75 48 69 49 71 50 22 51 74 52
REMARK SMILES IDX 68 53 67 54 23 56 55 57 35 58 54 59 36 60 39 61 53 62 72 63
REMARK SMILES IDX 37 64 38 65 52 67 73 68 40 69 24 70 25 71 33 72 26 73 27 74
REMARK SMILES IDX 31 75 34 76 28 77 29 78 32 79 30 80 56 81 57 82 65 83 58 84
REMARK SMILES IDX 59 85 63 86 66 87 60 88 61 89 64 90 62 91 41 92 42 93 50 94
REMARK SMILES IDX 43 95 44 96 48 97 51 98 45 99 46 100 49 101 47 102
REMARK H PARENT 71 55 39 66
REMARK Flexibility Score: inf
ROOT
ATOM      1  C   UNL A   1      35.009  32.022  27.862  1.00  0.00     0.188 C 
ENDROOT
BRANCH   1   2
ATOM      2  O   UNL A   1      35.345  30.648  27.385  1.00  0.00    -0.376 OA
BRANCH   2   3
ATOM      3  C   UNL A   1      34.373  29.234  27.408  1.00  0.00     0.202 C 
BRANCH   3   4
ATOM      4  C   UNL A   1      32.222  29.189  27.101  1.00  0.00     0.261 C 
BRANCH   4   5
ATOM      5  O   UNL A   1      31.480  28.392  26.028  1.00  0.00    -0.460 OA
BRANCH   5   6
ATOM      6  C   UNL A   1      31.552  27.070  26.239  1.00  0.00     0.338 C 
ATOM      7  O   UNL A   1      31.392  26.465  27.271  1.00  0.00    -0.246 OA
BRANCH   6   8
ATOM      8  C   UNL A   1      32.358  26.760  25.072  1.00  0.00     0.087 C 
ATOM      9  C   UNL A   1      33.783  26.571  25.316  1.00  0.00     0.027 C 
ATOM     10  C   UNL A   1      31.160  25.387  24.471  1.00  0.00     0.316 C 
ATOM     11  C   UNL A   1      34.591  24.965  25.373  1.00  0.00     0.020 A 
ATOM     12  O   UNL A   1      31.968  23.617  24.673  1.00  0.00    -0.474 OA
ATOM     13  C   UNL A   1      35.914  24.927  25.720  1.00  0.00     0.032 A 
ATOM     14  C   UNL A   1      33.732  23.471  25.136  1.00  0.00     0.143 A 
ATOM     15  C   UNL A   1      36.463  23.640  25.809  1.00  0.00     0.043 A 
ATOM     16  C   UNL A   1      34.368  22.252  25.229  1.00  0.00     0.069 A 
ATOM     17  Cl  UNL A   1      38.138  23.537  26.245  1.00  0.00    -0.084 Cl
ATOM     18  C   UNL A   1      35.746  22.396  25.570  1.00  0.00     0.041 A 
BRANCH  10  19
ATOM     19  C   UNL A   1      30.708  26.295  23.119  1.00  0.00     0.430 C 
ATOM     20  F   UNL A   1      31.543  27.134  22.509  1.00  0.00    -0.167 F 
ATOM     21  F   UNL A   1      30.311  25.422  22.149  1.00  0.00    -0.167 F 
ATOM     22  F   UNL A   1      29.593  27.055  23.360  1.00  0.00    -0.167 F 
ENDBRANCH  10  19
BRANCH  16  23
ATOM     23  C   UNL A   1      33.890  20.929  24.976  1.00  0.00    -0.058 C 
ATOM     24  C   UNL A   1      33.673  19.745  24.890  1.00  0.00    -0.062 C 
BRANCH  24  25
ATOM     25  C   UNL A   1      33.515  18.314  24.817  1.00  0.00     0.025 A 
ATOM     26  C   UNL A   1      32.675  17.652  25.713  1.00  0.00     0.017 A 
ATOM     27  C   UNL A   1      34.205  17.557  23.862  1.00  0.00     0.017 A 
ATOM     28  C   UNL A   1      32.508  16.264  25.635  1.00  0.00     0.001 A 
ATOM     29  C   UNL A   1      34.036  16.173  23.776  1.00  0.00     0.001 A 
ATOM     30  C   UNL A   1      33.183  15.525  24.662  1.00  0.00     0.000 A 
ENDBRANCH  24  25
ENDBRANCH  16  23
ENDBRANCH   6   8
ENDBRANCH   5   6
ENDBRANCH   4   5
ENDBRANCH   3   4
ENDBRANCH   2   3
ENDBRANCH   1   2
BRANCH   1  31
ATOM     31  C   UNL A   1      33.583  32.529  28.116  1.00  0.00     0.188 C 
BRANCH  31  32
ATOM     32  O   UNL A   1      33.299  33.898  28.016  1.00  0.00    -0.376 OA
BRANCH  32  33
ATOM     33  C   UNL A   1      33.300  34.623  29.233  1.00  0.00     0.202 C 
BRANCH  33  34
ATOM     34  C   UNL A   1      34.653  34.953  29.853  1.00  0.00     0.261 C 
BRANCH  34  35
ATOM     35  O   UNL A   1      34.764  34.518  31.216  1.00  0.00    -0.460 OA
BRANCH  35  36
ATOM     36  C   UNL A   1      35.088  33.221  31.421  1.00  0.00     0.338 C 
ATOM     37  O   UNL A   1      34.342  32.273  31.577  1.00  0.00    -0.246 OA
BRANCH  36  38
ATOM     38  C   UNL A   1      36.549  33.100  31.301  1.00  0.00     0.060 A 
ATOM     39  C   UNL A   1      37.189  33.532  30.130  1.00  0.00     0.016 A 
ATOM     40  C   UNL A   1      37.273  32.533  32.348  1.00  0.00     0.016 A 
ATOM     41  C   UNL A   1      38.572  33.415  30.015  1.00  0.00     0.010 A 
ATOM     42  C   UNL A   1      38.647  32.369  32.212  1.00  0.00     0.010 A 
ATOM     43  C   UNL A   1      39.296  32.788  31.037  1.00  0.00    -0.014 A 
BRANCH  43  44
ATOM     44  C   UNL A   1      40.668  32.312  30.773  1.00  0.00     0.031 A 
ATOM     45  C   UNL A   1      41.792  33.259  31.080  1.00  0.00     0.074 A 
ATOM     46  C   UNL A   1      40.908  31.094  30.262  1.00  0.00     0.049 A 
ATOM     47  N   UNL A   1      43.075  33.126  30.875  1.00  0.00    -0.248 NA
ATOM     48  C   UNL A   1      41.408  34.543  31.693  1.00  0.00     0.031 C 
ATOM     49  C   UNL A   1      39.894  30.087  29.964  1.00  0.00     0.029 A 
ATOM     50  N   UNL A   1      42.091  30.508  29.892  1.00  0.00    -0.354 N 
ATOM     51  C   UNL A   1      43.649  34.303  31.334  1.00  0.00     0.074 A 
ATOM     52  C   UNL A   1      42.575  35.158  31.788  1.00  0.00     0.031 C 
ATOM     53  C   UNL A   1      40.500  29.005  29.442  1.00  0.00     0.029 A 
ATOM     54  C   UNL A   1      41.936  29.262  29.340  1.00  0.00     0.049 A 
ATOM     55  H   UNL A   1      42.967  30.940  30.012  1.00  0.00     0.167 HD
ATOM     56  C   UNL A   1      44.958  34.637  31.379  1.00  0.00     0.037 A 
ATOM     57  C   UNL A   1      42.856  28.441  28.794  1.00  0.00     0.037 A 
ATOM     58  C   UNL A   1      46.013  33.790  30.896  1.00  0.00     0.049 A 
ATOM     59  C   UNL A   1      44.301  28.878  28.769  1.00  0.00     0.074 A 
ATOM     60  C   UNL A   1      47.375  34.025  30.892  1.00  0.00     0.029 A 
ATOM     61  N   UNL A   1      45.818  32.547  30.309  1.00  0.00    -0.354 N 
ATOM     62  N   UNL A   1      44.848  29.976  29.235  1.00  0.00    -0.248 NA
ATOM     63  C   UNL A   1      45.260  27.955  28.144  1.00  0.00     0.031 C 
ATOM     64  C   UNL A   1      47.998  32.960  30.236  1.00  0.00     0.029 A 
ATOM     65  C   UNL A   1      47.035  32.018  29.909  1.00  0.00     0.049 A 
ATOM     66  H   UNL A   1      44.945  32.106  30.194  1.00  0.00     0.167 HD
ATOM     67  C   UNL A   1      46.212  29.860  28.996  1.00  0.00     0.074 A 
ATOM     68  C   UNL A   1      46.413  28.576  28.356  1.00  0.00     0.031 C 
ATOM     69  C   UNL A   1      47.213  30.732  29.282  1.00  0.00     0.037 A 
BRANCH  56  70
ATOM     70  C   UNL A   1      45.309  35.988  31.933  1.00  0.00     0.064 A 
ATOM     71  C   UNL A   1      45.595  36.179  33.294  1.00  0.00     0.173 A 
ATOM     72  C   UNL A   1      45.375  37.104  31.087  1.00  0.00     0.173 A 
ATOM     73  F   UNL A   1      45.528  35.148  34.150  1.00  0.00    -0.203 F 
ATOM     74  C   UNL A   1      45.901  37.443  33.790  1.00  0.00     0.198 A 
ATOM     75  C   UNL A   1      45.719  38.359  31.581  1.00  0.00     0.198 A 
ATOM     76  F   UNL A   1      45.108  36.979  29.778  1.00  0.00    -0.203 F 
ATOM     77  F   UNL A   1      46.110  37.612  35.103  1.00  0.00    -0.200 F 
ATOM     78  C   UNL A   1      45.972  38.530  32.932  1.00  0.00     0.200 A 
ATOM     79  F   UNL A   1      45.803  39.405  30.747  1.00  0.00    -0.200 F 
ATOM     80  F   UNL A   1      46.278  39.743  33.411  1.00  0.00    -0.200 F 
ENDBRANCH  56  70
BRANCH  57  81
ATOM     81  C   UNL A   1      42.447  27.129  28.223  1.00  0.00     0.064 A 
ATOM     82  C   UNL A   1      41.852  27.046  26.955  1.00  0.00     0.173 A 
ATOM     83  C   UNL A   1      42.606  25.936  28.944  1.00  0.00     0.173 A 
ATOM     84  F   UNL A   1      41.651  28.159  26.235  1.00  0.00    -0.203 F 
ATOM     85  C   UNL A   1      41.407  25.827  26.445  1.00  0.00     0.198 A 
ATOM     86  C   UNL A   1      42.194  24.713  28.417  1.00  0.00     0.198 A 
ATOM     87  F   UNL A   1      43.162  25.956  30.164  1.00  0.00    -0.203 F 
ATOM     88  F   UNL A   1      40.782  25.788  25.260  1.00  0.00    -0.200 F 
ATOM     89  C   UNL A   1      41.584  24.661  27.174  1.00  0.00     0.200 A 
ATOM     90  F   UNL A   1      42.379  23.587  29.120  1.00  0.00    -0.200 F 
ATOM     91  F   UNL A   1      41.154  23.490  26.683  1.00  0.00    -0.200 F 
ENDBRANCH  57  81
BRANCH  69  92
ATOM     92  C   UNL A   1      48.619  30.309  28.959  1.00  0.00     0.064 A 
ATOM     93  C   UNL A   1      49.396  29.557  29.853  1.00  0.00     0.173 A 
ATOM     94  C   UNL A   1      49.179  30.623  27.710  1.00  0.00     0.173 A 
ATOM     95  F   UNL A   1      48.913  29.236  31.063  1.00  0.00    -0.203 F 
ATOM     96  C   UNL A   1      50.691  29.167  29.523  1.00  0.00     0.198 A 
ATOM     97  C   UNL A   1      50.458  30.194  27.367  1.00  0.00     0.198 A 
ATOM     98  F   UNL A   1      48.478  31.328  26.810  1.00  0.00    -0.203 F 
ATOM     99  F   UNL A   1      51.437  28.502  30.416  1.00  0.00    -0.200 F 
ATOM    100  C   UNL A   1      51.218  29.477  28.277  1.00  0.00     0.200 A 
ATOM    101  F   UNL A   1      50.954  30.473  26.153  1.00  0.00    -0.200 F 
ATOM    102  F   UNL A   1      52.460  29.089  27.958  1.00  0.00    -0.200 F 
ENDBRANCH  69  92
ENDBRANCH  43  44
ENDBRANCH  36  38
ENDBRANCH  35  36
ENDBRANCH  34  35
ENDBRANCH  33  34
ENDBRANCH  32  33
ENDBRANCH  31  32
ENDBRANCH   1  31
TORSDOF 20
ENDMDL
