MODEL 1
REMARK VINA RESULT:     -11.0      0.000      0.000
REMARK SMILES Cc1nc(CC(=O)N2Cc3nc[nH]c3C[C@H]2C(=O)OCCOCCOCCOC(=O)c2ccc(-c3c4nc(c(-c5c(F)c(F)c(F)c(F)c5F)c5ccc([nH]5)c(-c5c(F)c(F)c(F)c(F)c5F)c5nc(c(-c6c(F)c(F)c(F)c(F)c6F)c6ccc3[nH]6)C=C5)C=C4)cc2)cs1
REMARK SMILES IDX 23 1 22 2 21 3 20 4 19 5 17 6 18 7 16 8 8 9 9 10 10 11 15 12
REMARK SMILES IDX 11 13 14 14 12 15 13 16 6 18 7 19 5 20 4 21 1 22 2 23 3 24
REMARK SMILES IDX 95 25 94 26 24 27 25 28 26 29 27 30 28 31 29 32 30 33 31 34
REMARK SMILES IDX 32 35 93 36 33 37 92 38 34 39 35 40 36 41 86 42 37 43 91 44
REMARK SMILES IDX 85 45 87 46 38 47 90 48 84 49 83 50 39 52 71 53 51 54 70 55
REMARK SMILES IDX 52 56 55 57 69 58 88 59 53 60 54 61 68 63 89 64 56 65 40 66
REMARK SMILES IDX 41 67 49 68 42 69 43 70 47 71 50 72 44 73 45 74 48 75 46 76
REMARK SMILES IDX 72 77 73 78 81 79 74 80 75 81 79 82 82 83 76 84 77 85 80 86
REMARK SMILES IDX 78 87 57 88 58 89 66 90 59 91 60 92 64 93 67 94 61 95 62 96
REMARK SMILES IDX 65 97 63 98
REMARK H PARENT 13 17 87 51 55 62
REMARK Flexibility Score: inf
ROOT
ATOM      1  C   UNL A   1      34.234  19.430  24.597  1.00  0.00     0.188 C 
ENDROOT
BRANCH   1   2
ATOM      2  O   UNL A   1      33.065  20.049  24.122  1.00  0.00    -0.376 OA
BRANCH   2   3
ATOM      3  C   UNL A   1      32.207  20.686  25.054  1.00  0.00     0.202 C 
BRANCH   3   4
ATOM      4  C   UNL A   1      31.917  22.203  25.028  1.00  0.00     0.261 C 
BRANCH   4   5
ATOM      5  O   UNL A   1      33.045  23.067  24.779  1.00  0.00    -0.462 OA
BRANCH   5   6
ATOM      6  C   UNL A   1      32.999  23.812  23.646  1.00  0.00     0.329 C 
ATOM      7  O   UNL A   1      32.782  23.337  22.532  1.00  0.00    -0.250 OA
BRANCH   6   8
ATOM      8  C   UNL A   1      33.252  25.333  23.831  1.00  0.00     0.201 C 
ATOM      9  N   UNL A   1      32.557  26.409  23.033  1.00  0.00    -0.322 N 
ATOM     10  C   UNL A   1      31.077  26.493  23.168  1.00  0.00     0.178 C 
ATOM     11  C   UNL A   1      30.672  26.126  24.554  1.00  0.00     0.081 A 
ATOM     12  C   UNL A   1      33.017  25.612  25.349  1.00  0.00     0.093 C 
ATOM     13  N   UNL A   1      29.381  25.988  24.983  1.00  0.00    -0.240 NA
ATOM     14  C   UNL A   1      31.550  25.724  25.536  1.00  0.00     0.042 A 
ATOM     15  C   UNL A   1      29.477  25.516  26.208  1.00  0.00     0.197 A 
ATOM     16  N   UNL A   1      30.782  25.343  26.591  1.00  0.00    -0.348 N 
ATOM     17  H   UNL A   1      31.101  25.009  27.461  1.00  0.00     0.167 HD
BRANCH   9  18
ATOM     18  C   UNL A   1      33.195  27.532  22.501  1.00  0.00     0.229 C 
ATOM     19  O   UNL A   1      34.174  27.409  21.754  1.00  0.00    -0.274 OA
BRANCH  18  20
ATOM     20  C   UNL A   1      32.856  28.947  22.970  1.00  0.00     0.157 C 
BRANCH  20  21
ATOM     21  C   UNL A   1      32.868  29.215  24.429  1.00  0.00     0.061 A 
ATOM     22  C   UNL A   1      34.919  29.042  27.452  1.00  0.00     0.079 C 
ATOM     23  C   UNL A   1      33.876  29.235  26.408  1.00  0.00     0.090 A 
ATOM     24  N   UNL A   1      34.022  28.908  25.142  1.00  0.00    -0.246 NA
ATOM     25  S   UNL A   1      32.348  29.903  26.822  1.00  0.00    -0.127 S 
ATOM     26  C   UNL A   1      31.858  29.779  25.185  1.00  0.00     0.091 A 
ENDBRANCH  20  21
ENDBRANCH  18  20
ENDBRANCH   9  18
ENDBRANCH   6   8
ENDBRANCH   5   6
ENDBRANCH   4   5
ENDBRANCH   3   4
ENDBRANCH   2   3
ENDBRANCH   1   2
BRANCH   1  27
ATOM     27  C   UNL A   1      35.467  20.283  24.920  1.00  0.00     0.188 C 
BRANCH  27  28
ATOM     28  O   UNL A   1      35.494  21.385  25.799  1.00  0.00    -0.376 OA
BRANCH  28  29
ATOM     29  C   UNL A   1      36.437  22.437  25.867  1.00  0.00     0.202 C 
BRANCH  29  30
ATOM     30  C   UNL A   1      37.935  22.264  25.676  1.00  0.00     0.261 C 
BRANCH  30  31
ATOM     31  O   UNL A   1      38.689  23.288  26.265  1.00  0.00    -0.460 OA
BRANCH  31  32
ATOM     32  C   UNL A   1      39.861  22.846  26.767  1.00  0.00     0.338 C 
ATOM     33  O   UNL A   1      40.141  21.730  27.156  1.00  0.00    -0.246 OA
BRANCH  32  34
ATOM     34  C   UNL A   1      40.776  23.987  26.777  1.00  0.00     0.060 A 
ATOM     35  C   UNL A   1      41.754  23.973  27.771  1.00  0.00     0.016 A 
ATOM     36  C   UNL A   1      40.405  25.140  26.074  1.00  0.00     0.016 A 
ATOM     37  C   UNL A   1      42.105  25.179  28.313  1.00  0.00     0.010 A 
ATOM     38  C   UNL A   1      40.722  26.338  26.638  1.00  0.00     0.010 A 
ATOM     39  C   UNL A   1      41.466  26.316  27.816  1.00  0.00    -0.014 A 
BRANCH  39  40
ATOM     40  C   UNL A   1      41.554  27.527  28.586  1.00  0.00     0.031 A 
ATOM     41  C   UNL A   1      42.759  28.317  28.277  1.00  0.00     0.074 A 
ATOM     42  C   UNL A   1      40.523  27.883  29.375  1.00  0.00     0.049 A 
ATOM     43  N   UNL A   1      43.651  28.754  29.097  1.00  0.00    -0.248 NA
ATOM     44  C   UNL A   1      43.087  28.527  26.854  1.00  0.00     0.031 C 
ATOM     45  C   UNL A   1      39.207  27.237  29.487  1.00  0.00     0.029 A 
ATOM     46  N   UNL A   1      40.382  28.987  30.149  1.00  0.00    -0.354 N 
ATOM     47  C   UNL A   1      44.556  29.456  28.311  1.00  0.00     0.074 A 
ATOM     48  C   UNL A   1      44.263  29.141  26.941  1.00  0.00     0.031 C 
ATOM     49  C   UNL A   1      38.345  28.092  30.082  1.00  0.00     0.029 A 
ATOM     50  C   UNL A   1      39.068  29.290  30.471  1.00  0.00     0.049 A 
ATOM     51  H   UNL A   1      41.147  29.526  30.456  1.00  0.00     0.167 HD
ATOM     52  C   UNL A   1      45.298  30.461  28.840  1.00  0.00     0.037 A 
ATOM     53  C   UNL A   1      38.617  30.489  30.913  1.00  0.00     0.037 A 
ATOM     54  C   UNL A   1      45.430  30.321  30.266  1.00  0.00     0.049 A 
ATOM     55  C   UNL A   1      39.802  31.262  31.376  1.00  0.00     0.074 A 
ATOM     56  C   UNL A   1      45.947  29.333  31.082  1.00  0.00     0.029 A 
ATOM     57  N   UNL A   1      44.650  31.108  31.076  1.00  0.00    -0.354 N 
ATOM     58  N   UNL A   1      40.494  30.969  32.443  1.00  0.00    -0.248 NA
ATOM     59  C   UNL A   1      40.495  32.091  30.397  1.00  0.00     0.031 C 
ATOM     60  C   UNL A   1      45.094  29.303  32.222  1.00  0.00     0.029 A 
ATOM     61  C   UNL A   1      44.134  30.303  32.061  1.00  0.00     0.049 A 
ATOM     62  H   UNL A   1      44.489  32.073  30.970  1.00  0.00     0.167 HD
ATOM     63  C   UNL A   1      41.815  31.203  32.085  1.00  0.00     0.074 A 
ATOM     64  C   UNL A   1      41.747  31.981  30.852  1.00  0.00     0.031 C 
ATOM     65  C   UNL A   1      42.833  30.495  32.656  1.00  0.00     0.037 A 
BRANCH  52  66
ATOM     66  C   UNL A   1      45.556  31.746  28.105  1.00  0.00     0.064 A 
ATOM     67  C   UNL A   1      44.463  32.539  27.718  1.00  0.00     0.173 A 
ATOM     68  C   UNL A   1      46.797  32.079  27.513  1.00  0.00     0.173 A 
ATOM     69  F   UNL A   1      43.236  32.292  28.203  1.00  0.00    -0.203 F 
ATOM     70  C   UNL A   1      44.589  33.539  26.753  1.00  0.00     0.198 A 
ATOM     71  C   UNL A   1      46.929  33.116  26.596  1.00  0.00     0.198 A 
ATOM     72  F   UNL A   1      47.903  31.350  27.705  1.00  0.00    -0.203 F 
ATOM     73  F   UNL A   1      43.497  34.182  26.320  1.00  0.00    -0.200 F 
ATOM     74  C   UNL A   1      45.820  33.824  26.189  1.00  0.00     0.200 A 
ATOM     75  F   UNL A   1      48.129  33.361  26.049  1.00  0.00    -0.200 F 
ATOM     76  F   UNL A   1      45.931  34.741  25.220  1.00  0.00    -0.200 F 
ENDBRANCH  52  66
BRANCH  53  77
ATOM     77  C   UNL A   1      37.295  31.117  30.669  1.00  0.00     0.064 A 
ATOM     78  C   UNL A   1      36.437  31.427  31.738  1.00  0.00     0.173 A 
ATOM     79  C   UNL A   1      36.940  31.651  29.414  1.00  0.00     0.173 A 
ATOM     80  F   UNL A   1      36.722  31.001  32.976  1.00  0.00    -0.203 F 
ATOM     81  C   UNL A   1      35.305  32.231  31.562  1.00  0.00     0.198 A 
ATOM     82  C   UNL A   1      35.803  32.440  29.237  1.00  0.00     0.198 A 
ATOM     83  F   UNL A   1      37.736  31.499  28.346  1.00  0.00    -0.203 F 
ATOM     84  F   UNL A   1      34.546  32.555  32.618  1.00  0.00    -0.200 F 
ATOM     85  C   UNL A   1      34.993  32.742  30.313  1.00  0.00     0.200 A 
ATOM     86  F   UNL A   1      35.534  32.954  28.028  1.00  0.00    -0.200 F 
ATOM     87  F   UNL A   1      33.941  33.556  30.155  1.00  0.00    -0.200 F 
ENDBRANCH  53  77
BRANCH  65  88
ATOM     88  C   UNL A   1      42.504  29.646  33.852  1.00  0.00     0.064 A 
ATOM     89  C   UNL A   1      41.954  28.354  33.764  1.00  0.00     0.173 A 
ATOM     90  C   UNL A   1      42.891  30.096  35.120  1.00  0.00     0.173 A 
ATOM     91  F   UNL A   1      41.663  27.809  32.578  1.00  0.00    -0.203 F 
ATOM     92  C   UNL A   1      41.753  27.575  34.901  1.00  0.00     0.198 A 
ATOM     93  C   UNL A   1      42.727  29.300  36.250  1.00  0.00     0.198 A 
ATOM     94  F   UNL A   1      43.481  31.296  35.256  1.00  0.00    -0.203 F 
ATOM     95  F   UNL A   1      41.210  26.353  34.791  1.00  0.00    -0.200 F 
ATOM     96  C   UNL A   1      42.146  28.046  36.142  1.00  0.00     0.200 A 
ATOM     97  F   UNL A   1      43.157  29.737  37.440  1.00  0.00    -0.200 F 
ATOM     98  F   UNL A   1      41.991  27.281  37.232  1.00  0.00    -0.200 F 
ENDBRANCH  65  88
ENDBRANCH  39  40
ENDBRANCH  32  34
ENDBRANCH  31  32
ENDBRANCH  30  31
ENDBRANCH  29  30
ENDBRANCH  28  29
ENDBRANCH  27  28
ENDBRANCH   1  27
TORSDOF 20
ENDMDL
MODEL 2
REMARK VINA RESULT:     -10.9      2.513      3.696
REMARK SMILES Cc1nc(CC(=O)N2Cc3nc[nH]c3C[C@H]2C(=O)OCCOCCOCCOC(=O)c2ccc(-c3c4nc(c(-c5c(F)c(F)c(F)c(F)c5F)c5ccc([nH]5)c(-c5c(F)c(F)c(F)c(F)c5F)c5nc(c(-c6c(F)c(F)c(F)c(F)c6F)c6ccc3[nH]6)C=C5)C=C4)cc2)cs1
REMARK SMILES IDX 23 1 22 2 21 3 20 4 19 5 17 6 18 7 16 8 8 9 9 10 10 11 15 12
REMARK SMILES IDX 11 13 14 14 12 15 13 16 6 18 7 19 5 20 4 21 1 22 2 23 3 24
REMARK SMILES IDX 95 25 94 26 24 27 25 28 26 29 27 30 28 31 29 32 30 33 31 34
REMARK SMILES IDX 32 35 93 36 33 37 92 38 34 39 35 40 36 41 86 42 37 43 91 44
REMARK SMILES IDX 85 45 87 46 38 47 90 48 84 49 83 50 39 52 71 53 51 54 70 55
REMARK SMILES IDX 52 56 55 57 69 58 88 59 53 60 54 61 68 63 89 64 56 65 40 66
REMARK SMILES IDX 41 67 49 68 42 69 43 70 47 71 50 72 44 73 45 74 48 75 46 76
REMARK SMILES IDX 72 77 73 78 81 79 74 80 75 81 79 82 82 83 76 84 77 85 80 86
REMARK SMILES IDX 78 87 57 88 58 89 66 90 59 91 60 92 64 93 67 94 61 95 62 96
REMARK SMILES IDX 65 97 63 98
REMARK H PARENT 13 17 87 51 55 62
REMARK Flexibility Score: inf
ROOT
ATOM      1  C   UNL A   1      37.728  22.695  25.595  1.00  0.00     0.188 C 
ENDROOT
BRANCH   1   2
ATOM      2  O   UNL A   1      37.090  23.709  24.861  1.00  0.00    -0.376 OA
BRANCH   2   3
ATOM      3  C   UNL A   1      35.712  23.563  24.559  1.00  0.00     0.202 C 
BRANCH   3   4
ATOM      4  C   UNL A   1      34.654  23.193  25.621  1.00  0.00     0.261 C 
BRANCH   4   5
ATOM      5  O   UNL A   1      33.985  24.293  26.271  1.00  0.00    -0.462 OA
BRANCH   5   6
ATOM      6  C   UNL A   1      32.633  24.219  26.348  1.00  0.00     0.329 C 
ATOM      7  O   UNL A   1      32.030  23.219  26.737  1.00  0.00    -0.250 OA
BRANCH   6   8
ATOM      8  C   UNL A   1      31.863  25.490  25.896  1.00  0.00     0.201 C 
ATOM      9  N   UNL A   1      32.526  26.796  25.531  1.00  0.00    -0.322 N 
ATOM     10  C   UNL A   1      33.459  26.773  24.371  1.00  0.00     0.178 C 
ATOM     11  C   UNL A   1      32.978  25.798  23.352  1.00  0.00     0.081 A 
ATOM     12  C   UNL A   1      30.977  25.032  24.694  1.00  0.00     0.093 C 
ATOM     13  N   UNL A   1      33.660  25.447  22.219  1.00  0.00    -0.240 NA
ATOM     14  C   UNL A   1      31.859  25.010  23.502  1.00  0.00     0.042 A 
ATOM     15  C   UNL A   1      32.960  24.467  21.690  1.00  0.00     0.197 A 
ATOM     16  N   UNL A   1      31.849  24.168  22.435  1.00  0.00    -0.348 N 
ATOM     17  H   UNL A   1      31.175  23.478  22.235  1.00  0.00     0.167 HD
BRANCH   9  18
ATOM     18  C   UNL A   1      32.064  28.052  25.929  1.00  0.00     0.229 C 
ATOM     19  O   UNL A   1      31.567  28.217  27.050  1.00  0.00    -0.274 OA
BRANCH  18  20
ATOM     20  C   UNL A   1      31.958  29.218  24.947  1.00  0.00     0.157 C 
BRANCH  20  21
ATOM     21  C   UNL A   1      30.697  29.365  24.178  1.00  0.00     0.061 A 
ATOM     22  C   UNL A   1      28.088  31.734  23.200  1.00  0.00     0.079 C 
ATOM     23  C   UNL A   1      28.993  30.573  23.425  1.00  0.00     0.090 A 
ATOM     24  N   UNL A   1      30.074  30.609  24.175  1.00  0.00    -0.246 NA
ATOM     25  S   UNL A   1      28.648  29.052  22.704  1.00  0.00    -0.127 S 
ATOM     26  C   UNL A   1      30.064  28.402  23.417  1.00  0.00     0.091 A 
ENDBRANCH  20  21
ENDBRANCH  18  20
ENDBRANCH   9  18
ENDBRANCH   6   8
ENDBRANCH   5   6
ENDBRANCH   4   5
ENDBRANCH   3   4
ENDBRANCH   2   3
ENDBRANCH   1   2
BRANCH   1  27
ATOM     27  C   UNL A   1      38.993  23.021  26.398  1.00  0.00     0.188 C 
BRANCH  27  28
ATOM     28  O   UNL A   1      40.147  22.212  26.475  1.00  0.00    -0.376 OA
BRANCH  28  29
ATOM     29  C   UNL A   1      40.235  20.801  26.482  1.00  0.00     0.202 C 
BRANCH  29  30
ATOM     30  C   UNL A   1      41.510  20.016  26.221  1.00  0.00     0.261 C 
BRANCH  30  31
ATOM     31  O   UNL A   1      42.675  20.746  26.492  1.00  0.00    -0.460 OA
BRANCH  31  32
ATOM     32  C   UNL A   1      43.508  20.806  25.433  1.00  0.00     0.338 C 
ATOM     33  O   UNL A   1      43.815  19.916  24.665  1.00  0.00    -0.246 OA
BRANCH  32  34
ATOM     34  C   UNL A   1      44.010  22.178  25.364  1.00  0.00     0.060 A 
ATOM     35  C   UNL A   1      45.118  22.460  26.162  1.00  0.00     0.016 A 
ATOM     36  C   UNL A   1      43.171  23.164  24.829  1.00  0.00     0.016 A 
ATOM     37  C   UNL A   1      45.179  23.707  26.722  1.00  0.00     0.010 A 
ATOM     38  C   UNL A   1      43.207  24.392  25.416  1.00  0.00     0.010 A 
ATOM     39  C   UNL A   1      44.136  24.589  26.436  1.00  0.00    -0.014 A 
BRANCH  39  40
ATOM     40  C   UNL A   1      43.995  25.754  27.267  1.00  0.00     0.031 A 
ATOM     41  C   UNL A   1      45.055  26.752  27.042  1.00  0.00     0.074 A 
ATOM     42  C   UNL A   1      42.897  25.886  28.035  1.00  0.00     0.049 A 
ATOM     43  N   UNL A   1      45.837  27.288  27.915  1.00  0.00    -0.248 NA
ATOM     44  C   UNL A   1      45.382  27.092  25.644  1.00  0.00     0.031 C 
ATOM     45  C   UNL A   1      41.708  25.023  28.067  1.00  0.00     0.029 A 
ATOM     46  N   UNL A   1      42.548  26.907  28.857  1.00  0.00    -0.354 N 
ATOM     47  C   UNL A   1      46.630  28.175  27.198  1.00  0.00     0.074 A 
ATOM     48  C   UNL A   1      46.432  27.891  25.804  1.00  0.00     0.031 C 
ATOM     49  C   UNL A   1      40.697  25.685  28.671  1.00  0.00     0.029 A 
ATOM     50  C   UNL A   1      41.193  26.965  29.145  1.00  0.00     0.049 A 
ATOM     51  H   UNL A   1      43.201  27.550  29.217  1.00  0.00     0.167 HD
ATOM     52  C   UNL A   1      47.174  29.261  27.802  1.00  0.00     0.037 A 
ATOM     53  C   UNL A   1      40.531  28.045  29.628  1.00  0.00     0.037 A 
ATOM     54  C   UNL A   1      47.288  29.067  29.223  1.00  0.00     0.049 A 
ATOM     55  C   UNL A   1      41.554  28.981  30.172  1.00  0.00     0.074 A 
ATOM     56  C   UNL A   1      47.944  28.138  30.008  1.00  0.00     0.029 A 
ATOM     57  N   UNL A   1      46.363  29.666  30.042  1.00  0.00    -0.354 N 
ATOM     58  N   UNL A   1      42.256  28.751  31.247  1.00  0.00    -0.248 NA
ATOM     59  C   UNL A   1      42.122  29.967  29.260  1.00  0.00     0.031 C 
ATOM     60  C   UNL A   1      47.077  27.902  31.113  1.00  0.00     0.029 A 
ATOM     61  C   UNL A   1      45.965  28.733  30.966  1.00  0.00     0.049 A 
ATOM     62  H   UNL A   1      46.043  30.594  29.978  1.00  0.00     0.167 HD
ATOM     63  C   UNL A   1      43.527  29.225  30.951  1.00  0.00     0.074 A 
ATOM     64  C   UNL A   1      43.361  30.046  29.755  1.00  0.00     0.031 C 
ATOM     65  C   UNL A   1      44.635  28.668  31.522  1.00  0.00     0.037 A 
BRANCH  52  66
ATOM     66  C   UNL A   1      47.229  30.609  27.141  1.00  0.00     0.064 A 
ATOM     67  C   UNL A   1      48.445  31.312  27.132  1.00  0.00     0.173 A 
ATOM     68  C   UNL A   1      46.083  31.359  26.785  1.00  0.00     0.173 A 
ATOM     69  F   UNL A   1      49.588  30.701  27.478  1.00  0.00    -0.203 F 
ATOM     70  C   UNL A   1      48.498  32.680  26.860  1.00  0.00     0.198 A 
ATOM     71  C   UNL A   1      46.149  32.708  26.456  1.00  0.00     0.198 A 
ATOM     72  F   UNL A   1      44.845  30.853  26.848  1.00  0.00    -0.203 F 
ATOM     73  F   UNL A   1      49.658  33.336  26.989  1.00  0.00    -0.200 F 
ATOM     74  C   UNL A   1      47.350  33.378  26.527  1.00  0.00     0.200 A 
ATOM     75  F   UNL A   1      45.021  33.368  26.154  1.00  0.00    -0.200 F 
ATOM     76  F   UNL A   1      47.391  34.701  26.326  1.00  0.00    -0.200 F 
ENDBRANCH  52  66
BRANCH  53  77
ATOM     77  C   UNL A   1      39.129  28.452  29.368  1.00  0.00     0.064 A 
ATOM     78  C   UNL A   1      38.210  28.587  30.422  1.00  0.00     0.173 A 
ATOM     79  C   UNL A   1      38.716  28.953  28.117  1.00  0.00     0.173 A 
ATOM     80  F   UNL A   1      38.538  28.182  31.657  1.00  0.00    -0.203 F 
ATOM     81  C   UNL A   1      36.965  29.199  30.238  1.00  0.00     0.198 A 
ATOM     82  C   UNL A   1      37.467  29.549  27.931  1.00  0.00     0.198 A 
ATOM     83  F   UNL A   1      39.546  28.963  27.064  1.00  0.00    -0.203 F 
ATOM     84  F   UNL A   1      36.142  29.365  31.283  1.00  0.00    -0.200 F 
ATOM     85  C   UNL A   1      36.597  29.684  28.994  1.00  0.00     0.200 A 
ATOM     86  F   UNL A   1      37.140  30.043  26.728  1.00  0.00    -0.200 F 
ATOM     87  F   UNL A   1      35.428  30.318  28.830  1.00  0.00    -0.200 F 
ENDBRANCH  53  77
BRANCH  65  88
ATOM     88  C   UNL A   1      44.423  27.712  32.662  1.00  0.00     0.064 A 
ATOM     89  C   UNL A   1      44.235  26.328  32.495  1.00  0.00     0.173 A 
ATOM     90  C   UNL A   1      44.559  28.190  33.972  1.00  0.00     0.173 A 
ATOM     91  F   UNL A   1      44.209  25.779  31.275  1.00  0.00    -0.203 F 
ATOM     92  C   UNL A   1      44.133  25.474  33.591  1.00  0.00     0.198 A 
ATOM     93  C   UNL A   1      44.498  27.328  35.064  1.00  0.00     0.198 A 
ATOM     94  F   UNL A   1      44.804  29.492  34.190  1.00  0.00    -0.203 F 
ATOM     95  F   UNL A   1      43.937  24.160  33.403  1.00  0.00    -0.200 F 
ATOM     96  C   UNL A   1      44.272  25.974  34.874  1.00  0.00     0.200 A 
ATOM     97  F   UNL A   1      44.686  27.808  36.300  1.00  0.00    -0.200 F 
ATOM     98  F   UNL A   1      44.216  25.148  35.928  1.00  0.00    -0.200 F 
ENDBRANCH  65  88
ENDBRANCH  39  40
ENDBRANCH  32  34
ENDBRANCH  31  32
ENDBRANCH  30  31
ENDBRANCH  29  30
ENDBRANCH  28  29
ENDBRANCH  27  28
ENDBRANCH   1  27
TORSDOF 20
ENDMDL
MODEL 3
REMARK VINA RESULT:     -10.9      4.161      9.114
REMARK SMILES Cc1nc(CC(=O)N2Cc3nc[nH]c3C[C@H]2C(=O)OCCOCCOCCOC(=O)c2ccc(-c3c4nc(c(-c5c(F)c(F)c(F)c(F)c5F)c5ccc([nH]5)c(-c5c(F)c(F)c(F)c(F)c5F)c5nc(c(-c6c(F)c(F)c(F)c(F)c6F)c6ccc3[nH]6)C=C5)C=C4)cc2)cs1
REMARK SMILES IDX 23 1 22 2 21 3 20 4 19 5 17 6 18 7 16 8 8 9 9 10 10 11 15 12
REMARK SMILES IDX 11 13 14 14 12 15 13 16 6 18 7 19 5 20 4 21 1 22 2 23 3 24
REMARK SMILES IDX 95 25 94 26 24 27 25 28 26 29 27 30 28 31 29 32 30 33 31 34
REMARK SMILES IDX 32 35 93 36 33 37 92 38 34 39 35 40 36 41 86 42 37 43 91 44
REMARK SMILES IDX 85 45 87 46 38 47 90 48 84 49 83 50 39 52 71 53 51 54 70 55
REMARK SMILES IDX 52 56 55 57 69 58 88 59 53 60 54 61 68 63 89 64 56 65 40 66
REMARK SMILES IDX 41 67 49 68 42 69 43 70 47 71 50 72 44 73 45 74 48 75 46 76
REMARK SMILES IDX 72 77 73 78 81 79 74 80 75 81 79 82 82 83 76 84 77 85 80 86
REMARK SMILES IDX 78 87 57 88 58 89 66 90 59 91 60 92 64 93 67 94 61 95 62 96
REMARK SMILES IDX 65 97 63 98
REMARK H PARENT 13 17 87 51 55 62
REMARK Flexibility Score: inf
ROOT
ATOM      1  C   UNL A   1      32.615  29.400  26.061  1.00  0.00     0.188 C 
ENDROOT
BRANCH   1   2
ATOM      2  O   UNL A   1      33.412  28.919  25.008  1.00  0.00    -0.376 OA
BRANCH   2   3
ATOM      3  C   UNL A   1      32.804  28.115  24.010  1.00  0.00     0.202 C 
BRANCH   3   4
ATOM      4  C   UNL A   1      33.615  27.325  22.960  1.00  0.00     0.261 C 
BRANCH   4   5
ATOM      5  O   UNL A   1      33.946  25.962  23.297  1.00  0.00    -0.462 OA
BRANCH   5   6
ATOM      6  C   UNL A   1      33.343  24.993  22.564  1.00  0.00     0.329 C 
ATOM      7  O   UNL A   1      33.154  25.081  21.351  1.00  0.00    -0.250 OA
BRANCH   6   8
ATOM      8  C   UNL A   1      32.879  23.741  23.356  1.00  0.00     0.201 C 
ATOM      9  N   UNL A   1      33.137  23.528  24.828  1.00  0.00    -0.322 N 
ATOM     10  C   UNL A   1      32.538  24.519  25.763  1.00  0.00     0.178 C 
ATOM     11  C   UNL A   1      31.229  24.992  25.232  1.00  0.00     0.081 A 
ATOM     12  C   UNL A   1      31.342  23.635  23.101  1.00  0.00     0.093 C 
ATOM     13  N   UNL A   1      30.471  25.988  25.785  1.00  0.00    -0.240 NA
ATOM     14  C   UNL A   1      30.693  24.594  24.027  1.00  0.00     0.042 A 
ATOM     15  C   UNL A   1      29.490  26.185  24.930  1.00  0.00     0.197 A 
ATOM     16  N   UNL A   1      29.580  25.353  23.844  1.00  0.00    -0.348 N 
ATOM     17  H   UNL A   1      28.959  25.313  23.080  1.00  0.00     0.167 HD
BRANCH   9  18
ATOM     18  C   UNL A   1      33.546  22.316  25.389  1.00  0.00     0.229 C 
ATOM     19  O   UNL A   1      33.155  21.977  26.513  1.00  0.00    -0.274 OA
BRANCH  18  20
ATOM     20  C   UNL A   1      34.639  21.461  24.750  1.00  0.00     0.157 C 
BRANCH  20  21
ATOM     21  C   UNL A   1      36.046  21.728  25.140  1.00  0.00     0.061 A 
ATOM     22  C   UNL A   1      38.289  24.224  26.593  1.00  0.00     0.079 C 
ATOM     23  C   UNL A   1      37.627  23.033  25.995  1.00  0.00     0.090 A 
ATOM     24  N   UNL A   1      36.351  22.975  25.676  1.00  0.00    -0.246 NA
ATOM     25  S   UNL A   1      38.535  21.616  25.652  1.00  0.00    -0.127 S 
ATOM     26  C   UNL A   1      37.115  20.856  25.067  1.00  0.00     0.091 A 
ENDBRANCH  20  21
ENDBRANCH  18  20
ENDBRANCH   9  18
ENDBRANCH   6   8
ENDBRANCH   5   6
ENDBRANCH   4   5
ENDBRANCH   3   4
ENDBRANCH   2   3
ENDBRANCH   1   2
BRANCH   1  27
ATOM     27  C   UNL A   1      33.145  30.524  26.960  1.00  0.00     0.188 C 
BRANCH  27  28
ATOM     28  O   UNL A   1      34.429  30.571  27.542  1.00  0.00    -0.376 OA
BRANCH  28  29
ATOM     29  C   UNL A   1      35.242  31.701  27.794  1.00  0.00     0.202 C 
BRANCH  29  30
ATOM     30  C   UNL A   1      36.004  31.943  29.086  1.00  0.00     0.261 C 
BRANCH  30  31
ATOM     31  O   UNL A   1      37.339  31.520  29.029  1.00  0.00    -0.460 OA
BRANCH  31  32
ATOM     32  C   UNL A   1      37.490  30.228  29.383  1.00  0.00     0.338 C 
ATOM     33  O   UNL A   1      36.904  29.611  30.250  1.00  0.00    -0.246 OA
BRANCH  32  34
ATOM     34  C   UNL A   1      38.530  29.669  28.520  1.00  0.00     0.060 A 
ATOM     35  C   UNL A   1      38.359  28.336  28.148  1.00  0.00     0.016 A 
ATOM     36  C   UNL A   1      39.754  30.345  28.434  1.00  0.00     0.016 A 
ATOM     37  C   UNL A   1      39.490  27.574  28.031  1.00  0.00     0.010 A 
ATOM     38  C   UNL A   1      40.878  29.581  28.357  1.00  0.00     0.010 A 
ATOM     39  C   UNL A   1      40.712  28.200  28.280  1.00  0.00    -0.014 A 
BRANCH  39  40
ATOM     40  C   UNL A   1      41.861  27.365  28.502  1.00  0.00     0.031 A 
ATOM     41  C   UNL A   1      42.461  27.555  29.835  1.00  0.00     0.074 A 
ATOM     42  C   UNL A   1      42.188  26.436  27.584  1.00  0.00     0.049 A 
ATOM     43  N   UNL A   1      43.687  27.833  30.119  1.00  0.00    -0.248 NA
ATOM     44  C   UNL A   1      41.548  27.580  30.993  1.00  0.00     0.031 C 
ATOM     45  C   UNL A   1      41.441  26.059  26.376  1.00  0.00     0.029 A 
ATOM     46  N   UNL A   1      43.197  25.531  27.607  1.00  0.00    -0.354 N 
ATOM     47  C   UNL A   1      43.737  27.882  31.506  1.00  0.00     0.074 A 
ATOM     48  C   UNL A   1      42.381  27.894  31.981  1.00  0.00     0.031 C 
ATOM     49  C   UNL A   1      41.889  24.862  25.935  1.00  0.00     0.029 A 
ATOM     50  C   UNL A   1      43.004  24.445  26.766  1.00  0.00     0.049 A 
ATOM     51  H   UNL A   1      43.997  25.635  28.173  1.00  0.00     0.167 HD
ATOM     52  C   UNL A   1      44.894  27.626  32.166  1.00  0.00     0.037 A 
ATOM     53  C   UNL A   1      43.650  23.256  26.847  1.00  0.00     0.037 A 
ATOM     54  C   UNL A   1      46.038  27.852  31.324  1.00  0.00     0.049 A 
ATOM     55  C   UNL A   1      44.854  23.465  27.698  1.00  0.00     0.074 A 
ATOM     56  C   UNL A   1      46.517  28.955  30.643  1.00  0.00     0.029 A 
ATOM     57  N   UNL A   1      46.668  26.764  30.770  1.00  0.00    -0.354 N 
ATOM     58  N   UNL A   1      45.892  24.166  27.334  1.00  0.00    -0.248 NA
ATOM     59  C   UNL A   1      44.708  23.274  29.136  1.00  0.00     0.031 C 
ATOM     60  C   UNL A   1      47.047  28.442  29.425  1.00  0.00     0.029 A 
ATOM     61  C   UNL A   1      46.905  27.053  29.450  1.00  0.00     0.049 A 
ATOM     62  H   UNL A   1      46.906  25.930  31.234  1.00  0.00     0.167 HD
ATOM     63  C   UNL A   1      46.278  24.851  28.479  1.00  0.00     0.074 A 
ATOM     64  C   UNL A   1      45.575  24.192  29.576  1.00  0.00     0.031 C 
ATOM     65  C   UNL A   1      46.892  26.067  28.396  1.00  0.00     0.037 A 
BRANCH  52  66
ATOM     66  C   UNL A   1      44.940  26.812  33.428  1.00  0.00     0.064 A 
ATOM     67  C   UNL A   1      44.421  25.506  33.413  1.00  0.00     0.173 A 
ATOM     68  C   UNL A   1      45.197  27.357  34.708  1.00  0.00     0.173 A 
ATOM     69  F   UNL A   1      44.120  24.906  32.252  1.00  0.00    -0.203 F 
ATOM     70  C   UNL A   1      44.112  24.828  34.594  1.00  0.00     0.198 A 
ATOM     71  C   UNL A   1      44.943  26.654  35.881  1.00  0.00     0.198 A 
ATOM     72  F   UNL A   1      45.593  28.624  34.883  1.00  0.00    -0.203 F 
ATOM     73  F   UNL A   1      43.499  23.639  34.533  1.00  0.00    -0.200 F 
ATOM     74  C   UNL A   1      44.368  25.404  35.826  1.00  0.00     0.200 A 
ATOM     75  F   UNL A   1      45.182  27.239  37.064  1.00  0.00    -0.200 F 
ATOM     76  F   UNL A   1      44.016  24.780  36.957  1.00  0.00    -0.200 F 
ENDBRANCH  52  66
BRANCH  53  77
ATOM     77  C   UNL A   1      43.133  21.908  26.507  1.00  0.00     0.064 A 
ATOM     78  C   UNL A   1      43.803  21.092  25.581  1.00  0.00     0.173 A 
ATOM     79  C   UNL A   1      42.111  21.289  27.254  1.00  0.00     0.173 A 
ATOM     80  F   UNL A   1      44.821  21.584  24.861  1.00  0.00    -0.203 F 
ATOM     81  C   UNL A   1      43.481  19.738  25.425  1.00  0.00     0.198 A 
ATOM     82  C   UNL A   1      41.779  19.943  27.087  1.00  0.00     0.198 A 
ATOM     83  F   UNL A   1      41.469  21.946  28.231  1.00  0.00    -0.203 F 
ATOM     84  F   UNL A   1      44.186  18.978  24.577  1.00  0.00    -0.200 F 
ATOM     85  C   UNL A   1      42.474  19.164  26.183  1.00  0.00     0.200 A 
ATOM     86  F   UNL A   1      40.824  19.395  27.852  1.00  0.00    -0.200 F 
ATOM     87  F   UNL A   1      42.201  17.857  26.073  1.00  0.00    -0.200 F 
ENDBRANCH  53  77
BRANCH  65  88
ATOM     88  C   UNL A   1      47.363  26.517  27.041  1.00  0.00     0.064 A 
ATOM     89  C   UNL A   1      48.614  26.175  26.497  1.00  0.00     0.173 A 
ATOM     90  C   UNL A   1      46.462  27.193  26.210  1.00  0.00     0.173 A 
ATOM     91  F   UNL A   1      49.486  25.432  27.187  1.00  0.00    -0.203 F 
ATOM     92  C   UNL A   1      48.963  26.544  25.200  1.00  0.00     0.198 A 
ATOM     93  C   UNL A   1      46.798  27.525  24.900  1.00  0.00     0.198 A 
ATOM     94  F   UNL A   1      45.229  27.489  26.654  1.00  0.00    -0.203 F 
ATOM     95  F   UNL A   1      50.170  26.221  24.711  1.00  0.00    -0.200 F 
ATOM     96  C   UNL A   1      48.053  27.212  24.400  1.00  0.00     0.200 A 
ATOM     97  F   UNL A   1      45.895  28.124  24.113  1.00  0.00    -0.200 F 
ATOM     98  F   UNL A   1      48.371  27.531  23.138  1.00  0.00    -0.200 F 
ENDBRANCH  65  88
ENDBRANCH  39  40
ENDBRANCH  32  34
ENDBRANCH  31  32
ENDBRANCH  30  31
ENDBRANCH  29  30
ENDBRANCH  28  29
ENDBRANCH  27  28
ENDBRANCH   1  27
TORSDOF 20
ENDMDL
