MODEL 1
REMARK VINA RESULT:     -11.1      0.000      0.000
REMARK SMILES CN1C(=O)C[C@H](C(=O)OCCOCCOCCOC(=O)c2ccc(-c3c4nc(c(-c5c(F)c(F)c(F)c(F)c5F)c5ccc([nH]5)c(-c5c(F)c(F)c(F)c(F)c5F)c5nc(c(-c6c(F)c(F)c(F)c(F)c6F)c6ccc3[nH]6)C=C5)C=C4)cc2)c2cccc(Cl)c21
REMARK SMILES IDX 14 1 13 2 12 3 11 4 10 5 9 6 7 7 8 8 6 9 1 10 2 11 3 12
REMARK SMILES IDX 90 13 4 14 5 15 84 16 88 17 85 18 87 19 89 20 86 21 15 22
REMARK SMILES IDX 16 23 17 24 18 25 19 26 20 27 21 28 22 29 83 30 23 31 82 32
REMARK SMILES IDX 24 33 25 34 26 35 76 36 27 37 81 38 75 39 77 40 28 41 80 42
REMARK SMILES IDX 74 43 73 44 29 46 61 47 41 48 60 49 42 50 45 51 59 52 78 53
REMARK SMILES IDX 43 54 44 55 58 57 79 58 46 59 30 60 31 61 39 62 32 63 33 64
REMARK SMILES IDX 37 65 40 66 34 67 35 68 38 69 36 70 62 71 63 72 71 73 64 74
REMARK SMILES IDX 65 75 69 76 72 77 66 78 67 79 70 80 68 81 47 82 48 83 56 84
REMARK SMILES IDX 49 85 50 86 54 87 57 88 51 89 52 90 55 91 53 92
REMARK H PARENT 77 45 45 56
REMARK Flexibility Score: inf
ROOT
ATOM      1  C   UNL A   1      32.655  29.495  27.221  1.00  0.00     0.188 C 
ENDROOT
BRANCH   1   2
ATOM      2  C   UNL A   1      31.626  28.359  27.104  1.00  0.00     0.188 C 
BRANCH   2   3
ATOM      3  O   UNL A   1      31.271  27.841  25.828  1.00  0.00    -0.376 OA
BRANCH   3   4
ATOM      4  C   UNL A   1      31.690  26.544  25.437  1.00  0.00     0.202 C 
BRANCH   4   5
ATOM      5  C   UNL A   1      33.126  26.106  25.770  1.00  0.00     0.261 C 
BRANCH   5   6
ATOM      6  O   UNL A   1      34.068  25.985  24.681  1.00  0.00    -0.463 OA
BRANCH   6   7
ATOM      7  C   UNL A   1      33.990  24.847  23.937  1.00  0.00     0.314 C 
ATOM      8  O   UNL A   1      33.950  24.839  22.710  1.00  0.00    -0.252 OA
BRANCH   7   9
ATOM      9  C   UNL A   1      33.875  23.549  24.763  1.00  0.00     0.140 C 
ATOM     10  C   UNL A   1      34.020  19.204  24.553  1.00  0.00     0.153 C 
ATOM     11  N   UNL A   1      34.058  20.647  24.692  1.00  0.00    -0.314 N 
ATOM     12  C   UNL A   1      32.814  21.253  24.788  1.00  0.00     0.227 C 
ATOM     13  C   UNL A   1      35.285  21.399  24.795  1.00  0.00     0.066 A 
ATOM     14  O   UNL A   1      31.776  20.654  25.078  1.00  0.00    -0.274 OA
ATOM     15  C   UNL A   1      32.736  22.665  24.317  1.00  0.00     0.120 C 
ATOM     16  C   UNL A   1      35.196  22.814  24.850  1.00  0.00    -0.008 A 
ATOM     17  C   UNL A   1      36.584  20.836  24.920  1.00  0.00     0.065 A 
ATOM     18  C   UNL A   1      36.351  23.599  25.076  1.00  0.00     0.007 A 
ATOM     19  C   UNL A   1      37.719  21.652  25.077  1.00  0.00     0.023 A 
ATOM     20  Cl  UNL A   1      36.961  19.146  25.001  1.00  0.00    -0.082 Cl
ATOM     21  C   UNL A   1      37.605  23.028  25.165  1.00  0.00     0.002 A 
ENDBRANCH   7   9
ENDBRANCH   6   7
ENDBRANCH   5   6
ENDBRANCH   4   5
ENDBRANCH   3   4
ENDBRANCH   2   3
ENDBRANCH   1   2
BRANCH   1  22
ATOM     22  O   UNL A   1      32.409  30.593  26.382  1.00  0.00    -0.376 OA
BRANCH  22  23
ATOM     23  C   UNL A   1      31.600  31.642  26.862  1.00  0.00     0.202 C 
BRANCH  23  24
ATOM     24  C   UNL A   1      32.150  33.078  26.879  1.00  0.00     0.261 C 
BRANCH  24  25
ATOM     25  O   UNL A   1      32.683  33.569  28.122  1.00  0.00    -0.460 OA
BRANCH  25  26
ATOM     26  C   UNL A   1      33.848  34.253  28.086  1.00  0.00     0.338 C 
ATOM     27  O   UNL A   1      33.990  35.457  27.927  1.00  0.00    -0.246 OA
BRANCH  26  28
ATOM     28  C   UNL A   1      34.934  33.324  28.475  1.00  0.00     0.060 A 
ATOM     29  C   UNL A   1      34.615  32.053  28.978  1.00  0.00     0.016 A 
ATOM     30  C   UNL A   1      36.269  33.712  28.342  1.00  0.00     0.016 A 
ATOM     31  C   UNL A   1      35.631  31.173  29.364  1.00  0.00     0.010 A 
ATOM     32  C   UNL A   1      37.282  32.847  28.768  1.00  0.00     0.010 A 
ATOM     33  C   UNL A   1      36.967  31.586  29.307  1.00  0.00    -0.014 A 
BRANCH  33  34
ATOM     34  C   UNL A   1      38.016  30.825  30.033  1.00  0.00     0.031 A 
ATOM     35  C   UNL A   1      38.271  31.181  31.471  1.00  0.00     0.074 A 
ATOM     36  C   UNL A   1      38.739  29.858  29.442  1.00  0.00     0.049 A 
ATOM     37  N   UNL A   1      39.199  30.751  32.287  1.00  0.00    -0.248 NA
ATOM     38  C   UNL A   1      37.350  32.161  32.072  1.00  0.00     0.031 C 
ATOM     39  C   UNL A   1      38.553  29.374  28.078  1.00  0.00     0.029 A 
ATOM     40  N   UNL A   1      39.796  29.121  29.922  1.00  0.00    -0.354 N 
ATOM     41  C   UNL A   1      38.975  31.406  33.489  1.00  0.00     0.074 A 
ATOM     42  C   UNL A   1      37.843  32.284  33.294  1.00  0.00     0.031 C 
ATOM     43  C   UNL A   1      39.480  28.432  27.821  1.00  0.00     0.029 A 
ATOM     44  C   UNL A   1      40.347  28.276  28.991  1.00  0.00     0.049 A 
ATOM     45  H   UNL A   1      40.126  29.191  30.847  1.00  0.00     0.167 HD
ATOM     46  C   UNL A   1      39.650  31.285  34.656  1.00  0.00     0.037 A 
ATOM     47  C   UNL A   1      41.442  27.491  29.066  1.00  0.00     0.037 A 
ATOM     48  C   UNL A   1      40.787  30.425  34.847  1.00  0.00     0.049 A 
ATOM     49  C   UNL A   1      42.244  27.453  30.345  1.00  0.00     0.074 A 
ATOM     50  C   UNL A   1      41.538  30.235  35.994  1.00  0.00     0.029 A 
ATOM     51  N   UNL A   1      41.344  29.620  33.864  1.00  0.00    -0.354 N 
ATOM     52  N   UNL A   1      42.023  28.066  31.482  1.00  0.00    -0.248 NA
ATOM     53  C   UNL A   1      43.453  26.612  30.348  1.00  0.00     0.031 C 
ATOM     54  C   UNL A   1      42.584  29.361  35.689  1.00  0.00     0.029 A 
ATOM     55  C   UNL A   1      42.447  28.954  34.372  1.00  0.00     0.049 A 
ATOM     56  H   UNL A   1      41.005  29.534  32.945  1.00  0.00     0.167 HD
ATOM     57  C   UNL A   1      43.042  27.666  32.340  1.00  0.00     0.074 A 
ATOM     58  C   UNL A   1      43.874  26.744  31.598  1.00  0.00     0.031 C 
ATOM     59  C   UNL A   1      43.267  28.031  33.627  1.00  0.00     0.037 A 
BRANCH  46  60
ATOM     60  C   UNL A   1      39.192  32.117  35.816  1.00  0.00     0.064 A 
ATOM     61  C   UNL A   1      38.303  31.612  36.777  1.00  0.00     0.173 A 
ATOM     62  C   UNL A   1      39.696  33.413  36.004  1.00  0.00     0.173 A 
ATOM     63  F   UNL A   1      37.778  30.386  36.633  1.00  0.00    -0.203 F 
ATOM     64  C   UNL A   1      37.928  32.378  37.878  1.00  0.00     0.198 A 
ATOM     65  C   UNL A   1      39.344  34.164  37.121  1.00  0.00     0.198 A 
ATOM     66  F   UNL A   1      40.549  33.942  35.113  1.00  0.00    -0.203 F 
ATOM     67  F   UNL A   1      37.051  31.889  38.765  1.00  0.00    -0.200 F 
ATOM     68  C   UNL A   1      38.458  33.648  38.054  1.00  0.00     0.200 A 
ATOM     69  F   UNL A   1      39.868  35.384  37.298  1.00  0.00    -0.200 F 
ATOM     70  F   UNL A   1      38.113  34.375  39.126  1.00  0.00    -0.200 F 
ENDBRANCH  46  60
BRANCH  47  71
ATOM     71  C   UNL A   1      41.854  26.676  27.891  1.00  0.00     0.064 A 
ATOM     72  C   UNL A   1      42.812  27.151  26.985  1.00  0.00     0.173 A 
ATOM     73  C   UNL A   1      41.294  25.414  27.641  1.00  0.00     0.173 A 
ATOM     74  F   UNL A   1      43.353  28.367  27.159  1.00  0.00    -0.203 F 
ATOM     75  C   UNL A   1      43.190  26.401  25.874  1.00  0.00     0.198 A 
ATOM     76  C   UNL A   1      41.693  24.652  26.546  1.00  0.00     0.198 A 
ATOM     77  F   UNL A   1      40.362  24.917  28.468  1.00  0.00    -0.203 F 
ATOM     78  F   UNL A   1      44.077  26.899  25.001  1.00  0.00    -0.200 F 
ATOM     79  C   UNL A   1      42.637  25.147  25.660  1.00  0.00     0.200 A 
ATOM     80  F   UNL A   1      41.162  23.436  26.348  1.00  0.00    -0.200 F 
ATOM     81  F   UNL A   1      43.007  24.421  24.596  1.00  0.00    -0.200 F 
ENDBRANCH  47  71
BRANCH  59  82
ATOM     82  C   UNL A   1      44.442  27.421  34.339  1.00  0.00     0.064 A 
ATOM     83  C   UNL A   1      45.688  28.062  34.387  1.00  0.00     0.173 A 
ATOM     84  C   UNL A   1      44.296  26.220  35.052  1.00  0.00     0.173 A 
ATOM     85  F   UNL A   1      45.884  29.208  33.717  1.00  0.00    -0.203 F 
ATOM     86  C   UNL A   1      46.749  27.514  35.105  1.00  0.00     0.198 A 
ATOM     87  C   UNL A   1      45.347  25.694  35.798  1.00  0.00     0.198 A 
ATOM     88  F   UNL A   1      43.122  25.571  35.051  1.00  0.00    -0.203 F 
ATOM     89  F   UNL A   1      47.942  28.125  35.104  1.00  0.00    -0.200 F 
ATOM     90  C   UNL A   1      46.575  26.338  35.818  1.00  0.00     0.200 A 
ATOM     91  F   UNL A   1      45.171  24.568  36.503  1.00  0.00    -0.200 F 
ATOM     92  F   UNL A   1      47.592  25.823  36.524  1.00  0.00    -0.200 F 
ENDBRANCH  59  82
ENDBRANCH  33  34
ENDBRANCH  26  28
ENDBRANCH  25  26
ENDBRANCH  24  25
ENDBRANCH  23  24
ENDBRANCH  22  23
ENDBRANCH   1  22
TORSDOF 17
ENDMDL
MODEL 2
REMARK VINA RESULT:     -11.1      1.098      7.389
REMARK SMILES CN1C(=O)C[C@H](C(=O)OCCOCCOCCOC(=O)c2ccc(-c3c4nc(c(-c5c(F)c(F)c(F)c(F)c5F)c5ccc([nH]5)c(-c5c(F)c(F)c(F)c(F)c5F)c5nc(c(-c6c(F)c(F)c(F)c(F)c6F)c6ccc3[nH]6)C=C5)C=C4)cc2)c2cccc(Cl)c21
REMARK SMILES IDX 14 1 13 2 12 3 11 4 10 5 9 6 7 7 8 8 6 9 1 10 2 11 3 12
REMARK SMILES IDX 90 13 4 14 5 15 84 16 88 17 85 18 87 19 89 20 86 21 15 22
REMARK SMILES IDX 16 23 17 24 18 25 19 26 20 27 21 28 22 29 83 30 23 31 82 32
REMARK SMILES IDX 24 33 25 34 26 35 76 36 27 37 81 38 75 39 77 40 28 41 80 42
REMARK SMILES IDX 74 43 73 44 29 46 61 47 41 48 60 49 42 50 45 51 59 52 78 53
REMARK SMILES IDX 43 54 44 55 58 57 79 58 46 59 30 60 31 61 39 62 32 63 33 64
REMARK SMILES IDX 37 65 40 66 34 67 35 68 38 69 36 70 62 71 63 72 71 73 64 74
REMARK SMILES IDX 65 75 69 76 72 77 66 78 67 79 70 80 68 81 47 82 48 83 56 84
REMARK SMILES IDX 49 85 50 86 54 87 57 88 51 89 52 90 55 91 53 92
REMARK H PARENT 77 45 45 56
REMARK Flexibility Score: inf
ROOT
ATOM      1  C   UNL A   1      30.460  29.277  23.254  1.00  0.00     0.188 C 
ENDROOT
BRANCH   1   2
ATOM      2  C   UNL A   1      29.857  27.876  23.063  1.00  0.00     0.188 C 
BRANCH   2   3
ATOM      3  O   UNL A   1      30.529  26.729  23.570  1.00  0.00    -0.376 OA
BRANCH   3   4
ATOM      4  C   UNL A   1      30.105  26.125  24.780  1.00  0.00     0.202 C 
BRANCH   4   5
ATOM      5  C   UNL A   1      30.633  24.723  25.125  1.00  0.00     0.261 C 
BRANCH   5   6
ATOM      6  O   UNL A   1      32.063  24.545  25.237  1.00  0.00    -0.463 OA
BRANCH   6   7
ATOM      7  C   UNL A   1      32.623  23.612  24.419  1.00  0.00     0.314 C 
ATOM      8  O   UNL A   1      32.759  23.763  23.209  1.00  0.00    -0.252 OA
BRANCH   7   9
ATOM      9  C   UNL A   1      33.011  22.295  25.123  1.00  0.00     0.140 C 
ATOM     10  C   UNL A   1      34.698  18.329  24.515  1.00  0.00     0.153 C 
ATOM     11  N   UNL A   1      34.220  19.672  24.786  1.00  0.00    -0.314 N 
ATOM     12  C   UNL A   1      32.846  19.777  24.941  1.00  0.00     0.227 C 
ATOM     13  C   UNL A   1      35.099  20.804  24.952  1.00  0.00     0.066 A 
ATOM     14  O   UNL A   1      32.104  18.823  25.179  1.00  0.00    -0.274 OA
ATOM     15  C   UNL A   1      32.250  21.101  24.602  1.00  0.00     0.120 C 
ATOM     16  C   UNL A   1      34.511  22.081  25.138  1.00  0.00    -0.008 A 
ATOM     17  C   UNL A   1      36.517  20.738  25.021  1.00  0.00     0.065 A 
ATOM     18  C   UNL A   1      35.314  23.208  25.430  1.00  0.00     0.007 A 
ATOM     19  C   UNL A   1      37.288  21.892  25.248  1.00  0.00     0.023 A 
ATOM     20  Cl  UNL A   1      37.478  19.297  24.945  1.00  0.00    -0.082 Cl
ATOM     21  C   UNL A   1      36.692  23.122  25.463  1.00  0.00     0.002 A 
ENDBRANCH   7   9
ENDBRANCH   6   7
ENDBRANCH   5   6
ENDBRANCH   4   5
ENDBRANCH   3   4
ENDBRANCH   2   3
ENDBRANCH   1   2
BRANCH   1  22
ATOM     22  O   UNL A   1      31.609  29.312  24.060  1.00  0.00    -0.376 OA
BRANCH  22  23
ATOM     23  C   UNL A   1      31.453  29.451  25.454  1.00  0.00     0.202 C 
BRANCH  23  24
ATOM     24  C   UNL A   1      31.788  30.793  26.124  1.00  0.00     0.261 C 
BRANCH  24  25
ATOM     25  O   UNL A   1      32.718  30.772  27.221  1.00  0.00    -0.460 OA
BRANCH  25  26
ATOM     26  C   UNL A   1      33.428  31.894  27.473  1.00  0.00     0.338 C 
ATOM     27  O   UNL A   1      33.017  33.045  27.456  1.00  0.00    -0.246 OA
BRANCH  26  28
ATOM     28  C   UNL A   1      34.761  31.486  27.975  1.00  0.00     0.060 A 
ATOM     29  C   UNL A   1      35.015  30.135  28.255  1.00  0.00     0.016 A 
ATOM     30  C   UNL A   1      35.759  32.443  28.170  1.00  0.00     0.016 A 
ATOM     31  C   UNL A   1      36.264  29.739  28.744  1.00  0.00     0.010 A 
ATOM     32  C   UNL A   1      36.993  32.052  28.700  1.00  0.00     0.010 A 
ATOM     33  C   UNL A   1      37.241  30.703  29.017  1.00  0.00    -0.014 A 
BRANCH  33  34
ATOM     34  C   UNL A   1      38.417  30.360  29.856  1.00  0.00     0.031 A 
ATOM     35  C   UNL A   1      39.426  29.400  29.289  1.00  0.00     0.074 A 
ATOM     36  C   UNL A   1      38.588  30.863  31.091  1.00  0.00     0.049 A 
ATOM     37  N   UNL A   1      40.471  28.854  29.857  1.00  0.00    -0.248 NA
ATOM     38  C   UNL A   1      39.225  28.998  27.887  1.00  0.00     0.031 C 
ATOM     39  C   UNL A   1      37.722  31.846  31.734  1.00  0.00     0.029 A 
ATOM     40  N   UNL A   1      39.552  30.592  32.034  1.00  0.00    -0.354 N 
ATOM     41  C   UNL A   1      41.047  28.049  28.885  1.00  0.00     0.074 A 
ATOM     42  C   UNL A   1      40.225  28.152  27.700  1.00  0.00     0.031 C 
ATOM     43  C   UNL A   1      38.181  32.083  32.976  1.00  0.00     0.029 A 
ATOM     44  C   UNL A   1      39.351  31.239  33.228  1.00  0.00     0.049 A 
ATOM     45  H   UNL A   1      40.314  29.992  31.868  1.00  0.00     0.167 HD
ATOM     46  C   UNL A   1      42.167  27.293  28.970  1.00  0.00     0.037 A 
ATOM     47  C   UNL A   1      40.018  31.137  34.397  1.00  0.00     0.037 A 
ATOM     48  C   UNL A   1      42.976  27.176  30.153  1.00  0.00     0.049 A 
ATOM     49  C   UNL A   1      41.201  30.204  34.501  1.00  0.00     0.074 A 
ATOM     50  C   UNL A   1      44.129  26.432  30.336  1.00  0.00     0.029 A 
ATOM     51  N   UNL A   1      42.712  27.810  31.357  1.00  0.00    -0.354 N 
ATOM     52  N   UNL A   1      41.749  29.452  33.577  1.00  0.00    -0.248 NA
ATOM     53  C   UNL A   1      41.857  30.105  35.814  1.00  0.00     0.031 C 
ATOM     54  C   UNL A   1      44.529  26.570  31.667  1.00  0.00     0.029 A 
ATOM     55  C   UNL A   1      43.665  27.451  32.297  1.00  0.00     0.049 A 
ATOM     56  H   UNL A   1      41.961  28.424  31.520  1.00  0.00     0.167 HD
ATOM     57  C   UNL A   1      42.825  28.816  34.186  1.00  0.00     0.074 A 
ATOM     58  C   UNL A   1      42.864  29.282  35.556  1.00  0.00     0.031 C 
ATOM     59  C   UNL A   1      43.701  27.926  33.658  1.00  0.00     0.037 A 
BRANCH  46  60
ATOM     60  C   UNL A   1      42.575  26.512  27.756  1.00  0.00     0.064 A 
ATOM     61  C   UNL A   1      43.505  27.018  26.836  1.00  0.00     0.173 A 
ATOM     62  C   UNL A   1      42.077  25.218  27.544  1.00  0.00     0.173 A 
ATOM     63  F   UNL A   1      43.996  28.258  26.985  1.00  0.00    -0.203 F 
ATOM     64  C   UNL A   1      43.914  26.260  25.742  1.00  0.00     0.198 A 
ATOM     65  C   UNL A   1      42.512  24.451  26.467  1.00  0.00     0.198 A 
ATOM     66  F   UNL A   1      41.185  24.688  28.394  1.00  0.00    -0.203 F 
ATOM     67  F   UNL A   1      44.777  26.777  24.857  1.00  0.00    -0.200 F 
ATOM     68  C   UNL A   1      43.426  24.974  25.565  1.00  0.00     0.200 A 
ATOM     69  F   UNL A   1      42.051  23.204  26.306  1.00  0.00    -0.200 F 
ATOM     70  F   UNL A   1      43.838  24.238  24.523  1.00  0.00    -0.200 F 
ENDBRANCH  46  60
BRANCH  47  71
ATOM     71  C   UNL A   1      39.581  31.937  35.573  1.00  0.00     0.064 A 
ATOM     72  C   UNL A   1      40.164  33.180  35.857  1.00  0.00     0.173 A 
ATOM     73  C   UNL A   1      38.582  31.475  36.444  1.00  0.00     0.173 A 
ATOM     74  F   UNL A   1      41.148  33.651  35.076  1.00  0.00    -0.203 F 
ATOM     75  C   UNL A   1      39.771  33.925  36.966  1.00  0.00     0.198 A 
ATOM     76  C   UNL A   1      38.169  32.235  37.535  1.00  0.00     0.198 A 
ATOM     77  F   UNL A   1      37.999  30.286  36.227  1.00  0.00    -0.203 F 
ATOM     78  F   UNL A   1      40.377  35.090  37.237  1.00  0.00    -0.200 F 
ATOM     79  C   UNL A   1      38.766  33.457  37.800  1.00  0.00     0.200 A 
ATOM     80  F   UNL A   1      37.191  31.782  38.334  1.00  0.00    -0.200 F 
ATOM     81  F   UNL A   1      38.382  34.179  38.861  1.00  0.00    -0.200 F 
ENDBRANCH  47  71
BRANCH  59  82
ATOM     82  C   UNL A   1      44.800  27.406  34.542  1.00  0.00     0.064 A 
ATOM     83  C   UNL A   1      46.020  28.084  34.676  1.00  0.00     0.173 A 
ATOM     84  C   UNL A   1      44.599  26.259  35.326  1.00  0.00     0.173 A 
ATOM     85  F   UNL A   1      46.267  29.181  33.945  1.00  0.00    -0.203 F 
ATOM     86  C   UNL A   1      47.004  27.623  35.549  1.00  0.00     0.198 A 
ATOM     87  C   UNL A   1      45.570  25.820  36.222  1.00  0.00     0.198 A 
ATOM     88  F   UNL A   1      43.446  25.577  35.246  1.00  0.00    -0.203 F 
ATOM     89  F   UNL A   1      48.176  28.266  35.631  1.00  0.00    -0.200 F 
ATOM     90  C   UNL A   1      46.775  26.499  36.328  1.00  0.00     0.200 A 
ATOM     91  F   UNL A   1      45.338  24.747  36.989  1.00  0.00    -0.200 F 
ATOM     92  F   UNL A   1      47.715  26.069  37.180  1.00  0.00    -0.200 F 
ENDBRANCH  59  82
ENDBRANCH  33  34
ENDBRANCH  26  28
ENDBRANCH  25  26
ENDBRANCH  24  25
ENDBRANCH  23  24
ENDBRANCH  22  23
ENDBRANCH   1  22
TORSDOF 17
ENDMDL
MODEL 3
REMARK VINA RESULT:     -10.8      3.227      8.733
REMARK SMILES CN1C(=O)C[C@H](C(=O)OCCOCCOCCOC(=O)c2ccc(-c3c4nc(c(-c5c(F)c(F)c(F)c(F)c5F)c5ccc([nH]5)c(-c5c(F)c(F)c(F)c(F)c5F)c5nc(c(-c6c(F)c(F)c(F)c(F)c6F)c6ccc3[nH]6)C=C5)C=C4)cc2)c2cccc(Cl)c21
REMARK SMILES IDX 14 1 13 2 12 3 11 4 10 5 9 6 7 7 8 8 6 9 1 10 2 11 3 12
REMARK SMILES IDX 90 13 4 14 5 15 84 16 88 17 85 18 87 19 89 20 86 21 15 22
REMARK SMILES IDX 16 23 17 24 18 25 19 26 20 27 21 28 22 29 83 30 23 31 82 32
REMARK SMILES IDX 24 33 25 34 26 35 76 36 27 37 81 38 75 39 77 40 28 41 80 42
REMARK SMILES IDX 74 43 73 44 29 46 61 47 41 48 60 49 42 50 45 51 59 52 78 53
REMARK SMILES IDX 43 54 44 55 58 57 79 58 46 59 30 60 31 61 39 62 32 63 33 64
REMARK SMILES IDX 37 65 40 66 34 67 35 68 38 69 36 70 62 71 63 72 71 73 64 74
REMARK SMILES IDX 65 75 69 76 72 77 66 78 67 79 70 80 68 81 47 82 48 83 56 84
REMARK SMILES IDX 49 85 50 86 54 87 57 88 51 89 52 90 55 91 53 92
REMARK H PARENT 77 45 45 56
REMARK Flexibility Score: inf
ROOT
ATOM      1  C   UNL A   1      39.273  22.084  26.223  1.00  0.00     0.188 C 
ENDROOT
BRANCH   1   2
ATOM      2  C   UNL A   1      38.471  21.086  25.372  1.00  0.00     0.188 C 
BRANCH   2   3
ATOM      3  O   UNL A   1      37.101  21.331  25.079  1.00  0.00    -0.376 OA
BRANCH   3   4
ATOM      4  C   UNL A   1      36.729  22.396  24.222  1.00  0.00     0.202 C 
BRANCH   4   5
ATOM      5  C   UNL A   1      35.236  22.617  23.930  1.00  0.00     0.261 C 
BRANCH   5   6
ATOM      6  O   UNL A   1      34.823  23.914  23.446  1.00  0.00    -0.463 OA
BRANCH   6   7
ATOM      7  C   UNL A   1      33.638  23.962  22.777  1.00  0.00     0.314 C 
ATOM      8  O   UNL A   1      33.445  23.413  21.697  1.00  0.00    -0.252 OA
BRANCH   7   9
ATOM      9  C   UNL A   1      32.559  24.836  23.450  1.00  0.00     0.140 C 
ATOM     10  C   UNL A   1      31.736  27.449  26.833  1.00  0.00     0.153 C 
ATOM     11  N   UNL A   1      31.990  26.664  25.639  1.00  0.00    -0.314 N 
ATOM     12  C   UNL A   1      31.488  25.372  25.678  1.00  0.00     0.227 C 
ATOM     13  C   UNL A   1      32.648  27.195  24.470  1.00  0.00     0.066 A 
ATOM     14  O   UNL A   1      30.619  24.993  26.466  1.00  0.00    -0.274 OA
ATOM     15  C   UNL A   1      32.203  24.368  24.839  1.00  0.00     0.120 C 
ATOM     16  C   UNL A   1      32.908  26.309  23.393  1.00  0.00    -0.008 A 
ATOM     17  C   UNL A   1      32.994  28.559  24.272  1.00  0.00     0.065 A 
ATOM     18  C   UNL A   1      33.435  26.794  22.174  1.00  0.00     0.007 A 
ATOM     19  C   UNL A   1      33.580  28.994  23.070  1.00  0.00     0.023 A 
ATOM     20  Cl  UNL A   1      32.682  29.863  25.372  1.00  0.00    -0.082 Cl
ATOM     21  C   UNL A   1      33.791  28.120  22.018  1.00  0.00     0.002 A 
ENDBRANCH   7   9
ENDBRANCH   6   7
ENDBRANCH   5   6
ENDBRANCH   4   5
ENDBRANCH   3   4
ENDBRANCH   2   3
ENDBRANCH   1   2
BRANCH   1  22
ATOM     22  O   UNL A   1      40.171  21.491  27.124  1.00  0.00    -0.376 OA
BRANCH  22  23
ATOM     23  C   UNL A   1      41.314  20.844  26.612  1.00  0.00     0.202 C 
BRANCH  23  24
ATOM     24  C   UNL A   1      42.359  21.656  25.829  1.00  0.00     0.261 C 
BRANCH  24  25
ATOM     25  O   UNL A   1      42.982  22.762  26.507  1.00  0.00    -0.460 OA
BRANCH  25  26
ATOM     26  C   UNL A   1      43.143  23.916  25.823  1.00  0.00     0.338 C 
ATOM     27  O   UNL A   1      43.536  24.043  24.673  1.00  0.00    -0.246 OA
BRANCH  26  28
ATOM     28  C   UNL A   1      42.569  25.011  26.639  1.00  0.00     0.060 A 
ATOM     29  C   UNL A   1      43.176  26.277  26.629  1.00  0.00     0.016 A 
ATOM     30  C   UNL A   1      41.430  24.786  27.414  1.00  0.00     0.016 A 
ATOM     31  C   UNL A   1      42.654  27.315  27.406  1.00  0.00     0.010 A 
ATOM     32  C   UNL A   1      40.934  25.813  28.224  1.00  0.00     0.010 A 
ATOM     33  C   UNL A   1      41.560  27.073  28.246  1.00  0.00    -0.014 A 
BRANCH  33  34
ATOM     34  C   UNL A   1      41.220  28.033  29.326  1.00  0.00     0.031 A 
ATOM     35  C   UNL A   1      42.028  27.976  30.594  1.00  0.00     0.074 A 
ATOM     36  C   UNL A   1      40.218  28.921  29.207  1.00  0.00     0.049 A 
ATOM     37  N   UNL A   1      41.861  28.621  31.720  1.00  0.00    -0.248 NA
ATOM     38  C   UNL A   1      43.182  27.062  30.589  1.00  0.00     0.031 C 
ATOM     39  C   UNL A   1      39.400  29.122  28.015  1.00  0.00     0.029 A 
ATOM     40  N   UNL A   1      39.709  29.812  30.123  1.00  0.00    -0.354 N 
ATOM     41  C   UNL A   1      42.885  28.191  32.552  1.00  0.00     0.074 A 
ATOM     42  C   UNL A   1      43.652  27.211  31.817  1.00  0.00     0.031 C 
ATOM     43  C   UNL A   1      38.476  30.064  28.278  1.00  0.00     0.029 A 
ATOM     44  C   UNL A   1      38.613  30.503  29.667  1.00  0.00     0.049 A 
ATOM     45  H   UNL A   1      40.094  29.943  31.019  1.00  0.00     0.167 HD
ATOM     46  C   UNL A   1      43.164  28.581  33.818  1.00  0.00     0.037 A 
ATOM     47  C   UNL A   1      37.799  31.367  30.310  1.00  0.00     0.037 A 
ATOM     48  C   UNL A   1      42.392  29.543  34.557  1.00  0.00     0.049 A 
ATOM     49  C   UNL A   1      38.066  31.706  31.757  1.00  0.00     0.074 A 
ATOM     50  C   UNL A   1      42.597  30.003  35.846  1.00  0.00     0.029 A 
ATOM     51  N   UNL A   1      41.261  30.186  34.077  1.00  0.00    -0.354 N 
ATOM     52  N   UNL A   1      39.041  31.305  32.537  1.00  0.00    -0.248 NA
ATOM     53  C   UNL A   1      37.117  32.619  32.413  1.00  0.00     0.031 C 
ATOM     54  C   UNL A   1      41.557  30.878  36.167  1.00  0.00     0.029 A 
ATOM     55  C   UNL A   1      40.740  31.016  35.056  1.00  0.00     0.049 A 
ATOM     56  H   UNL A   1      40.885  30.071  33.175  1.00  0.00     0.167 HD
ATOM     57  C   UNL A   1      38.838  31.936  33.760  1.00  0.00     0.074 A 
ATOM     58  C   UNL A   1      37.658  32.759  33.615  1.00  0.00     0.031 C 
ATOM     59  C   UNL A   1      39.567  31.839  34.901  1.00  0.00     0.037 A 
BRANCH  46  60
ATOM     60  C   UNL A   1      44.345  27.953  34.497  1.00  0.00     0.064 A 
ATOM     61  C   UNL A   1      45.617  28.542  34.453  1.00  0.00     0.173 A 
ATOM     62  C   UNL A   1      44.188  26.781  35.252  1.00  0.00     0.173 A 
ATOM     63  F   UNL A   1      45.822  29.653  33.728  1.00  0.00    -0.203 F 
ATOM     64  C   UNL A   1      46.692  27.975  35.132  1.00  0.00     0.198 A 
ATOM     65  C   UNL A   1      45.258  26.234  35.955  1.00  0.00     0.198 A 
ATOM     66  F   UNL A   1      42.992  26.178  35.326  1.00  0.00    -0.203 F 
ATOM     67  F   UNL A   1      47.906  28.535  35.048  1.00  0.00    -0.200 F 
ATOM     68  C   UNL A   1      46.508  26.829  35.891  1.00  0.00     0.200 A 
ATOM     69  F   UNL A   1      45.076  25.136  36.700  1.00  0.00    -0.200 F 
ATOM     70  F   UNL A   1      47.540  26.297  36.563  1.00  0.00    -0.200 F 
ENDBRANCH  46  60
BRANCH  47  71
ATOM     71  C   UNL A   1      36.644  31.972  29.593  1.00  0.00     0.064 A 
ATOM     72  C   UNL A   1      35.546  31.191  29.208  1.00  0.00     0.173 A 
ATOM     73  C   UNL A   1      36.616  33.337  29.268  1.00  0.00     0.173 A 
ATOM     74  F   UNL A   1      35.538  29.874  29.464  1.00  0.00    -0.203 F 
ATOM     75  C   UNL A   1      34.469  31.748  28.522  1.00  0.00     0.198 A 
ATOM     76  C   UNL A   1      35.526  33.899  28.608  1.00  0.00     0.198 A 
ATOM     77  F   UNL A   1      37.647  34.128  29.601  1.00  0.00    -0.203 F 
ATOM     78  F   UNL A   1      33.452  30.969  28.128  1.00  0.00    -0.200 F 
ATOM     79  C   UNL A   1      34.455  33.104  28.230  1.00  0.00     0.200 A 
ATOM     80  F   UNL A   1      35.513  35.212  28.335  1.00  0.00    -0.200 F 
ATOM     81  F   UNL A   1      33.415  33.641  27.578  1.00  0.00    -0.200 F 
ENDBRANCH  47  71
BRANCH  59  82
ATOM     82  C   UNL A   1      39.136  32.658  36.085  1.00  0.00     0.064 A 
ATOM     83  C   UNL A   1      38.325  32.122  37.096  1.00  0.00     0.173 A 
ATOM     84  C   UNL A   1      39.608  33.970  36.252  1.00  0.00     0.173 A 
ATOM     85  F   UNL A   1      37.840  30.877  36.983  1.00  0.00    -0.203 F 
ATOM     86  C   UNL A   1      37.988  32.875  38.219  1.00  0.00     0.198 A 
ATOM     87  C   UNL A   1      39.298  34.707  37.392  1.00  0.00     0.198 A 
ATOM     88  F   UNL A   1      40.398  34.529  35.322  1.00  0.00    -0.203 F 
ATOM     89  F   UNL A   1      37.179  32.355  39.152  1.00  0.00    -0.200 F 
ATOM     90  C   UNL A   1      38.483  34.162  38.372  1.00  0.00     0.200 A 
ATOM     91  F   UNL A   1      39.795  35.942  37.547  1.00  0.00    -0.200 F 
ATOM     92  F   UNL A   1      38.172  34.876  39.462  1.00  0.00    -0.200 F 
ENDBRANCH  59  82
ENDBRANCH  33  34
ENDBRANCH  26  28
ENDBRANCH  25  26
ENDBRANCH  24  25
ENDBRANCH  23  24
ENDBRANCH  22  23
ENDBRANCH   1  22
TORSDOF 17
ENDMDL
