MODEL 1
REMARK VINA RESULT:     -10.6      0.000      0.000
REMARK SMILES O=C(Cc1ccccc1[N+](=O)[O-])N[C@@H]1C=C[C@H](C(=O)OCCOCCOCCOC(=O)c2ccc(-c3c4nc(c(-c5c(F)c(F)c(F)c(F)c5F)c5ccc([nH]5)c(-c5c(F)c(F)c(F)c(F)c5F)c5nc(c(-c6c(F)c(F)c(F)c(F)c6F)c6ccc3[nH]6)C=C5)C=C4)cc2)C1
REMARK SMILES IDX 24 1 23 2 22 3 21 4 20 5 18 6 19 7 17 8 14 9 15 10 95 11
REMARK SMILES IDX 16 12 13 13 1 14 2 15 3 17 4 18 5 19 9 20 6 21 8 22 7 23
REMARK SMILES IDX 10 24 11 25 12 26 25 27 26 28 27 29 28 30 29 31 30 32 31 33
REMARK SMILES IDX 32 34 33 35 94 36 34 37 93 38 35 39 36 40 37 41 87 42 38 43
REMARK SMILES IDX 92 44 86 45 88 46 39 47 91 48 85 49 84 50 40 52 72 53 52 54
REMARK SMILES IDX 71 55 53 56 56 57 70 58 89 59 54 60 55 61 69 63 90 64 57 65
REMARK SMILES IDX 41 66 42 67 50 68 43 69 44 70 48 71 51 72 45 73 46 74 49 75
REMARK SMILES IDX 47 76 73 77 74 78 82 79 75 80 76 81 80 82 83 83 77 84 78 85
REMARK SMILES IDX 81 86 79 87 58 88 59 89 67 90 60 91 61 92 65 93 68 94 62 95
REMARK SMILES IDX 63 96 66 97 64 98
REMARK H PARENT 13 16 88 51 56 62
REMARK Flexibility Score: inf
ROOT
ATOM      1  C   UNL A   1      34.676  32.338  28.715  1.00  0.00     0.188 C 
ENDROOT
BRANCH   1   2
ATOM      2  O   UNL A   1      35.370  31.667  27.672  1.00  0.00    -0.376 OA
BRANCH   2   3
ATOM      3  C   UNL A   1      35.611  30.270  27.791  1.00  0.00     0.202 C 
BRANCH   3   4
ATOM      4  C   UNL A   1      34.462  29.339  27.393  1.00  0.00     0.261 C 
BRANCH   4   5
ATOM      5  O   UNL A   1      33.711  29.785  26.239  1.00  0.00    -0.463 OA
BRANCH   5   6
ATOM      6  C   UNL A   1      32.389  30.012  26.442  1.00  0.00     0.312 C 
ATOM      7  O   UNL A   1      31.930  31.101  26.780  1.00  0.00    -0.252 OA
BRANCH   6   8
ATOM      8  C   UNL A   1      31.469  28.803  26.212  1.00  0.00     0.124 C 
ATOM      9  C   UNL A   1      31.548  26.314  26.093  1.00  0.00     0.106 C 
ATOM     10  C   UNL A   1      31.778  26.953  24.764  1.00  0.00    -0.006 C 
ATOM     11  C   UNL A   1      31.528  27.521  27.069  1.00  0.00     0.048 C 
ATOM     12  C   UNL A   1      31.730  28.285  24.823  1.00  0.00    -0.014 C 
BRANCH   9  13
ATOM     13  N   UNL A   1      32.584  25.311  26.284  1.00  0.00    -0.350 N 
ATOM     14  O   UNL A   1      31.200  23.776  27.245  1.00  0.00    -0.275 OA
ATOM     15  C   UNL A   1      32.296  24.053  26.764  1.00  0.00     0.225 C 
ATOM     16  H   UNL A   1      33.516  25.538  26.063  1.00  0.00     0.164 HD
BRANCH  15  17
ATOM     17  C   UNL A   1      33.444  23.047  26.777  1.00  0.00     0.142 C 
BRANCH  17  18
ATOM     18  C   UNL A   1      34.507  23.115  25.692  1.00  0.00     0.039 A 
ATOM     19  C   UNL A   1      35.849  23.262  26.090  1.00  0.00     0.011 A 
ATOM     20  C   UNL A   1      34.290  22.919  24.318  1.00  0.00     0.273 A 
ATOM     21  C   UNL A   1      36.902  23.297  25.168  1.00  0.00     0.001 A 
ATOM     22  C   UNL A   1      35.336  22.961  23.377  1.00  0.00     0.086 A 
ATOM     23  C   UNL A   1      36.645  23.161  23.808  1.00  0.00     0.007 A 
BRANCH  20  24
ATOM     24  N   UNL A   1      32.973  22.594  23.805  1.00  0.00     0.063 N 
ATOM     25  O   UNL A   1      32.719  21.393  23.650  1.00  0.00    -0.258 OA
ATOM     26  O   UNL A   1      32.212  23.539  23.572  1.00  0.00    -0.258 OA
ENDBRANCH  20  24
ENDBRANCH  17  18
ENDBRANCH  15  17
ENDBRANCH   9  13
ENDBRANCH   6   8
ENDBRANCH   5   6
ENDBRANCH   4   5
ENDBRANCH   3   4
ENDBRANCH   2   3
ENDBRANCH   1   2
BRANCH   1  27
ATOM     27  C   UNL A   1      33.853  33.591  28.383  1.00  0.00     0.188 C 
BRANCH  27  28
ATOM     28  O   UNL A   1      34.613  34.732  28.020  1.00  0.00    -0.376 OA
BRANCH  28  29
ATOM     29  C   UNL A   1      34.090  35.965  28.493  1.00  0.00     0.202 C 
BRANCH  29  30
ATOM     30  C   UNL A   1      32.903  35.712  29.417  1.00  0.00     0.261 C 
BRANCH  30  31
ATOM     31  O   UNL A   1      33.007  36.494  30.626  1.00  0.00    -0.460 OA
BRANCH  31  32
ATOM     32  C   UNL A   1      32.597  35.884  31.755  1.00  0.00     0.338 C 
ATOM     33  O   UNL A   1      31.472  35.887  32.219  1.00  0.00    -0.246 OA
BRANCH  32  34
ATOM     34  C   UNL A   1      33.727  35.155  32.362  1.00  0.00     0.060 A 
ATOM     35  C   UNL A   1      35.016  35.701  32.365  1.00  0.00     0.016 A 
ATOM     36  C   UNL A   1      33.518  33.861  32.831  1.00  0.00     0.016 A 
ATOM     37  C   UNL A   1      36.106  34.948  32.811  1.00  0.00     0.010 A 
ATOM     38  C   UNL A   1      34.603  33.117  33.304  1.00  0.00     0.010 A 
ATOM     39  C   UNL A   1      35.908  33.643  33.276  1.00  0.00    -0.014 A 
BRANCH  39  40
ATOM     40  C   UNL A   1      37.055  32.780  33.663  1.00  0.00     0.031 A 
ATOM     41  C   UNL A   1      37.734  33.007  34.985  1.00  0.00     0.074 A 
ATOM     42  C   UNL A   1      37.509  31.820  32.838  1.00  0.00     0.049 A 
ATOM     43  N   UNL A   1      38.868  32.534  35.435  1.00  0.00    -0.248 NA
ATOM     44  C   UNL A   1      37.035  33.891  35.930  1.00  0.00     0.031 C 
ATOM     45  C   UNL A   1      36.901  31.440  31.564  1.00  0.00     0.029 A 
ATOM     46  N   UNL A   1      38.609  31.004  32.942  1.00  0.00    -0.354 N 
ATOM     47  C   UNL A   1      39.032  33.082  36.701  1.00  0.00     0.074 A 
ATOM     48  C   UNL A   1      37.884  33.928  36.949  1.00  0.00     0.031 C 
ATOM     49  C   UNL A   1      37.649  30.481  30.992  1.00  0.00     0.029 A 
ATOM     50  C   UNL A   1      38.820  30.229  31.828  1.00  0.00     0.049 A 
ATOM     51  H   UNL A   1      39.190  30.979  33.736  1.00  0.00     0.167 HD
ATOM     52  C   UNL A   1      40.053  32.899  37.572  1.00  0.00     0.037 A 
ATOM     53  C   UNL A   1      39.867  29.448  31.494  1.00  0.00     0.037 A 
ATOM     54  C   UNL A   1      41.193  32.057  37.322  1.00  0.00     0.049 A 
ATOM     55  C   UNL A   1      41.039  29.340  32.436  1.00  0.00     0.074 A 
ATOM     56  C   UNL A   1      42.290  31.823  38.134  1.00  0.00     0.029 A 
ATOM     57  N   UNL A   1      41.383  31.311  36.168  1.00  0.00    -0.354 N 
ATOM     58  N   UNL A   1      41.211  29.892  33.612  1.00  0.00    -0.248 NA
ATOM     59  C   UNL A   1      42.169  28.510  31.993  1.00  0.00     0.031 C 
ATOM     60  C   UNL A   1      43.162  30.966  37.453  1.00  0.00     0.029 A 
ATOM     61  C   UNL A   1      42.587  30.630  36.239  1.00  0.00     0.049 A 
ATOM     62  H   UNL A   1      40.754  31.272  35.412  1.00  0.00     0.167 HD
ATOM     63  C   UNL A   1      42.454  29.460  34.058  1.00  0.00     0.074 A 
ATOM     64  C   UNL A   1      42.986  28.588  33.033  1.00  0.00     0.031 C 
ATOM     65  C   UNL A   1      43.097  29.758  35.213  1.00  0.00     0.037 A 
BRANCH  52  66
ATOM     66  C   UNL A   1      40.003  33.654  38.868  1.00  0.00     0.064 A 
ATOM     67  C   UNL A   1      40.695  34.860  39.046  1.00  0.00     0.173 A 
ATOM     68  C   UNL A   1      39.214  33.185  39.929  1.00  0.00     0.173 A 
ATOM     69  F   UNL A   1      41.481  35.338  38.069  1.00  0.00    -0.203 F 
ATOM     70  C   UNL A   1      40.609  35.563  40.245  1.00  0.00     0.198 A 
ATOM     71  C   UNL A   1      39.112  33.903  41.118  1.00  0.00     0.198 A 
ATOM     72  F   UNL A   1      38.535  32.035  39.810  1.00  0.00    -0.203 F 
ATOM     73  F   UNL A   1      41.309  36.695  40.408  1.00  0.00    -0.200 F 
ATOM     74  C   UNL A   1      39.811  35.089  41.276  1.00  0.00     0.200 A 
ATOM     75  F   UNL A   1      38.336  33.446  42.110  1.00  0.00    -0.200 F 
ATOM     76  F   UNL A   1      39.725  35.771  42.427  1.00  0.00    -0.200 F 
ENDBRANCH  52  66
BRANCH  53  77
ATOM     77  C   UNL A   1      39.885  28.749  30.182  1.00  0.00     0.064 A 
ATOM     78  C   UNL A   1      39.334  27.468  30.039  1.00  0.00     0.173 A 
ATOM     79  C   UNL A   1      40.478  29.333  29.054  1.00  0.00     0.173 A 
ATOM     80  F   UNL A   1      38.786  26.853  31.097  1.00  0.00    -0.203 F 
ATOM     81  C   UNL A   1      39.389  26.794  28.821  1.00  0.00     0.198 A 
ATOM     82  C   UNL A   1      40.505  28.672  27.829  1.00  0.00     0.198 A 
ATOM     83  F   UNL A   1      41.027  30.555  29.140  1.00  0.00    -0.203 F 
ATOM     84  F   UNL A   1      38.902  25.550  28.723  1.00  0.00    -0.200 F 
ATOM     85  C   UNL A   1      39.968  27.398  27.714  1.00  0.00     0.200 A 
ATOM     86  F   UNL A   1      41.058  29.264  26.762  1.00  0.00    -0.200 F 
ATOM     87  F   UNL A   1      40.021  26.750  26.543  1.00  0.00    -0.200 F 
ENDBRANCH  53  77
BRANCH  65  88
ATOM     88  C   UNL A   1      44.428  29.106  35.447  1.00  0.00     0.064 A 
ATOM     89  C   UNL A   1      45.626  29.716  35.050  1.00  0.00     0.173 A 
ATOM     90  C   UNL A   1      44.506  27.868  36.105  1.00  0.00     0.173 A 
ATOM     91  F   UNL A   1      45.603  30.892  34.405  1.00  0.00    -0.203 F 
ATOM     92  C   UNL A   1      46.854  29.099  35.281  1.00  0.00     0.198 A 
ATOM     93  C   UNL A   1      45.736  27.268  36.358  1.00  0.00     0.198 A 
ATOM     94  F   UNL A   1      43.387  27.248  36.510  1.00  0.00    -0.203 F 
ATOM     95  F   UNL A   1      47.984  29.679  34.853  1.00  0.00    -0.200 F 
ATOM     96  C   UNL A   1      46.908  27.879  35.939  1.00  0.00     0.200 A 
ATOM     97  F   UNL A   1      45.785  26.094  37.003  1.00  0.00    -0.200 F 
ATOM     98  F   UNL A   1      48.089  27.289  36.163  1.00  0.00    -0.200 F 
ENDBRANCH  65  88
ENDBRANCH  39  40
ENDBRANCH  32  34
ENDBRANCH  31  32
ENDBRANCH  30  31
ENDBRANCH  29  30
ENDBRANCH  28  29
ENDBRANCH  27  28
ENDBRANCH   1  27
TORSDOF 21
ENDMDL
MODEL 2
REMARK VINA RESULT:     -10.4      5.854     10.613
REMARK SMILES O=C(Cc1ccccc1[N+](=O)[O-])N[C@@H]1C=C[C@H](C(=O)OCCOCCOCCOC(=O)c2ccc(-c3c4nc(c(-c5c(F)c(F)c(F)c(F)c5F)c5ccc([nH]5)c(-c5c(F)c(F)c(F)c(F)c5F)c5nc(c(-c6c(F)c(F)c(F)c(F)c6F)c6ccc3[nH]6)C=C5)C=C4)cc2)C1
REMARK SMILES IDX 24 1 23 2 22 3 21 4 20 5 18 6 19 7 17 8 14 9 15 10 95 11
REMARK SMILES IDX 16 12 13 13 1 14 2 15 3 17 4 18 5 19 9 20 6 21 8 22 7 23
REMARK SMILES IDX 10 24 11 25 12 26 25 27 26 28 27 29 28 30 29 31 30 32 31 33
REMARK SMILES IDX 32 34 33 35 94 36 34 37 93 38 35 39 36 40 37 41 87 42 38 43
REMARK SMILES IDX 92 44 86 45 88 46 39 47 91 48 85 49 84 50 40 52 72 53 52 54
REMARK SMILES IDX 71 55 53 56 56 57 70 58 89 59 54 60 55 61 69 63 90 64 57 65
REMARK SMILES IDX 41 66 42 67 50 68 43 69 44 70 48 71 51 72 45 73 46 74 49 75
REMARK SMILES IDX 47 76 73 77 74 78 82 79 75 80 76 81 80 82 83 83 77 84 78 85
REMARK SMILES IDX 81 86 79 87 58 88 59 89 67 90 60 91 61 92 65 93 68 94 62 95
REMARK SMILES IDX 63 96 66 97 64 98
REMARK H PARENT 13 16 88 51 56 62
REMARK Flexibility Score: inf
ROOT
ATOM      1  C   UNL A   1      35.814  22.311  25.924  1.00  0.00     0.188 C 
ENDROOT
BRANCH   1   2
ATOM      2  O   UNL A   1      35.132  21.521  26.889  1.00  0.00    -0.376 OA
BRANCH   2   3
ATOM      3  C   UNL A   1      33.824  21.904  27.296  1.00  0.00     0.202 C 
BRANCH   3   4
ATOM      4  C   UNL A   1      33.028  22.771  26.315  1.00  0.00     0.261 C 
BRANCH   4   5
ATOM      5  O   UNL A   1      32.090  22.031  25.498  1.00  0.00    -0.463 OA
BRANCH   5   6
ATOM      6  C   UNL A   1      32.588  21.504  24.351  1.00  0.00     0.312 C 
ATOM      7  O   UNL A   1      33.041  20.363  24.269  1.00  0.00    -0.252 OA
BRANCH   6   8
ATOM      8  C   UNL A   1      32.549  22.430  23.126  1.00  0.00     0.124 C 
ATOM      9  C   UNL A   1      32.847  24.827  22.511  1.00  0.00     0.106 C 
ATOM     10  C   UNL A   1      31.434  24.504  22.866  1.00  0.00    -0.006 C 
ATOM     11  C   UNL A   1      33.608  23.518  22.856  1.00  0.00     0.048 C 
ATOM     12  C   UNL A   1      31.270  23.220  23.190  1.00  0.00    -0.014 C 
BRANCH   9  13
ATOM     13  N   UNL A   1      33.218  26.033  23.235  1.00  0.00    -0.350 N 
ATOM     14  O   UNL A   1      33.744  27.231  21.368  1.00  0.00    -0.275 OA
ATOM     15  C   UNL A   1      33.548  27.199  22.580  1.00  0.00     0.225 C 
ATOM     16  H   UNL A   1      33.233  26.015  24.219  1.00  0.00     0.164 HD
BRANCH  15  17
ATOM     17  C   UNL A   1      33.772  28.432  23.453  1.00  0.00     0.142 C 
BRANCH  17  18
ATOM     18  C   UNL A   1      33.262  28.435  24.885  1.00  0.00     0.039 A 
ATOM     19  C   UNL A   1      34.210  28.500  25.923  1.00  0.00     0.011 A 
ATOM     20  C   UNL A   1      31.914  28.503  25.275  1.00  0.00     0.273 A 
ATOM     21  C   UNL A   1      33.837  28.545  27.272  1.00  0.00     0.001 A 
ATOM     22  C   UNL A   1      31.523  28.539  26.627  1.00  0.00     0.086 A 
ATOM     23  C   UNL A   1      32.493  28.550  27.626  1.00  0.00     0.007 A 
BRANCH  20  24
ATOM     24  N   UNL A   1      30.853  28.609  24.292  1.00  0.00     0.063 N 
ATOM     25  O   UNL A   1      30.513  29.753  23.964  1.00  0.00    -0.258 OA
ATOM     26  O   UNL A   1      30.381  27.552  23.860  1.00  0.00    -0.258 OA
ENDBRANCH  20  24
ENDBRANCH  17  18
ENDBRANCH  15  17
ENDBRANCH   9  13
ENDBRANCH   6   8
ENDBRANCH   5   6
ENDBRANCH   4   5
ENDBRANCH   3   4
ENDBRANCH   2   3
ENDBRANCH   1   2
BRANCH   1  27
ATOM     27  C   UNL A   1      36.799  21.633  24.961  1.00  0.00     0.188 C 
BRANCH  27  28
ATOM     28  O   UNL A   1      36.800  20.216  24.999  1.00  0.00    -0.376 OA
BRANCH  28  29
ATOM     29  C   UNL A   1      38.072  19.620  24.788  1.00  0.00     0.202 C 
BRANCH  29  30
ATOM     30  C   UNL A   1      39.120  20.294  25.668  1.00  0.00     0.261 C 
BRANCH  30  31
ATOM     31  O   UNL A   1      40.031  19.324  26.230  1.00  0.00    -0.460 OA
BRANCH  31  32
ATOM     32  C   UNL A   1      41.341  19.577  26.046  1.00  0.00     0.338 C 
ATOM     33  O   UNL A   1      42.168  18.828  25.561  1.00  0.00    -0.246 OA
BRANCH  32  34
ATOM     34  C   UNL A   1      41.648  20.948  26.496  1.00  0.00     0.060 A 
ATOM     35  C   UNL A   1      42.006  21.943  25.579  1.00  0.00     0.016 A 
ATOM     36  C   UNL A   1      41.692  21.213  27.862  1.00  0.00     0.016 A 
ATOM     37  C   UNL A   1      42.433  23.198  26.022  1.00  0.00     0.010 A 
ATOM     38  C   UNL A   1      42.093  22.477  28.306  1.00  0.00     0.010 A 
ATOM     39  C   UNL A   1      42.490  23.471  27.393  1.00  0.00    -0.014 A 
BRANCH  39  40
ATOM     40  C   UNL A   1      43.034  24.758  27.901  1.00  0.00     0.031 A 
ATOM     41  C   UNL A   1      42.084  25.855  28.295  1.00  0.00     0.074 A 
ATOM     42  C   UNL A   1      44.360  24.963  27.988  1.00  0.00     0.049 A 
ATOM     43  N   UNL A   1      42.323  27.115  28.554  1.00  0.00    -0.248 NA
ATOM     44  C   UNL A   1      40.668  25.476  28.413  1.00  0.00     0.031 C 
ATOM     45  C   UNL A   1      45.391  23.964  27.713  1.00  0.00     0.029 A 
ATOM     46  N   UNL A   1      45.067  26.097  28.309  1.00  0.00    -0.354 N 
ATOM     47  C   UNL A   1      41.089  27.684  28.838  1.00  0.00     0.074 A 
ATOM     48  C   UNL A   1      40.100  26.635  28.717  1.00  0.00     0.031 C 
ATOM     49  C   UNL A   1      46.600  24.535  27.854  1.00  0.00     0.029 A 
ATOM     50  C   UNL A   1      46.425  25.952  28.164  1.00  0.00     0.049 A 
ATOM     51  H   UNL A   1      44.641  26.931  28.611  1.00  0.00     0.167 HD
ATOM     52  C   UNL A   1      40.809  28.969  29.165  1.00  0.00     0.037 A 
ATOM     53  C   UNL A   1      47.410  26.870  28.218  1.00  0.00     0.037 A 
ATOM     54  C   UNL A   1      41.795  30.010  29.285  1.00  0.00     0.049 A 
ATOM     55  C   UNL A   1      47.064  28.313  28.483  1.00  0.00     0.074 A 
ATOM     56  C   UNL A   1      41.609  31.347  29.590  1.00  0.00     0.029 A 
ATOM     57  N   UNL A   1      43.158  29.828  29.101  1.00  0.00    -0.354 N 
ATOM     58  N   UNL A   1      45.893  28.856  28.709  1.00  0.00    -0.248 NA
ATOM     59  C   UNL A   1      48.179  29.271  28.484  1.00  0.00     0.031 C 
ATOM     60  C   UNL A   1      42.855  31.983  29.553  1.00  0.00     0.029 A 
ATOM     61  C   UNL A   1      43.822  31.032  29.270  1.00  0.00     0.049 A 
ATOM     62  H   UNL A   1      43.589  28.970  28.885  1.00  0.00     0.167 HD
ATOM     63  C   UNL A   1      46.132  30.211  28.901  1.00  0.00     0.074 A 
ATOM     64  C   UNL A   1      47.561  30.405  28.779  1.00  0.00     0.031 C 
ATOM     65  C   UNL A   1      45.247  31.205  29.155  1.00  0.00     0.037 A 
BRANCH  52  66
ATOM     66  C   UNL A   1      39.369  29.333  29.380  1.00  0.00     0.064 A 
ATOM     67  C   UNL A   1      38.799  29.360  30.660  1.00  0.00     0.173 A 
ATOM     68  C   UNL A   1      38.563  29.705  28.292  1.00  0.00     0.173 A 
ATOM     69  F   UNL A   1      39.521  28.991  31.729  1.00  0.00    -0.203 F 
ATOM     70  C   UNL A   1      37.469  29.733  30.843  1.00  0.00     0.198 A 
ATOM     71  C   UNL A   1      37.242  30.100  28.482  1.00  0.00     0.198 A 
ATOM     72  F   UNL A   1      39.061  29.692  27.047  1.00  0.00    -0.203 F 
ATOM     73  F   UNL A   1      36.933  29.715  32.071  1.00  0.00    -0.200 F 
ATOM     74  C   UNL A   1      36.695  30.111  29.756  1.00  0.00     0.200 A 
ATOM     75  F   UNL A   1      36.498  30.470  27.430  1.00  0.00    -0.200 F 
ATOM     76  F   UNL A   1      35.418  30.475  29.935  1.00  0.00    -0.200 F 
ENDBRANCH  52  66
BRANCH  53  77
ATOM     77  C   UNL A   1      48.818  26.466  27.962  1.00  0.00     0.064 A 
ATOM     78  C   UNL A   1      49.708  26.238  29.021  1.00  0.00     0.173 A 
ATOM     79  C   UNL A   1      49.309  26.327  26.656  1.00  0.00     0.173 A 
ATOM     80  F   UNL A   1      49.295  26.391  30.288  1.00  0.00    -0.203 F 
ATOM     81  C   UNL A   1      51.039  25.902  28.781  1.00  0.00     0.198 A 
ATOM     82  C   UNL A   1      50.631  25.961  26.418  1.00  0.00     0.198 A 
ATOM     83  F   UNL A   1      48.500  26.542  25.608  1.00  0.00    -0.203 F 
ATOM     84  F   UNL A   1      51.883  25.740  29.809  1.00  0.00    -0.200 F 
ATOM     85  C   UNL A   1      51.499  25.757  27.480  1.00  0.00     0.200 A 
ATOM     86  F   UNL A   1      51.068  25.814  25.159  1.00  0.00    -0.200 F 
ATOM     87  F   UNL A   1      52.778  25.433  27.251  1.00  0.00    -0.200 F 
ENDBRANCH  53  77
BRANCH  65  88
ATOM     88  C   UNL A   1      45.802  32.585  29.358  1.00  0.00     0.064 A 
ATOM     89  C   UNL A   1      45.933  33.489  28.295  1.00  0.00     0.173 A 
ATOM     90  C   UNL A   1      46.180  33.016  30.639  1.00  0.00     0.173 A 
ATOM     91  F   UNL A   1      45.599  33.119  27.049  1.00  0.00    -0.203 F 
ATOM     92  C   UNL A   1      46.445  34.768  28.503  1.00  0.00     0.198 A 
ATOM     93  C   UNL A   1      46.666  34.304  30.847  1.00  0.00     0.198 A 
ATOM     94  F   UNL A   1      46.068  32.189  31.690  1.00  0.00    -0.203 F 
ATOM     95  F   UNL A   1      46.603  35.601  27.465  1.00  0.00    -0.200 F 
ATOM     96  C   UNL A   1      46.806  35.175  29.779  1.00  0.00     0.200 A 
ATOM     97  F   UNL A   1      47.003  34.698  32.083  1.00  0.00    -0.200 F 
ATOM     98  F   UNL A   1      47.295  36.406  29.977  1.00  0.00    -0.200 F 
ENDBRANCH  65  88
ENDBRANCH  39  40
ENDBRANCH  32  34
ENDBRANCH  31  32
ENDBRANCH  30  31
ENDBRANCH  29  30
ENDBRANCH  28  29
ENDBRANCH  27  28
ENDBRANCH   1  27
TORSDOF 21
ENDMDL
MODEL 3
REMARK VINA RESULT:     -10.0      1.094      2.182
REMARK SMILES O=C(Cc1ccccc1[N+](=O)[O-])N[C@@H]1C=C[C@H](C(=O)OCCOCCOCCOC(=O)c2ccc(-c3c4nc(c(-c5c(F)c(F)c(F)c(F)c5F)c5ccc([nH]5)c(-c5c(F)c(F)c(F)c(F)c5F)c5nc(c(-c6c(F)c(F)c(F)c(F)c6F)c6ccc3[nH]6)C=C5)C=C4)cc2)C1
REMARK SMILES IDX 24 1 23 2 22 3 21 4 20 5 18 6 19 7 17 8 14 9 15 10 95 11
REMARK SMILES IDX 16 12 13 13 1 14 2 15 3 17 4 18 5 19 9 20 6 21 8 22 7 23
REMARK SMILES IDX 10 24 11 25 12 26 25 27 26 28 27 29 28 30 29 31 30 32 31 33
REMARK SMILES IDX 32 34 33 35 94 36 34 37 93 38 35 39 36 40 37 41 87 42 38 43
REMARK SMILES IDX 92 44 86 45 88 46 39 47 91 48 85 49 84 50 40 52 72 53 52 54
REMARK SMILES IDX 71 55 53 56 56 57 70 58 89 59 54 60 55 61 69 63 90 64 57 65
REMARK SMILES IDX 41 66 42 67 50 68 43 69 44 70 48 71 51 72 45 73 46 74 49 75
REMARK SMILES IDX 47 76 73 77 74 78 82 79 75 80 76 81 80 82 83 83 77 84 78 85
REMARK SMILES IDX 81 86 79 87 58 88 59 89 67 90 60 91 61 92 65 93 68 94 62 95
REMARK SMILES IDX 63 96 66 97 64 98
REMARK H PARENT 13 16 88 51 56 62
REMARK Flexibility Score: inf
ROOT
ATOM      1  C   UNL A   1      35.558  32.788  28.060  1.00  0.00     0.188 C 
ENDROOT
BRANCH   1   2
ATOM      2  O   UNL A   1      35.488  31.536  27.391  1.00  0.00    -0.376 OA
BRANCH   2   3
ATOM      3  C   UNL A   1      35.226  30.361  28.150  1.00  0.00     0.202 C 
BRANCH   3   4
ATOM      4  C   UNL A   1      34.481  29.232  27.429  1.00  0.00     0.261 C 
BRANCH   4   5
ATOM      5  O   UNL A   1      33.806  29.647  26.219  1.00  0.00    -0.463 OA
BRANCH   5   6
ATOM      6  C   UNL A   1      32.544  30.123  26.376  1.00  0.00     0.312 C 
ATOM      7  O   UNL A   1      32.285  31.190  26.929  1.00  0.00    -0.252 OA
BRANCH   6   8
ATOM      8  C   UNL A   1      31.428  29.237  25.803  1.00  0.00     0.124 C 
ATOM      9  C   UNL A   1      31.092  27.016  24.722  1.00  0.00     0.106 C 
ATOM     10  C   UNL A   1      31.353  28.097  23.727  1.00  0.00    -0.006 C 
ATOM     11  C   UNL A   1      31.322  27.724  26.085  1.00  0.00     0.048 C 
ATOM     12  C   UNL A   1      31.527  29.289  24.302  1.00  0.00    -0.014 C 
BRANCH   9  13
ATOM     13  N   UNL A   1      31.959  25.896  24.391  1.00  0.00    -0.350 N 
ATOM     14  O   UNL A   1      30.307  24.639  23.448  1.00  0.00    -0.275 OA
ATOM     15  C   UNL A   1      31.502  24.814  23.671  1.00  0.00     0.225 C 
ATOM     16  H   UNL A   1      32.897  25.911  24.688  1.00  0.00     0.164 HD
BRANCH  15  17
ATOM     17  C   UNL A   1      32.545  23.776  23.260  1.00  0.00     0.142 C 
BRANCH  17  18
ATOM     18  C   UNL A   1      32.623  22.458  24.014  1.00  0.00     0.039 A 
ATOM     19  C   UNL A   1      32.546  21.267  23.268  1.00  0.00     0.011 A 
ATOM     20  C   UNL A   1      32.890  22.311  25.385  1.00  0.00     0.273 A 
ATOM     21  C   UNL A   1      32.645  20.005  23.866  1.00  0.00     0.001 A 
ATOM     22  C   UNL A   1      32.983  21.050  26.002  1.00  0.00     0.086 A 
ATOM     23  C   UNL A   1      32.849  19.895  25.237  1.00  0.00     0.007 A 
BRANCH  20  24
ATOM     24  N   UNL A   1      33.153  23.464  26.225  1.00  0.00     0.063 N 
ATOM     25  O   UNL A   1      34.281  23.966  26.142  1.00  0.00    -0.258 OA
ATOM     26  O   UNL A   1      32.229  23.853  26.948  1.00  0.00    -0.258 OA
ENDBRANCH  20  24
ENDBRANCH  17  18
ENDBRANCH  15  17
ENDBRANCH   9  13
ENDBRANCH   6   8
ENDBRANCH   5   6
ENDBRANCH   4   5
ENDBRANCH   3   4
ENDBRANCH   2   3
ENDBRANCH   1   2
BRANCH   1  27
ATOM     27  C   UNL A   1      34.369  33.754  27.972  1.00  0.00     0.188 C 
BRANCH  27  28
ATOM     28  O   UNL A   1      33.994  34.361  29.197  1.00  0.00    -0.376 OA
BRANCH  28  29
ATOM     29  C   UNL A   1      33.622  35.728  29.091  1.00  0.00     0.202 C 
BRANCH  29  30
ATOM     30  C   UNL A   1      32.436  36.021  30.004  1.00  0.00     0.261 C 
BRANCH  30  31
ATOM     31  O   UNL A   1      32.815  36.906  31.081  1.00  0.00    -0.460 OA
BRANCH  31  32
ATOM     32  C   UNL A   1      32.735  36.386  32.321  1.00  0.00     0.338 C 
ATOM     33  O   UNL A   1      31.893  36.635  33.164  1.00  0.00    -0.246 OA
BRANCH  32  34
ATOM     34  C   UNL A   1      33.825  35.412  32.520  1.00  0.00     0.060 A 
ATOM     35  C   UNL A   1      33.558  34.121  32.993  1.00  0.00     0.016 A 
ATOM     36  C   UNL A   1      35.141  35.829  32.342  1.00  0.00     0.016 A 
ATOM     37  C   UNL A   1      34.603  33.252  33.315  1.00  0.00     0.010 A 
ATOM     38  C   UNL A   1      36.187  34.951  32.637  1.00  0.00     0.010 A 
ATOM     39  C   UNL A   1      35.930  33.665  33.149  1.00  0.00    -0.014 A 
BRANCH  39  40
ATOM     40  C   UNL A   1      37.065  32.805  33.574  1.00  0.00     0.031 A 
ATOM     41  C   UNL A   1      37.735  33.070  34.894  1.00  0.00     0.074 A 
ATOM     42  C   UNL A   1      37.516  31.813  32.786  1.00  0.00     0.049 A 
ATOM     43  N   UNL A   1      38.861  32.600  35.369  1.00  0.00    -0.248 NA
ATOM     44  C   UNL A   1      37.038  33.991  35.802  1.00  0.00     0.031 C 
ATOM     45  C   UNL A   1      36.915  31.397  31.520  1.00  0.00     0.029 A 
ATOM     46  N   UNL A   1      38.608  30.990  32.926  1.00  0.00    -0.354 N 
ATOM     47  C   UNL A   1      39.020  33.189  36.617  1.00  0.00     0.074 A 
ATOM     48  C   UNL A   1      37.878  34.054  36.826  1.00  0.00     0.031 C 
ATOM     49  C   UNL A   1      37.658  30.412  30.987  1.00  0.00     0.029 A 
ATOM     50  C   UNL A   1      38.820  30.176  31.841  1.00  0.00     0.049 A 
ATOM     51  H   UNL A   1      39.182  30.986  33.726  1.00  0.00     0.167 HD
ATOM     52  C   UNL A   1      40.032  33.026  37.503  1.00  0.00     0.037 A 
ATOM     53  C   UNL A   1      39.862  29.375  31.542  1.00  0.00     0.037 A 
ATOM     54  C   UNL A   1      41.165  32.165  37.291  1.00  0.00     0.049 A 
ATOM     55  C   UNL A   1      41.025  29.287  32.497  1.00  0.00     0.074 A 
ATOM     56  C   UNL A   1      42.253  31.947  38.119  1.00  0.00     0.029 A 
ATOM     57  N   UNL A   1      41.358  31.379  36.164  1.00  0.00    -0.354 N 
ATOM     58  N   UNL A   1      41.193  29.876  33.655  1.00  0.00    -0.248 NA
ATOM     59  C   UNL A   1      42.150  28.431  32.092  1.00  0.00     0.031 C 
ATOM     60  C   UNL A   1      43.122  31.059  37.476  1.00  0.00     0.029 A 
ATOM     61  C   UNL A   1      42.554  30.688  36.268  1.00  0.00     0.049 A 
ATOM     62  H   UNL A   1      40.735  31.320  35.404  1.00  0.00     0.167 HD
ATOM     63  C   UNL A   1      42.427  29.447  34.127  1.00  0.00     0.074 A 
ATOM     64  C   UNL A   1      42.959  28.536  33.135  1.00  0.00     0.031 C 
ATOM     65  C   UNL A   1      43.063  29.777  35.277  1.00  0.00     0.037 A 
BRANCH  52  66
ATOM     66  C   UNL A   1      39.979  33.824  38.772  1.00  0.00     0.064 A 
ATOM     67  C   UNL A   1      39.280  33.372  39.899  1.00  0.00     0.173 A 
ATOM     68  C   UNL A   1      40.680  35.036  38.874  1.00  0.00     0.173 A 
ATOM     69  F   UNL A   1      38.576  32.231  39.845  1.00  0.00    -0.203 F 
ATOM     70  C   UNL A   1      39.271  34.112  41.080  1.00  0.00     0.198 A 
ATOM     71  C   UNL A   1      40.688  35.760  40.063  1.00  0.00     0.198 A 
ATOM     72  F   UNL A   1      41.363  35.513  37.823  1.00  0.00    -0.203 F 
ATOM     73  F   UNL A   1      38.564  33.680  42.133  1.00  0.00    -0.200 F 
ATOM     74  C   UNL A   1      39.983  35.300  41.163  1.00  0.00     0.200 A 
ATOM     75  F   UNL A   1      41.381  36.905  40.143  1.00  0.00    -0.200 F 
ATOM     76  F   UNL A   1      39.977  36.007  42.302  1.00  0.00    -0.200 F 
ENDBRANCH  52  66
BRANCH  53  77
ATOM     77  C   UNL A   1      39.884  28.631  30.255  1.00  0.00     0.064 A 
ATOM     78  C   UNL A   1      39.324  27.350  30.151  1.00  0.00     0.173 A 
ATOM     79  C   UNL A   1      40.488  29.174  29.112  1.00  0.00     0.173 A 
ATOM     80  F   UNL A   1      38.765  26.775  31.225  1.00  0.00    -0.203 F 
ATOM     81  C   UNL A   1      39.383  26.635  28.956  1.00  0.00     0.198 A 
ATOM     82  C   UNL A   1      40.519  28.471  27.910  1.00  0.00     0.198 A 
ATOM     83  F   UNL A   1      41.046  30.393  29.161  1.00  0.00    -0.203 F 
ATOM     84  F   UNL A   1      38.886  25.392  28.897  1.00  0.00    -0.200 F 
ATOM     85  C   UNL A   1      39.973  27.198  27.834  1.00  0.00     0.200 A 
ATOM     86  F   UNL A   1      41.083  29.023  26.827  1.00  0.00    -0.200 F 
ATOM     87  F   UNL A   1      40.029  26.511  26.686  1.00  0.00    -0.200 F 
ENDBRANCH  53  77
BRANCH  65  88
ATOM     88  C   UNL A   1      44.386  29.120  35.544  1.00  0.00     0.064 A 
ATOM     89  C   UNL A   1      44.476  27.894  36.217  1.00  0.00     0.173 A 
ATOM     90  C   UNL A   1      45.576  29.712  35.092  1.00  0.00     0.173 A 
ATOM     91  F   UNL A   1      43.368  27.296  36.682  1.00  0.00    -0.203 F 
ATOM     92  C   UNL A   1      45.712  27.295  36.451  1.00  0.00     0.198 A 
ATOM     93  C   UNL A   1      46.807  29.098  35.304  1.00  0.00     0.198 A 
ATOM     94  F   UNL A   1      45.541  30.882  34.436  1.00  0.00    -0.203 F 
ATOM     95  F   UNL A   1      45.779  26.146  37.136  1.00  0.00    -0.200 F 
ATOM     96  C   UNL A   1      46.875  27.895  35.989  1.00  0.00     0.200 A 
ATOM     97  F   UNL A   1      47.927  29.674  34.847  1.00  0.00    -0.200 F 
ATOM     98  F   UNL A   1      48.062  27.316  36.212  1.00  0.00    -0.200 F 
ENDBRANCH  65  88
ENDBRANCH  39  40
ENDBRANCH  32  34
ENDBRANCH  31  32
ENDBRANCH  30  31
ENDBRANCH  29  30
ENDBRANCH  28  29
ENDBRANCH  27  28
ENDBRANCH   1  27
TORSDOF 21
ENDMDL
