MODEL 1
REMARK VINA RESULT:     -11.2      0.000      0.000
REMARK SMILES CC[C@@H](C(=O)OCCOCCOCCOC(=O)c1ccc(-c2c3nc(c(-c4c(F)c(F)c(F)c(F)c4F)c4ccc([nH]4)c(-c4c(F)c(F)c(F)c(F)c4F)c4nc(c(-c5c(F)c(F)c(F)c(F)c5F)c5ccc2[nH]5)C=C4)C=C3)cc1)N1C(=O)/C(=C/C(C)=C/c2ccccc2)SC1=S
REMARK SMILES IDX 10 1 9 2 8 3 7 4 6 5 4 6 5 7 3 8 2 9 1 10 81 11 82 12 96 13
REMARK SMILES IDX 83 14 84 15 95 16 97 17 85 18 86 19 87 20 88 21 89 22 90 23
REMARK SMILES IDX 94 24 91 25 93 26 92 27 11 28 12 29 13 30 14 31 15 32 16 33
REMARK SMILES IDX 17 34 18 35 19 36 80 37 20 38 79 39 21 40 22 41 23 42 73 43
REMARK SMILES IDX 24 44 78 45 72 46 74 47 25 48 77 49 71 50 70 51 26 53 58 54
REMARK SMILES IDX 38 55 57 56 39 57 42 58 56 59 75 60 40 61 41 62 55 64 76 65
REMARK SMILES IDX 43 66 27 67 28 68 36 69 29 70 30 71 34 72 37 73 31 74 32 75
REMARK SMILES IDX 35 76 33 77 59 78 60 79 68 80 61 81 62 82 66 83 69 84 63 85
REMARK SMILES IDX 64 86 67 87 65 88 44 89 45 90 53 91 46 92 47 93 51 94 54 95
REMARK SMILES IDX 48 96 49 97 52 98 50 99
REMARK H PARENT 74 52 42 63
REMARK Flexibility Score: inf
ROOT
ATOM      1  C   UNL A   1      31.292  25.436  26.825  1.00  0.00     0.188 C 
ENDROOT
BRANCH   1   2
ATOM      2  O   UNL A   1      30.174  24.549  26.874  1.00  0.00    -0.376 OA
BRANCH   2   3
ATOM      3  C   UNL A   1      30.499  23.184  26.617  1.00  0.00     0.202 C 
BRANCH   3   4
ATOM      4  C   UNL A   1      31.786  22.744  27.317  1.00  0.00     0.261 C 
BRANCH   4   5
ATOM      5  O   UNL A   1      32.844  22.401  26.400  1.00  0.00    -0.462 OA
BRANCH   5   6
ATOM      6  C   UNL A   1      32.543  21.739  25.258  1.00  0.00     0.329 C 
ATOM      7  O   UNL A   1      31.915  20.688  25.216  1.00  0.00    -0.250 OA
BRANCH   6   8
ATOM      8  C   UNL A   1      33.061  22.468  23.998  1.00  0.00     0.201 C 
BRANCH   8   9
ATOM      9  C   UNL A   1      34.542  22.325  23.570  1.00  0.00     0.034 C 
ATOM     10  C   UNL A   1      35.466  21.576  24.519  1.00  0.00     0.007 C 
ENDBRANCH   8   9
BRANCH   8  11
ATOM     11  N   UNL A   1      32.690  23.905  23.938  1.00  0.00    -0.278 N 
ATOM     12  C   UNL A   1      31.500  24.268  23.325  1.00  0.00     0.266 C 
ATOM     13  C   UNL A   1      33.553  24.954  24.148  1.00  0.00     0.149 C 
ATOM     14  O   UNL A   1      30.589  23.519  23.003  1.00  0.00    -0.268 OA
ATOM     15  C   UNL A   1      31.503  25.739  23.048  1.00  0.00     0.080 C 
ATOM     16  S   UNL A   1      33.128  26.275  23.092  1.00  0.00    -0.054 SA
ATOM     17  S   UNL A   1      34.738  25.142  25.289  1.00  0.00    -0.052 S 
ATOM     18  C   UNL A   1      30.384  26.459  22.898  1.00  0.00     0.024 C 
BRANCH  18  19
ATOM     19  C   UNL A   1      30.191  27.897  22.666  1.00  0.00    -0.049 C 
ATOM     20  C   UNL A   1      31.468  28.599  22.262  1.00  0.00     0.044 C 
ATOM     21  C   UNL A   1      29.011  28.545  22.760  1.00  0.00     0.011 C 
BRANCH  21  22
ATOM     22  C   UNL A   1      28.758  29.981  22.583  1.00  0.00    -0.025 A 
ATOM     23  C   UNL A   1      28.274  30.433  21.348  1.00  0.00     0.008 A 
ATOM     24  C   UNL A   1      29.047  30.913  23.583  1.00  0.00     0.008 A 
ATOM     25  C   UNL A   1      28.052  31.793  21.127  1.00  0.00     0.001 A 
ATOM     26  C   UNL A   1      28.799  32.269  23.371  1.00  0.00     0.001 A 
ATOM     27  C   UNL A   1      28.308  32.710  22.142  1.00  0.00     0.000 A 
ENDBRANCH  21  22
ENDBRANCH  18  19
ENDBRANCH   8  11
ENDBRANCH   6   8
ENDBRANCH   5   6
ENDBRANCH   4   5
ENDBRANCH   3   4
ENDBRANCH   2   3
ENDBRANCH   1   2
BRANCH   1  28
ATOM     28  C   UNL A   1      30.881  26.852  26.416  1.00  0.00     0.188 C 
BRANCH  28  29
ATOM     29  O   UNL A   1      31.889  27.836  26.189  1.00  0.00    -0.376 OA
BRANCH  29  30
ATOM     30  C   UNL A   1      31.458  29.141  25.834  1.00  0.00     0.202 C 
BRANCH  30  31
ATOM     31  C   UNL A   1      31.898  30.274  26.767  1.00  0.00     0.261 C 
BRANCH  31  32
ATOM     32  O   UNL A   1      33.141  30.886  26.396  1.00  0.00    -0.460 OA
BRANCH  32  33
ATOM     33  C   UNL A   1      33.587  31.818  27.280  1.00  0.00     0.338 C 
ATOM     34  O   UNL A   1      32.990  32.790  27.689  1.00  0.00    -0.246 OA
BRANCH  33  35
ATOM     35  C   UNL A   1      34.919  31.418  27.792  1.00  0.00     0.060 A 
ATOM     36  C   UNL A   1      35.137  30.057  28.047  1.00  0.00     0.016 A 
ATOM     37  C   UNL A   1      35.920  32.355  28.062  1.00  0.00     0.016 A 
ATOM     38  C   UNL A   1      36.338  29.634  28.616  1.00  0.00     0.010 A 
ATOM     39  C   UNL A   1      37.116  31.934  28.652  1.00  0.00     0.010 A 
ATOM     40  C   UNL A   1      37.314  30.577  28.963  1.00  0.00    -0.014 A 
BRANCH  40  41
ATOM     41  C   UNL A   1      38.440  30.179  29.843  1.00  0.00     0.031 A 
ATOM     42  C   UNL A   1      39.418  29.164  29.321  1.00  0.00     0.074 A 
ATOM     43  C   UNL A   1      38.586  30.693  31.075  1.00  0.00     0.049 A 
ATOM     44  N   UNL A   1      40.494  28.680  29.885  1.00  0.00    -0.248 NA
ATOM     45  C   UNL A   1      39.150  28.629  27.975  1.00  0.00     0.031 C 
ATOM     46  C   UNL A   1      37.722  31.709  31.666  1.00  0.00     0.029 A 
ATOM     47  N   UNL A   1      39.511  30.424  32.055  1.00  0.00    -0.354 N 
ATOM     48  C   UNL A   1      41.036  27.798  28.960  1.00  0.00     0.074 A 
ATOM     49  C   UNL A   1      40.163  27.793  27.808  1.00  0.00     0.031 C 
ATOM     50  C   UNL A   1      38.150  31.973  32.913  1.00  0.00     0.029 A 
ATOM     51  C   UNL A   1      39.296  31.116  33.223  1.00  0.00     0.049 A 
ATOM     52  H   UNL A   1      40.258  29.795  31.931  1.00  0.00     0.167 HD
ATOM     53  C   UNL A   1      42.165  27.059  29.063  1.00  0.00     0.037 A 
ATOM     54  C   UNL A   1      39.943  31.046  34.408  1.00  0.00     0.037 A 
ATOM     55  C   UNL A   1      43.011  27.039  30.225  1.00  0.00     0.049 A 
ATOM     56  C   UNL A   1      41.141  30.130  34.522  1.00  0.00     0.074 A 
ATOM     57  C   UNL A   1      44.188  26.340  30.422  1.00  0.00     0.029 A 
ATOM     58  N   UNL A   1      42.749  27.729  31.398  1.00  0.00    -0.354 N 
ATOM     59  N   UNL A   1      41.717  29.392  33.600  1.00  0.00    -0.248 NA
ATOM     60  C   UNL A   1      41.788  30.039  35.839  1.00  0.00     0.031 C 
ATOM     61  C   UNL A   1      44.613  26.571  31.734  1.00  0.00     0.029 A 
ATOM     62  C   UNL A   1      43.724  27.447  32.337  1.00  0.00     0.049 A 
ATOM     63  H   UNL A   1      41.983  28.332  31.540  1.00  0.00     0.167 HD
ATOM     64  C   UNL A   1      42.826  28.812  34.208  1.00  0.00     0.074 A 
ATOM     65  C   UNL A   1      42.841  29.278  35.577  1.00  0.00     0.031 C 
ATOM     66  C   UNL A   1      43.749  27.970  33.681  1.00  0.00     0.037 A 
BRANCH  53  67
ATOM     67  C   UNL A   1      42.525  26.191  27.898  1.00  0.00     0.064 A 
ATOM     68  C   UNL A   1      43.440  26.618  26.922  1.00  0.00     0.173 A 
ATOM     69  C   UNL A   1      41.961  24.915  27.760  1.00  0.00     0.173 A 
ATOM     70  F   UNL A   1      43.991  27.838  27.002  1.00  0.00    -0.203 F 
ATOM     71  C   UNL A   1      43.760  25.803  25.840  1.00  0.00     0.198 A 
ATOM     72  C   UNL A   1      42.299  24.096  26.687  1.00  0.00     0.198 A 
ATOM     73  F   UNL A   1      41.080  24.465  28.666  1.00  0.00    -0.203 F 
ATOM     74  F   UNL A   1      44.605  26.245  24.898  1.00  0.00    -0.200 F 
ATOM     75  C   UNL A   1      43.194  24.543  25.725  1.00  0.00     0.200 A 
ATOM     76  F   UNL A   1      41.755  22.875  26.580  1.00  0.00    -0.200 F 
ATOM     77  F   UNL A   1      43.504  23.759  24.683  1.00  0.00    -0.200 F 
ENDBRANCH  53  67
BRANCH  54  78
ATOM     78  C   UNL A   1      39.485  31.876  35.565  1.00  0.00     0.064 A 
ATOM     79  C   UNL A   1      38.535  31.401  36.482  1.00  0.00     0.173 A 
ATOM     80  C   UNL A   1      39.977  33.172  35.782  1.00  0.00     0.173 A 
ATOM     81  F   UNL A   1      37.937  30.223  36.281  1.00  0.00    -0.203 F 
ATOM     82  C   UNL A   1      38.123  32.161  37.576  1.00  0.00     0.198 A 
ATOM     83  C   UNL A   1      39.581  33.927  36.887  1.00  0.00     0.198 A 
ATOM     84  F   UNL A   1      40.853  33.712  34.922  1.00  0.00    -0.203 F 
ATOM     85  F   UNL A   1      37.191  31.678  38.409  1.00  0.00    -0.200 F 
ATOM     86  C   UNL A   1      38.656  33.420  37.786  1.00  0.00     0.200 A 
ATOM     87  F   UNL A   1      40.093  35.151  37.079  1.00  0.00    -0.200 F 
ATOM     88  F   UNL A   1      38.263  34.150  38.838  1.00  0.00    -0.200 F 
ENDBRANCH  54  78
BRANCH  66  89
ATOM     89  C   UNL A   1      44.896  27.556  34.558  1.00  0.00     0.064 A 
ATOM     90  C   UNL A   1      44.860  26.377  35.314  1.00  0.00     0.173 A 
ATOM     91  C   UNL A   1      46.073  28.323  34.590  1.00  0.00     0.173 A 
ATOM     92  F   UNL A   1      43.755  25.616  35.325  1.00  0.00    -0.203 F 
ATOM     93  C   UNL A   1      45.951  25.991  36.090  1.00  0.00     0.198 A 
ATOM     94  C   UNL A   1      47.172  27.917  35.341  1.00  0.00     0.198 A 
ATOM     95  F   UNL A   1      46.162  29.454  33.876  1.00  0.00    -0.203 F 
ATOM     96  F   UNL A   1      45.878  24.882  36.840  1.00  0.00    -0.200 F 
ATOM     97  C   UNL A   1      47.108  26.756  36.096  1.00  0.00     0.200 A 
ATOM     98  F   UNL A   1      48.295  28.648  35.332  1.00  0.00    -0.200 F 
ATOM     99  F   UNL A   1      48.161  26.376  36.833  1.00  0.00    -0.200 F 
ENDBRANCH  66  89
ENDBRANCH  40  41
ENDBRANCH  33  35
ENDBRANCH  32  33
ENDBRANCH  31  32
ENDBRANCH  30  31
ENDBRANCH  29  30
ENDBRANCH  28  29
ENDBRANCH   1  28
TORSDOF 21
ENDMDL
MODEL 2
REMARK VINA RESULT:     -11.2      3.135      7.860
REMARK SMILES CC[C@@H](C(=O)OCCOCCOCCOC(=O)c1ccc(-c2c3nc(c(-c4c(F)c(F)c(F)c(F)c4F)c4ccc([nH]4)c(-c4c(F)c(F)c(F)c(F)c4F)c4nc(c(-c5c(F)c(F)c(F)c(F)c5F)c5ccc2[nH]5)C=C4)C=C3)cc1)N1C(=O)/C(=C/C(C)=C/c2ccccc2)SC1=S
REMARK SMILES IDX 10 1 9 2 8 3 7 4 6 5 4 6 5 7 3 8 2 9 1 10 81 11 82 12 96 13
REMARK SMILES IDX 83 14 84 15 95 16 97 17 85 18 86 19 87 20 88 21 89 22 90 23
REMARK SMILES IDX 94 24 91 25 93 26 92 27 11 28 12 29 13 30 14 31 15 32 16 33
REMARK SMILES IDX 17 34 18 35 19 36 80 37 20 38 79 39 21 40 22 41 23 42 73 43
REMARK SMILES IDX 24 44 78 45 72 46 74 47 25 48 77 49 71 50 70 51 26 53 58 54
REMARK SMILES IDX 38 55 57 56 39 57 42 58 56 59 75 60 40 61 41 62 55 64 76 65
REMARK SMILES IDX 43 66 27 67 28 68 36 69 29 70 30 71 34 72 37 73 31 74 32 75
REMARK SMILES IDX 35 76 33 77 59 78 60 79 68 80 61 81 62 82 66 83 69 84 63 85
REMARK SMILES IDX 64 86 67 87 65 88 44 89 45 90 53 91 46 92 47 93 51 94 54 95
REMARK SMILES IDX 48 96 49 97 52 98 50 99
REMARK H PARENT 74 52 42 63
REMARK Flexibility Score: inf
ROOT
ATOM      1  C   UNL A   1      39.510  21.975  25.811  1.00  0.00     0.188 C 
ENDROOT
BRANCH   1   2
ATOM      2  O   UNL A   1      39.026  23.122  26.510  1.00  0.00    -0.376 OA
BRANCH   2   3
ATOM      3  C   UNL A   1      37.670  23.455  26.218  1.00  0.00     0.202 C 
BRANCH   3   4
ATOM      4  C   UNL A   1      37.226  22.959  24.840  1.00  0.00     0.261 C 
BRANCH   4   5
ATOM      5  O   UNL A   1      35.869  22.472  24.820  1.00  0.00    -0.462 OA
BRANCH   5   6
ATOM      6  C   UNL A   1      35.644  21.139  24.890  1.00  0.00     0.329 C 
ATOM      7  O   UNL A   1      36.506  20.284  24.728  1.00  0.00    -0.250 OA
BRANCH   6   8
ATOM      8  C   UNL A   1      34.172  20.805  25.222  1.00  0.00     0.201 C 
BRANCH   8   9
ATOM      9  C   UNL A   1      33.422  19.713  24.419  1.00  0.00     0.034 C 
ATOM     10  C   UNL A   1      32.688  18.647  25.220  1.00  0.00     0.007 C 
ENDBRANCH   8   9
BRANCH   8  11
ATOM     11  N   UNL A   1      33.293  21.997  25.329  1.00  0.00    -0.278 N 
ATOM     12  C   UNL A   1      32.781  22.563  24.170  1.00  0.00     0.266 C 
ATOM     13  C   UNL A   1      33.181  22.800  26.439  1.00  0.00     0.149 C 
ATOM     14  O   UNL A   1      32.789  22.067  23.053  1.00  0.00    -0.268 OA
ATOM     15  C   UNL A   1      32.250  23.930  24.468  1.00  0.00     0.080 C 
ATOM     16  S   UNL A   1      32.954  24.455  25.937  1.00  0.00    -0.054 SA
ATOM     17  S   UNL A   1      33.093  22.391  28.041  1.00  0.00    -0.052 S 
ATOM     18  C   UNL A   1      31.317  24.532  23.720  1.00  0.00     0.024 C 
BRANCH  18  19
ATOM     19  C   UNL A   1      30.656  25.835  23.876  1.00  0.00    -0.049 C 
ATOM     20  C   UNL A   1      29.491  25.787  24.840  1.00  0.00     0.044 C 
ATOM     21  C   UNL A   1      31.040  26.977  23.267  1.00  0.00     0.011 C 
BRANCH  21  22
ATOM     22  C   UNL A   1      30.400  28.297  23.346  1.00  0.00    -0.025 A 
ATOM     23  C   UNL A   1      30.929  29.251  24.226  1.00  0.00     0.008 A 
ATOM     24  C   UNL A   1      29.246  28.605  22.623  1.00  0.00     0.008 A 
ATOM     25  C   UNL A   1      30.332  30.505  24.357  1.00  0.00     0.001 A 
ATOM     26  C   UNL A   1      28.665  29.868  22.733  1.00  0.00     0.001 A 
ATOM     27  C   UNL A   1      29.203  30.816  23.604  1.00  0.00     0.000 A 
ENDBRANCH  21  22
ENDBRANCH  18  19
ENDBRANCH   8  11
ENDBRANCH   6   8
ENDBRANCH   5   6
ENDBRANCH   4   5
ENDBRANCH   3   4
ENDBRANCH   2   3
ENDBRANCH   1   2
BRANCH   1  28
ATOM     28  C   UNL A   1      40.711  21.341  26.517  1.00  0.00     0.188 C 
BRANCH  28  29
ATOM     29  O   UNL A   1      41.732  20.718  25.740  1.00  0.00    -0.376 OA
BRANCH  29  30
ATOM     30  C   UNL A   1      43.073  20.883  26.174  1.00  0.00     0.202 C 
BRANCH  30  31
ATOM     31  C   UNL A   1      43.934  21.849  25.351  1.00  0.00     0.261 C 
BRANCH  31  32
ATOM     32  O   UNL A   1      43.232  23.012  24.893  1.00  0.00    -0.460 OA
BRANCH  32  33
ATOM     33  C   UNL A   1      43.934  24.170  25.018  1.00  0.00     0.338 C 
ATOM     34  O   UNL A   1      44.960  24.473  24.447  1.00  0.00    -0.246 OA
BRANCH  33  35
ATOM     35  C   UNL A   1      43.195  25.106  25.897  1.00  0.00     0.060 A 
ATOM     36  C   UNL A   1      43.666  26.424  25.989  1.00  0.00     0.016 A 
ATOM     37  C   UNL A   1      42.092  24.697  26.651  1.00  0.00     0.016 A 
ATOM     38  C   UNL A   1      43.066  27.321  26.872  1.00  0.00     0.010 A 
ATOM     39  C   UNL A   1      41.502  25.592  27.550  1.00  0.00     0.010 A 
ATOM     40  C   UNL A   1      42.011  26.895  27.689  1.00  0.00    -0.014 A 
BRANCH  40  41
ATOM     41  C   UNL A   1      41.584  27.736  28.834  1.00  0.00     0.031 A 
ATOM     42  C   UNL A   1      42.373  27.646  30.109  1.00  0.00     0.074 A 
ATOM     43  C   UNL A   1      40.518  28.549  28.750  1.00  0.00     0.049 A 
ATOM     44  N   UNL A   1      42.217  28.297  31.232  1.00  0.00    -0.248 NA
ATOM     45  C   UNL A   1      43.500  26.696  30.115  1.00  0.00     0.031 C 
ATOM     46  C   UNL A   1      39.704  28.744  27.555  1.00  0.00     0.029 A 
ATOM     47  N   UNL A   1      39.930  29.357  29.694  1.00  0.00    -0.354 N 
ATOM     48  C   UNL A   1      43.230  27.849  32.068  1.00  0.00     0.074 A 
ATOM     49  C   UNL A   1      43.982  26.854  31.339  1.00  0.00     0.031 C 
ATOM     50  C   UNL A   1      38.715  29.609  27.837  1.00  0.00     0.029 A 
ATOM     51  C   UNL A   1      38.801  30.000  29.245  1.00  0.00     0.049 A 
ATOM     52  H   UNL A   1      40.286  29.465  30.605  1.00  0.00     0.167 HD
ATOM     53  C   UNL A   1      43.508  28.236  33.335  1.00  0.00     0.037 A 
ATOM     54  C   UNL A   1      37.933  30.797  29.907  1.00  0.00     0.037 A 
ATOM     55  C   UNL A   1      42.736  29.199  34.071  1.00  0.00     0.049 A 
ATOM     56  C   UNL A   1      38.217  31.127  31.355  1.00  0.00     0.074 A 
ATOM     57  C   UNL A   1      42.947  29.675  35.352  1.00  0.00     0.029 A 
ATOM     58  N   UNL A   1      41.585  29.809  33.597  1.00  0.00    -0.354 N 
ATOM     59  N   UNL A   1      39.246  30.793  32.100  1.00  0.00    -0.248 NA
ATOM     60  C   UNL A   1      37.223  31.953  32.058  1.00  0.00     0.031 C 
ATOM     61  C   UNL A   1      41.893  30.538  35.672  1.00  0.00     0.029 A 
ATOM     62  C   UNL A   1      41.053  30.633  34.573  1.00  0.00     0.049 A 
ATOM     63  H   UNL A   1      41.204  29.676  32.698  1.00  0.00     0.167 HD
ATOM     64  C   UNL A   1      39.056  31.423  33.326  1.00  0.00     0.074 A 
ATOM     65  C   UNL A   1      37.813  32.156  33.228  1.00  0.00     0.031 C 
ATOM     66  C   UNL A   1      39.840  31.399  34.432  1.00  0.00     0.037 A 
BRANCH  53  67
ATOM     67  C   UNL A   1      44.678  27.589  34.008  1.00  0.00     0.064 A 
ATOM     68  C   UNL A   1      44.578  26.311  34.582  1.00  0.00     0.173 A 
ATOM     69  C   UNL A   1      45.915  28.245  34.071  1.00  0.00     0.173 A 
ATOM     70  F   UNL A   1      43.409  25.653  34.563  1.00  0.00    -0.203 F 
ATOM     71  C   UNL A   1      45.672  25.724  35.211  1.00  0.00     0.198 A 
ATOM     72  C   UNL A   1      47.012  27.645  34.683  1.00  0.00     0.198 A 
ATOM     73  F   UNL A   1      46.058  29.468  33.539  1.00  0.00    -0.203 F 
ATOM     74  F   UNL A   1      45.545  24.521  35.787  1.00  0.00    -0.200 F 
ATOM     75  C   UNL A   1      46.888  26.388  35.257  1.00  0.00     0.200 A 
ATOM     76  F   UNL A   1      48.189  28.287  34.723  1.00  0.00    -0.200 F 
ATOM     77  F   UNL A   1      47.941  25.822  35.863  1.00  0.00    -0.200 F 
ENDBRANCH  53  67
BRANCH  54  78
ATOM     78  C   UNL A   1      36.732  31.348  29.205  1.00  0.00     0.064 A 
ATOM     79  C   UNL A   1      36.626  32.710  28.884  1.00  0.00     0.173 A 
ATOM     80  C   UNL A   1      35.649  30.530  28.845  1.00  0.00     0.173 A 
ATOM     81  F   UNL A   1      37.563  33.571  29.293  1.00  0.00    -0.203 F 
ATOM     82  C   UNL A   1      35.521  33.224  28.208  1.00  0.00     0.198 A 
ATOM     83  C   UNL A   1      34.550  31.039  28.151  1.00  0.00     0.198 A 
ATOM     84  F   UNL A   1      35.657  29.226  29.159  1.00  0.00    -0.203 F 
ATOM     85  F   UNL A   1      35.451  34.536  27.949  1.00  0.00    -0.200 F 
ATOM     86  C   UNL A   1      34.487  32.385  27.831  1.00  0.00     0.200 A 
ATOM     87  F   UNL A   1      33.547  30.223  27.798  1.00  0.00    -0.200 F 
ATOM     88  F   UNL A   1      33.426  32.878  27.179  1.00  0.00    -0.200 F 
ENDBRANCH  54  78
BRANCH  66  89
ATOM     89  C   UNL A   1      39.422  32.245  35.601  1.00  0.00     0.064 A 
ATOM     90  C   UNL A   1      39.836  33.578  35.735  1.00  0.00     0.173 A 
ATOM     91  C   UNL A   1      38.543  31.729  36.567  1.00  0.00     0.173 A 
ATOM     92  F   UNL A   1      40.683  34.114  34.844  1.00  0.00    -0.203 F 
ATOM     93  C   UNL A   1      39.404  34.356  36.806  1.00  0.00     0.198 A 
ATOM     94  C   UNL A   1      38.089  32.520  37.618  1.00  0.00     0.198 A 
ATOM     95  F   UNL A   1      38.110  30.463  36.478  1.00  0.00    -0.203 F 
ATOM     96  F   UNL A   1      39.846  35.615  36.937  1.00  0.00    -0.200 F 
ATOM     97  C   UNL A   1      38.524  33.830  37.741  1.00  0.00     0.200 A 
ATOM     98  F   UNL A   1      37.226  32.015  38.510  1.00  0.00    -0.200 F 
ATOM     99  F   UNL A   1      38.100  34.586  38.763  1.00  0.00    -0.200 F 
ENDBRANCH  66  89
ENDBRANCH  40  41
ENDBRANCH  33  35
ENDBRANCH  32  33
ENDBRANCH  31  32
ENDBRANCH  30  31
ENDBRANCH  29  30
ENDBRANCH  28  29
ENDBRANCH   1  28
TORSDOF 21
ENDMDL
MODEL 3
REMARK VINA RESULT:     -10.8      2.995      7.835
REMARK SMILES CC[C@@H](C(=O)OCCOCCOCCOC(=O)c1ccc(-c2c3nc(c(-c4c(F)c(F)c(F)c(F)c4F)c4ccc([nH]4)c(-c4c(F)c(F)c(F)c(F)c4F)c4nc(c(-c5c(F)c(F)c(F)c(F)c5F)c5ccc2[nH]5)C=C4)C=C3)cc1)N1C(=O)/C(=C/C(C)=C/c2ccccc2)SC1=S
REMARK SMILES IDX 10 1 9 2 8 3 7 4 6 5 4 6 5 7 3 8 2 9 1 10 81 11 82 12 96 13
REMARK SMILES IDX 83 14 84 15 95 16 97 17 85 18 86 19 87 20 88 21 89 22 90 23
REMARK SMILES IDX 94 24 91 25 93 26 92 27 11 28 12 29 13 30 14 31 15 32 16 33
REMARK SMILES IDX 17 34 18 35 19 36 80 37 20 38 79 39 21 40 22 41 23 42 73 43
REMARK SMILES IDX 24 44 78 45 72 46 74 47 25 48 77 49 71 50 70 51 26 53 58 54
REMARK SMILES IDX 38 55 57 56 39 57 42 58 56 59 75 60 40 61 41 62 55 64 76 65
REMARK SMILES IDX 43 66 27 67 28 68 36 69 29 70 30 71 34 72 37 73 31 74 32 75
REMARK SMILES IDX 35 76 33 77 59 78 60 79 68 80 61 81 62 82 66 83 69 84 63 85
REMARK SMILES IDX 64 86 67 87 65 88 44 89 45 90 53 91 46 92 47 93 51 94 54 95
REMARK SMILES IDX 48 96 49 97 52 98 50 99
REMARK H PARENT 74 52 42 63
REMARK Flexibility Score: inf
ROOT
ATOM      1  C   UNL A   1      38.667  21.667  25.803  1.00  0.00     0.188 C 
ENDROOT
BRANCH   1   2
ATOM      2  O   UNL A   1      38.008  22.899  26.099  1.00  0.00    -0.376 OA
BRANCH   2   3
ATOM      3  C   UNL A   1      37.189  23.393  25.040  1.00  0.00     0.202 C 
BRANCH   3   4
ATOM      4  C   UNL A   1      36.765  22.295  24.063  1.00  0.00     0.261 C 
BRANCH   4   5
ATOM      5  O   UNL A   1      35.396  21.876  24.236  1.00  0.00    -0.462 OA
BRANCH   5   6
ATOM      6  C   UNL A   1      35.138  20.665  24.783  1.00  0.00     0.329 C 
ATOM      7  O   UNL A   1      35.986  19.802  24.979  1.00  0.00    -0.250 OA
BRANCH   6   8
ATOM      8  C   UNL A   1      33.649  20.489  25.156  1.00  0.00     0.201 C 
BRANCH   8   9
ATOM      9  C   UNL A   1      32.754  19.517  24.350  1.00  0.00     0.034 C 
ATOM     10  C   UNL A   1      33.347  18.158  24.003  1.00  0.00     0.007 C 
ENDBRANCH   8   9
BRANCH   8  11
ATOM     11  N   UNL A   1      32.917  21.770  25.328  1.00  0.00    -0.278 N 
ATOM     12  C   UNL A   1      32.243  22.311  24.243  1.00  0.00     0.266 C 
ATOM     13  C   UNL A   1      33.093  22.648  26.372  1.00  0.00     0.149 C 
ATOM     14  O   UNL A   1      31.992  21.748  23.187  1.00  0.00    -0.268 OA
ATOM     15  C   UNL A   1      31.903  23.741  24.523  1.00  0.00     0.080 C 
ATOM     16  S   UNL A   1      32.921  24.282  25.788  1.00  0.00    -0.054 SA
ATOM     17  S   UNL A   1      33.279  22.351  27.989  1.00  0.00    -0.052 S 
ATOM     18  C   UNL A   1      30.900  24.388  23.916  1.00  0.00     0.024 C 
BRANCH  18  19
ATOM     19  C   UNL A   1      30.399  25.759  24.086  1.00  0.00    -0.049 C 
ATOM     20  C   UNL A   1      29.743  25.977  25.431  1.00  0.00     0.044 C 
ATOM     21  C   UNL A   1      30.523  26.748  23.176  1.00  0.00     0.011 C 
BRANCH  21  22
ATOM     22  C   UNL A   1      30.010  28.122  23.266  1.00  0.00    -0.025 A 
ATOM     23  C   UNL A   1      30.726  29.061  24.020  1.00  0.00     0.008 A 
ATOM     24  C   UNL A   1      28.800  28.500  22.679  1.00  0.00     0.008 A 
ATOM     25  C   UNL A   1      30.256  30.367  24.159  1.00  0.00     0.001 A 
ATOM     26  C   UNL A   1      28.345  29.813  22.795  1.00  0.00     0.001 A 
ATOM     27  C   UNL A   1      29.068  30.745  23.539  1.00  0.00     0.000 A 
ENDBRANCH  21  22
ENDBRANCH  18  19
ENDBRANCH   8  11
ENDBRANCH   6   8
ENDBRANCH   5   6
ENDBRANCH   4   5
ENDBRANCH   3   4
ENDBRANCH   2   3
ENDBRANCH   1   2
BRANCH   1  28
ATOM     28  C   UNL A   1      40.033  21.571  26.486  1.00  0.00     0.188 C 
BRANCH  28  29
ATOM     29  O   UNL A   1      41.164  21.138  25.733  1.00  0.00    -0.376 OA
BRANCH  29  30
ATOM     30  C   UNL A   1      42.432  21.654  26.106  1.00  0.00     0.202 C 
BRANCH  30  31
ATOM     31  C   UNL A   1      43.221  22.367  25.002  1.00  0.00     0.261 C 
BRANCH  31  32
ATOM     32  O   UNL A   1      42.989  23.781  24.939  1.00  0.00    -0.460 OA
BRANCH  32  33
ATOM     33  C   UNL A   1      44.079  24.537  25.240  1.00  0.00     0.338 C 
ATOM     34  O   UNL A   1      45.081  24.681  24.574  1.00  0.00    -0.246 OA
BRANCH  33  35
ATOM     35  C   UNL A   1      43.830  25.288  26.493  1.00  0.00     0.060 A 
ATOM     36  C   UNL A   1      42.971  24.711  27.440  1.00  0.00     0.016 A 
ATOM     37  C   UNL A   1      44.385  26.550  26.722  1.00  0.00     0.016 A 
ATOM     38  C   UNL A   1      42.628  25.413  28.594  1.00  0.00     0.010 A 
ATOM     39  C   UNL A   1      44.025  27.262  27.871  1.00  0.00     0.010 A 
ATOM     40  C   UNL A   1      43.118  26.711  28.792  1.00  0.00    -0.014 A 
BRANCH  40  41
ATOM     41  C   UNL A   1      42.517  27.570  29.841  1.00  0.00     0.031 A 
ATOM     42  C   UNL A   1      43.155  27.574  31.201  1.00  0.00     0.074 A 
ATOM     43  C   UNL A   1      41.428  28.319  29.598  1.00  0.00     0.049 A 
ATOM     44  N   UNL A   1      42.835  28.259  32.268  1.00  0.00    -0.248 NA
ATOM     45  C   UNL A   1      44.319  26.690  31.380  1.00  0.00     0.031 C 
ATOM     46  C   UNL A   1      40.752  28.421  28.309  1.00  0.00     0.029 A 
ATOM     47  N   UNL A   1      40.693  29.129  30.430  1.00  0.00    -0.354 N 
ATOM     48  C   UNL A   1      43.763  27.901  33.235  1.00  0.00     0.074 A 
ATOM     49  C   UNL A   1      44.646  26.922  32.643  1.00  0.00     0.031 C 
ATOM     50  C   UNL A   1      39.694  29.240  28.436  1.00  0.00     0.029 A 
ATOM     51  C   UNL A   1      39.593  29.690  29.826  1.00  0.00     0.049 A 
ATOM     52  H   UNL A   1      40.934  29.292  31.371  1.00  0.00     0.167 HD
ATOM     53  C   UNL A   1      43.871  28.352  34.507  1.00  0.00     0.037 A 
ATOM     54  C   UNL A   1      38.614  30.462  30.346  1.00  0.00     0.037 A 
ATOM     55  C   UNL A   1      42.969  29.298  35.105  1.00  0.00     0.049 A 
ATOM     56  C   UNL A   1      38.709  30.863  31.801  1.00  0.00     0.074 A 
ATOM     57  C   UNL A   1      43.003  29.835  36.379  1.00  0.00     0.029 A 
ATOM     58  N   UNL A   1      41.853  29.824  34.474  1.00  0.00    -0.354 N 
ATOM     59  N   UNL A   1      39.659  30.617  32.674  1.00  0.00    -0.248 NA
ATOM     60  C   UNL A   1      37.599  31.659  32.347  1.00  0.00     0.031 C 
ATOM     61  C   UNL A   1      41.877  30.650  36.535  1.00  0.00     0.029 A 
ATOM     62  C   UNL A   1      41.168  30.654  35.344  1.00  0.00     0.049 A 
ATOM     63  H   UNL A   1      41.587  29.636  33.544  1.00  0.00     0.167 HD
ATOM     64  C   UNL A   1      39.294  31.282  33.840  1.00  0.00     0.074 A 
ATOM     65  C   UNL A   1      38.036  31.941  33.566  1.00  0.00     0.031 C 
ATOM     66  C   UNL A   1      39.943  31.346  35.029  1.00  0.00     0.037 A 
BRANCH  53  67
ATOM     67  C   UNL A   1      44.985  27.798  35.339  1.00  0.00     0.064 A 
ATOM     68  C   UNL A   1      46.242  28.421  35.386  1.00  0.00     0.173 A 
ATOM     69  C   UNL A   1      44.792  26.640  36.105  1.00  0.00     0.173 A 
ATOM     70  F   UNL A   1      46.478  29.520  34.655  1.00  0.00    -0.203 F 
ATOM     71  C   UNL A   1      47.272  27.890  36.159  1.00  0.00     0.198 A 
ATOM     72  C   UNL A   1      45.819  26.125  36.892  1.00  0.00     0.198 A 
ATOM     73  F   UNL A   1      43.609  26.009  36.089  1.00  0.00    -0.203 F 
ATOM     74  F   UNL A   1      48.476  28.477  36.160  1.00  0.00    -0.200 F 
ATOM     75  C   UNL A   1      47.059  26.747  36.914  1.00  0.00     0.200 A 
ATOM     76  F   UNL A   1      45.610  25.022  37.625  1.00  0.00    -0.200 F 
ATOM     77  F   UNL A   1      48.051  26.238  37.657  1.00  0.00    -0.200 F 
ENDBRANCH  53  67
BRANCH  54  78
ATOM     78  C   UNL A   1      37.477  30.917  29.486  1.00  0.00     0.064 A 
ATOM     79  C   UNL A   1      36.452  30.042  29.095  1.00  0.00     0.173 A 
ATOM     80  C   UNL A   1      37.390  32.238  29.020  1.00  0.00     0.173 A 
ATOM     81  F   UNL A   1      36.524  28.744  29.404  1.00  0.00    -0.203 F 
ATOM     82  C   UNL A   1      35.379  30.467  28.314  1.00  0.00     0.198 A 
ATOM     83  C   UNL A   1      36.306  32.671  28.254  1.00  0.00     0.198 A 
ATOM     84  F   UNL A   1      38.356  33.121  29.314  1.00  0.00    -0.203 F 
ATOM     85  F   UNL A   1      34.439  29.589  27.941  1.00  0.00    -0.200 F 
ATOM     86  C   UNL A   1      35.299  31.786  27.904  1.00  0.00     0.200 A 
ATOM     87  F   UNL A   1      36.240  33.948  27.851  1.00  0.00    -0.200 F 
ATOM     88  F   UNL A   1      34.267  32.196  27.156  1.00  0.00    -0.200 F 
ENDBRANCH  54  78
BRANCH  66  89
ATOM     89  C   UNL A   1      39.348  32.212  36.103  1.00  0.00     0.064 A 
ATOM     90  C   UNL A   1      38.375  31.727  36.988  1.00  0.00     0.173 A 
ATOM     91  C   UNL A   1      39.806  33.527  36.284  1.00  0.00     0.173 A 
ATOM     92  F   UNL A   1      37.898  30.481  36.851  1.00  0.00    -0.203 F 
ATOM     93  C   UNL A   1      37.866  32.535  38.002  1.00  0.00     0.198 A 
ATOM     94  C   UNL A   1      39.318  34.320  37.318  1.00  0.00     0.198 A 
ATOM     95  F   UNL A   1      40.743  34.034  35.469  1.00  0.00    -0.203 F 
ATOM     96  F   UNL A   1      36.906  32.065  38.811  1.00  0.00    -0.200 F 
ATOM     97  C   UNL A   1      38.343  33.827  38.172  1.00  0.00     0.200 A 
ATOM     98  F   UNL A   1      39.793  35.561  37.490  1.00  0.00    -0.200 F 
ATOM     99  F   UNL A   1      37.861  34.597  39.156  1.00  0.00    -0.200 F 
ENDBRANCH  66  89
ENDBRANCH  40  41
ENDBRANCH  33  35
ENDBRANCH  32  33
ENDBRANCH  31  32
ENDBRANCH  30  31
ENDBRANCH  29  30
ENDBRANCH  28  29
ENDBRANCH   1  28
TORSDOF 21
ENDMDL
