MODEL 1
REMARK VINA RESULT:     -11.6      0.000      0.000
REMARK SMILES O=C(OCCOCCOCCOC(=O)c1ccc(-c2c3nc(c(-c4c(F)c(F)c(F)c(F)c4F)c4ccc([nH]4)c(-c4c(F)c(F)c(F)c(F)c4F)c4nc(c(-c5c(F)c(F)c(F)c(F)c5F)c5ccc2[nH]5)C=C4)C=C3)cc1)C1=Cc2c(cc(Cl)c(Cl)c2Cl)O[C@H]1C(F)(F)F
REMARK SMILES IDX 8 1 7 2 6 3 5 4 4 5 3 6 2 7 1 8 78 9 79 10 90 11 80 12 89 13
REMARK SMILES IDX 81 14 87 15 82 16 85 17 88 18 83 19 86 20 84 21 91 22 92 23
REMARK SMILES IDX 93 24 94 25 9 26 10 27 11 28 12 29 13 30 14 31 15 32 16 33
REMARK SMILES IDX 77 34 17 35 76 36 18 37 19 38 20 39 70 40 21 41 75 42 69 43
REMARK SMILES IDX 71 44 22 45 74 46 68 47 67 48 23 50 55 51 35 52 54 53 36 54
REMARK SMILES IDX 39 55 53 56 72 57 37 58 38 59 52 61 73 62 40 63 24 64 25 65
REMARK SMILES IDX 33 66 26 67 27 68 31 69 34 70 28 71 29 72 32 73 30 74 56 75
REMARK SMILES IDX 57 76 65 77 58 78 59 79 63 80 66 81 60 82 61 83 64 84 62 85
REMARK SMILES IDX 41 86 42 87 50 88 43 89 44 90 48 91 51 92 45 93 46 94 49 95
REMARK SMILES IDX 47 96
REMARK H PARENT 71 49 39 60
REMARK Flexibility Score: inf
ROOT
ATOM      1  C   UNL A   1      41.767  21.027  26.313  1.00  0.00     0.188 C 
ENDROOT
BRANCH   1   2
ATOM      2  C   UNL A   1      41.012  21.403  27.595  1.00  0.00     0.188 C 
BRANCH   2   3
ATOM      3  O   UNL A   1      39.924  22.282  27.345  1.00  0.00    -0.376 OA
BRANCH   3   4
ATOM      4  C   UNL A   1      39.208  21.896  26.176  1.00  0.00     0.202 C 
BRANCH   4   5
ATOM      5  C   UNL A   1      38.244  22.978  25.701  1.00  0.00     0.261 C 
BRANCH   5   6
ATOM      6  O   UNL A   1      37.293  22.488  24.726  1.00  0.00    -0.460 OA
BRANCH   6   7
ATOM      7  C   UNL A   1      36.434  23.155  23.925  1.00  0.00     0.338 C 
ATOM      8  O   UNL A   1      36.603  23.115  22.710  1.00  0.00    -0.246 OA
BRANCH   7   9
ATOM      9  C   UNL A   1      35.205  23.786  24.451  1.00  0.00     0.087 C 
ATOM     10  C   UNL A   1      34.558  24.797  23.867  1.00  0.00     0.029 C 
ATOM     11  C   UNL A   1      34.540  23.075  25.617  1.00  0.00     0.316 C 
ATOM     12  C   UNL A   1      33.690  25.641  24.674  1.00  0.00     0.038 A 
ATOM     13  O   UNL A   1      33.498  23.845  26.296  1.00  0.00    -0.475 OA
ATOM     14  C   UNL A   1      33.201  25.104  25.860  1.00  0.00     0.131 A 
ATOM     15  C   UNL A   1      33.448  27.004  24.372  1.00  0.00     0.072 A 
ATOM     16  C   UNL A   1      32.399  25.878  26.698  1.00  0.00     0.069 A 
ATOM     17  C   UNL A   1      32.683  27.799  25.240  1.00  0.00     0.079 A 
ATOM     18  Cl  UNL A   1      34.184  27.741  22.976  1.00  0.00    -0.082 Cl
ATOM     19  C   UNL A   1      32.143  27.219  26.393  1.00  0.00     0.064 A 
ATOM     20  Cl  UNL A   1      32.444  29.491  24.913  1.00  0.00    -0.081 Cl
ATOM     21  Cl  UNL A   1      31.183  28.119  27.514  1.00  0.00    -0.083 Cl
BRANCH  11  22
ATOM     22  C   UNL A   1      33.913  21.737  25.122  1.00  0.00     0.430 C 
ATOM     23  F   UNL A   1      33.703  21.744  23.781  1.00  0.00    -0.167 F 
ATOM     24  F   UNL A   1      34.674  20.658  25.409  1.00  0.00    -0.167 F 
ATOM     25  F   UNL A   1      32.706  21.511  25.698  1.00  0.00    -0.167 F 
ENDBRANCH  11  22
ENDBRANCH   7   9
ENDBRANCH   6   7
ENDBRANCH   5   6
ENDBRANCH   4   5
ENDBRANCH   3   4
ENDBRANCH   2   3
ENDBRANCH   1   2
BRANCH   1  26
ATOM     26  O   UNL A   1      43.189  21.070  26.340  1.00  0.00    -0.376 OA
BRANCH  26  27
ATOM     27  C   UNL A   1      43.928  21.045  25.118  1.00  0.00     0.202 C 
BRANCH  27  28
ATOM     28  C   UNL A   1      44.349  22.342  24.418  1.00  0.00     0.261 C 
BRANCH  28  29
ATOM     29  O   UNL A   1      43.465  23.447  24.649  1.00  0.00    -0.460 OA
BRANCH  29  30
ATOM     30  C   UNL A   1      44.089  24.604  24.954  1.00  0.00     0.338 C 
ATOM     31  O   UNL A   1      45.222  24.951  24.644  1.00  0.00    -0.246 OA
BRANCH  30  32
ATOM     32  C   UNL A   1      43.211  25.480  25.730  1.00  0.00     0.060 A 
ATOM     33  C   UNL A   1      43.365  26.868  25.651  1.00  0.00     0.016 A 
ATOM     34  C   UNL A   1      42.398  24.899  26.704  1.00  0.00     0.016 A 
ATOM     35  C   UNL A   1      42.742  27.684  26.590  1.00  0.00     0.010 A 
ATOM     36  C   UNL A   1      41.772  25.716  27.642  1.00  0.00     0.010 A 
ATOM     37  C   UNL A   1      41.985  27.104  27.614  1.00  0.00    -0.014 A 
BRANCH  37  38
ATOM     38  C   UNL A   1      41.578  27.924  28.772  1.00  0.00     0.031 A 
ATOM     39  C   UNL A   1      42.385  27.829  30.035  1.00  0.00     0.074 A 
ATOM     40  C   UNL A   1      40.515  28.738  28.685  1.00  0.00     0.049 A 
ATOM     41  N   UNL A   1      42.177  28.386  31.199  1.00  0.00    -0.248 NA
ATOM     42  C   UNL A   1      43.594  26.989  29.977  1.00  0.00     0.031 C 
ATOM     43  C   UNL A   1      39.705  28.937  27.486  1.00  0.00     0.029 A 
ATOM     44  N   UNL A   1      39.930  29.535  29.632  1.00  0.00    -0.354 N 
ATOM     45  C   UNL A   1      43.218  27.959  32.011  1.00  0.00     0.074 A 
ATOM     46  C   UNL A   1      44.048  27.080  31.218  1.00  0.00     0.031 C 
ATOM     47  C   UNL A   1      38.707  29.791  27.775  1.00  0.00     0.029 A 
ATOM     48  C   UNL A   1      38.794  30.163  29.186  1.00  0.00     0.049 A 
ATOM     49  H   UNL A   1      40.288  29.647  30.542  1.00  0.00     0.167 HD
ATOM     50  C   UNL A   1      43.459  28.280  33.304  1.00  0.00     0.037 A 
ATOM     51  C   UNL A   1      37.914  30.926  29.859  1.00  0.00     0.037 A 
ATOM     52  C   UNL A   1      42.616  29.149  34.082  1.00  0.00     0.049 A 
ATOM     53  C   UNL A   1      38.161  31.204  31.320  1.00  0.00     0.074 A 
ATOM     54  C   UNL A   1      42.761  29.543  35.399  1.00  0.00     0.029 A 
ATOM     55  N   UNL A   1      41.459  29.750  33.606  1.00  0.00    -0.354 N 
ATOM     56  N   UNL A   1      39.153  30.810  32.083  1.00  0.00    -0.248 NA
ATOM     57  C   UNL A   1      37.167  32.035  32.011  1.00  0.00     0.031 C 
ATOM     58  C   UNL A   1      41.663  30.343  35.736  1.00  0.00     0.029 A 
ATOM     59  C   UNL A   1      40.866  30.495  34.612  1.00  0.00     0.049 A 
ATOM     60  H   UNL A   1      41.111  29.662  32.690  1.00  0.00     0.167 HD
ATOM     61  C   UNL A   1      38.921  31.369  33.333  1.00  0.00     0.074 A 
ATOM     62  C   UNL A   1      37.698  32.138  33.222  1.00  0.00     0.031 C 
ATOM     63  C   UNL A   1      39.653  31.261  34.470  1.00  0.00     0.037 A 
BRANCH  50  64
ATOM     64  C   UNL A   1      44.655  27.657  33.963  1.00  0.00     0.064 A 
ATOM     65  C   UNL A   1      45.903  28.300  33.990  1.00  0.00     0.173 A 
ATOM     66  C   UNL A   1      44.548  26.408  34.593  1.00  0.00     0.173 A 
ATOM     67  F   UNL A   1      46.063  29.489  33.389  1.00  0.00    -0.203 F 
ATOM     68  C   UNL A   1      47.002  27.704  34.602  1.00  0.00     0.198 A 
ATOM     69  C   UNL A   1      45.643  25.829  35.229  1.00  0.00     0.198 A 
ATOM     70  F   UNL A   1      43.380  25.751  34.597  1.00  0.00    -0.203 F 
ATOM     71  F   UNL A   1      48.196  28.315  34.575  1.00  0.00    -0.200 F 
ATOM     72  C   UNL A   1      46.871  26.473  35.226  1.00  0.00     0.200 A 
ATOM     73  F   UNL A   1      45.511  24.643  35.840  1.00  0.00    -0.200 F 
ATOM     74  F   UNL A   1      47.929  25.903  35.820  1.00  0.00    -0.200 F 
ENDBRANCH  50  64
BRANCH  51  75
ATOM     75  C   UNL A   1      36.717  31.464  29.164  1.00  0.00     0.064 A 
ATOM     76  C   UNL A   1      36.627  32.821  28.824  1.00  0.00     0.173 A 
ATOM     77  C   UNL A   1      35.635  30.635  28.832  1.00  0.00     0.173 A 
ATOM     78  F   UNL A   1      37.626  33.658  29.143  1.00  0.00    -0.203 F 
ATOM     79  C   UNL A   1      35.494  33.331  28.194  1.00  0.00     0.198 A 
ATOM     80  C   UNL A   1      34.515  31.141  28.176  1.00  0.00     0.198 A 
ATOM     81  F   UNL A   1      35.668  29.331  29.139  1.00  0.00    -0.203 F 
ATOM     82  F   UNL A   1      35.414  34.641  27.923  1.00  0.00    -0.200 F 
ATOM     83  C   UNL A   1      34.442  32.490  27.865  1.00  0.00     0.200 A 
ATOM     84  F   UNL A   1      33.504  30.323  27.852  1.00  0.00    -0.200 F 
ATOM     85  F   UNL A   1      33.352  32.982  27.259  1.00  0.00    -0.200 F 
ENDBRANCH  51  75
BRANCH  63  86
ATOM     86  C   UNL A   1      39.175  32.025  35.670  1.00  0.00     0.064 A 
ATOM     87  C   UNL A   1      39.499  33.375  35.862  1.00  0.00     0.173 A 
ATOM     88  C   UNL A   1      38.341  31.405  36.614  1.00  0.00     0.173 A 
ATOM     89  F   UNL A   1      40.304  34.007  34.995  1.00  0.00    -0.203 F 
ATOM     90  C   UNL A   1      39.023  34.072  36.969  1.00  0.00     0.198 A 
ATOM     91  C   UNL A   1      37.842  32.114  37.701  1.00  0.00     0.198 A 
ATOM     92  F   UNL A   1      37.995  30.118  36.469  1.00  0.00    -0.203 F 
ATOM     93  F   UNL A   1      39.382  35.349  37.158  1.00  0.00    -0.200 F 
ATOM     94  C   UNL A   1      38.189  33.444  37.883  1.00  0.00     0.200 A 
ATOM     95  F   UNL A   1      37.023  31.511  38.574  1.00  0.00    -0.200 F 
ATOM     96  F   UNL A   1      37.725  34.120  38.943  1.00  0.00    -0.200 F 
ENDBRANCH  63  86
ENDBRANCH  37  38
ENDBRANCH  30  32
ENDBRANCH  29  30
ENDBRANCH  28  29
ENDBRANCH  27  28
ENDBRANCH  26  27
ENDBRANCH   1  26
TORSDOF 18
ENDMDL
MODEL 2
REMARK VINA RESULT:     -11.4      1.139      2.087
REMARK SMILES O=C(OCCOCCOCCOC(=O)c1ccc(-c2c3nc(c(-c4c(F)c(F)c(F)c(F)c4F)c4ccc([nH]4)c(-c4c(F)c(F)c(F)c(F)c4F)c4nc(c(-c5c(F)c(F)c(F)c(F)c5F)c5ccc2[nH]5)C=C4)C=C3)cc1)C1=Cc2c(cc(Cl)c(Cl)c2Cl)O[C@H]1C(F)(F)F
REMARK SMILES IDX 8 1 7 2 6 3 5 4 4 5 3 6 2 7 1 8 78 9 79 10 90 11 80 12 89 13
REMARK SMILES IDX 81 14 87 15 82 16 85 17 88 18 83 19 86 20 84 21 91 22 92 23
REMARK SMILES IDX 93 24 94 25 9 26 10 27 11 28 12 29 13 30 14 31 15 32 16 33
REMARK SMILES IDX 77 34 17 35 76 36 18 37 19 38 20 39 70 40 21 41 75 42 69 43
REMARK SMILES IDX 71 44 22 45 74 46 68 47 67 48 23 50 55 51 35 52 54 53 36 54
REMARK SMILES IDX 39 55 53 56 72 57 37 58 38 59 52 61 73 62 40 63 24 64 25 65
REMARK SMILES IDX 33 66 26 67 27 68 31 69 34 70 28 71 29 72 32 73 30 74 56 75
REMARK SMILES IDX 57 76 65 77 58 78 59 79 63 80 66 81 60 82 61 83 64 84 62 85
REMARK SMILES IDX 41 86 42 87 50 88 43 89 44 90 48 91 51 92 45 93 46 94 49 95
REMARK SMILES IDX 47 96
REMARK H PARENT 71 49 39 60
REMARK Flexibility Score: inf
ROOT
ATOM      1  C   UNL A   1      40.763  20.989  27.311  1.00  0.00     0.188 C 
ENDROOT
BRANCH   1   2
ATOM      2  C   UNL A   1      39.848  21.823  26.403  1.00  0.00     0.188 C 
BRANCH   2   3
ATOM      3  O   UNL A   1      38.875  21.030  25.739  1.00  0.00    -0.376 OA
BRANCH   3   4
ATOM      4  C   UNL A   1      37.826  21.837  25.212  1.00  0.00     0.202 C 
BRANCH   4   5
ATOM      5  C   UNL A   1      37.500  23.026  26.110  1.00  0.00     0.261 C 
BRANCH   5   6
ATOM      6  O   UNL A   1      36.307  23.730  25.691  1.00  0.00    -0.460 OA
BRANCH   6   7
ATOM      7  C   UNL A   1      35.012  23.534  26.018  1.00  0.00     0.338 C 
ATOM      8  O   UNL A   1      34.744  23.009  27.094  1.00  0.00    -0.246 OA
BRANCH   7   9
ATOM      9  C   UNL A   1      33.909  24.085  25.202  1.00  0.00     0.087 C 
ATOM     10  C   UNL A   1      33.882  25.318  24.690  1.00  0.00     0.029 C 
ATOM     11  C   UNL A   1      32.851  23.090  24.755  1.00  0.00     0.316 C 
ATOM     12  C   UNL A   1      32.600  25.913  24.346  1.00  0.00     0.038 A 
ATOM     13  O   UNL A   1      31.640  23.689  24.193  1.00  0.00    -0.475 OA
ATOM     14  C   UNL A   1      31.537  25.047  24.110  1.00  0.00     0.131 A 
ATOM     15  C   UNL A   1      32.368  27.310  24.379  1.00  0.00     0.072 A 
ATOM     16  C   UNL A   1      30.274  25.558  23.817  1.00  0.00     0.069 A 
ATOM     17  C   UNL A   1      31.085  27.824  24.134  1.00  0.00     0.079 A 
ATOM     18  Cl  UNL A   1      33.646  28.404  24.831  1.00  0.00    -0.082 Cl
ATOM     19  C   UNL A   1      30.046  26.938  23.832  1.00  0.00     0.064 A 
ATOM     20  Cl  UNL A   1      30.777  29.533  24.248  1.00  0.00    -0.081 Cl
ATOM     21  Cl  UNL A   1      28.437  27.480  23.509  1.00  0.00    -0.083 Cl
BRANCH  11  22
ATOM     22  C   UNL A   1      33.459  22.128  23.691  1.00  0.00     0.430 C 
ATOM     23  F   UNL A   1      34.047  21.048  24.266  1.00  0.00    -0.167 F 
ATOM     24  F   UNL A   1      32.545  21.672  22.807  1.00  0.00    -0.167 F 
ATOM     25  F   UNL A   1      34.421  22.741  22.957  1.00  0.00    -0.167 F 
ENDBRANCH  11  22
ENDBRANCH   7   9
ENDBRANCH   6   7
ENDBRANCH   5   6
ENDBRANCH   4   5
ENDBRANCH   3   4
ENDBRANCH   2   3
ENDBRANCH   1   2
BRANCH   1  26
ATOM     26  O   UNL A   1      42.013  20.561  26.784  1.00  0.00    -0.376 OA
BRANCH  26  27
ATOM     27  C   UNL A   1      42.645  21.310  25.745  1.00  0.00     0.202 C 
BRANCH  27  28
ATOM     28  C   UNL A   1      44.098  21.779  25.875  1.00  0.00     0.261 C 
BRANCH  28  29
ATOM     29  O   UNL A   1      44.245  23.075  26.473  1.00  0.00    -0.460 OA
BRANCH  29  30
ATOM     30  C   UNL A   1      43.946  24.104  25.651  1.00  0.00     0.338 C 
ATOM     31  O   UNL A   1      44.266  24.245  24.477  1.00  0.00    -0.246 OA
BRANCH  30  32
ATOM     32  C   UNL A   1      43.124  25.098  26.341  1.00  0.00     0.060 A 
ATOM     33  C   UNL A   1      43.503  26.444  26.328  1.00  0.00     0.016 A 
ATOM     34  C   UNL A   1      42.113  24.642  27.189  1.00  0.00     0.016 A 
ATOM     35  C   UNL A   1      42.901  27.337  27.208  1.00  0.00     0.010 A 
ATOM     36  C   UNL A   1      41.509  25.537  28.068  1.00  0.00     0.010 A 
ATOM     37  C   UNL A   1      41.939  26.873  28.111  1.00  0.00    -0.014 A 
BRANCH  37  38
ATOM     38  C   UNL A   1      41.522  27.733  29.237  1.00  0.00     0.031 A 
ATOM     39  C   UNL A   1      42.282  27.641  30.528  1.00  0.00     0.074 A 
ATOM     40  C   UNL A   1      40.490  28.579  29.095  1.00  0.00     0.049 A 
ATOM     41  N   UNL A   1      42.054  28.231  31.672  1.00  0.00    -0.248 NA
ATOM     42  C   UNL A   1      43.463  26.760  30.530  1.00  0.00     0.031 C 
ATOM     43  C   UNL A   1      39.727  28.778  27.865  1.00  0.00     0.029 A 
ATOM     44  N   UNL A   1      39.901  29.417  30.004  1.00  0.00    -0.354 N 
ATOM     45  C   UNL A   1      43.053  27.789  32.529  1.00  0.00     0.074 A 
ATOM     46  C   UNL A   1      43.878  26.865  31.784  1.00  0.00     0.031 C 
ATOM     47  C   UNL A   1      38.751  29.670  28.101  1.00  0.00     0.029 A 
ATOM     48  C   UNL A   1      38.803  30.072  29.505  1.00  0.00     0.049 A 
ATOM     49  H   UNL A   1      40.232  29.538  30.923  1.00  0.00     0.167 HD
ATOM     50  C   UNL A   1      43.261  28.131  33.821  1.00  0.00     0.037 A 
ATOM     51  C   UNL A   1      37.927  30.879  30.132  1.00  0.00     0.037 A 
ATOM     52  C   UNL A   1      42.422  29.045  34.551  1.00  0.00     0.049 A 
ATOM     53  C   UNL A   1      38.134  31.182  31.593  1.00  0.00     0.074 A 
ATOM     54  C   UNL A   1      42.536  29.465  35.863  1.00  0.00     0.029 A 
ATOM     55  N   UNL A   1      41.303  29.674  34.022  1.00  0.00    -0.354 N 
ATOM     56  N   UNL A   1      39.086  30.774  32.399  1.00  0.00    -0.248 NA
ATOM     57  C   UNL A   1      37.146  32.061  32.232  1.00  0.00     0.031 C 
ATOM     58  C   UNL A   1      41.456  30.309  36.145  1.00  0.00     0.029 A 
ATOM     59  C   UNL A   1      40.702  30.460  34.991  1.00  0.00     0.049 A 
ATOM     60  H   UNL A   1      40.983  29.575  33.097  1.00  0.00     0.167 HD
ATOM     61  C   UNL A   1      38.831  31.369  33.627  1.00  0.00     0.074 A 
ATOM     62  C   UNL A   1      37.639  32.175  33.457  1.00  0.00     0.031 C 
ATOM     63  C   UNL A   1      39.521  31.263  34.790  1.00  0.00     0.037 A 
BRANCH  50  64
ATOM     64  C   UNL A   1      44.413  27.485  34.534  1.00  0.00     0.064 A 
ATOM     65  C   UNL A   1      44.271  26.267  35.216  1.00  0.00     0.173 A 
ATOM     66  C   UNL A   1      45.682  28.083  34.518  1.00  0.00     0.173 A 
ATOM     67  F   UNL A   1      43.076  25.661  35.275  1.00  0.00    -0.203 F 
ATOM     68  C   UNL A   1      45.351  25.685  35.876  1.00  0.00     0.198 A 
ATOM     69  C   UNL A   1      46.766  27.484  35.155  1.00  0.00     0.198 A 
ATOM     70  F   UNL A   1      45.873  29.247  33.881  1.00  0.00    -0.203 F 
ATOM     71  F   UNL A   1      45.181  24.545  36.560  1.00  0.00    -0.200 F 
ATOM     72  C   UNL A   1      46.598  26.290  35.839  1.00  0.00     0.200 A 
ATOM     73  F   UNL A   1      47.973  28.066  35.110  1.00  0.00    -0.200 F 
ATOM     74  F   UNL A   1      47.638  25.727  36.470  1.00  0.00    -0.200 F 
ENDBRANCH  50  64
BRANCH  51  75
ATOM     75  C   UNL A   1      36.773  31.440  29.384  1.00  0.00     0.064 A 
ATOM     76  C   UNL A   1      36.725  32.798  29.040  1.00  0.00     0.173 A 
ATOM     77  C   UNL A   1      35.690  30.632  29.005  1.00  0.00     0.173 A 
ATOM     78  F   UNL A   1      37.725  33.616  29.403  1.00  0.00    -0.203 F 
ATOM     79  C   UNL A   1      35.631  33.330  28.361  1.00  0.00     0.198 A 
ATOM     80  C   UNL A   1      34.610  31.160  28.300  1.00  0.00     0.198 A 
ATOM     81  F   UNL A   1      35.683  29.328  29.313  1.00  0.00    -0.203 F 
ATOM     82  F   UNL A   1      35.589  34.641  28.087  1.00  0.00    -0.200 F 
ATOM     83  C   UNL A   1      34.578  32.510  27.986  1.00  0.00     0.200 A 
ATOM     84  F   UNL A   1      33.599  30.362  27.932  1.00  0.00    -0.200 F 
ATOM     85  F   UNL A   1      33.526  33.023  27.333  1.00  0.00    -0.200 F 
ENDBRANCH  51  75
BRANCH  63  86
ATOM     86  C   UNL A   1      39.030  32.070  35.956  1.00  0.00     0.064 A 
ATOM     87  C   UNL A   1      38.192  31.517  36.936  1.00  0.00     0.173 A 
ATOM     88  C   UNL A   1      39.445  33.401  36.117  1.00  0.00     0.173 A 
ATOM     89  F   UNL A   1      37.758  30.254  36.819  1.00  0.00    -0.203 F 
ATOM     90  C   UNL A   1      37.769  32.277  38.023  1.00  0.00     0.198 A 
ATOM     91  C   UNL A   1      39.045  34.146  37.222  1.00  0.00     0.198 A 
ATOM     92  F   UNL A   1      40.254  33.972  35.212  1.00  0.00    -0.203 F 
ATOM     93  F   UNL A   1      36.932  31.744  38.924  1.00  0.00    -0.200 F 
ATOM     94  C   UNL A   1      38.202  33.587  38.169  1.00  0.00     0.200 A 
ATOM     95  F   UNL A   1      39.478  35.406  37.370  1.00  0.00    -0.200 F 
ATOM     96  F   UNL A   1      37.801  34.313  39.222  1.00  0.00    -0.200 F 
ENDBRANCH  63  86
ENDBRANCH  37  38
ENDBRANCH  30  32
ENDBRANCH  29  30
ENDBRANCH  28  29
ENDBRANCH  27  28
ENDBRANCH  26  27
ENDBRANCH   1  26
TORSDOF 18
ENDMDL
MODEL 3
REMARK VINA RESULT:     -11.3      4.997     10.430
REMARK SMILES O=C(OCCOCCOCCOC(=O)c1ccc(-c2c3nc(c(-c4c(F)c(F)c(F)c(F)c4F)c4ccc([nH]4)c(-c4c(F)c(F)c(F)c(F)c4F)c4nc(c(-c5c(F)c(F)c(F)c(F)c5F)c5ccc2[nH]5)C=C4)C=C3)cc1)C1=Cc2c(cc(Cl)c(Cl)c2Cl)O[C@H]1C(F)(F)F
REMARK SMILES IDX 8 1 7 2 6 3 5 4 4 5 3 6 2 7 1 8 78 9 79 10 90 11 80 12 89 13
REMARK SMILES IDX 81 14 87 15 82 16 85 17 88 18 83 19 86 20 84 21 91 22 92 23
REMARK SMILES IDX 93 24 94 25 9 26 10 27 11 28 12 29 13 30 14 31 15 32 16 33
REMARK SMILES IDX 77 34 17 35 76 36 18 37 19 38 20 39 70 40 21 41 75 42 69 43
REMARK SMILES IDX 71 44 22 45 74 46 68 47 67 48 23 50 55 51 35 52 54 53 36 54
REMARK SMILES IDX 39 55 53 56 72 57 37 58 38 59 52 61 73 62 40 63 24 64 25 65
REMARK SMILES IDX 33 66 26 67 27 68 31 69 34 70 28 71 29 72 32 73 30 74 56 75
REMARK SMILES IDX 57 76 65 77 58 78 59 79 63 80 66 81 60 82 61 83 64 84 62 85
REMARK SMILES IDX 41 86 42 87 50 88 43 89 44 90 48 91 51 92 45 93 46 94 49 95
REMARK SMILES IDX 47 96
REMARK H PARENT 71 49 39 60
REMARK Flexibility Score: inf
ROOT
ATOM      1  C   UNL A   1      33.329  34.572  28.405  1.00  0.00     0.188 C 
ENDROOT
BRANCH   1   2
ATOM      2  C   UNL A   1      33.764  33.107  28.261  1.00  0.00     0.188 C 
BRANCH   2   3
ATOM      3  O   UNL A   1      32.881  32.359  27.436  1.00  0.00    -0.376 OA
BRANCH   3   4
ATOM      4  C   UNL A   1      33.345  31.022  27.268  1.00  0.00     0.202 C 
BRANCH   4   5
ATOM      5  C   UNL A   1      32.222  30.061  26.888  1.00  0.00     0.261 C 
BRANCH   5   6
ATOM      6  O   UNL A   1      32.431  28.728  27.410  1.00  0.00    -0.460 OA
BRANCH   6   7
ATOM      7  C   UNL A   1      31.815  27.563  27.112  1.00  0.00     0.338 C 
ATOM      8  O   UNL A   1      30.698  27.348  27.571  1.00  0.00    -0.246 OA
BRANCH   7   9
ATOM      9  C   UNL A   1      32.368  26.619  26.118  1.00  0.00     0.087 C 
ATOM     10  C   UNL A   1      32.457  25.298  26.288  1.00  0.00     0.029 C 
ATOM     11  C   UNL A   1      32.645  27.194  24.739  1.00  0.00     0.316 C 
ATOM     12  C   UNL A   1      33.427  24.548  25.505  1.00  0.00     0.038 A 
ATOM     13  O   UNL A   1      33.439  26.333  23.860  1.00  0.00    -0.475 OA
ATOM     14  C   UNL A   1      33.865  25.119  24.314  1.00  0.00     0.131 A 
ATOM     15  C   UNL A   1      34.031  23.354  25.970  1.00  0.00     0.072 A 
ATOM     16  C   UNL A   1      34.825  24.469  23.541  1.00  0.00     0.069 A 
ATOM     17  C   UNL A   1      35.034  22.724  25.216  1.00  0.00     0.079 A 
ATOM     18  Cl  UNL A   1      33.615  22.707  27.533  1.00  0.00    -0.082 Cl
ATOM     19  C   UNL A   1      35.410  23.280  23.989  1.00  0.00     0.064 A 
ATOM     20  Cl  UNL A   1      35.831  21.299  25.817  1.00  0.00    -0.081 Cl
ATOM     21  Cl  UNL A   1      36.629  22.569  22.990  1.00  0.00    -0.083 Cl
BRANCH  11  22
ATOM     22  C   UNL A   1      31.296  27.508  24.025  1.00  0.00     0.430 C 
ATOM     23  F   UNL A   1      30.287  26.727  24.488  1.00  0.00    -0.167 F 
ATOM     24  F   UNL A   1      30.911  28.795  24.165  1.00  0.00    -0.167 F 
ATOM     25  F   UNL A   1      31.375  27.281  22.690  1.00  0.00    -0.167 F 
ENDBRANCH  11  22
ENDBRANCH   7   9
ENDBRANCH   6   7
ENDBRANCH   5   6
ENDBRANCH   4   5
ENDBRANCH   3   4
ENDBRANCH   2   3
ENDBRANCH   1   2
BRANCH   1  26
ATOM     26  O   UNL A   1      33.939  35.350  29.428  1.00  0.00    -0.376 OA
BRANCH  26  27
ATOM     27  C   UNL A   1      33.678  35.057  30.801  1.00  0.00     0.202 C 
BRANCH  27  28
ATOM     28  C   UNL A   1      34.732  34.377  31.682  1.00  0.00     0.261 C 
BRANCH  28  29
ATOM     29  O   UNL A   1      34.788  32.951  31.537  1.00  0.00    -0.460 OA
BRANCH  29  30
ATOM     30  C   UNL A   1      35.547  32.327  32.462  1.00  0.00     0.338 C 
ATOM     31  O   UNL A   1      35.508  32.458  33.680  1.00  0.00    -0.246 OA
BRANCH  30  32
ATOM     32  C   UNL A   1      36.478  31.393  31.827  1.00  0.00     0.060 A 
ATOM     33  C   UNL A   1      37.369  30.656  32.613  1.00  0.00     0.016 A 
ATOM     34  C   UNL A   1      36.609  31.438  30.439  1.00  0.00     0.016 A 
ATOM     35  C   UNL A   1      38.435  29.997  32.011  1.00  0.00     0.010 A 
ATOM     36  C   UNL A   1      37.675  30.776  29.835  1.00  0.00     0.010 A 
ATOM     37  C   UNL A   1      38.615  30.098  30.627  1.00  0.00    -0.014 A 
BRANCH  37  38
ATOM     38  C   UNL A   1      39.892  29.665  30.025  1.00  0.00     0.031 A 
ATOM     39  C   UNL A   1      41.007  30.665  29.914  1.00  0.00     0.074 A 
ATOM     40  C   UNL A   1      40.044  28.402  29.598  1.00  0.00     0.049 A 
ATOM     41  N   UNL A   1      42.182  30.543  29.354  1.00  0.00    -0.248 NA
ATOM     42  C   UNL A   1      40.762  31.986  30.517  1.00  0.00     0.031 C 
ATOM     43  C   UNL A   1      39.040  27.348  29.713  1.00  0.00     0.029 A 
ATOM     44  N   UNL A   1      41.102  27.802  28.967  1.00  0.00    -0.354 N 
ATOM     45  C   UNL A   1      42.811  31.767  29.529  1.00  0.00     0.074 A 
ATOM     46  C   UNL A   1      41.883  32.629  30.227  1.00  0.00     0.031 C 
ATOM     47  C   UNL A   1      39.523  26.227  29.150  1.00  0.00     0.029 A 
ATOM     48  C   UNL A   1      40.851  26.502  28.605  1.00  0.00     0.049 A 
ATOM     49  H   UNL A   1      41.957  28.257  28.791  1.00  0.00     0.167 HD
ATOM     50  C   UNL A   1      44.054  32.134  29.142  1.00  0.00     0.037 A 
ATOM     51  C   UNL A   1      41.605  25.650  27.887  1.00  0.00     0.037 A 
ATOM     52  C   UNL A   1      44.961  31.266  28.437  1.00  0.00     0.049 A 
ATOM     53  C   UNL A   1      42.955  26.108  27.398  1.00  0.00     0.074 A 
ATOM     54  C   UNL A   1      46.244  31.529  27.995  1.00  0.00     0.029 A 
ATOM     55  N   UNL A   1      44.666  29.961  28.065  1.00  0.00    -0.354 N 
ATOM     56  N   UNL A   1      43.554  27.262  27.575  1.00  0.00    -0.248 NA
ATOM     57  C   UNL A   1      43.735  25.144  26.612  1.00  0.00     0.031 C 
ATOM     58  C   UNL A   1      46.707  30.401  27.310  1.00  0.00     0.029 A 
ATOM     59  C   UNL A   1      45.735  29.414  27.376  1.00  0.00     0.049 A 
ATOM     60  H   UNL A   1      43.822  29.494  28.261  1.00  0.00     0.167 HD
ATOM     61  C   UNL A   1      44.790  27.153  26.953  1.00  0.00     0.074 A 
ATOM     62  C   UNL A   1      44.858  25.815  26.401  1.00  0.00     0.031 C 
ATOM     63  C   UNL A   1      45.781  28.074  26.848  1.00  0.00     0.037 A 
BRANCH  50  64
ATOM     64  C   UNL A   1      44.487  33.540  29.438  1.00  0.00     0.064 A 
ATOM     65  C   UNL A   1      44.319  34.577  28.507  1.00  0.00     0.173 A 
ATOM     66  C   UNL A   1      45.061  33.860  30.678  1.00  0.00     0.173 A 
ATOM     67  F   UNL A   1      43.791  34.323  27.301  1.00  0.00    -0.203 F 
ATOM     68  C   UNL A   1      44.733  35.875  28.799  1.00  0.00     0.198 A 
ATOM     69  C   UNL A   1      45.446  35.164  30.976  1.00  0.00     0.198 A 
ATOM     70  F   UNL A   1      45.244  32.907  31.604  1.00  0.00    -0.203 F 
ATOM     71  F   UNL A   1      44.605  36.840  27.876  1.00  0.00    -0.200 F 
ATOM     72  C   UNL A   1      45.289  36.169  30.033  1.00  0.00     0.200 A 
ATOM     73  F   UNL A   1      45.975  35.448  32.175  1.00  0.00    -0.200 F 
ATOM     74  F   UNL A   1      45.681  37.419  30.315  1.00  0.00    -0.200 F 
ENDBRANCH  50  64
BRANCH  51  75
ATOM     75  C   UNL A   1      41.094  24.291  27.578  1.00  0.00     0.064 A 
ATOM     76  C   UNL A   1      41.627  23.157  28.206  1.00  0.00     0.173 A 
ATOM     77  C   UNL A   1      40.068  24.095  26.641  1.00  0.00     0.173 A 
ATOM     78  F   UNL A   1      42.627  23.291  29.091  1.00  0.00    -0.203 F 
ATOM     79  C   UNL A   1      41.165  21.879  27.898  1.00  0.00     0.198 A 
ATOM     80  C   UNL A   1      39.587  22.819  26.355  1.00  0.00     0.198 A 
ATOM     81  F   UNL A   1      39.526  25.145  26.008  1.00  0.00    -0.203 F 
ATOM     82  F   UNL A   1      41.725  20.809  28.478  1.00  0.00    -0.200 F 
ATOM     83  C   UNL A   1      40.141  21.712  26.978  1.00  0.00     0.200 A 
ATOM     84  F   UNL A   1      38.591  22.663  25.472  1.00  0.00    -0.200 F 
ATOM     85  F   UNL A   1      39.698  20.482  26.681  1.00  0.00    -0.200 F 
ENDBRANCH  51  75
BRANCH  63  86
ATOM     86  C   UNL A   1      47.039  27.650  26.149  1.00  0.00     0.064 A 
ATOM     87  C   UNL A   1      48.128  27.112  26.850  1.00  0.00     0.173 A 
ATOM     88  C   UNL A   1      47.135  27.742  24.751  1.00  0.00     0.173 A 
ATOM     89  F   UNL A   1      48.090  27.016  28.187  1.00  0.00    -0.203 F 
ATOM     90  C   UNL A   1      49.276  26.701  26.178  1.00  0.00     0.198 A 
ATOM     91  C   UNL A   1      48.271  27.301  24.081  1.00  0.00     0.198 A 
ATOM     92  F   UNL A   1      46.117  28.241  24.035  1.00  0.00    -0.203 F 
ATOM     93  F   UNL A   1      50.322  26.232  26.871  1.00  0.00    -0.200 F 
ATOM     94  C   UNL A   1      49.344  26.789  24.795  1.00  0.00     0.200 A 
ATOM     95  F   UNL A   1      48.328  27.371  22.744  1.00  0.00    -0.200 F 
ATOM     96  F   UNL A   1      50.446  26.384  24.150  1.00  0.00    -0.200 F 
ENDBRANCH  63  86
ENDBRANCH  37  38
ENDBRANCH  30  32
ENDBRANCH  29  30
ENDBRANCH  28  29
ENDBRANCH  27  28
ENDBRANCH  26  27
ENDBRANCH   1  26
TORSDOF 18
ENDMDL
