MODEL 1
REMARK VINA RESULT:     -13.2      0.000      0.000
REMARK SMILES CC(=O)Nc1cccc(NS(=O)(=O)c2cc(C(=O)OCCOCCOCCOC(=O)c3ccc(-c4c5nc(c(-c6c(F)c(F)c(F)c(F)c6F)c6ccc([nH]6)c(-c6c(F)c(F)c(F)c(F)c6F)c6nc(c(-c7c(F)c(F)c(F)c(F)c7F)c7ccc4[nH]7)C=C6)C=C5)cc3)ccc2C)c1C
REMARK SMILES IDX 23 1 22 2 21 3 20 4 19 5 17 6 18 7 16 8 14 9 15 10 96 11
REMARK SMILES IDX 95 12 97 13 94 14 11 15 12 16 13 17 10 18 9 20 5 21 6 22
REMARK SMILES IDX 98 23 7 24 99 25 8 26 4 27 1 28 2 29 3 30 24 32 25 33 26 34
REMARK SMILES IDX 27 35 28 36 29 37 30 38 31 39 32 40 93 41 33 42 92 43 34 44
REMARK SMILES IDX 35 45 36 46 86 47 37 48 91 49 85 50 87 51 38 52 90 53 84 54
REMARK SMILES IDX 83 55 39 57 71 58 51 59 70 60 52 61 55 62 69 63 88 64 53 65
REMARK SMILES IDX 54 66 68 68 89 69 56 70 40 71 41 72 49 73 42 74 43 75 47 76
REMARK SMILES IDX 50 77 44 78 45 79 48 80 46 81 72 82 73 83 81 84 74 85 75 86
REMARK SMILES IDX 79 87 82 88 76 89 77 90 80 91 78 92 57 93 58 94 66 95 59 96
REMARK SMILES IDX 60 97 64 98 67 99 61 100 62 101 65 102 63 103
REMARK H PARENT 10 19 4 31 87 56 55 67
REMARK Flexibility Score: inf
ROOT
ATOM      1  C   UNL A   1      32.901  35.715  29.762  1.00  0.00     0.188 C 
ENDROOT
BRANCH   1   2
ATOM      2  O   UNL A   1      34.062  35.901  28.924  1.00  0.00    -0.376 OA
BRANCH   2   3
ATOM      3  C   UNL A   1      34.456  34.976  27.850  1.00  0.00     0.202 C 
BRANCH   3   4
ATOM      4  C   UNL A   1      35.292  33.383  27.887  1.00  0.00     0.261 C 
BRANCH   4   5
ATOM      5  O   UNL A   1      34.610  31.674  28.025  1.00  0.00    -0.460 OA
BRANCH   5   6
ATOM      6  C   UNL A   1      34.420  30.224  27.560  1.00  0.00     0.338 C 
ATOM      7  O   UNL A   1      35.201  29.335  27.931  1.00  0.00    -0.246 OA
BRANCH   6   8
ATOM      8  C   UNL A   1      33.427  29.483  26.559  1.00  0.00     0.061 A 
ATOM      9  C   UNL A   1      32.508  27.510  25.306  1.00  0.00     0.091 A 
ATOM     10  C   UNL A   1      33.378  28.095  26.272  1.00  0.00     0.038 A 
ATOM     11  C   UNL A   1      31.499  28.286  24.721  1.00  0.00    -0.031 A 
ATOM     12  C   UNL A   1      31.402  29.626  25.153  1.00  0.00     0.006 A 
ATOM     13  C   UNL A   1      30.459  27.779  23.755  1.00  0.00     0.046 C 
ATOM     14  C   UNL A   1      32.348  30.212  26.035  1.00  0.00     0.016 A 
BRANCH   9  15
ATOM     15  S   UNL A   1      32.833  25.805  24.828  1.00  0.00     0.262 S 
ATOM     16  O   UNL A   1      33.316  25.817  23.452  1.00  0.00    -0.201 OA
ATOM     17  O   UNL A   1      31.663  25.015  25.125  1.00  0.00    -0.201 OA
BRANCH  15  18
ATOM     18  N   UNL A   1      34.114  25.148  25.747  1.00  0.00    -0.279 N 
ATOM     19  H   UNL A   1      34.534  25.702  26.443  1.00  0.00     0.180 HD
BRANCH  18  20
ATOM     20  C   UNL A   1      34.600  23.811  25.535  1.00  0.00     0.054 A 
ATOM     21  C   UNL A   1      34.534  21.409  25.811  1.00  0.00     0.046 A 
ATOM     22  C   UNL A   1      35.642  21.259  24.979  1.00  0.00     0.026 A 
ATOM     23  C   UNL A   1      34.048  22.688  26.184  1.00  0.00    -0.003 A 
ATOM     24  C   UNL A   1      36.106  22.360  24.285  1.00  0.00     0.004 A 
ATOM     25  C   UNL A   1      33.032  22.765  27.301  1.00  0.00     0.049 C 
ATOM     26  C   UNL A   1      35.502  23.595  24.488  1.00  0.00     0.027 A 
BRANCH  21  27
ATOM     27  N   UNL A   1      33.851  20.232  26.147  1.00  0.00    -0.326 N 
ATOM     28  C   UNL A   1      32.528  20.291  24.032  1.00  0.00     0.114 C 
ATOM     29  C   UNL A   1      32.911  19.629  25.340  1.00  0.00     0.221 C 
ATOM     30  O   UNL A   1      32.458  18.528  25.656  1.00  0.00    -0.275 OA
ATOM     31  H   UNL A   1      34.057  19.809  27.013  1.00  0.00     0.169 HD
ENDBRANCH  21  27
ENDBRANCH  18  20
ENDBRANCH  15  18
ENDBRANCH   9  15
ENDBRANCH   6   8
ENDBRANCH   5   6
ENDBRANCH   4   5
ENDBRANCH   3   4
ENDBRANCH   2   3
ENDBRANCH   1   2
BRANCH   1  32
ATOM     32  C   UNL A   1      32.531  36.449  31.042  1.00  0.00     0.188 C 
BRANCH  32  33
ATOM     33  O   UNL A   1      33.328  37.595  31.230  1.00  0.00    -0.376 OA
BRANCH  33  34
ATOM     34  C   UNL A   1      33.995  37.570  32.488  1.00  0.00     0.202 C 
BRANCH  34  35
ATOM     35  C   UNL A   1      33.857  36.249  33.277  1.00  0.00     0.261 C 
BRANCH  35  36
ATOM     36  O   UNL A   1      34.811  35.280  32.797  1.00  0.00    -0.460 OA
BRANCH  36  37
ATOM     37  C   UNL A   1      34.329  34.026  32.552  1.00  0.00     0.338 C 
ATOM     38  O   UNL A   1      33.556  33.412  33.267  1.00  0.00    -0.246 OA
BRANCH  37  39
ATOM     39  C   UNL A   1      35.173  33.378  31.500  1.00  0.00     0.060 A 
ATOM     40  C   UNL A   1      35.167  31.976  31.417  1.00  0.00     0.016 A 
ATOM     41  C   UNL A   1      36.280  34.083  31.065  1.00  0.00     0.016 A 
ATOM     42  C   UNL A   1      36.368  31.281  31.208  1.00  0.00     0.010 A 
ATOM     43  C   UNL A   1      37.470  33.391  30.990  1.00  0.00     0.010 A 
ATOM     44  C   UNL A   1      37.558  31.994  31.097  1.00  0.00    -0.014 A 
BRANCH  44  45
ATOM     45  C   UNL A   1      38.952  31.448  31.220  1.00  0.00     0.031 A 
ATOM     46  C   UNL A   1      39.127  30.126  29.983  1.00  0.00     0.074 A 
ATOM     47  C   UNL A   1      39.914  32.035  32.209  1.00  0.00     0.049 A 
ATOM     48  N   UNL A   1      39.845  29.041  30.207  1.00  0.00    -0.248 NA
ATOM     49  C   UNL A   1      38.562  29.891  28.632  1.00  0.00     0.031 C 
ATOM     50  C   UNL A   1      41.504  32.152  32.245  1.00  0.00     0.029 A 
ATOM     51  N   UNL A   1      39.753  32.816  33.373  1.00  0.00    -0.354 N 
ATOM     52  C   UNL A   1      40.265  28.379  29.118  1.00  0.00     0.074 A 
ATOM     53  C   UNL A   1      39.257  28.813  28.169  1.00  0.00     0.031 C 
ATOM     54  C   UNL A   1      42.051  32.963  33.126  1.00  0.00     0.029 A 
ATOM     55  C   UNL A   1      40.995  33.128  34.027  1.00  0.00     0.049 A 
ATOM     56  H   UNL A   1      38.877  33.118  33.705  1.00  0.00     0.167 HD
ATOM     57  C   UNL A   1      41.467  27.692  29.158  1.00  0.00     0.037 A 
ATOM     58  C   UNL A   1      41.255  32.817  35.317  1.00  0.00     0.037 A 
ATOM     59  C   UNL A   1      42.445  28.072  30.278  1.00  0.00     0.049 A 
ATOM     60  C   UNL A   1      41.841  31.382  35.426  1.00  0.00     0.074 A 
ATOM     61  C   UNL A   1      43.602  28.857  30.273  1.00  0.00     0.029 A 
ATOM     62  N   UNL A   1      42.280  27.791  31.645  1.00  0.00    -0.354 N 
ATOM     63  N   UNL A   1      42.475  30.726  34.461  1.00  0.00    -0.248 NA
ATOM     64  C   UNL A   1      41.712  30.571  36.626  1.00  0.00     0.031 C 
ATOM     65  C   UNL A   1      44.050  29.121  31.616  1.00  0.00     0.029 A 
ATOM     66  C   UNL A   1      43.207  28.480  32.501  1.00  0.00     0.049 A 
ATOM     67  H   UNL A   1      41.590  27.177  31.986  1.00  0.00     0.167 HD
ATOM     68  C   UNL A   1      42.692  29.404  34.817  1.00  0.00     0.074 A 
ATOM     69  C   UNL A   1      42.206  29.390  36.210  1.00  0.00     0.031 C 
ATOM     70  C   UNL A   1      43.132  28.355  34.002  1.00  0.00     0.037 A 
BRANCH  57  71
ATOM     71  C   UNL A   1      41.944  26.892  27.953  1.00  0.00     0.064 A 
ATOM     72  C   UNL A   1      42.716  27.463  26.916  1.00  0.00     0.173 A 
ATOM     73  C   UNL A   1      41.705  25.510  27.810  1.00  0.00     0.173 A 
ATOM     74  F   UNL A   1      43.145  28.729  26.966  1.00  0.00    -0.203 F 
ATOM     75  C   UNL A   1      43.101  26.748  25.778  1.00  0.00     0.198 A 
ATOM     76  C   UNL A   1      42.068  24.799  26.658  1.00  0.00     0.198 A 
ATOM     77  F   UNL A   1      41.153  24.799  28.803  1.00  0.00    -0.203 F 
ATOM     78  F   UNL A   1      43.814  27.358  24.821  1.00  0.00    -0.200 F 
ATOM     79  C   UNL A   1      42.751  25.423  25.634  1.00  0.00     0.200 A 
ATOM     80  F   UNL A   1      41.755  23.500  26.550  1.00  0.00    -0.200 F 
ATOM     81  F   UNL A   1      43.093  24.748  24.530  1.00  0.00    -0.200 F 
ENDBRANCH  57  71
BRANCH  58  82
ATOM     82  C   UNL A   1      40.309  33.734  36.034  1.00  0.00     0.064 A 
ATOM     83  C   UNL A   1      39.284  33.005  36.732  1.00  0.00     0.173 A 
ATOM     84  C   UNL A   1      40.844  34.851  36.697  1.00  0.00     0.173 A 
ATOM     85  F   UNL A   1      38.783  31.881  36.187  1.00  0.00    -0.203 F 
ATOM     86  C   UNL A   1      39.047  33.207  38.097  1.00  0.00     0.198 A 
ATOM     87  C   UNL A   1      40.582  35.052  38.064  1.00  0.00     0.198 A 
ATOM     88  F   UNL A   1      41.859  35.526  36.137  1.00  0.00    -0.203 F 
ATOM     89  F   UNL A   1      38.311  32.324  38.792  1.00  0.00    -0.200 F 
ATOM     90  C   UNL A   1      39.729  34.205  38.768  1.00  0.00     0.200 A 
ATOM     91  F   UNL A   1      41.314  35.945  38.747  1.00  0.00    -0.200 F 
ATOM     92  F   UNL A   1      39.657  34.279  40.106  1.00  0.00    -0.200 F 
ENDBRANCH  58  82
BRANCH  70  93
ATOM     93  C   UNL A   1      43.449  26.992  34.620  1.00  0.00     0.064 A 
ATOM     94  C   UNL A   1      42.453  26.030  34.879  1.00  0.00     0.173 A 
ATOM     95  C   UNL A   1      44.744  26.620  35.046  1.00  0.00     0.173 A 
ATOM     96  F   UNL A   1      41.151  26.327  34.753  1.00  0.00    -0.203 F 
ATOM     97  C   UNL A   1      42.758  24.734  35.304  1.00  0.00     0.198 A 
ATOM     98  C   UNL A   1      45.038  25.350  35.542  1.00  0.00     0.198 A 
ATOM     99  F   UNL A   1      45.783  27.463  35.019  1.00  0.00    -0.203 F 
ATOM    100  F   UNL A   1      41.781  23.822  35.403  1.00  0.00    -0.200 F 
ATOM    101  C   UNL A   1      44.054  24.390  35.622  1.00  0.00     0.200 A 
ATOM    102  F   UNL A   1      46.288  25.066  35.935  1.00  0.00    -0.200 F 
ATOM    103  F   UNL A   1      44.351  23.150  36.033  1.00  0.00    -0.200 F 
ENDBRANCH  70  93
ENDBRANCH  44  45
ENDBRANCH  37  39
ENDBRANCH  36  37
ENDBRANCH  35  36
ENDBRANCH  34  35
ENDBRANCH  33  34
ENDBRANCH  32  33
ENDBRANCH   1  32
TORSDOF 21
ENDMDL
MODEL 2
REMARK VINA RESULT:     -12.4      1.040      2.037
REMARK SMILES CC(=O)Nc1cccc(NS(=O)(=O)c2cc(C(=O)OCCOCCOCCOC(=O)c3ccc(-c4c5nc(c(-c6c(F)c(F)c(F)c(F)c6F)c6ccc([nH]6)c(-c6c(F)c(F)c(F)c(F)c6F)c6nc(c(-c7c(F)c(F)c(F)c(F)c7F)c7ccc4[nH]7)C=C6)C=C5)cc3)ccc2C)c1C
REMARK SMILES IDX 23 1 22 2 21 3 20 4 19 5 17 6 18 7 16 8 14 9 15 10 96 11
REMARK SMILES IDX 95 12 97 13 94 14 11 15 12 16 13 17 10 18 9 20 5 21 6 22
REMARK SMILES IDX 98 23 7 24 99 25 8 26 4 27 1 28 2 29 3 30 24 32 25 33 26 34
REMARK SMILES IDX 27 35 28 36 29 37 30 38 31 39 32 40 93 41 33 42 92 43 34 44
REMARK SMILES IDX 35 45 36 46 86 47 37 48 91 49 85 50 87 51 38 52 90 53 84 54
REMARK SMILES IDX 83 55 39 57 71 58 51 59 70 60 52 61 55 62 69 63 88 64 53 65
REMARK SMILES IDX 54 66 68 68 89 69 56 70 40 71 41 72 49 73 42 74 43 75 47 76
REMARK SMILES IDX 50 77 44 78 45 79 48 80 46 81 72 82 73 83 81 84 74 85 75 86
REMARK SMILES IDX 79 87 82 88 76 89 77 90 80 91 78 92 57 93 58 94 66 95 59 96
REMARK SMILES IDX 60 97 64 98 67 99 61 100 62 101 65 102 63 103
REMARK H PARENT 10 19 4 31 87 56 55 67
REMARK Flexibility Score: inf
ROOT
ATOM      1  C   UNL A   1      33.624  34.832  28.745  1.00  0.00     0.188 C 
ENDROOT
BRANCH   1   2
ATOM      2  O   UNL A   1      35.036  34.643  28.511  1.00  0.00    -0.376 OA
BRANCH   2   3
ATOM      3  C   UNL A   1      35.614  33.431  27.912  1.00  0.00     0.202 C 
BRANCH   3   4
ATOM      4  C   UNL A   1      35.319  31.683  28.221  1.00  0.00     0.261 C 
BRANCH   4   5
ATOM      5  O   UNL A   1      34.545  30.391  27.154  1.00  0.00    -0.460 OA
BRANCH   5   6
ATOM      6  C   UNL A   1      33.533  29.277  26.853  1.00  0.00     0.338 C 
ATOM      7  O   UNL A   1      33.463  28.276  27.580  1.00  0.00    -0.246 OA
BRANCH   6   8
ATOM      8  C   UNL A   1      32.484  28.993  25.689  1.00  0.00     0.061 A 
ATOM      9  C   UNL A   1      31.307  27.580  23.978  1.00  0.00     0.091 A 
ATOM     10  C   UNL A   1      32.209  27.747  25.069  1.00  0.00     0.038 A 
ATOM     11  C   UNL A   1      30.484  28.645  23.590  1.00  0.00    -0.031 A 
ATOM     12  C   UNL A   1      30.599  29.837  24.336  1.00  0.00     0.006 A 
ATOM     13  C   UNL A   1      29.428  28.584  22.515  1.00  0.00     0.046 C 
ATOM     14  C   UNL A   1      31.581  30.011  25.347  1.00  0.00     0.016 A 
BRANCH   9  15
ATOM     15  S   UNL A   1      31.355  26.009  23.100  1.00  0.00     0.262 S 
ATOM     16  O   UNL A   1      31.499  26.302  21.679  1.00  0.00    -0.201 OA
ATOM     17  O   UNL A   1      30.223  25.217  23.515  1.00  0.00    -0.201 OA
BRANCH  15  18
ATOM     18  N   UNL A   1      32.753  25.120  23.517  1.00  0.00    -0.279 N 
ATOM     19  H   UNL A   1      33.612  25.361  23.102  1.00  0.00     0.180 HD
BRANCH  18  20
ATOM     20  C   UNL A   1      32.715  24.028  24.453  1.00  0.00     0.054 A 
ATOM     21  C   UNL A   1      32.776  21.688  25.059  1.00  0.00     0.046 A 
ATOM     22  C   UNL A   1      32.683  22.011  26.412  1.00  0.00     0.026 A 
ATOM     23  C   UNL A   1      32.698  22.678  24.048  1.00  0.00    -0.003 A 
ATOM     24  C   UNL A   1      32.794  23.336  26.788  1.00  0.00     0.004 A 
ATOM     25  C   UNL A   1      32.525  22.221  22.616  1.00  0.00     0.049 C 
ATOM     26  C   UNL A   1      32.925  24.312  25.807  1.00  0.00     0.027 A 
BRANCH  21  27
ATOM     27  N   UNL A   1      33.084  20.352  24.764  1.00  0.00    -0.326 N 
ATOM     28  C   UNL A   1      35.535  20.784  24.948  1.00  0.00     0.114 C 
ATOM     29  C   UNL A   1      34.365  19.847  24.724  1.00  0.00     0.221 C 
ATOM     30  O   UNL A   1      34.534  18.635  24.586  1.00  0.00    -0.275 OA
ATOM     31  H   UNL A   1      32.339  19.737  24.574  1.00  0.00     0.169 HD
ENDBRANCH  21  27
ENDBRANCH  18  20
ENDBRANCH  15  18
ENDBRANCH   9  15
ENDBRANCH   6   8
ENDBRANCH   5   6
ENDBRANCH   4   5
ENDBRANCH   3   4
ENDBRANCH   2   3
ENDBRANCH   1   2
BRANCH   1  32
ATOM     32  C   UNL A   1      32.892  36.108  29.131  1.00  0.00     0.188 C 
BRANCH  32  33
ATOM     33  O   UNL A   1      33.411  36.665  30.315  1.00  0.00    -0.376 OA
BRANCH  33  34
ATOM     34  C   UNL A   1      32.469  36.605  31.381  1.00  0.00     0.202 C 
BRANCH  34  35
ATOM     35  C   UNL A   1      32.835  35.635  32.526  1.00  0.00     0.261 C 
BRANCH  35  36
ATOM     36  O   UNL A   1      34.269  35.534  32.655  1.00  0.00    -0.460 OA
BRANCH  36  37
ATOM     37  C   UNL A   1      34.751  34.354  33.144  1.00  0.00     0.338 C 
ATOM     38  O   UNL A   1      34.872  34.073  34.324  1.00  0.00    -0.246 OA
BRANCH  37  39
ATOM     39  C   UNL A   1      35.456  33.624  32.044  1.00  0.00     0.060 A 
ATOM     40  C   UNL A   1      35.394  32.221  32.035  1.00  0.00     0.016 A 
ATOM     41  C   UNL A   1      36.532  34.265  31.459  1.00  0.00     0.016 A 
ATOM     42  C   UNL A   1      36.543  31.472  31.738  1.00  0.00     0.010 A 
ATOM     43  C   UNL A   1      37.684  33.526  31.295  1.00  0.00     0.010 A 
ATOM     44  C   UNL A   1      37.738  32.133  31.465  1.00  0.00    -0.014 A 
BRANCH  44  45
ATOM     45  C   UNL A   1      39.117  31.542  31.469  1.00  0.00     0.031 A 
ATOM     46  C   UNL A   1      39.151  30.234  30.204  1.00  0.00     0.074 A 
ATOM     47  C   UNL A   1      40.174  32.081  32.386  1.00  0.00     0.049 A 
ATOM     48  N   UNL A   1      39.848  29.124  30.355  1.00  0.00    -0.248 NA
ATOM     49  C   UNL A   1      38.473  30.039  28.900  1.00  0.00     0.031 C 
ATOM     50  C   UNL A   1      41.764  32.147  32.297  1.00  0.00     0.029 A 
ATOM     51  N   UNL A   1      40.131  32.848  33.570  1.00  0.00    -0.354 N 
ATOM     52  C   UNL A   1      40.159  28.467  29.227  1.00  0.00     0.074 A 
ATOM     53  C   UNL A   1      39.093  28.948  28.368  1.00  0.00     0.031 C 
ATOM     54  C   UNL A   1      42.407  32.926  33.143  1.00  0.00     0.029 A 
ATOM     55  C   UNL A   1      41.431  33.109  34.127  1.00  0.00     0.049 A 
ATOM     56  H   UNL A   1      39.295  33.172  33.976  1.00  0.00     0.167 HD
ATOM     57  C   UNL A   1      41.337  27.742  29.161  1.00  0.00     0.037 A 
ATOM     58  C   UNL A   1      41.782  32.769  35.389  1.00  0.00     0.037 A 
ATOM     59  C   UNL A   1      42.413  28.071  30.205  1.00  0.00     0.049 A 
ATOM     60  C   UNL A   1      42.327  31.315  35.430  1.00  0.00     0.074 A 
ATOM     61  C   UNL A   1      43.590  28.820  30.119  1.00  0.00     0.029 A 
ATOM     62  N   UNL A   1      42.347  27.774  31.577  1.00  0.00    -0.354 N 
ATOM     63  N   UNL A   1      42.861  30.655  34.409  1.00  0.00    -0.248 NA
ATOM     64  C   UNL A   1      42.267  30.488  36.625  1.00  0.00     0.031 C 
ATOM     65  C   UNL A   1      44.152  29.047  31.425  1.00  0.00     0.029 A 
ATOM     66  C   UNL A   1      43.361  28.419  32.366  1.00  0.00     0.049 A 
ATOM     67  H   UNL A   1      41.666  27.176  31.964  1.00  0.00     0.167 HD
ATOM     68  C   UNL A   1      43.062  29.321  34.728  1.00  0.00     0.074 A 
ATOM     69  C   UNL A   1      42.687  29.300  36.155  1.00  0.00     0.031 C 
ATOM     70  C   UNL A   1      43.400  28.272  33.866  1.00  0.00     0.037 A 
BRANCH  57  71
ATOM     71  C   UNL A   1      41.690  26.947  27.912  1.00  0.00     0.064 A 
ATOM     72  C   UNL A   1      41.509  25.548  27.822  1.00  0.00     0.173 A 
ATOM     73  C   UNL A   1      42.166  27.551  26.730  1.00  0.00     0.173 A 
ATOM     74  F   UNL A   1      40.939  24.842  28.805  1.00  0.00    -0.203 F 
ATOM     75  C   UNL A   1      41.891  24.807  26.700  1.00  0.00     0.198 A 
ATOM     76  C   UNL A   1      42.573  26.806  25.616  1.00  0.00     0.198 A 
ATOM     77  F   UNL A   1      42.206  28.885  26.605  1.00  0.00    -0.203 F 
ATOM     78  F   UNL A   1      41.711  23.478  26.690  1.00  0.00    -0.200 F 
ATOM     79  C   UNL A   1      42.452  25.431  25.608  1.00  0.00     0.200 A 
ATOM     80  F   UNL A   1      43.081  27.432  24.545  1.00  0.00    -0.200 F 
ATOM     81  F   UNL A   1      42.847  24.716  24.547  1.00  0.00    -0.200 F 
ENDBRANCH  57  71
BRANCH  58  82
ATOM     82  C   UNL A   1      40.927  33.704  36.191  1.00  0.00     0.064 A 
ATOM     83  C   UNL A   1      39.934  32.997  36.956  1.00  0.00     0.173 A 
ATOM     84  C   UNL A   1      41.549  34.790  36.827  1.00  0.00     0.173 A 
ATOM     85  F   UNL A   1      39.355  31.899  36.435  1.00  0.00    -0.203 F 
ATOM     86  C   UNL A   1      39.811  33.182  38.338  1.00  0.00     0.198 A 
ATOM     87  C   UNL A   1      41.401  34.975  38.213  1.00  0.00     0.198 A 
ATOM     88  F   UNL A   1      42.540  35.441  36.199  1.00  0.00    -0.203 F 
ATOM     89  F   UNL A   1      39.102  32.312  39.075  1.00  0.00    -0.200 F 
ATOM     90  C   UNL A   1      40.577  34.145  38.968  1.00  0.00     0.200 A 
ATOM     91  F   UNL A   1      42.214  35.832  38.850  1.00  0.00    -0.200 F 
ATOM     92  F   UNL A   1      40.612  34.198  40.309  1.00  0.00    -0.200 F 
ENDBRANCH  58  82
BRANCH  70  93
ATOM     93  C   UNL A   1      43.721  26.889  34.438  1.00  0.00     0.064 A 
ATOM     94  C   UNL A   1      45.035  26.390  34.517  1.00  0.00     0.173 A 
ATOM     95  C   UNL A   1      42.725  25.981  34.862  1.00  0.00     0.173 A 
ATOM     96  F   UNL A   1      46.059  27.035  33.935  1.00  0.00    -0.203 F 
ATOM     97  C   UNL A   1      45.344  25.195  35.172  1.00  0.00     0.198 A 
ATOM     98  C   UNL A   1      43.029  24.752  35.449  1.00  0.00     0.198 A 
ATOM     99  F   UNL A   1      41.417  26.223  34.720  1.00  0.00    -0.203 F 
ATOM    100  F   UNL A   1      46.626  24.839  35.333  1.00  0.00    -0.200 F 
ATOM    101  C   UNL A   1      44.339  24.382  35.651  1.00  0.00     0.200 A 
ATOM    102  F   UNL A   1      42.034  23.933  35.822  1.00  0.00    -0.200 F 
ATOM    103  F   UNL A   1      44.629  23.234  36.277  1.00  0.00    -0.200 F 
ENDBRANCH  70  93
ENDBRANCH  44  45
ENDBRANCH  37  39
ENDBRANCH  36  37
ENDBRANCH  35  36
ENDBRANCH  34  35
ENDBRANCH  33  34
ENDBRANCH  32  33
ENDBRANCH   1  32
TORSDOF 21
ENDMDL
MODEL 3
REMARK VINA RESULT:     -12.3      4.359      7.552
REMARK SMILES CC(=O)Nc1cccc(NS(=O)(=O)c2cc(C(=O)OCCOCCOCCOC(=O)c3ccc(-c4c5nc(c(-c6c(F)c(F)c(F)c(F)c6F)c6ccc([nH]6)c(-c6c(F)c(F)c(F)c(F)c6F)c6nc(c(-c7c(F)c(F)c(F)c(F)c7F)c7ccc4[nH]7)C=C6)C=C5)cc3)ccc2C)c1C
REMARK SMILES IDX 23 1 22 2 21 3 20 4 19 5 17 6 18 7 16 8 14 9 15 10 96 11
REMARK SMILES IDX 95 12 97 13 94 14 11 15 12 16 13 17 10 18 9 20 5 21 6 22
REMARK SMILES IDX 98 23 7 24 99 25 8 26 4 27 1 28 2 29 3 30 24 32 25 33 26 34
REMARK SMILES IDX 27 35 28 36 29 37 30 38 31 39 32 40 93 41 33 42 92 43 34 44
REMARK SMILES IDX 35 45 36 46 86 47 37 48 91 49 85 50 87 51 38 52 90 53 84 54
REMARK SMILES IDX 83 55 39 57 71 58 51 59 70 60 52 61 55 62 69 63 88 64 53 65
REMARK SMILES IDX 54 66 68 68 89 69 56 70 40 71 41 72 49 73 42 74 43 75 47 76
REMARK SMILES IDX 50 77 44 78 45 79 48 80 46 81 72 82 73 83 81 84 74 85 75 86
REMARK SMILES IDX 79 87 82 88 76 89 77 90 80 91 78 92 57 93 58 94 66 95 59 96
REMARK SMILES IDX 60 97 64 98 67 99 61 100 62 101 65 102 63 103
REMARK H PARENT 10 19 4 31 87 56 55 67
REMARK Flexibility Score: inf
ROOT
ATOM      1  C   UNL A   1      37.709  33.419  31.003  1.00  0.00     0.188 C 
ENDROOT
BRANCH   1   2
ATOM      2  O   UNL A   1      36.331  33.833  30.884  1.00  0.00    -0.376 OA
BRANCH   2   3
ATOM      3  C   UNL A   1      35.349  33.176  30.010  1.00  0.00     0.202 C 
BRANCH   3   4
ATOM      4  C   UNL A   1      35.402  32.733  28.266  1.00  0.00     0.261 C 
BRANCH   4   5
ATOM      5  O   UNL A   1      34.175  31.839  27.218  1.00  0.00    -0.460 OA
BRANCH   5   6
ATOM      6  C   UNL A   1      32.794  31.236  26.923  1.00  0.00     0.338 C 
ATOM      7  O   UNL A   1      31.769  31.924  27.030  1.00  0.00    -0.246 OA
BRANCH   6   8
ATOM      8  C   UNL A   1      32.256  29.785  26.546  1.00  0.00     0.061 A 
ATOM      9  C   UNL A   1      31.776  27.863  25.003  1.00  0.00     0.091 A 
ATOM     10  C   UNL A   1      32.348  29.137  25.288  1.00  0.00     0.038 A 
ATOM     11  C   UNL A   1      31.251  27.089  26.045  1.00  0.00    -0.031 A 
ATOM     12  C   UNL A   1      31.341  27.635  27.344  1.00  0.00     0.006 A 
ATOM     13  C   UNL A   1      30.697  25.694  25.903  1.00  0.00     0.046 C 
ATOM     14  C   UNL A   1      31.815  28.951  27.586  1.00  0.00     0.016 A 
BRANCH   9  15
ATOM     15  S   UNL A   1      31.686  27.367  23.274  1.00  0.00     0.262 S 
ATOM     16  O   UNL A   1      31.590  28.580  22.472  1.00  0.00    -0.201 OA
ATOM     17  O   UNL A   1      30.643  26.381  23.134  1.00  0.00    -0.201 OA
BRANCH  15  18
ATOM     18  N   UNL A   1      33.139  26.617  22.779  1.00  0.00    -0.279 N 
ATOM     19  H   UNL A   1      33.821  27.157  22.320  1.00  0.00     0.180 HD
BRANCH  18  20
ATOM     20  C   UNL A   1      33.396  25.220  23.007  1.00  0.00     0.054 A 
ATOM     21  C   UNL A   1      34.036  23.327  24.368  1.00  0.00     0.046 A 
ATOM     22  C   UNL A   1      33.799  22.454  23.307  1.00  0.00     0.026 A 
ATOM     23  C   UNL A   1      33.932  24.732  24.215  1.00  0.00    -0.003 A 
ATOM     24  C   UNL A   1      33.188  22.942  22.168  1.00  0.00     0.004 A 
ATOM     25  C   UNL A   1      34.474  25.609  25.322  1.00  0.00     0.049 C 
ATOM     26  C   UNL A   1      32.891  24.297  22.084  1.00  0.00     0.027 A 
BRANCH  21  27
ATOM     27  N   UNL A   1      34.249  22.732  25.620  1.00  0.00    -0.326 N 
ATOM     28  C   UNL A   1      31.804  22.372  25.963  1.00  0.00     0.114 C 
ATOM     29  C   UNL A   1      33.243  22.230  26.416  1.00  0.00     0.221 C 
ATOM     30  O   UNL A   1      33.534  21.608  27.438  1.00  0.00    -0.275 OA
ATOM     31  H   UNL A   1      35.175  22.669  25.949  1.00  0.00     0.169 HD
ENDBRANCH  21  27
ENDBRANCH  18  20
ENDBRANCH  15  18
ENDBRANCH   9  15
ENDBRANCH   6   8
ENDBRANCH   5   6
ENDBRANCH   4   5
ENDBRANCH   3   4
ENDBRANCH   2   3
ENDBRANCH   1   2
BRANCH   1  32
ATOM     32  C   UNL A   1      38.881  34.191  31.589  1.00  0.00     0.188 C 
BRANCH  32  33
ATOM     33  O   UNL A   1      40.115  33.645  31.187  1.00  0.00    -0.376 OA
BRANCH  33  34
ATOM     34  C   UNL A   1      41.030  34.658  30.779  1.00  0.00     0.202 C 
BRANCH  34  35
ATOM     35  C   UNL A   1      41.284  34.736  29.257  1.00  0.00     0.261 C 
BRANCH  35  36
ATOM     36  O   UNL A   1      42.425  35.577  28.985  1.00  0.00    -0.460 OA
BRANCH  36  37
ATOM     37  C   UNL A   1      42.772  35.720  27.672  1.00  0.00     0.338 C 
ATOM     38  O   UNL A   1      42.114  36.298  26.824  1.00  0.00    -0.246 OA
BRANCH  37  39
ATOM     39  C   UNL A   1      43.864  34.749  27.350  1.00  0.00     0.060 A 
ATOM     40  C   UNL A   1      43.654  33.838  26.302  1.00  0.00     0.016 A 
ATOM     41  C   UNL A   1      44.731  34.423  28.376  1.00  0.00     0.016 A 
ATOM     42  C   UNL A   1      44.049  32.500  26.448  1.00  0.00     0.010 A 
ATOM     43  C   UNL A   1      45.000  33.083  28.563  1.00  0.00     0.010 A 
ATOM     44  C   UNL A   1      44.639  32.088  27.640  1.00  0.00    -0.014 A 
BRANCH  44  45
ATOM     45  C   UNL A   1      44.809  30.677  28.122  1.00  0.00     0.031 A 
ATOM     46  C   UNL A   1      46.436  30.099  27.546  1.00  0.00     0.074 A 
ATOM     47  C   UNL A   1      43.748  30.024  28.956  1.00  0.00     0.049 A 
ATOM     48  N   UNL A   1      46.650  28.851  27.174  1.00  0.00    -0.248 NA
ATOM     49  C   UNL A   1      47.742  30.759  27.304  1.00  0.00     0.031 C 
ATOM     50  C   UNL A   1      43.785  28.881  30.067  1.00  0.00     0.029 A 
ATOM     51  N   UNL A   1      42.378  30.289  29.164  1.00  0.00    -0.354 N 
ATOM     52  C   UNL A   1      47.928  28.441  27.205  1.00  0.00     0.074 A 
ATOM     53  C   UNL A   1      48.596  29.722  27.074  1.00  0.00     0.031 C 
ATOM     54  C   UNL A   1      42.718  28.705  30.819  1.00  0.00     0.029 A 
ATOM     55  C   UNL A   1      41.745  29.354  30.055  1.00  0.00     0.049 A 
ATOM     56  H   UNL A   1      41.901  31.040  28.741  1.00  0.00     0.167 HD
ATOM     57  C   UNL A   1      48.211  27.113  27.478  1.00  0.00     0.037 A 
ATOM     58  C   UNL A   1      40.662  28.618  29.713  1.00  0.00     0.037 A 
ATOM     59  C   UNL A   1      47.100  26.289  28.144  1.00  0.00     0.049 A 
ATOM     60  C   UNL A   1      41.097  27.294  29.027  1.00  0.00     0.074 A 
ATOM     61  C   UNL A   1      46.914  25.881  29.468  1.00  0.00     0.029 A 
ATOM     62  N   UNL A   1      45.906  25.872  27.532  1.00  0.00    -0.354 N 
ATOM     63  N   UNL A   1      42.271  26.690  29.174  1.00  0.00    -0.248 NA
ATOM     64  C   UNL A   1      40.245  26.581  28.089  1.00  0.00     0.031 C 
ATOM     65  C   UNL A   1      45.598  25.329  29.655  1.00  0.00     0.029 A 
ATOM     66  C   UNL A   1      44.931  25.343  28.446  1.00  0.00     0.049 A 
ATOM     67  H   UNL A   1      45.750  25.936  26.561  1.00  0.00     0.167 HD
ATOM     68  C   UNL A   1      42.409  25.645  28.275  1.00  0.00     0.074 A 
ATOM     69  C   UNL A   1      41.076  25.621  27.643  1.00  0.00     0.031 C 
ATOM     70  C   UNL A   1      43.564  24.914  27.977  1.00  0.00     0.037 A 
BRANCH  57  71
ATOM     71  C   UNL A   1      49.648  26.609  27.471  1.00  0.00     0.064 A 
ATOM     72  C   UNL A   1      50.512  26.753  28.580  1.00  0.00     0.173 A 
ATOM     73  C   UNL A   1      50.207  25.906  26.383  1.00  0.00     0.173 A 
ATOM     74  F   UNL A   1      50.096  27.274  29.740  1.00  0.00    -0.203 F 
ATOM     75  C   UNL A   1      51.850  26.349  28.554  1.00  0.00     0.198 A 
ATOM     76  C   UNL A   1      51.554  25.525  26.347  1.00  0.00     0.198 A 
ATOM     77  F   UNL A   1      49.450  25.530  25.343  1.00  0.00    -0.203 F 
ATOM     78  F   UNL A   1      52.621  26.536  29.635  1.00  0.00    -0.200 F 
ATOM     79  C   UNL A   1      52.381  25.762  27.426  1.00  0.00     0.200 A 
ATOM     80  F   UNL A   1      52.046  24.919  25.256  1.00  0.00    -0.200 F 
ATOM     81  F   UNL A   1      53.671  25.404  27.392  1.00  0.00    -0.200 F 
ENDBRANCH  57  71
BRANCH  58  82
ATOM     82  C   UNL A   1      39.609  29.681  29.608  1.00  0.00     0.064 A 
ATOM     83  C   UNL A   1      39.084  29.783  28.273  1.00  0.00     0.173 A 
ATOM     84  C   UNL A   1      38.681  29.799  30.655  1.00  0.00     0.173 A 
ATOM     85  F   UNL A   1      39.907  29.602  27.222  1.00  0.00    -0.203 F 
ATOM     86  C   UNL A   1      37.710  29.701  28.021  1.00  0.00     0.198 A 
ATOM     87  C   UNL A   1      37.302  29.734  30.386  1.00  0.00     0.198 A 
ATOM     88  F   UNL A   1      39.091  29.632  31.922  1.00  0.00    -0.203 F 
ATOM     89  F   UNL A   1      37.263  29.496  26.771  1.00  0.00    -0.200 F 
ATOM     90  C   UNL A   1      36.825  29.635  29.081  1.00  0.00     0.200 A 
ATOM     91  F   UNL A   1      36.443  29.564  31.403  1.00  0.00    -0.200 F 
ATOM     92  F   UNL A   1      35.530  29.361  28.854  1.00  0.00    -0.200 F 
ENDBRANCH  58  82
BRANCH  70  93
ATOM     93  C   UNL A   1      43.478  23.695  27.055  1.00  0.00     0.064 A 
ATOM     94  C   UNL A   1      43.853  23.746  25.698  1.00  0.00     0.173 A 
ATOM     95  C   UNL A   1      42.951  22.451  27.469  1.00  0.00     0.173 A 
ATOM     96  F   UNL A   1      44.144  24.912  25.102  1.00  0.00    -0.203 F 
ATOM     97  C   UNL A   1      43.915  22.604  24.896  1.00  0.00     0.198 A 
ATOM     98  C   UNL A   1      42.943  21.326  26.644  1.00  0.00     0.198 A 
ATOM     99  F   UNL A   1      42.407  22.262  28.677  1.00  0.00    -0.203 F 
ATOM    100  F   UNL A   1      44.408  22.693  23.653  1.00  0.00    -0.200 F 
ATOM    101  C   UNL A   1      43.473  21.389  25.375  1.00  0.00     0.200 A 
ATOM    102  F   UNL A   1      42.421  20.177  27.098  1.00  0.00    -0.200 F 
ATOM    103  F   UNL A   1      43.528  20.292  24.610  1.00  0.00    -0.200 F 
ENDBRANCH  70  93
ENDBRANCH  44  45
ENDBRANCH  37  39
ENDBRANCH  36  37
ENDBRANCH  35  36
ENDBRANCH  34  35
ENDBRANCH  33  34
ENDBRANCH  32  33
ENDBRANCH   1  32
TORSDOF 21
ENDMDL
