MODEL 1
REMARK VINA RESULT:      -9.9      0.000      0.000
REMARK SMILES COc1cc(/N=N/c2ccccc2)ccc1NC(=O)[C@H]1CC=CC[C@@H]1C(=O)OCCOCCOCCOC(=O)c1ccc(-c2c3nc(c(-c4c(F)c(F)c(F)c(F)c4F)c4ccc([nH]4)c(-c4c(F)c(F)c(F)c(F)c4F)c4nc(c(-c5c(F)c(F)c(F)c(F)c5F)c5ccc2[nH]5)C=C4)C=C3)cc1
REMARK SMILES IDX 32 1 31 2 30 3 29 4 28 5 26 6 27 7 25 8 20 9 21 10 22 11
REMARK SMILES IDX 24 12 23 13 18 14 17 15 19 17 16 18 3 19 4 20 5 21 15 22
REMARK SMILES IDX 14 23 2 24 1 25 6 26 7 27 8 28 9 29 13 30 10 31 12 32 11 33
REMARK SMILES IDX 33 34 34 35 35 36 36 37 37 38 38 39 39 40 40 41 41 42 102 43
REMARK SMILES IDX 42 44 101 45 43 46 44 47 45 48 95 49 46 50 100 51 94 52
REMARK SMILES IDX 96 53 47 54 99 55 93 56 92 57 48 59 80 60 60 61 79 62 61 63
REMARK SMILES IDX 64 64 78 65 97 66 62 67 63 68 77 70 98 71 65 72 49 73 50 74
REMARK SMILES IDX 58 75 51 76 52 77 56 78 59 79 53 80 54 81 57 82 55 83 81 84
REMARK SMILES IDX 82 85 90 86 83 87 84 88 88 89 91 90 85 91 86 92 89 93 87 94
REMARK SMILES IDX 66 95 67 96 75 97 68 98 69 99 73 100 76 101 70 102 71 103
REMARK SMILES IDX 74 104 72 105
REMARK H PARENT 17 16 96 58 64 69
REMARK Flexibility Score: inf
ROOT
ATOM      1  C   UNL A   1      48.518  26.289  27.348  1.00  0.00     0.188 C 
ENDROOT
BRANCH   1   2
ATOM      2  O   UNL A   1      47.678  26.937  28.292  1.00  0.00    -0.376 OA
BRANCH   2   3
ATOM      3  C   UNL A   1      47.852  26.671  29.679  1.00  0.00     0.202 C 
BRANCH   3   4
ATOM      4  C   UNL A   1      48.854  25.576  30.095  1.00  0.00     0.261 C 
BRANCH   4   5
ATOM      5  O   UNL A   1      49.708  25.853  31.240  1.00  0.00    -0.463 OA
BRANCH   5   6
ATOM      6  C   UNL A   1      49.308  25.323  32.427  1.00  0.00     0.310 C 
ATOM      7  O   UNL A   1      48.298  25.693  33.022  1.00  0.00    -0.252 OA
BRANCH   6   8
ATOM      8  C   UNL A   1      50.168  24.177  32.985  1.00  0.00     0.116 C 
ATOM      9  C   UNL A   1      49.593  23.220  34.075  1.00  0.00     0.097 C 
ATOM     10  C   UNL A   1      50.052  23.585  35.507  1.00  0.00     0.041 C 
ATOM     11  C   UNL A   1      51.523  23.869  35.573  1.00  0.00    -0.030 C 
ATOM     12  C   UNL A   1      51.622  24.635  33.198  1.00  0.00     0.043 C 
ATOM     13  C   UNL A   1      52.226  24.306  34.521  1.00  0.00    -0.030 C 
BRANCH   9  14
ATOM     14  C   UNL A   1      50.032  21.751  33.859  1.00  0.00     0.228 C 
ATOM     15  N   UNL A   1      49.384  20.682  34.379  1.00  0.00    -0.323 N 
ATOM     16  H   UNL A   1      49.691  19.826  34.003  1.00  0.00     0.170 HD
ATOM     17  O   UNL A   1      50.998  21.455  33.143  1.00  0.00    -0.274 OA
BRANCH  15  18
ATOM     18  C   UNL A   1      48.376  20.529  35.332  1.00  0.00     0.083 A 
ATOM     19  C   UNL A   1      48.749  20.130  36.626  1.00  0.00     0.144 A 
ATOM     20  C   UNL A   1      47.786  19.604  37.492  1.00  0.00     0.079 A 
ATOM     21  C   UNL A   1      46.441  19.558  37.110  1.00  0.00     0.090 A 
ATOM     22  C   UNL A   1      47.024  20.647  35.016  1.00  0.00     0.032 A 
ATOM     23  C   UNL A   1      46.066  20.149  35.894  1.00  0.00     0.033 A 
BRANCH  19  24
ATOM     24  O   UNL A   1      50.058  20.065  37.039  1.00  0.00    -0.494 OA
ATOM     25  C   UNL A   1      50.387  21.047  38.029  1.00  0.00     0.278 C 
ENDBRANCH  19  24
BRANCH  21  26
ATOM     26  N   UNL A   1      45.487  18.965  37.961  1.00  0.00    -0.150 NA
ATOM     27  N   UNL A   1      45.998  18.017  38.599  1.00  0.00    -0.151 NA
BRANCH  27  28
ATOM     28  C   UNL A   1      45.065  17.269  39.346  1.00  0.00     0.086 A 
ATOM     29  C   UNL A   1      44.210  16.402  38.650  1.00  0.00     0.030 A 
ATOM     30  C   UNL A   1      44.896  17.394  40.732  1.00  0.00     0.030 A 
ATOM     31  C   UNL A   1      43.229  15.665  39.321  1.00  0.00     0.002 A 
ATOM     32  C   UNL A   1      43.919  16.658  41.407  1.00  0.00     0.002 A 
ATOM     33  C   UNL A   1      43.087  15.793  40.702  1.00  0.00     0.000 A 
ENDBRANCH  27  28
ENDBRANCH  21  26
ENDBRANCH  15  18
ENDBRANCH   9  14
ENDBRANCH   6   8
ENDBRANCH   5   6
ENDBRANCH   4   5
ENDBRANCH   3   4
ENDBRANCH   2   3
ENDBRANCH   1   2
BRANCH   1  34
ATOM     34  C   UNL A   1      47.977  26.018  25.945  1.00  0.00     0.188 C 
BRANCH  34  35
ATOM     35  O   UNL A   1      46.719  25.380  25.942  1.00  0.00    -0.376 OA
BRANCH  35  36
ATOM     36  C   UNL A   1      46.644  24.083  26.501  1.00  0.00     0.202 C 
BRANCH  36  37
ATOM     37  C   UNL A   1      45.667  23.172  25.748  1.00  0.00     0.261 C 
BRANCH  37  38
ATOM     38  O   UNL A   1      44.426  22.897  26.430  1.00  0.00    -0.460 OA
BRANCH  38  39
ATOM     39  C   UNL A   1      43.291  23.306  25.823  1.00  0.00     0.338 C 
ATOM     40  O   UNL A   1      42.708  22.747  24.903  1.00  0.00    -0.246 OA
BRANCH  39  41
ATOM     41  C   UNL A   1      42.714  24.405  26.631  1.00  0.00     0.060 A 
ATOM     42  C   UNL A   1      43.159  25.713  26.396  1.00  0.00     0.016 A 
ATOM     43  C   UNL A   1      41.735  24.168  27.590  1.00  0.00     0.016 A 
ATOM     44  C   UNL A   1      42.645  26.792  27.114  1.00  0.00     0.010 A 
ATOM     45  C   UNL A   1      41.244  25.242  28.341  1.00  0.00     0.010 A 
ATOM     46  C   UNL A   1      41.714  26.555  28.125  1.00  0.00    -0.014 A 
BRANCH  46  47
ATOM     47  C   UNL A   1      41.412  27.604  29.128  1.00  0.00     0.031 A 
ATOM     48  C   UNL A   1      42.234  27.614  30.383  1.00  0.00     0.074 A 
ATOM     49  C   UNL A   1      40.436  28.512  28.957  1.00  0.00     0.049 A 
ATOM     50  N   UNL A   1      42.020  28.221  31.520  1.00  0.00    -0.248 NA
ATOM     51  C   UNL A   1      43.464  26.808  30.346  1.00  0.00     0.031 C 
ATOM     52  C   UNL A   1      39.644  28.694  27.746  1.00  0.00     0.029 A 
ATOM     53  N   UNL A   1      39.928  29.437  29.839  1.00  0.00    -0.354 N 
ATOM     54  C   UNL A   1      43.058  27.823  32.353  1.00  0.00     0.074 A 
ATOM     55  C   UNL A   1      43.897  26.924  31.591  1.00  0.00     0.031 C 
ATOM     56  C   UNL A   1      38.720  29.643  27.971  1.00  0.00     0.029 A 
ATOM     57  C   UNL A   1      38.815  30.085  29.363  1.00  0.00     0.049 A 
ATOM     58  H   UNL A   1      40.323  29.616  30.722  1.00  0.00     0.167 HD
ATOM     59  C   UNL A   1      43.279  28.169  33.643  1.00  0.00     0.037 A 
ATOM     60  C   UNL A   1      37.941  30.889  30.000  1.00  0.00     0.037 A 
ATOM     61  C   UNL A   1      42.443  29.077  34.381  1.00  0.00     0.049 A 
ATOM     62  C   UNL A   1      38.144  31.196  31.463  1.00  0.00     0.074 A 
ATOM     63  C   UNL A   1      42.574  29.500  35.690  1.00  0.00     0.029 A 
ATOM     64  N   UNL A   1      41.312  29.698  33.869  1.00  0.00    -0.354 N 
ATOM     65  N   UNL A   1      39.093  30.787  32.272  1.00  0.00    -0.248 NA
ATOM     66  C   UNL A   1      37.150  32.068  32.108  1.00  0.00     0.031 C 
ATOM     67  C   UNL A   1      41.486  30.325  35.991  1.00  0.00     0.029 A 
ATOM     68  C   UNL A   1      40.720  30.480  34.846  1.00  0.00     0.049 A 
ATOM     69  H   UNL A   1      40.979  29.596  32.948  1.00  0.00     0.167 HD
ATOM     70  C   UNL A   1      38.836  31.379  33.503  1.00  0.00     0.074 A 
ATOM     71  C   UNL A   1      37.636  32.173  33.338  1.00  0.00     0.031 C 
ATOM     72  C   UNL A   1      39.537  31.285  34.659  1.00  0.00     0.037 A 
BRANCH  59  73
ATOM     73  C   UNL A   1      44.425  27.500  34.347  1.00  0.00     0.064 A 
ATOM     74  C   UNL A   1      44.322  26.211  34.890  1.00  0.00     0.173 A 
ATOM     75  C   UNL A   1      45.645  28.178  34.498  1.00  0.00     0.173 A 
ATOM     76  F   UNL A   1      43.173  25.524  34.790  1.00  0.00    -0.203 F 
ATOM     77  C   UNL A   1      45.380  25.645  35.599  1.00  0.00     0.198 A 
ATOM     78  C   UNL A   1      46.712  27.594  35.171  1.00  0.00     0.198 A 
ATOM     79  F   UNL A   1      45.799  29.413  33.996  1.00  0.00    -0.203 F 
ATOM     80  F   UNL A   1      45.231  24.445  36.177  1.00  0.00    -0.200 F 
ATOM     81  C   UNL A   1      46.575  26.335  35.735  1.00  0.00     0.200 A 
ATOM     82  F   UNL A   1      47.872  28.258  35.288  1.00  0.00    -0.200 F 
ATOM     83  F   UNL A   1      47.589  25.793  36.422  1.00  0.00    -0.200 F 
ENDBRANCH  59  73
BRANCH  60  84
ATOM     84  C   UNL A   1      36.764  31.424  29.264  1.00  0.00     0.064 A 
ATOM     85  C   UNL A   1      36.676  32.781  28.924  1.00  0.00     0.173 A 
ATOM     86  C   UNL A   1      35.706  30.586  28.875  1.00  0.00     0.173 A 
ATOM     87  F   UNL A   1      37.645  33.628  29.299  1.00  0.00    -0.203 F 
ATOM     88  C   UNL A   1      35.577  33.280  28.226  1.00  0.00     0.198 A 
ATOM     89  C   UNL A   1      34.622  31.080  28.153  1.00  0.00     0.198 A 
ATOM     90  F   UNL A   1      35.735  29.282  29.184  1.00  0.00    -0.203 F 
ATOM     91  F   UNL A   1      35.502  34.587  27.946  1.00  0.00    -0.200 F 
ATOM     92  C   UNL A   1      34.556  32.427  27.832  1.00  0.00     0.200 A 
ATOM     93  F   UNL A   1      33.644  30.251  27.765  1.00  0.00    -0.200 F 
ATOM     94  F   UNL A   1      33.506  32.905  27.150  1.00  0.00    -0.200 F 
ENDBRANCH  60  84
BRANCH  72  95
ATOM     95  C   UNL A   1      39.084  32.110  35.831  1.00  0.00     0.064 A 
ATOM     96  C   UNL A   1      38.236  31.598  36.822  1.00  0.00     0.173 A 
ATOM     97  C   UNL A   1      39.591  33.408  36.007  1.00  0.00     0.173 A 
ATOM     98  F   UNL A   1      37.716  30.368  36.697  1.00  0.00    -0.203 F 
ATOM     99  C   UNL A   1      37.906  32.358  37.943  1.00  0.00     0.198 A 
ATOM    100  C   UNL A   1      39.284  34.153  37.142  1.00  0.00     0.198 A 
ATOM    101  F   UNL A   1      40.414  33.942  35.091  1.00  0.00    -0.203 F 
ATOM    102  F   UNL A   1      37.069  31.861  38.865  1.00  0.00    -0.200 F 
ATOM    103  C   UNL A   1      38.440  33.628  38.108  1.00  0.00     0.200 A 
ATOM    104  F   UNL A   1      39.818  35.370  37.307  1.00  0.00    -0.200 F 
ATOM    105  F   UNL A   1      38.140  34.347  39.198  1.00  0.00    -0.200 F 
ENDBRANCH  72  95
ENDBRANCH  46  47
ENDBRANCH  39  41
ENDBRANCH  38  39
ENDBRANCH  37  38
ENDBRANCH  36  37
ENDBRANCH  35  36
ENDBRANCH  34  35
ENDBRANCH   1  34
TORSDOF 22
ENDMDL
MODEL 2
REMARK VINA RESULT:      -9.6      8.740     14.711
REMARK SMILES COc1cc(/N=N/c2ccccc2)ccc1NC(=O)[C@H]1CC=CC[C@@H]1C(=O)OCCOCCOCCOC(=O)c1ccc(-c2c3nc(c(-c4c(F)c(F)c(F)c(F)c4F)c4ccc([nH]4)c(-c4c(F)c(F)c(F)c(F)c4F)c4nc(c(-c5c(F)c(F)c(F)c(F)c5F)c5ccc2[nH]5)C=C4)C=C3)cc1
REMARK SMILES IDX 32 1 31 2 30 3 29 4 28 5 26 6 27 7 25 8 20 9 21 10 22 11
REMARK SMILES IDX 24 12 23 13 18 14 17 15 19 17 16 18 3 19 4 20 5 21 15 22
REMARK SMILES IDX 14 23 2 24 1 25 6 26 7 27 8 28 9 29 13 30 10 31 12 32 11 33
REMARK SMILES IDX 33 34 34 35 35 36 36 37 37 38 38 39 39 40 40 41 41 42 102 43
REMARK SMILES IDX 42 44 101 45 43 46 44 47 45 48 95 49 46 50 100 51 94 52
REMARK SMILES IDX 96 53 47 54 99 55 93 56 92 57 48 59 80 60 60 61 79 62 61 63
REMARK SMILES IDX 64 64 78 65 97 66 62 67 63 68 77 70 98 71 65 72 49 73 50 74
REMARK SMILES IDX 58 75 51 76 52 77 56 78 59 79 53 80 54 81 57 82 55 83 81 84
REMARK SMILES IDX 82 85 90 86 83 87 84 88 88 89 91 90 85 91 86 92 89 93 87 94
REMARK SMILES IDX 66 95 67 96 75 97 68 98 69 99 73 100 76 101 70 102 71 103
REMARK SMILES IDX 74 104 72 105
REMARK H PARENT 17 16 96 58 64 69
REMARK Flexibility Score: inf
ROOT
ATOM      1  C   UNL A   1      34.320  31.037  27.897  1.00  0.00     0.188 C 
ENDROOT
BRANCH   1   2
ATOM      2  O   UNL A   1      33.327  31.010  26.882  1.00  0.00    -0.376 OA
BRANCH   2   3
ATOM      3  C   UNL A   1      32.194  30.164  27.037  1.00  0.00     0.202 C 
BRANCH   3   4
ATOM      4  C   UNL A   1      32.345  28.668  26.700  1.00  0.00     0.261 C 
BRANCH   4   5
ATOM      5  O   UNL A   1      31.126  27.906  26.480  1.00  0.00    -0.463 OA
BRANCH   5   6
ATOM      6  C   UNL A   1      31.289  26.600  26.135  1.00  0.00     0.310 C 
ATOM      7  O   UNL A   1      31.290  25.683  26.952  1.00  0.00    -0.252 OA
BRANCH   6   8
ATOM      8  C   UNL A   1      31.429  26.308  24.631  1.00  0.00     0.116 C 
ATOM      9  C   UNL A   1      32.678  25.545  24.090  1.00  0.00     0.097 C 
ATOM     10  C   UNL A   1      33.751  26.486  23.490  1.00  0.00     0.041 C 
ATOM     11  C   UNL A   1      33.153  27.521  22.585  1.00  0.00    -0.030 C 
ATOM     12  C   UNL A   1      30.966  27.512  23.792  1.00  0.00     0.043 C 
ATOM     13  C   UNL A   1      31.890  27.949  22.705  1.00  0.00    -0.030 C 
BRANCH   9  14
ATOM     14  C   UNL A   1      32.316  24.552  22.958  1.00  0.00     0.228 C 
ATOM     15  N   UNL A   1      32.919  23.353  22.782  1.00  0.00    -0.323 N 
ATOM     16  H   UNL A   1      32.453  22.781  22.131  1.00  0.00     0.170 HD
ATOM     17  O   UNL A   1      31.402  24.780  22.155  1.00  0.00    -0.274 OA
BRANCH  15  18
ATOM     18  C   UNL A   1      34.055  22.750  23.322  1.00  0.00     0.083 A 
ATOM     19  C   UNL A   1      33.871  21.714  24.252  1.00  0.00     0.144 A 
ATOM     20  C   UNL A   1      34.927  21.341  25.089  1.00  0.00     0.079 A 
ATOM     21  C   UNL A   1      36.187  21.929  24.943  1.00  0.00     0.090 A 
ATOM     22  C   UNL A   1      35.343  23.210  23.057  1.00  0.00     0.032 A 
ATOM     23  C   UNL A   1      36.398  22.814  23.875  1.00  0.00     0.033 A 
BRANCH  19  24
ATOM     24  O   UNL A   1      32.644  21.152  24.511  1.00  0.00    -0.494 OA
ATOM     25  C   UNL A   1      32.581  19.758  24.186  1.00  0.00     0.278 C 
ENDBRANCH  19  24
BRANCH  21  26
ATOM     26  N   UNL A   1      37.227  21.597  25.835  1.00  0.00    -0.150 NA
ATOM     27  N   UNL A   1      38.334  21.953  25.370  1.00  0.00    -0.151 NA
BRANCH  27  28
ATOM     28  C   UNL A   1      39.436  21.505  26.127  1.00  0.00     0.086 A 
ATOM     29  C   UNL A   1      40.009  22.398  27.043  1.00  0.00     0.030 A 
ATOM     30  C   UNL A   1      40.033  20.246  25.967  1.00  0.00     0.030 A 
ATOM     31  C   UNL A   1      41.134  22.038  27.793  1.00  0.00     0.002 A 
ATOM     32  C   UNL A   1      41.154  19.881  26.715  1.00  0.00     0.002 A 
ATOM     33  C   UNL A   1      41.703  20.777  27.629  1.00  0.00     0.000 A 
ENDBRANCH  27  28
ENDBRANCH  21  26
ENDBRANCH  15  18
ENDBRANCH   9  14
ENDBRANCH   6   8
ENDBRANCH   5   6
ENDBRANCH   4   5
ENDBRANCH   3   4
ENDBRANCH   2   3
ENDBRANCH   1   2
BRANCH   1  34
ATOM     34  C   UNL A   1      34.911  32.383  28.314  1.00  0.00     0.188 C 
BRANCH  34  35
ATOM     35  O   UNL A   1      35.792  32.293  29.412  1.00  0.00    -0.376 OA
BRANCH  35  36
ATOM     36  C   UNL A   1      35.240  32.451  30.705  1.00  0.00     0.202 C 
BRANCH  36  37
ATOM     37  C   UNL A   1      36.245  33.032  31.708  1.00  0.00     0.261 C 
BRANCH  37  38
ATOM     38  O   UNL A   1      37.002  34.166  31.240  1.00  0.00    -0.460 OA
BRANCH  38  39
ATOM     39  C   UNL A   1      38.032  34.576  32.012  1.00  0.00     0.338 C 
ATOM     40  O   UNL A   1      38.026  34.717  33.228  1.00  0.00    -0.246 OA
BRANCH  39  41
ATOM     41  C   UNL A   1      39.256  34.569  31.178  1.00  0.00     0.060 A 
ATOM     42  C   UNL A   1      40.493  34.374  31.807  1.00  0.00     0.016 A 
ATOM     43  C   UNL A   1      39.198  34.727  29.797  1.00  0.00     0.016 A 
ATOM     44  C   UNL A   1      41.679  34.343  31.075  1.00  0.00     0.010 A 
ATOM     45  C   UNL A   1      40.389  34.737  29.063  1.00  0.00     0.010 A 
ATOM     46  C   UNL A   1      41.637  34.571  29.700  1.00  0.00    -0.014 A 
BRANCH  46  47
ATOM     47  C   UNL A   1      42.877  34.892  28.953  1.00  0.00     0.031 A 
ATOM     48  C   UNL A   1      43.769  33.747  28.574  1.00  0.00     0.074 A 
ATOM     49  C   UNL A   1      43.223  36.149  28.629  1.00  0.00     0.049 A 
ATOM     50  N   UNL A   1      45.012  33.750  28.174  1.00  0.00    -0.248 NA
ATOM     51  C   UNL A   1      43.168  32.408  28.680  1.00  0.00     0.031 C 
ATOM     52  C   UNL A   1      42.401  37.337  28.826  1.00  0.00     0.029 A 
ATOM     53  N   UNL A   1      44.393  36.630  28.087  1.00  0.00    -0.354 N 
ATOM     54  C   UNL A   1      45.361  32.413  28.037  1.00  0.00     0.074 A 
ATOM     55  C   UNL A   1      44.200  31.630  28.398  1.00  0.00     0.031 C 
ATOM     56  C   UNL A   1      43.105  38.419  28.450  1.00  0.00     0.029 A 
ATOM     57  C   UNL A   1      44.450  38.001  28.050  1.00  0.00     0.049 A 
ATOM     58  H   UNL A   1      45.116  36.048  27.759  1.00  0.00     0.167 HD
ATOM     59  C   UNL A   1      46.551  31.890  27.657  1.00  0.00     0.037 A 
ATOM     60  C   UNL A   1      45.487  38.820  27.786  1.00  0.00     0.037 A 
ATOM     61  C   UNL A   1      47.690  32.684  27.286  1.00  0.00     0.049 A 
ATOM     62  C   UNL A   1      46.835  38.227  27.453  1.00  0.00     0.074 A 
ATOM     63  C   UNL A   1      48.943  32.260  26.883  1.00  0.00     0.029 A 
ATOM     64  N   UNL A   1      47.714  34.072  27.281  1.00  0.00    -0.354 N 
ATOM     65  N   UNL A   1      47.188  36.966  27.369  1.00  0.00    -0.248 NA
ATOM     66  C   UNL A   1      47.932  39.169  27.189  1.00  0.00     0.031 C 
ATOM     67  C   UNL A   1      49.745  33.391  26.698  1.00  0.00     0.029 A 
ATOM     68  C   UNL A   1      48.970  34.521  26.907  1.00  0.00     0.049 A 
ATOM     69  H   UNL A   1      46.952  34.652  27.510  1.00  0.00     0.167 HD
ATOM     70  C   UNL A   1      48.529  36.962  27.005  1.00  0.00     0.074 A 
ATOM     71  C   UNL A   1      48.931  38.349  26.889  1.00  0.00     0.031 C 
ATOM     72  C   UNL A   1      49.348  35.906  26.774  1.00  0.00     0.037 A 
BRANCH  59  73
ATOM     73  C   UNL A   1      46.689  30.395  27.703  1.00  0.00     0.064 A 
ATOM     74  C   UNL A   1      47.092  29.713  28.860  1.00  0.00     0.173 A 
ATOM     75  C   UNL A   1      46.432  29.634  26.551  1.00  0.00     0.173 A 
ATOM     76  F   UNL A   1      47.368  30.393  29.984  1.00  0.00    -0.203 F 
ATOM     77  C   UNL A   1      47.280  28.333  28.850  1.00  0.00     0.198 A 
ATOM     78  C   UNL A   1      46.582  28.251  26.556  1.00  0.00     0.198 A 
ATOM     79  F   UNL A   1      46.041  30.234  25.416  1.00  0.00    -0.203 F 
ATOM     80  F   UNL A   1      47.742  27.713  29.945  1.00  0.00    -0.200 F 
ATOM     81  C   UNL A   1      47.020  27.602  27.700  1.00  0.00     0.200 A 
ATOM     82  F   UNL A   1      46.314  27.547  25.447  1.00  0.00    -0.200 F 
ATOM     83  F   UNL A   1      47.206  26.276  27.690  1.00  0.00    -0.200 F 
ENDBRANCH  59  73
BRANCH  60  84
ATOM     84  C   UNL A   1      45.301  40.293  27.873  1.00  0.00     0.064 A 
ATOM     85  C   UNL A   1      44.786  41.024  26.793  1.00  0.00     0.173 A 
ATOM     86  C   UNL A   1      45.625  41.000  29.042  1.00  0.00     0.173 A 
ATOM     87  F   UNL A   1      44.491  40.400  25.644  1.00  0.00    -0.203 F 
ATOM     88  C   UNL A   1      44.604  42.403  26.878  1.00  0.00     0.198 A 
ATOM     89  C   UNL A   1      45.415  42.374  29.136  1.00  0.00     0.198 A 
ATOM     90  F   UNL A   1      46.131  40.351  30.100  1.00  0.00    -0.203 F 
ATOM     91  F   UNL A   1      44.145  43.083  25.819  1.00  0.00    -0.200 F 
ATOM     92  C   UNL A   1      44.909  43.076  28.053  1.00  0.00     0.200 A 
ATOM     93  F   UNL A   1      45.702  43.017  30.276  1.00  0.00    -0.200 F 
ATOM     94  F   UNL A   1      44.721  44.400  28.138  1.00  0.00    -0.200 F 
ENDBRANCH  60  84
BRANCH  72  95
ATOM     95  C   UNL A   1      50.746  36.187  26.300  1.00  0.00     0.064 A 
ATOM     96  C   UNL A   1      51.838  36.233  27.177  1.00  0.00     0.173 A 
ATOM     97  C   UNL A   1      51.004  36.316  24.925  1.00  0.00     0.173 A 
ATOM     98  F   UNL A   1      51.646  36.125  28.501  1.00  0.00    -0.203 F 
ATOM     99  C   UNL A   1      53.135  36.405  26.696  1.00  0.00     0.198 A 
ATOM    100  C   UNL A   1      52.302  36.458  24.446  1.00  0.00     0.198 A 
ATOM    101  F   UNL A   1      49.994  36.271  24.042  1.00  0.00    -0.203 F 
ATOM    102  F   UNL A   1      54.162  36.476  27.555  1.00  0.00    -0.200 F 
ATOM    103  C   UNL A   1      53.367  36.505  25.332  1.00  0.00     0.200 A 
ATOM    104  F   UNL A   1      52.524  36.533  23.127  1.00  0.00    -0.200 F 
ATOM    105  F   UNL A   1      54.617  36.646  24.871  1.00  0.00    -0.200 F 
ENDBRANCH  72  95
ENDBRANCH  46  47
ENDBRANCH  39  41
ENDBRANCH  38  39
ENDBRANCH  37  38
ENDBRANCH  36  37
ENDBRANCH  35  36
ENDBRANCH  34  35
ENDBRANCH   1  34
TORSDOF 22
ENDMDL
MODEL 3
REMARK VINA RESULT:      -9.6      5.889     11.517
REMARK SMILES COc1cc(/N=N/c2ccccc2)ccc1NC(=O)[C@H]1CC=CC[C@@H]1C(=O)OCCOCCOCCOC(=O)c1ccc(-c2c3nc(c(-c4c(F)c(F)c(F)c(F)c4F)c4ccc([nH]4)c(-c4c(F)c(F)c(F)c(F)c4F)c4nc(c(-c5c(F)c(F)c(F)c(F)c5F)c5ccc2[nH]5)C=C4)C=C3)cc1
REMARK SMILES IDX 32 1 31 2 30 3 29 4 28 5 26 6 27 7 25 8 20 9 21 10 22 11
REMARK SMILES IDX 24 12 23 13 18 14 17 15 19 17 16 18 3 19 4 20 5 21 15 22
REMARK SMILES IDX 14 23 2 24 1 25 6 26 7 27 8 28 9 29 13 30 10 31 12 32 11 33
REMARK SMILES IDX 33 34 34 35 35 36 36 37 37 38 38 39 39 40 40 41 41 42 102 43
REMARK SMILES IDX 42 44 101 45 43 46 44 47 45 48 95 49 46 50 100 51 94 52
REMARK SMILES IDX 96 53 47 54 99 55 93 56 92 57 48 59 80 60 60 61 79 62 61 63
REMARK SMILES IDX 64 64 78 65 97 66 62 67 63 68 77 70 98 71 65 72 49 73 50 74
REMARK SMILES IDX 58 75 51 76 52 77 56 78 59 79 53 80 54 81 57 82 55 83 81 84
REMARK SMILES IDX 82 85 90 86 83 87 84 88 88 89 91 90 85 91 86 92 89 93 87 94
REMARK SMILES IDX 66 95 67 96 75 97 68 98 69 99 73 100 76 101 70 102 71 103
REMARK SMILES IDX 74 104 72 105
REMARK H PARENT 17 16 96 58 64 69
REMARK Flexibility Score: inf
ROOT
ATOM      1  C   UNL A   1      37.782  34.563  33.039  1.00  0.00     0.188 C 
ENDROOT
BRANCH   1   2
ATOM      2  O   UNL A   1      38.743  34.747  34.068  1.00  0.00    -0.376 OA
BRANCH   2   3
ATOM      3  C   UNL A   1      38.588  34.053  35.300  1.00  0.00     0.202 C 
BRANCH   3   4
ATOM      4  C   UNL A   1      39.564  32.906  35.625  1.00  0.00     0.261 C 
BRANCH   4   5
ATOM      5  O   UNL A   1      40.919  33.015  35.107  1.00  0.00    -0.463 OA
BRANCH   5   6
ATOM      6  C   UNL A   1      41.268  32.115  34.149  1.00  0.00     0.310 C 
ATOM      7  O   UNL A   1      41.817  32.431  33.096  1.00  0.00    -0.252 OA
BRANCH   6   8
ATOM      8  C   UNL A   1      40.983  30.637  34.468  1.00  0.00     0.116 C 
ATOM      9  C   UNL A   1      42.133  29.584  34.413  1.00  0.00     0.097 C 
ATOM     10  C   UNL A   1      42.149  28.771  33.095  1.00  0.00     0.041 C 
ATOM     11  C   UNL A   1      40.781  28.292  32.711  1.00  0.00    -0.030 C 
ATOM     12  C   UNL A   1      39.641  30.194  33.860  1.00  0.00     0.043 C 
ATOM     13  C   UNL A   1      39.659  28.917  33.089  1.00  0.00    -0.030 C 
BRANCH   9  14
ATOM     14  C   UNL A   1      42.025  28.536  35.547  1.00  0.00     0.228 C 
ATOM     15  N   UNL A   1      43.029  27.700  35.903  1.00  0.00    -0.323 N 
ATOM     16  H   UNL A   1      42.853  27.226  36.748  1.00  0.00     0.170 HD
ATOM     17  O   UNL A   1      41.007  28.427  36.244  1.00  0.00    -0.274 OA
BRANCH  15  18
ATOM     18  C   UNL A   1      44.259  27.363  35.336  1.00  0.00     0.083 A 
ATOM     19  C   UNL A   1      45.370  28.159  35.657  1.00  0.00     0.144 A 
ATOM     20  C   UNL A   1      46.511  28.110  34.850  1.00  0.00     0.079 A 
ATOM     21  C   UNL A   1      46.585  27.209  33.783  1.00  0.00     0.090 A 
ATOM     22  C   UNL A   1      44.394  26.349  34.391  1.00  0.00     0.032 A 
ATOM     23  C   UNL A   1      45.543  26.285  33.609  1.00  0.00     0.033 A 
BRANCH  19  24
ATOM     24  O   UNL A   1      45.340  29.126  36.633  1.00  0.00    -0.494 OA
ATOM     25  C   UNL A   1      46.586  29.268  37.326  1.00  0.00     0.278 C 
ENDBRANCH  19  24
BRANCH  21  26
ATOM     26  N   UNL A   1      47.710  27.213  32.934  1.00  0.00    -0.150 NA
ATOM     27  N   UNL A   1      47.979  28.380  32.568  1.00  0.00    -0.151 NA
BRANCH  27  28
ATOM     28  C   UNL A   1      48.988  28.446  31.586  1.00  0.00     0.086 A 
ATOM     29  C   UNL A   1      49.316  29.706  31.066  1.00  0.00     0.030 A 
ATOM     30  C   UNL A   1      49.631  27.321  31.051  1.00  0.00     0.030 A 
ATOM     31  C   UNL A   1      50.274  29.842  30.056  1.00  0.00     0.002 A 
ATOM     32  C   UNL A   1      50.590  27.451  30.043  1.00  0.00     0.002 A 
ATOM     33  C   UNL A   1      50.913  28.712  29.547  1.00  0.00     0.000 A 
ENDBRANCH  27  28
ENDBRANCH  21  26
ENDBRANCH  15  18
ENDBRANCH   9  14
ENDBRANCH   6   8
ENDBRANCH   5   6
ENDBRANCH   4   5
ENDBRANCH   3   4
ENDBRANCH   2   3
ENDBRANCH   1   2
BRANCH   1  34
ATOM     34  C   UNL A   1      36.306  34.786  33.362  1.00  0.00     0.188 C 
BRANCH  34  35
ATOM     35  O   UNL A   1      35.648  33.623  33.816  1.00  0.00    -0.376 OA
BRANCH  35  36
ATOM     36  C   UNL A   1      34.399  33.311  33.232  1.00  0.00     0.202 C 
BRANCH  36  37
ATOM     37  C   UNL A   1      34.458  33.267  31.700  1.00  0.00     0.261 C 
BRANCH  37  38
ATOM     38  O   UNL A   1      34.761  31.978  31.129  1.00  0.00    -0.460 OA
BRANCH  38  39
ATOM     39  C   UNL A   1      35.011  31.940  29.802  1.00  0.00     0.338 C 
ATOM     40  O   UNL A   1      34.532  32.670  28.944  1.00  0.00    -0.246 OA
BRANCH  39  41
ATOM     41  C   UNL A   1      36.168  31.042  29.583  1.00  0.00     0.060 A 
ATOM     42  C   UNL A   1      36.642  30.287  30.664  1.00  0.00     0.016 A 
ATOM     43  C   UNL A   1      36.770  30.919  28.335  1.00  0.00     0.016 A 
ATOM     44  C   UNL A   1      37.719  29.412  30.519  1.00  0.00     0.010 A 
ATOM     45  C   UNL A   1      37.876  30.073  28.193  1.00  0.00     0.010 A 
ATOM     46  C   UNL A   1      38.372  29.336  29.289  1.00  0.00    -0.014 A 
BRANCH  46  47
ATOM     47  C   UNL A   1      39.708  28.702  29.187  1.00  0.00     0.031 A 
ATOM     48  C   UNL A   1      40.906  29.585  29.380  1.00  0.00     0.074 A 
ATOM     49  C   UNL A   1      39.874  27.396  28.916  1.00  0.00     0.049 A 
ATOM     50  N   UNL A   1      42.160  29.372  29.084  1.00  0.00    -0.248 NA
ATOM     51  C   UNL A   1      40.637  30.901  29.979  1.00  0.00     0.031 C 
ATOM     52  C   UNL A   1      38.809  26.404  28.824  1.00  0.00     0.029 A 
ATOM     53  N   UNL A   1      41.021  26.692  28.636  1.00  0.00    -0.354 N 
ATOM     54  C   UNL A   1      42.821  30.550  29.407  1.00  0.00     0.074 A 
ATOM     55  C   UNL A   1      41.830  31.471  29.918  1.00  0.00     0.031 C 
ATOM     56  C   UNL A   1      39.346  25.224  28.468  1.00  0.00     0.029 A 
ATOM     57  C   UNL A   1      40.781  25.399  28.243  1.00  0.00     0.049 A 
ATOM     58  H   UNL A   1      41.924  27.077  28.710  1.00  0.00     0.167 HD
ATOM     59  C   UNL A   1      44.138  30.838  29.273  1.00  0.00     0.037 A 
ATOM     60  C   UNL A   1      41.615  24.486  27.704  1.00  0.00     0.037 A 
ATOM     61  C   UNL A   1      45.113  29.905  28.777  1.00  0.00     0.049 A 
ATOM     62  C   UNL A   1      43.061  24.847  27.473  1.00  0.00     0.074 A 
ATOM     63  C   UNL A   1      46.472  30.088  28.603  1.00  0.00     0.029 A 
ATOM     64  N   UNL A   1      44.826  28.609  28.370  1.00  0.00    -0.354 N 
ATOM     65  N   UNL A   1      43.686  25.973  27.728  1.00  0.00    -0.248 NA
ATOM     66  C   UNL A   1      43.919  23.817  26.869  1.00  0.00     0.031 C 
ATOM     67  C   UNL A   1      46.996  28.927  28.028  1.00  0.00     0.029 A 
ATOM     68  C   UNL A   1      45.980  27.990  27.919  1.00  0.00     0.049 A 
ATOM     69  H   UNL A   1      43.935  28.191  28.397  1.00  0.00     0.167 HD
ATOM     70  C   UNL A   1      45.010  25.775  27.357  1.00  0.00     0.074 A 
ATOM     71  C   UNL A   1      45.101  24.421  26.851  1.00  0.00     0.031 C 
ATOM     72  C   UNL A   1      46.058  26.632  27.440  1.00  0.00     0.037 A 
BRANCH  59  73
ATOM     73  C   UNL A   1      44.570  32.239  29.597  1.00  0.00     0.064 A 
ATOM     74  C   UNL A   1      45.008  32.614  30.876  1.00  0.00     0.173 A 
ATOM     75  C   UNL A   1      44.523  33.232  28.606  1.00  0.00     0.173 A 
ATOM     76  F   UNL A   1      45.057  31.709  31.866  1.00  0.00    -0.203 F 
ATOM     77  C   UNL A   1      45.335  33.937  31.163  1.00  0.00     0.198 A 
ATOM     78  C   UNL A   1      44.888  34.544  28.885  1.00  0.00     0.198 A 
ATOM     79  F   UNL A   1      44.114  32.929  27.364  1.00  0.00    -0.203 F 
ATOM     80  F   UNL A   1      45.674  34.286  32.411  1.00  0.00    -0.200 F 
ATOM     81  C   UNL A   1      45.279  34.901  30.166  1.00  0.00     0.200 A 
ATOM     82  F   UNL A   1      44.848  35.470  27.915  1.00  0.00    -0.200 F 
ATOM     83  F   UNL A   1      45.588  36.174  30.445  1.00  0.00    -0.200 F 
ENDBRANCH  59  73
BRANCH  60  84
ATOM     84  C   UNL A   1      41.086  23.155  27.302  1.00  0.00     0.064 A 
ATOM     85  C   UNL A   1      40.080  23.036  26.334  1.00  0.00     0.173 A 
ATOM     86  C   UNL A   1      41.585  21.972  27.871  1.00  0.00     0.173 A 
ATOM     87  F   UNL A   1      39.547  24.137  25.784  1.00  0.00    -0.203 F 
ATOM     88  C   UNL A   1      39.591  21.788  25.952  1.00  0.00     0.198 A 
ATOM     89  C   UNL A   1      41.117  20.724  27.467  1.00  0.00     0.198 A 
ATOM     90  F   UNL A   1      42.541  22.030  28.809  1.00  0.00    -0.203 F 
ATOM     91  F   UNL A   1      38.603  21.705  25.051  1.00  0.00    -0.200 F 
ATOM     92  C   UNL A   1      40.117  20.632  26.511  1.00  0.00     0.200 A 
ATOM     93  F   UNL A   1      41.635  19.610  28.002  1.00  0.00    -0.200 F 
ATOM     94  F   UNL A   1      39.656  19.432  26.133  1.00  0.00    -0.200 F 
ENDBRANCH  60  84
BRANCH  72  95
ATOM     95  C   UNL A   1      47.418  26.126  27.047  1.00  0.00     0.064 A 
ATOM     96  C   UNL A   1      47.970  26.372  25.783  1.00  0.00     0.173 A 
ATOM     97  C   UNL A   1      48.217  25.466  27.995  1.00  0.00     0.173 A 
ATOM     98  F   UNL A   1      47.246  26.990  24.838  1.00  0.00    -0.203 F 
ATOM     99  C   UNL A   1      49.269  25.968  25.480  1.00  0.00     0.198 A 
ATOM    100  C   UNL A   1      49.524  25.091  27.700  1.00  0.00     0.198 A 
ATOM    101  F   UNL A   1      47.738  25.213  29.223  1.00  0.00    -0.203 F 
ATOM    102  F   UNL A   1      49.769  26.186  24.255  1.00  0.00    -0.200 F 
ATOM    103  C   UNL A   1      50.048  25.340  26.441  1.00  0.00     0.200 A 
ATOM    104  F   UNL A   1      50.279  24.503  28.637  1.00  0.00    -0.200 F 
ATOM    105  F   UNL A   1      51.305  24.974  26.155  1.00  0.00    -0.200 F 
ENDBRANCH  72  95
ENDBRANCH  46  47
ENDBRANCH  39  41
ENDBRANCH  38  39
ENDBRANCH  37  38
ENDBRANCH  36  37
ENDBRANCH  35  36
ENDBRANCH  34  35
ENDBRANCH   1  34
TORSDOF 22
ENDMDL
