MODEL 1
REMARK VINA RESULT:     -12.2      0.000      0.000
REMARK SMILES C[C@@H]1CCc2c(C(=O)NNC(=O)[C@@H]3[C@@H]4CC[C@@H](C4)[C@@H]3C(=O)OCCOCCOCCOC(=O)c3ccc(-c4c5nc(c(-c6c(F)c(F)c(F)c(F)c6F)c6ccc([nH]6)c(-c6c(F)c(F)c(F)c(F)c6F)c6nc(c(-c7c(F)c(F)c(F)c(F)c7F)c7ccc4[nH]7)C=C6)C=C5)cc3)csc2C1
REMARK SMILES IDX 26 1 25 2 24 3 23 4 22 5 20 6 21 7 19 8 13 9 14 10 15 11
REMARK SMILES IDX 18 12 17 13 16 14 11 15 10 16 12 18 9 19 7 20 8 21 6 23 1 24
REMARK SMILES IDX 2 25 3 26 100 27 4 28 99 29 5 30 98 31 97 32 27 33 28 34
REMARK SMILES IDX 29 35 30 36 31 37 32 38 33 39 34 40 35 41 96 42 36 43 95 44
REMARK SMILES IDX 37 45 38 46 39 47 89 48 40 49 94 50 88 51 90 52 41 53 93 54
REMARK SMILES IDX 87 55 86 56 42 58 74 59 54 60 73 61 55 62 58 63 72 64 91 65
REMARK SMILES IDX 56 66 57 67 71 69 92 70 59 71 43 72 44 73 52 74 45 75 46 76
REMARK SMILES IDX 50 77 53 78 47 79 48 80 51 81 49 82 75 83 76 84 84 85 77 86
REMARK SMILES IDX 78 87 82 88 85 89 79 90 80 91 83 92 81 93 60 94 61 95 69 96
REMARK SMILES IDX 62 97 63 98 67 99 70 100 64 101 65 102 68 103 66 104
REMARK H PARENT 10 17 9 22 90 57 58 68
REMARK Flexibility Score: inf
ROOT
ATOM      1  C   UNL A   1      38.782  21.253  25.675  1.00  0.00     0.188 C 
ENDROOT
BRANCH   1   2
ATOM      2  O   UNL A   1      37.597  21.923  25.270  1.00  0.00    -0.376 OA
BRANCH   2   3
ATOM      3  C   UNL A   1      37.511  23.278  25.713  1.00  0.00     0.202 C 
BRANCH   3   4
ATOM      4  C   UNL A   1      36.256  24.048  25.262  1.00  0.00     0.261 C 
BRANCH   4   5
ATOM      5  O   UNL A   1      35.092  23.227  25.064  1.00  0.00    -0.463 OA
BRANCH   5   6
ATOM      6  C   UNL A   1      34.783  22.806  23.810  1.00  0.00     0.310 C 
ATOM      7  O   UNL A   1      35.268  23.236  22.774  1.00  0.00    -0.252 OA
BRANCH   6   8
ATOM      8  C   UNL A   1      33.774  21.676  23.903  1.00  0.00     0.115 C 
ATOM      9  C   UNL A   1      32.308  22.084  24.107  1.00  0.00     0.098 C 
ATOM     10  C   UNL A   1      31.932  21.357  25.415  1.00  0.00     0.003 C 
ATOM     11  C   UNL A   1      32.745  21.825  26.638  1.00  0.00     0.005 C 
ATOM     12  C   UNL A   1      32.606  20.002  25.143  1.00  0.00     0.009 C 
ATOM     13  C   UNL A   1      34.005  20.625  25.008  1.00  0.00     0.004 C 
ATOM     14  C   UNL A   1      34.156  21.293  26.372  1.00  0.00     0.005 C 
BRANCH   9  15
ATOM     15  C   UNL A   1      31.881  23.523  23.863  1.00  0.00     0.242 C 
ATOM     16  N   UNL A   1      31.598  23.875  22.566  1.00  0.00    -0.267 N 
ATOM     17  H   UNL A   1      30.739  23.646  22.142  1.00  0.00     0.191 HD
ATOM     18  O   UNL A   1      31.936  24.348  24.777  1.00  0.00    -0.273 OA
BRANCH  16  19
ATOM     19  N   UNL A   1      32.590  24.571  21.881  1.00  0.00    -0.263 N 
ATOM     20  C   UNL A   1      32.646  25.928  21.668  1.00  0.00     0.270 C 
ATOM     21  O   UNL A   1      33.291  26.296  20.681  1.00  0.00    -0.267 OA
ATOM     22  H   UNL A   1      33.329  24.035  21.511  1.00  0.00     0.191 HD
BRANCH  20  23
ATOM     23  C   UNL A   1      31.981  26.906  22.541  1.00  0.00     0.055 A 
ATOM     24  C   UNL A   1      32.982  30.000  27.359  1.00  0.00     0.008 C 
ATOM     25  C   UNL A   1      32.683  28.968  26.276  1.00  0.00    -0.009 C 
ATOM     26  C   UNL A   1      33.960  28.596  25.499  1.00  0.00     0.008 C 
ATOM     27  C   UNL A   1      31.616  29.490  25.298  1.00  0.00     0.050 C 
ATOM     28  C   UNL A   1      33.700  27.457  24.502  1.00  0.00     0.038 C 
ATOM     29  C   UNL A   1      31.467  28.540  24.147  1.00  0.00     0.009 A 
ATOM     30  C   UNL A   1      32.412  27.610  23.736  1.00  0.00    -0.021 A 
ATOM     31  S   UNL A   1      30.081  28.569  23.172  1.00  0.00    -0.148 S 
ATOM     32  C   UNL A   1      30.720  27.360  22.164  1.00  0.00     0.079 A 
ENDBRANCH  20  23
ENDBRANCH  16  19
ENDBRANCH   9  15
ENDBRANCH   6   8
ENDBRANCH   5   6
ENDBRANCH   4   5
ENDBRANCH   3   4
ENDBRANCH   2   3
ENDBRANCH   1   2
BRANCH   1  33
ATOM     33  C   UNL A   1      39.692  22.070  26.612  1.00  0.00     0.188 C 
BRANCH  33  34
ATOM     34  O   UNL A   1      40.474  21.458  27.633  1.00  0.00    -0.376 OA
BRANCH  34  35
ATOM     35  C   UNL A   1      41.001  20.142  27.479  1.00  0.00     0.202 C 
BRANCH  35  36
ATOM     36  C   UNL A   1      41.960  19.821  26.332  1.00  0.00     0.261 C 
BRANCH  36  37
ATOM     37  O   UNL A   1      43.095  20.665  26.327  1.00  0.00    -0.460 OA
BRANCH  37  38
ATOM     38  C   UNL A   1      43.821  20.570  25.205  1.00  0.00     0.338 C 
ATOM     39  O   UNL A   1      43.954  19.586  24.475  1.00  0.00    -0.246 OA
BRANCH  38  40
ATOM     40  C   UNL A   1      44.450  21.861  24.924  1.00  0.00     0.060 A 
ATOM     41  C   UNL A   1      45.665  22.095  25.573  1.00  0.00     0.016 A 
ATOM     42  C   UNL A   1      43.661  22.885  24.390  1.00  0.00     0.016 A 
ATOM     43  C   UNL A   1      45.882  23.355  26.056  1.00  0.00     0.010 A 
ATOM     44  C   UNL A   1      43.860  24.138  24.896  1.00  0.00     0.010 A 
ATOM     45  C   UNL A   1      44.880  24.298  25.834  1.00  0.00    -0.014 A 
BRANCH  45  46
ATOM     46  C   UNL A   1      44.783  25.376  26.788  1.00  0.00     0.031 A 
ATOM     47  C   UNL A   1      45.811  26.414  26.644  1.00  0.00     0.074 A 
ATOM     48  C   UNL A   1      43.726  25.424  27.622  1.00  0.00     0.049 A 
ATOM     49  N   UNL A   1      46.661  26.821  27.525  1.00  0.00    -0.248 NA
ATOM     50  C   UNL A   1      45.995  26.991  25.304  1.00  0.00     0.031 C 
ATOM     51  C   UNL A   1      42.511  24.597  27.589  1.00  0.00     0.029 A 
ATOM     52  N   UNL A   1      43.444  26.333  28.587  1.00  0.00    -0.354 N 
ATOM     53  C   UNL A   1      47.372  27.837  26.900  1.00  0.00     0.074 A 
ATOM     54  C   UNL A   1      47.056  27.769  25.499  1.00  0.00     0.031 C 
ATOM     55  C   UNL A   1      41.542  25.213  28.301  1.00  0.00     0.029 A 
ATOM     56  C   UNL A   1      42.098  26.412  28.904  1.00  0.00     0.049 A 
ATOM     57  H   UNL A   1      44.132  26.886  29.024  1.00  0.00     0.167 HD
ATOM     58  C   UNL A   1      47.952  28.831  27.619  1.00  0.00     0.037 A 
ATOM     59  C   UNL A   1      41.489  27.480  29.477  1.00  0.00     0.037 A 
ATOM     60  C   UNL A   1      48.173  28.439  28.987  1.00  0.00     0.049 A 
ATOM     61  C   UNL A   1      42.556  28.326  30.088  1.00  0.00     0.074 A 
ATOM     62  C   UNL A   1      48.837  27.382  29.584  1.00  0.00     0.029 A 
ATOM     63  N   UNL A   1      47.371  28.967  29.970  1.00  0.00    -0.354 N 
ATOM     64  N   UNL A   1      43.269  27.976  31.125  1.00  0.00    -0.248 NA
ATOM     65  C   UNL A   1      43.145  29.369  29.257  1.00  0.00     0.031 C 
ATOM     66  C   UNL A   1      48.041  27.029  30.712  1.00  0.00     0.029 A 
ATOM     67  C   UNL A   1      46.967  27.918  30.755  1.00  0.00     0.049 A 
ATOM     68  H   UNL A   1      47.133  29.916  30.088  1.00  0.00     0.167 HD
ATOM     69  C   UNL A   1      44.549  28.445  30.856  1.00  0.00     0.074 A 
ATOM     70  C   UNL A   1      44.392  29.366  29.735  1.00  0.00     0.031 C 
ATOM     71  C   UNL A   1      45.659  27.829  31.361  1.00  0.00     0.037 A 
BRANCH  58  72
ATOM     72  C   UNL A   1      47.975  30.262  27.152  1.00  0.00     0.064 A 
ATOM     73  C   UNL A   1      49.176  30.986  27.234  1.00  0.00     0.173 A 
ATOM     74  C   UNL A   1      46.816  31.030  26.892  1.00  0.00     0.173 A 
ATOM     75  F   UNL A   1      50.331  30.361  27.508  1.00  0.00    -0.203 F 
ATOM     76  C   UNL A   1      49.203  32.378  27.131  1.00  0.00     0.198 A 
ATOM     77  C   UNL A   1      46.856  32.410  26.724  1.00  0.00     0.198 A 
ATOM     78  F   UNL A   1      45.585  30.502  26.903  1.00  0.00    -0.203 F 
ATOM     79  F   UNL A   1      50.350  33.036  27.348  1.00  0.00    -0.200 F 
ATOM     80  C   UNL A   1      48.044  33.089  26.878  1.00  0.00     0.200 A 
ATOM     81  F   UNL A   1      45.717  33.080  26.496  1.00  0.00    -0.200 F 
ATOM     82  F   UNL A   1      48.060  34.427  26.835  1.00  0.00    -0.200 F 
ENDBRANCH  58  72
BRANCH  59  83
ATOM     83  C   UNL A   1      40.120  27.976  29.186  1.00  0.00     0.064 A 
ATOM     84  C   UNL A   1      39.143  28.039  30.191  1.00  0.00     0.173 A 
ATOM     85  C   UNL A   1      39.792  28.606  27.964  1.00  0.00     0.173 A 
ATOM     86  F   UNL A   1      39.392  27.527  31.404  1.00  0.00    -0.203 F 
ATOM     87  C   UNL A   1      37.915  28.681  29.983  1.00  0.00     0.198 A 
ATOM     88  C   UNL A   1      38.561  29.224  27.751  1.00  0.00     0.198 A 
ATOM     89  F   UNL A   1      40.691  28.718  26.976  1.00  0.00    -0.203 F 
ATOM     90  F   UNL A   1      37.028  28.765  30.984  1.00  0.00    -0.200 F 
ATOM     91  C   UNL A   1      37.624  29.269  28.763  1.00  0.00     0.200 A 
ATOM     92  F   UNL A   1      38.313  29.822  26.576  1.00  0.00    -0.200 F 
ATOM     93  F   UNL A   1      36.465  29.914  28.576  1.00  0.00    -0.200 F 
ENDBRANCH  59  83
BRANCH  71  94
ATOM     94  C   UNL A   1      45.480  26.775  32.416  1.00  0.00     0.064 A 
ATOM     95  C   UNL A   1      45.408  27.060  33.791  1.00  0.00     0.173 A 
ATOM     96  C   UNL A   1      45.188  25.464  32.015  1.00  0.00     0.173 A 
ATOM     97  F   UNL A   1      45.555  28.310  34.244  1.00  0.00    -0.203 F 
ATOM     98  C   UNL A   1      45.107  26.067  34.721  1.00  0.00     0.198 A 
ATOM     99  C   UNL A   1      44.851  24.482  32.943  1.00  0.00     0.198 A 
ATOM    100  F   UNL A   1      45.176  25.147  30.710  1.00  0.00    -0.203 F 
ATOM    101  F   UNL A   1      45.055  26.365  36.027  1.00  0.00    -0.200 F 
ATOM    102  C   UNL A   1      44.821  24.781  34.295  1.00  0.00     0.200 A 
ATOM    103  F   UNL A   1      44.520  23.253  32.523  1.00  0.00    -0.200 F 
ATOM    104  F   UNL A   1      44.485  23.837  35.186  1.00  0.00    -0.200 F 
ENDBRANCH  71  94
ENDBRANCH  45  46
ENDBRANCH  38  40
ENDBRANCH  37  38
ENDBRANCH  36  37
ENDBRANCH  35  36
ENDBRANCH  34  35
ENDBRANCH  33  34
ENDBRANCH   1  33
TORSDOF 20
ENDMDL
MODEL 2
REMARK VINA RESULT:     -12.1      1.520      3.898
REMARK SMILES C[C@@H]1CCc2c(C(=O)NNC(=O)[C@@H]3[C@@H]4CC[C@@H](C4)[C@@H]3C(=O)OCCOCCOCCOC(=O)c3ccc(-c4c5nc(c(-c6c(F)c(F)c(F)c(F)c6F)c6ccc([nH]6)c(-c6c(F)c(F)c(F)c(F)c6F)c6nc(c(-c7c(F)c(F)c(F)c(F)c7F)c7ccc4[nH]7)C=C6)C=C5)cc3)csc2C1
REMARK SMILES IDX 26 1 25 2 24 3 23 4 22 5 20 6 21 7 19 8 13 9 14 10 15 11
REMARK SMILES IDX 18 12 17 13 16 14 11 15 10 16 12 18 9 19 7 20 8 21 6 23 1 24
REMARK SMILES IDX 2 25 3 26 100 27 4 28 99 29 5 30 98 31 97 32 27 33 28 34
REMARK SMILES IDX 29 35 30 36 31 37 32 38 33 39 34 40 35 41 96 42 36 43 95 44
REMARK SMILES IDX 37 45 38 46 39 47 89 48 40 49 94 50 88 51 90 52 41 53 93 54
REMARK SMILES IDX 87 55 86 56 42 58 74 59 54 60 73 61 55 62 58 63 72 64 91 65
REMARK SMILES IDX 56 66 57 67 71 69 92 70 59 71 43 72 44 73 52 74 45 75 46 76
REMARK SMILES IDX 50 77 53 78 47 79 48 80 51 81 49 82 75 83 76 84 84 85 77 86
REMARK SMILES IDX 78 87 82 88 85 89 79 90 80 91 83 92 81 93 60 94 61 95 69 96
REMARK SMILES IDX 62 97 63 98 67 99 70 100 64 101 65 102 68 103 66 104
REMARK H PARENT 10 17 9 22 90 57 58 68
REMARK Flexibility Score: inf
ROOT
ATOM      1  C   UNL A   1      37.228  22.440  25.548  1.00  0.00     0.188 C 
ENDROOT
BRANCH   1   2
ATOM      2  O   UNL A   1      36.440  22.158  24.402  1.00  0.00    -0.376 OA
BRANCH   2   3
ATOM      3  C   UNL A   1      36.212  23.286  23.557  1.00  0.00     0.202 C 
BRANCH   3   4
ATOM      4  C   UNL A   1      35.020  24.181  23.945  1.00  0.00     0.261 C 
BRANCH   4   5
ATOM      5  O   UNL A   1      34.383  24.840  22.837  1.00  0.00    -0.463 OA
BRANCH   5   6
ATOM      6  C   UNL A   1      33.307  25.634  23.067  1.00  0.00     0.310 C 
ATOM      7  O   UNL A   1      32.546  26.070  22.215  1.00  0.00    -0.252 OA
BRANCH   6   8
ATOM      8  C   UNL A   1      33.165  25.854  24.563  1.00  0.00     0.115 C 
ATOM      9  C   UNL A   1      31.740  25.785  25.131  1.00  0.00     0.098 C 
ATOM     10  C   UNL A   1      31.573  27.166  25.797  1.00  0.00     0.003 C 
ATOM     11  C   UNL A   1      31.647  28.343  24.803  1.00  0.00     0.005 C 
ATOM     12  C   UNL A   1      32.953  27.286  26.462  1.00  0.00     0.009 C 
ATOM     13  C   UNL A   1      33.706  27.185  25.125  1.00  0.00     0.004 C 
ATOM     14  C   UNL A   1      33.116  28.374  24.373  1.00  0.00     0.005 C 
BRANCH   9  15
ATOM     15  C   UNL A   1      30.621  25.178  24.300  1.00  0.00     0.242 C 
ATOM     16  N   UNL A   1      30.594  23.808  24.201  1.00  0.00    -0.267 N 
ATOM     17  H   UNL A   1      30.237  23.243  24.925  1.00  0.00     0.191 HD
ATOM     18  O   UNL A   1      29.878  25.904  23.638  1.00  0.00    -0.273 OA
BRANCH  16  19
ATOM     19  N   UNL A   1      31.099  23.259  23.026  1.00  0.00    -0.263 N 
ATOM     20  C   UNL A   1      32.106  22.330  22.916  1.00  0.00     0.270 C 
ATOM     21  O   UNL A   1      32.726  22.325  21.848  1.00  0.00    -0.267 OA
ATOM     22  H   UNL A   1      30.692  23.570  22.184  1.00  0.00     0.191 HD
BRANCH  20  23
ATOM     23  C   UNL A   1      32.454  21.391  23.994  1.00  0.00     0.055 A 
ATOM     24  C   UNL A   1      33.044  15.685  24.926  1.00  0.00     0.008 C 
ATOM     25  C   UNL A   1      32.607  17.128  24.694  1.00  0.00    -0.009 C 
ATOM     26  C   UNL A   1      32.833  17.545  23.229  1.00  0.00     0.008 C 
ATOM     27  C   UNL A   1      33.364  18.089  25.628  1.00  0.00     0.050 C 
ATOM     28  C   UNL A   1      32.268  18.946  22.950  1.00  0.00     0.038 C 
ATOM     29  C   UNL A   1      33.052  19.509  25.264  1.00  0.00     0.009 A 
ATOM     30  C   UNL A   1      32.571  19.944  24.036  1.00  0.00    -0.021 A 
ATOM     31  S   UNL A   1      33.331  20.768  26.363  1.00  0.00    -0.148 S 
ATOM     32  C   UNL A   1      32.841  21.926  25.219  1.00  0.00     0.079 A 
ENDBRANCH  20  23
ENDBRANCH  16  19
ENDBRANCH   9  15
ENDBRANCH   6   8
ENDBRANCH   5   6
ENDBRANCH   4   5
ENDBRANCH   3   4
ENDBRANCH   2   3
ENDBRANCH   1   2
BRANCH   1  33
ATOM     33  C   UNL A   1      38.486  21.561  25.693  1.00  0.00     0.188 C 
BRANCH  33  34
ATOM     34  O   UNL A   1      39.734  22.090  26.130  1.00  0.00    -0.376 OA
BRANCH  34  35
ATOM     35  C   UNL A   1      40.469  21.482  27.191  1.00  0.00     0.202 C 
BRANCH  35  36
ATOM     36  C   UNL A   1      41.775  20.740  26.903  1.00  0.00     0.261 C 
BRANCH  36  37
ATOM     37  O   UNL A   1      42.204  20.907  25.566  1.00  0.00    -0.460 OA
BRANCH  37  38
ATOM     38  C   UNL A   1      43.515  20.686  25.398  1.00  0.00     0.338 C 
ATOM     39  O   UNL A   1      44.098  19.600  25.371  1.00  0.00    -0.246 OA
BRANCH  38  40
ATOM     40  C   UNL A   1      44.204  21.963  25.212  1.00  0.00     0.060 A 
ATOM     41  C   UNL A   1      45.371  22.134  25.961  1.00  0.00     0.016 A 
ATOM     42  C   UNL A   1      43.491  23.031  24.657  1.00  0.00     0.016 A 
ATOM     43  C   UNL A   1      45.589  23.369  26.504  1.00  0.00     0.010 A 
ATOM     44  C   UNL A   1      43.689  24.259  25.221  1.00  0.00     0.010 A 
ATOM     45  C   UNL A   1      44.637  24.352  26.241  1.00  0.00    -0.014 A 
BRANCH  45  46
ATOM     46  C   UNL A   1      44.500  25.400  27.222  1.00  0.00     0.031 A 
ATOM     47  C   UNL A   1      45.571  26.404  27.199  1.00  0.00     0.074 A 
ATOM     48  C   UNL A   1      43.380  25.459  27.970  1.00  0.00     0.049 A 
ATOM     49  N   UNL A   1      46.359  26.750  28.160  1.00  0.00    -0.248 NA
ATOM     50  C   UNL A   1      45.882  27.019  25.900  1.00  0.00     0.031 C 
ATOM     51  C   UNL A   1      42.145  24.679  27.810  1.00  0.00     0.029 A 
ATOM     52  N   UNL A   1      43.052  26.344  28.943  1.00  0.00    -0.354 N 
ATOM     53  C   UNL A   1      47.152  27.760  27.631  1.00  0.00     0.074 A 
ATOM     54  C   UNL A   1      46.949  27.751  26.208  1.00  0.00     0.031 C 
ATOM     55  C   UNL A   1      41.143  25.305  28.465  1.00  0.00     0.029 A 
ATOM     56  C   UNL A   1      41.688  26.462  29.153  1.00  0.00     0.049 A 
ATOM     57  H   UNL A   1      43.721  26.857  29.453  1.00  0.00     0.167 HD
ATOM     58  C   UNL A   1      47.705  28.707  28.430  1.00  0.00     0.037 A 
ATOM     59  C   UNL A   1      41.071  27.531  29.715  1.00  0.00     0.037 A 
ATOM     60  C   UNL A   1      47.801  28.262  29.796  1.00  0.00     0.049 A 
ATOM     61  C   UNL A   1      42.113  28.317  30.440  1.00  0.00     0.074 A 
ATOM     62  C   UNL A   1      48.379  27.161  30.405  1.00  0.00     0.029 A 
ATOM     63  N   UNL A   1      46.941  28.785  30.730  1.00  0.00    -0.354 N 
ATOM     64  N   UNL A   1      42.727  27.906  31.517  1.00  0.00    -0.248 NA
ATOM     65  C   UNL A   1      42.802  29.365  29.697  1.00  0.00     0.031 C 
ATOM     66  C   UNL A   1      47.483  26.800  31.452  1.00  0.00     0.029 A 
ATOM     67  C   UNL A   1      46.439  27.725  31.442  1.00  0.00     0.049 A 
ATOM     68  H   UNL A   1      46.726  29.737  30.863  1.00  0.00     0.167 HD
ATOM     69  C   UNL A   1      44.040  28.337  31.368  1.00  0.00     0.074 A 
ATOM     70  C   UNL A   1      44.005  29.300  30.273  1.00  0.00     0.031 C 
ATOM     71  C   UNL A   1      45.084  27.664  31.938  1.00  0.00     0.037 A 
BRANCH  58  72
ATOM     72  C   UNL A   1      47.814  30.151  28.019  1.00  0.00     0.064 A 
ATOM     73  C   UNL A   1      46.659  30.827  27.591  1.00  0.00     0.173 A 
ATOM     74  C   UNL A   1      49.038  30.813  27.764  1.00  0.00     0.173 A 
ATOM     75  F   UNL A   1      45.447  30.276  27.755  1.00  0.00    -0.203 F 
ATOM     76  C   UNL A   1      46.730  32.038  26.901  1.00  0.00     0.198 A 
ATOM     77  C   UNL A   1      49.101  32.052  27.134  1.00  0.00     0.198 A 
ATOM     78  F   UNL A   1      50.227  30.245  28.004  1.00  0.00    -0.203 F 
ATOM     79  F   UNL A   1      45.613  32.579  26.396  1.00  0.00    -0.200 F 
ATOM     80  C   UNL A   1      47.950  32.649  26.672  1.00  0.00     0.200 A 
ATOM     81  F   UNL A   1      50.296  32.617  26.908  1.00  0.00    -0.200 F 
ATOM     82  F   UNL A   1      48.024  33.781  25.961  1.00  0.00    -0.200 F 
ENDBRANCH  58  72
BRANCH  59  83
ATOM     83  C   UNL A   1      39.747  28.087  29.334  1.00  0.00     0.064 A 
ATOM     84  C   UNL A   1      38.717  28.216  30.277  1.00  0.00     0.173 A 
ATOM     85  C   UNL A   1      39.524  28.707  28.085  1.00  0.00     0.173 A 
ATOM     86  F   UNL A   1      38.868  27.717  31.511  1.00  0.00    -0.203 F 
ATOM     87  C   UNL A   1      37.536  28.911  29.985  1.00  0.00     0.198 A 
ATOM     88  C   UNL A   1      38.339  29.379  27.787  1.00  0.00     0.198 A 
ATOM     89  F   UNL A   1      40.484  28.757  27.151  1.00  0.00    -0.203 F 
ATOM     90  F   UNL A   1      36.597  29.058  30.930  1.00  0.00    -0.200 F 
ATOM     91  C   UNL A   1      37.348  29.489  28.740  1.00  0.00     0.200 A 
ATOM     92  F   UNL A   1      38.191  29.966  26.590  1.00  0.00    -0.200 F 
ATOM     93  F   UNL A   1      36.234  30.186  28.473  1.00  0.00    -0.200 F 
ENDBRANCH  59  83
BRANCH  71  94
ATOM     94  C   UNL A   1      44.784  26.583  32.936  1.00  0.00     0.064 A 
ATOM     95  C   UNL A   1      44.560  26.829  34.302  1.00  0.00     0.173 A 
ATOM     96  C   UNL A   1      44.535  25.285  32.468  1.00  0.00     0.173 A 
ATOM     97  F   UNL A   1      44.659  28.066  34.803  1.00  0.00    -0.203 F 
ATOM     98  C   UNL A   1      44.154  25.813  35.164  1.00  0.00     0.198 A 
ATOM     99  C   UNL A   1      44.093  24.280  33.324  1.00  0.00     0.198 A 
ATOM    100  F   UNL A   1      44.669  25.004  31.161  1.00  0.00    -0.203 F 
ATOM    101  F   UNL A   1      43.956  26.075  36.464  1.00  0.00    -0.200 F 
ATOM    102  C   UNL A   1      43.914  24.541  34.672  1.00  0.00     0.200 A 
ATOM    103  F   UNL A   1      43.808  23.065  32.835  1.00  0.00    -0.200 F 
ATOM    104  F   UNL A   1      43.476  23.575  35.493  1.00  0.00    -0.200 F 
ENDBRANCH  71  94
ENDBRANCH  45  46
ENDBRANCH  38  40
ENDBRANCH  37  38
ENDBRANCH  36  37
ENDBRANCH  35  36
ENDBRANCH  34  35
ENDBRANCH  33  34
ENDBRANCH   1  33
TORSDOF 20
ENDMDL
MODEL 3
REMARK VINA RESULT:     -12.0      4.443      6.467
REMARK SMILES C[C@@H]1CCc2c(C(=O)NNC(=O)[C@@H]3[C@@H]4CC[C@@H](C4)[C@@H]3C(=O)OCCOCCOCCOC(=O)c3ccc(-c4c5nc(c(-c6c(F)c(F)c(F)c(F)c6F)c6ccc([nH]6)c(-c6c(F)c(F)c(F)c(F)c6F)c6nc(c(-c7c(F)c(F)c(F)c(F)c7F)c7ccc4[nH]7)C=C6)C=C5)cc3)csc2C1
REMARK SMILES IDX 26 1 25 2 24 3 23 4 22 5 20 6 21 7 19 8 13 9 14 10 15 11
REMARK SMILES IDX 18 12 17 13 16 14 11 15 10 16 12 18 9 19 7 20 8 21 6 23 1 24
REMARK SMILES IDX 2 25 3 26 100 27 4 28 99 29 5 30 98 31 97 32 27 33 28 34
REMARK SMILES IDX 29 35 30 36 31 37 32 38 33 39 34 40 35 41 96 42 36 43 95 44
REMARK SMILES IDX 37 45 38 46 39 47 89 48 40 49 94 50 88 51 90 52 41 53 93 54
REMARK SMILES IDX 87 55 86 56 42 58 74 59 54 60 73 61 55 62 58 63 72 64 91 65
REMARK SMILES IDX 56 66 57 67 71 69 92 70 59 71 43 72 44 73 52 74 45 75 46 76
REMARK SMILES IDX 50 77 53 78 47 79 48 80 51 81 49 82 75 83 76 84 84 85 77 86
REMARK SMILES IDX 78 87 82 88 85 89 79 90 80 91 83 92 81 93 60 94 61 95 69 96
REMARK SMILES IDX 62 97 63 98 67 99 70 100 64 101 65 102 68 103 66 104
REMARK H PARENT 10 17 9 22 90 57 58 68
REMARK Flexibility Score: inf
ROOT
ATOM      1  C   UNL A   1      39.526  22.442  26.577  1.00  0.00     0.188 C 
ENDROOT
BRANCH   1   2
ATOM      2  O   UNL A   1      38.540  21.745  25.830  1.00  0.00    -0.376 OA
BRANCH   2   3
ATOM      3  C   UNL A   1      37.633  22.592  25.124  1.00  0.00     0.202 C 
BRANCH   3   4
ATOM      4  C   UNL A   1      37.061  22.013  23.817  1.00  0.00     0.261 C 
BRANCH   4   5
ATOM      5  O   UNL A   1      35.930  22.731  23.293  1.00  0.00    -0.463 OA
BRANCH   5   6
ATOM      6  C   UNL A   1      34.906  23.054  24.124  1.00  0.00     0.310 C 
ATOM      7  O   UNL A   1      34.729  24.146  24.644  1.00  0.00    -0.252 OA
BRANCH   6   8
ATOM      8  C   UNL A   1      33.984  21.857  24.264  1.00  0.00     0.115 C 
ATOM      9  C   UNL A   1      32.482  22.160  24.364  1.00  0.00     0.098 C 
ATOM     10  C   UNL A   1      32.094  21.511  25.709  1.00  0.00     0.003 C 
ATOM     11  C   UNL A   1      32.802  22.141  26.925  1.00  0.00     0.005 C 
ATOM     12  C   UNL A   1      32.885  20.199  25.585  1.00  0.00     0.009 C 
ATOM     13  C   UNL A   1      34.237  20.920  25.464  1.00  0.00     0.004 C 
ATOM     14  C   UNL A   1      34.262  21.705  26.772  1.00  0.00     0.005 C 
BRANCH   9  15
ATOM     15  C   UNL A   1      31.959  23.534  23.980  1.00  0.00     0.242 C 
ATOM     16  N   UNL A   1      31.754  23.768  22.642  1.00  0.00    -0.267 N 
ATOM     17  H   UNL A   1      30.953  23.436  22.174  1.00  0.00     0.191 HD
ATOM     18  O   UNL A   1      31.873  24.423  24.829  1.00  0.00    -0.273 OA
BRANCH  16  19
ATOM     19  N   UNL A   1      32.737  24.500  21.982  1.00  0.00    -0.263 N 
ATOM     20  C   UNL A   1      32.748  25.858  21.765  1.00  0.00     0.270 C 
ATOM     21  O   UNL A   1      33.405  26.247  20.795  1.00  0.00    -0.267 OA
ATOM     22  H   UNL A   1      33.506  23.992  21.634  1.00  0.00     0.191 HD
BRANCH  20  23
ATOM     23  C   UNL A   1      32.022  26.812  22.616  1.00  0.00     0.055 A 
ATOM     24  C   UNL A   1      32.849  30.127  27.318  1.00  0.00     0.008 C 
ATOM     25  C   UNL A   1      32.614  29.042  26.273  1.00  0.00    -0.009 C 
ATOM     26  C   UNL A   1      33.906  28.739  25.490  1.00  0.00     0.008 C 
ATOM     27  C   UNL A   1      31.500  29.451  25.294  1.00  0.00     0.050 C 
ATOM     28  C   UNL A   1      33.719  27.552  24.533  1.00  0.00     0.038 C 
ATOM     29  C   UNL A   1      31.408  28.456  24.176  1.00  0.00     0.009 A 
ATOM     30  C   UNL A   1      32.414  27.585  23.782  1.00  0.00    -0.021 A 
ATOM     31  S   UNL A   1      30.012  28.351  23.221  1.00  0.00    -0.148 S 
ATOM     32  C   UNL A   1      30.727  27.159  22.243  1.00  0.00     0.079 A 
ENDBRANCH  20  23
ENDBRANCH  16  19
ENDBRANCH   9  15
ENDBRANCH   6   8
ENDBRANCH   5   6
ENDBRANCH   4   5
ENDBRANCH   3   4
ENDBRANCH   2   3
ENDBRANCH   1   2
BRANCH   1  33
ATOM     33  C   UNL A   1      40.933  21.816  26.523  1.00  0.00     0.188 C 
BRANCH  33  34
ATOM     34  O   UNL A   1      42.036  22.364  27.238  1.00  0.00    -0.376 OA
BRANCH  34  35
ATOM     35  C   UNL A   1      42.939  23.282  26.625  1.00  0.00     0.202 C 
BRANCH  35  36
ATOM     36  C   UNL A   1      42.558  24.754  26.465  1.00  0.00     0.261 C 
BRANCH  36  37
ATOM     37  O   UNL A   1      41.851  25.251  27.585  1.00  0.00    -0.460 OA
BRANCH  37  38
ATOM     38  C   UNL A   1      40.970  26.212  27.273  1.00  0.00     0.338 C 
ATOM     39  O   UNL A   1      40.781  26.730  26.170  1.00  0.00    -0.246 OA
BRANCH  38  40
ATOM     40  C   UNL A   1      40.201  26.571  28.464  1.00  0.00     0.060 A 
ATOM     41  C   UNL A   1      38.985  27.217  28.224  1.00  0.00     0.016 A 
ATOM     42  C   UNL A   1      40.862  26.622  29.695  1.00  0.00     0.016 A 
ATOM     43  C   UNL A   1      38.647  28.242  29.063  1.00  0.00     0.010 A 
ATOM     44  C   UNL A   1      40.544  27.664  30.519  1.00  0.00     0.010 A 
ATOM     45  C   UNL A   1      39.537  28.533  30.096  1.00  0.00    -0.014 A 
BRANCH  45  46
ATOM     46  C   UNL A   1      39.543  29.891  30.582  1.00  0.00     0.031 A 
ATOM     47  C   UNL A   1      40.812  30.604  30.389  1.00  0.00     0.074 A 
ATOM     48  C   UNL A   1      38.396  30.433  31.037  1.00  0.00     0.049 A 
ATOM     49  N   UNL A   1      41.555  31.162  31.284  1.00  0.00    -0.248 NA
ATOM     50  C   UNL A   1      41.388  30.589  29.037  1.00  0.00     0.031 C 
ATOM     51  C   UNL A   1      37.038  29.877  30.950  1.00  0.00     0.029 A 
ATOM     52  N   UNL A   1      38.181  31.673  31.539  1.00  0.00    -0.354 N 
ATOM     53  C   UNL A   1      42.609  31.726  30.577  1.00  0.00     0.074 A 
ATOM     54  C   UNL A   1      42.557  31.189  29.245  1.00  0.00     0.031 C 
ATOM     55  C   UNL A   1      36.145  30.874  31.133  1.00  0.00     0.029 A 
ATOM     56  C   UNL A   1      36.866  32.097  31.437  1.00  0.00     0.049 A 
ATOM     57  H   UNL A   1      38.894  32.223  31.939  1.00  0.00     0.167 HD
ATOM     58  C   UNL A   1      43.280  32.803  31.060  1.00  0.00     0.037 A 
ATOM     59  C   UNL A   1      36.457  33.389  31.444  1.00  0.00     0.037 A 
ATOM     60  C   UNL A   1      43.130  32.927  32.487  1.00  0.00     0.049 A 
ATOM     61  C   UNL A   1      37.570  34.207  32.009  1.00  0.00     0.074 A 
ATOM     62  C   UNL A   1      43.374  32.078  33.552  1.00  0.00     0.029 A 
ATOM     63  N   UNL A   1      42.321  33.917  32.989  1.00  0.00    -0.354 N 
ATOM     64  N   UNL A   1      37.960  34.159  33.255  1.00  0.00    -0.248 NA
ATOM     65  C   UNL A   1      38.555  34.740  31.074  1.00  0.00     0.031 C 
ATOM     66  C   UNL A   1      42.316  32.321  34.474  1.00  0.00     0.029 A 
ATOM     67  C   UNL A   1      41.519  33.331  33.934  1.00  0.00     0.049 A 
ATOM     68  H   UNL A   1      42.317  34.866  32.722  1.00  0.00     0.167 HD
ATOM     69  C   UNL A   1      39.345  34.264  33.202  1.00  0.00     0.074 A 
ATOM     70  C   UNL A   1      39.645  34.704  31.844  1.00  0.00     0.031 C 
ATOM     71  C   UNL A   1      40.143  33.704  34.160  1.00  0.00     0.037 A 
BRANCH  58  72
ATOM     72  C   UNL A   1      43.759  33.924  30.176  1.00  0.00     0.064 A 
ATOM     73  C   UNL A   1      45.088  34.363  30.293  1.00  0.00     0.173 A 
ATOM     74  C   UNL A   1      42.902  34.762  29.424  1.00  0.00     0.173 A 
ATOM     75  F   UNL A   1      45.977  33.660  31.010  1.00  0.00    -0.203 F 
ATOM     76  C   UNL A   1      45.508  35.581  29.757  1.00  0.00     0.198 A 
ATOM     77  C   UNL A   1      43.341  35.943  28.835  1.00  0.00     0.198 A 
ATOM     78  F   UNL A   1      41.585  34.540  29.323  1.00  0.00    -0.203 F 
ATOM     79  F   UNL A   1      46.749  36.022  30.006  1.00  0.00    -0.200 F 
ATOM     80  C   UNL A   1      44.635  36.370  29.029  1.00  0.00     0.200 A 
ATOM     81  F   UNL A   1      42.473  36.700  28.149  1.00  0.00    -0.200 F 
ATOM     82  F   UNL A   1      45.022  37.565  28.563  1.00  0.00    -0.200 F 
ENDBRANCH  58  72
BRANCH  59  83
ATOM     83  C   UNL A   1      35.342  33.966  30.649  1.00  0.00     0.064 A 
ATOM     84  C   UNL A   1      34.254  34.592  31.275  1.00  0.00     0.173 A 
ATOM     85  C   UNL A   1      35.416  34.111  29.246  1.00  0.00     0.173 A 
ATOM     86  F   UNL A   1      34.138  34.565  32.610  1.00  0.00    -0.203 F 
ATOM     87  C   UNL A   1      33.297  35.307  30.543  1.00  0.00     0.198 A 
ATOM     88  C   UNL A   1      34.450  34.803  28.516  1.00  0.00     0.198 A 
ATOM     89  F   UNL A   1      36.473  33.663  28.555  1.00  0.00    -0.203 F 
ATOM     90  F   UNL A   1      32.300  35.936  31.183  1.00  0.00    -0.200 F 
ATOM     91  C   UNL A   1      33.394  35.409  29.166  1.00  0.00     0.200 A 
ATOM     92  F   UNL A   1      34.582  34.924  27.187  1.00  0.00    -0.200 F 
ATOM     93  F   UNL A   1      32.499  36.124  28.470  1.00  0.00    -0.200 F 
ENDBRANCH  59  83
BRANCH  71  94
ATOM     94  C   UNL A   1      39.502  33.177  35.411  1.00  0.00     0.064 A 
ATOM     95  C   UNL A   1      39.194  33.981  36.523  1.00  0.00     0.173 A 
ATOM     96  C   UNL A   1      39.018  31.861  35.417  1.00  0.00     0.173 A 
ATOM     97  F   UNL A   1      39.514  35.280  36.542  1.00  0.00    -0.203 F 
ATOM     98  C   UNL A   1      38.479  33.476  37.607  1.00  0.00     0.198 A 
ATOM     99  C   UNL A   1      38.272  31.369  36.485  1.00  0.00     0.198 A 
ATOM    100  F   UNL A   1      39.224  31.064  34.356  1.00  0.00    -0.203 F 
ATOM    101  F   UNL A   1      38.207  34.263  38.657  1.00  0.00    -0.200 F 
ATOM    102  C   UNL A   1      38.012  32.172  37.583  1.00  0.00     0.200 A 
ATOM    103  F   UNL A   1      37.774  30.125  36.434  1.00  0.00    -0.200 F 
ATOM    104  F   UNL A   1      37.283  31.701  38.605  1.00  0.00    -0.200 F 
ENDBRANCH  71  94
ENDBRANCH  45  46
ENDBRANCH  38  40
ENDBRANCH  37  38
ENDBRANCH  36  37
ENDBRANCH  35  36
ENDBRANCH  34  35
ENDBRANCH  33  34
ENDBRANCH   1  33
TORSDOF 20
ENDMDL
