MODEL 1
REMARK VINA RESULT:     -11.1      0.000      0.000
REMARK SMILES Cc1nsc(NC(=O)N2CCC[C@@H](C)C2)c1C(=O)OCCOCCOCCOC(=O)c1ccc(-c2c3nc(c(-c4c(F)c(F)c(F)c(F)c4F)c4ccc([nH]4)c(-c4c(F)c(F)c(F)c(F)c4F)c4nc(c(-c5c(F)c(F)c(F)c(F)c5F)c5ccc2[nH]5)C=C4)C=C3)cc1
REMARK SMILES IDX 23 1 22 2 21 3 20 4 19 5 17 6 18 7 16 8 1 9 2 10 3 11 4 12
REMARK SMILES IDX 5 13 6 14 7 15 8 17 9 18 10 19 15 20 11 21 13 22 12 23 14 24
REMARK SMILES IDX 24 25 25 26 26 27 27 28 28 29 29 30 30 31 31 32 32 33 93 34
REMARK SMILES IDX 33 35 92 36 34 37 35 38 36 39 86 40 37 41 91 42 85 43 87 44
REMARK SMILES IDX 38 45 90 46 84 47 83 48 39 50 71 51 51 52 70 53 52 54 55 55
REMARK SMILES IDX 69 56 88 57 53 58 54 59 68 61 89 62 56 63 40 64 41 65 49 66
REMARK SMILES IDX 42 67 43 68 47 69 50 70 44 71 45 72 48 73 46 74 72 75 73 76
REMARK SMILES IDX 81 77 74 78 75 79 79 80 82 81 76 82 77 83 80 84 78 85 57 86
REMARK SMILES IDX 58 87 66 88 59 89 60 90 64 91 67 92 61 93 62 94 65 95 63 96
REMARK H PARENT 6 16 87 49 55 60
REMARK Flexibility Score: inf
ROOT
ATOM      1  C   UNL A   1      38.135  22.018  25.603  1.00  0.00     0.188 C 
ENDROOT
BRANCH   1   2
ATOM      2  O   UNL A   1      37.231  23.087  25.355  1.00  0.00    -0.376 OA
BRANCH   2   3
ATOM      3  C   UNL A   1      36.047  23.198  26.142  1.00  0.00     0.202 C 
BRANCH   3   4
ATOM      4  C   UNL A   1      34.896  24.089  25.637  1.00  0.00     0.261 C 
BRANCH   4   5
ATOM      5  O   UNL A   1      33.833  24.275  26.593  1.00  0.00    -0.460 OA
BRANCH   5   6
ATOM      6  C   UNL A   1      32.882  23.300  26.668  1.00  0.00     0.343 C 
ATOM      7  O   UNL A   1      32.541  22.746  27.708  1.00  0.00    -0.246 OA
BRANCH   6   8
ATOM      8  C   UNL A   1      32.124  23.172  25.431  1.00  0.00     0.117 A 
ATOM      9  C   UNL A   1      33.295  21.107  24.277  1.00  0.00     0.069 C 
ATOM     10  C   UNL A   1      32.338  22.247  24.335  1.00  0.00     0.068 A 
ATOM     11  N   UNL A   1      31.634  22.489  23.228  1.00  0.00    -0.195 NA
ATOM     12  S   UNL A   1      30.801  23.892  23.423  1.00  0.00    -0.017 S 
ATOM     13  C   UNL A   1      31.159  24.109  25.068  1.00  0.00     0.132 A 
BRANCH  13  14
ATOM     14  N   UNL A   1      30.702  25.197  25.802  1.00  0.00    -0.297 N 
ATOM     15  C   UNL A   1      31.271  26.428  25.939  1.00  0.00     0.322 C 
ATOM     16  H   UNL A   1      29.855  25.061  26.285  1.00  0.00     0.172 HD
ATOM     17  O   UNL A   1      31.305  26.923  27.069  1.00  0.00    -0.248 OA
BRANCH  15  18
ATOM     18  N   UNL A   1      31.757  27.089  24.837  1.00  0.00    -0.324 N 
ATOM     19  C   UNL A   1      33.144  26.988  24.386  1.00  0.00     0.121 C 
ATOM     20  C   UNL A   1      30.813  27.540  23.821  1.00  0.00     0.124 C 
ATOM     21  C   UNL A   1      33.645  28.289  23.756  1.00  0.00     0.022 C 
ATOM     22  C   UNL A   1      31.220  28.930  23.324  1.00  0.00     0.005 C 
ATOM     23  C   UNL A   1      32.651  28.895  22.765  1.00  0.00     0.007 C 
ATOM     24  C   UNL A   1      30.241  29.450  22.277  1.00  0.00     0.009 C 
ENDBRANCH  15  18
ENDBRANCH  13  14
ENDBRANCH   6   8
ENDBRANCH   5   6
ENDBRANCH   4   5
ENDBRANCH   3   4
ENDBRANCH   2   3
ENDBRANCH   1   2
BRANCH   1  25
ATOM     25  C   UNL A   1      39.366  22.244  26.503  1.00  0.00     0.188 C 
BRANCH  25  26
ATOM     26  O   UNL A   1      40.523  21.518  26.122  1.00  0.00    -0.376 OA
BRANCH  26  27
ATOM     27  C   UNL A   1      41.009  20.572  27.064  1.00  0.00     0.202 C 
BRANCH  27  28
ATOM     28  C   UNL A   1      42.282  19.833  26.651  1.00  0.00     0.261 C 
BRANCH  28  29
ATOM     29  O   UNL A   1      42.673  20.055  25.304  1.00  0.00    -0.460 OA
BRANCH  29  30
ATOM     30  C   UNL A   1      43.999  20.070  25.065  1.00  0.00     0.338 C 
ATOM     31  O   UNL A   1      44.736  19.107  24.946  1.00  0.00    -0.246 OA
BRANCH  30  32
ATOM     32  C   UNL A   1      44.440  21.471  25.034  1.00  0.00     0.060 A 
ATOM     33  C   UNL A   1      45.577  21.799  25.775  1.00  0.00     0.016 A 
ATOM     34  C   UNL A   1      43.552  22.445  24.555  1.00  0.00     0.016 A 
ATOM     35  C   UNL A   1      45.675  23.079  26.273  1.00  0.00     0.010 A 
ATOM     36  C   UNL A   1      43.633  23.712  25.075  1.00  0.00     0.010 A 
ATOM     37  C   UNL A   1      44.631  23.971  26.011  1.00  0.00    -0.014 A 
BRANCH  37  38
ATOM     38  C   UNL A   1      44.510  25.130  26.866  1.00  0.00     0.031 A 
ATOM     39  C   UNL A   1      45.547  26.166  26.715  1.00  0.00     0.074 A 
ATOM     40  C   UNL A   1      43.424  25.287  27.647  1.00  0.00     0.049 A 
ATOM     41  N   UNL A   1      46.325  26.648  27.626  1.00  0.00    -0.248 NA
ATOM     42  C   UNL A   1      45.787  26.693  25.364  1.00  0.00     0.031 C 
ATOM     43  C   UNL A   1      42.184  24.504  27.638  1.00  0.00     0.029 A 
ATOM     44  N   UNL A   1      43.155  26.283  28.530  1.00  0.00    -0.354 N 
ATOM     45  C   UNL A   1      47.059  27.647  26.998  1.00  0.00     0.074 A 
ATOM     46  C   UNL A   1      46.779  27.551  25.589  1.00  0.00     0.031 C 
ATOM     47  C   UNL A   1      41.227  25.192  28.300  1.00  0.00     0.029 A 
ATOM     48  C   UNL A   1      41.814  26.400  28.856  1.00  0.00     0.049 A 
ATOM     49  H   UNL A   1      43.851  26.871  28.905  1.00  0.00     0.167 HD
ATOM     50  C   UNL A   1      47.688  28.621  27.706  1.00  0.00     0.037 A 
ATOM     51  C   UNL A   1      41.228  27.474  29.436  1.00  0.00     0.037 A 
ATOM     52  C   UNL A   1      47.895  28.252  29.079  1.00  0.00     0.049 A 
ATOM     53  C   UNL A   1      42.302  28.288  30.069  1.00  0.00     0.074 A 
ATOM     54  C   UNL A   1      48.534  27.194  29.701  1.00  0.00     0.029 A 
ATOM     55  N   UNL A   1      47.112  28.826  30.051  1.00  0.00    -0.354 N 
ATOM     56  N   UNL A   1      42.977  27.927  31.126  1.00  0.00    -0.248 NA
ATOM     57  C   UNL A   1      42.926  29.328  29.259  1.00  0.00     0.031 C 
ATOM     58  C   UNL A   1      47.731  26.891  30.839  1.00  0.00     0.029 A 
ATOM     59  C   UNL A   1      46.674  27.801  30.851  1.00  0.00     0.049 A 
ATOM     60  H   UNL A   1      46.906  29.783  30.152  1.00  0.00     0.167 HD
ATOM     61  C   UNL A   1      44.269  28.379  30.895  1.00  0.00     0.074 A 
ATOM     62  C   UNL A   1      44.155  29.315  29.783  1.00  0.00     0.031 C 
ATOM     63  C   UNL A   1      45.353  27.742  31.427  1.00  0.00     0.037 A 
BRANCH  50  64
ATOM     64  C   UNL A   1      47.836  30.028  27.204  1.00  0.00     0.064 A 
ATOM     65  C   UNL A   1      49.091  30.658  27.251  1.00  0.00     0.173 A 
ATOM     66  C   UNL A   1      46.733  30.868  26.931  1.00  0.00     0.173 A 
ATOM     67  F   UNL A   1      50.195  29.956  27.548  1.00  0.00    -0.203 F 
ATOM     68  C   UNL A   1      49.227  32.036  27.076  1.00  0.00     0.198 A 
ATOM     69  C   UNL A   1      46.879  32.232  26.696  1.00  0.00     0.198 A 
ATOM     70  F   UNL A   1      45.472  30.422  26.991  1.00  0.00    -0.203 F 
ATOM     71  F   UNL A   1      50.424  32.612  27.242  1.00  0.00    -0.200 F 
ATOM     72  C   UNL A   1      48.122  32.822  26.797  1.00  0.00     0.200 A 
ATOM     73  F   UNL A   1      45.793  32.978  26.451  1.00  0.00    -0.200 F 
ATOM     74  F   UNL A   1      48.243  34.149  26.677  1.00  0.00    -0.200 F 
ENDBRANCH  50  64
BRANCH  51  75
ATOM     75  C   UNL A   1      39.854  27.986  29.216  1.00  0.00     0.064 A 
ATOM     76  C   UNL A   1      38.934  28.068  30.273  1.00  0.00     0.173 A 
ATOM     77  C   UNL A   1      39.480  28.629  28.017  1.00  0.00     0.173 A 
ATOM     78  F   UNL A   1      39.231  27.536  31.468  1.00  0.00    -0.203 F 
ATOM     79  C   UNL A   1      37.721  28.752  30.141  1.00  0.00     0.198 A 
ATOM     80  C   UNL A   1      38.262  29.293  27.879  1.00  0.00     0.198 A 
ATOM     81  F   UNL A   1      40.324  28.707  26.979  1.00  0.00    -0.203 F 
ATOM     82  F   UNL A   1      36.896  28.859  31.191  1.00  0.00    -0.200 F 
ATOM     83  C   UNL A   1      37.386  29.365  28.944  1.00  0.00     0.200 A 
ATOM     84  F   UNL A   1      37.969  29.911  26.726  1.00  0.00    -0.200 F 
ATOM     85  F   UNL A   1      36.245  30.058  28.831  1.00  0.00    -0.200 F 
ENDBRANCH  51  75
BRANCH  63  86
ATOM     86  C   UNL A   1      45.121  26.695  32.479  1.00  0.00     0.064 A 
ATOM     87  C   UNL A   1      44.830  25.352  32.186  1.00  0.00     0.173 A 
ATOM     88  C   UNL A   1      45.366  27.024  33.820  1.00  0.00     0.173 A 
ATOM     89  F   UNL A   1      44.698  24.934  30.921  1.00  0.00    -0.203 F 
ATOM     90  C   UNL A   1      44.737  24.396  33.195  1.00  0.00     0.198 A 
ATOM     91  C   UNL A   1      45.311  26.058  34.822  1.00  0.00     0.198 A 
ATOM     92  F   UNL A   1      45.713  28.277  34.154  1.00  0.00    -0.203 F 
ATOM     93  F   UNL A   1      44.445  23.123  32.889  1.00  0.00    -0.200 F 
ATOM     94  C   UNL A   1      44.984  24.748  34.511  1.00  0.00     0.200 A 
ATOM     95  F   UNL A   1      45.604  26.391  36.087  1.00  0.00    -0.200 F 
ATOM     96  F   UNL A   1      44.939  23.819  35.477  1.00  0.00    -0.200 F 
ENDBRANCH  63  86
ENDBRANCH  37  38
ENDBRANCH  30  32
ENDBRANCH  29  30
ENDBRANCH  28  29
ENDBRANCH  27  28
ENDBRANCH  26  27
ENDBRANCH  25  26
ENDBRANCH   1  25
TORSDOF 19
ENDMDL
MODEL 2
REMARK VINA RESULT:     -11.0      4.642      9.914
REMARK SMILES Cc1nsc(NC(=O)N2CCC[C@@H](C)C2)c1C(=O)OCCOCCOCCOC(=O)c1ccc(-c2c3nc(c(-c4c(F)c(F)c(F)c(F)c4F)c4ccc([nH]4)c(-c4c(F)c(F)c(F)c(F)c4F)c4nc(c(-c5c(F)c(F)c(F)c(F)c5F)c5ccc2[nH]5)C=C4)C=C3)cc1
REMARK SMILES IDX 23 1 22 2 21 3 20 4 19 5 17 6 18 7 16 8 1 9 2 10 3 11 4 12
REMARK SMILES IDX 5 13 6 14 7 15 8 17 9 18 10 19 15 20 11 21 13 22 12 23 14 24
REMARK SMILES IDX 24 25 25 26 26 27 27 28 28 29 29 30 30 31 31 32 32 33 93 34
REMARK SMILES IDX 33 35 92 36 34 37 35 38 36 39 86 40 37 41 91 42 85 43 87 44
REMARK SMILES IDX 38 45 90 46 84 47 83 48 39 50 71 51 51 52 70 53 52 54 55 55
REMARK SMILES IDX 69 56 88 57 53 58 54 59 68 61 89 62 56 63 40 64 41 65 49 66
REMARK SMILES IDX 42 67 43 68 47 69 50 70 44 71 45 72 48 73 46 74 72 75 73 76
REMARK SMILES IDX 81 77 74 78 75 79 79 80 82 81 76 82 77 83 80 84 78 85 57 86
REMARK SMILES IDX 58 87 66 88 59 89 60 90 64 91 67 92 61 93 62 94 65 95 63 96
REMARK H PARENT 6 16 87 49 55 60
REMARK Flexibility Score: inf
ROOT
ATOM      1  C   UNL A   1      34.413  32.186  28.113  1.00  0.00     0.188 C 
ENDROOT
BRANCH   1   2
ATOM      2  O   UNL A   1      34.902  30.851  28.102  1.00  0.00    -0.376 OA
BRANCH   2   3
ATOM      3  C   UNL A   1      34.488  29.964  27.065  1.00  0.00     0.202 C 
BRANCH   3   4
ATOM      4  C   UNL A   1      33.879  28.601  27.449  1.00  0.00     0.261 C 
BRANCH   4   5
ATOM      5  O   UNL A   1      33.085  27.997  26.409  1.00  0.00    -0.460 OA
BRANCH   5   6
ATOM      6  C   UNL A   1      31.802  27.657  26.721  1.00  0.00     0.343 C 
ATOM      7  O   UNL A   1      31.252  27.931  27.783  1.00  0.00    -0.246 OA
BRANCH   6   8
ATOM      8  C   UNL A   1      31.064  27.168  25.564  1.00  0.00     0.117 A 
ATOM      9  C   UNL A   1      31.406  29.125  23.825  1.00  0.00     0.069 C 
ATOM     10  C   UNL A   1      30.828  27.837  24.299  1.00  0.00     0.068 A 
ATOM     11  N   UNL A   1      29.937  27.254  23.495  1.00  0.00    -0.195 NA
ATOM     12  S   UNL A   1      29.271  25.972  24.278  1.00  0.00    -0.017 S 
ATOM     13  C   UNL A   1      30.306  26.001  25.623  1.00  0.00     0.132 A 
BRANCH  13  14
ATOM     14  N   UNL A   1      30.199  25.102  26.676  1.00  0.00    -0.297 N 
ATOM     15  C   UNL A   1      30.469  23.766  26.684  1.00  0.00     0.322 C 
ATOM     16  H   UNL A   1      29.888  25.480  27.531  1.00  0.00     0.172 HD
ATOM     17  O   UNL A   1      29.666  23.019  27.248  1.00  0.00    -0.248 OA
BRANCH  15  18
ATOM     18  N   UNL A   1      31.621  23.293  26.103  1.00  0.00    -0.324 N 
ATOM     19  C   UNL A   1      32.943  23.865  26.358  1.00  0.00     0.121 C 
ATOM     20  C   UNL A   1      31.633  21.932  25.579  1.00  0.00     0.124 C 
ATOM     21  C   UNL A   1      33.854  23.790  25.131  1.00  0.00     0.022 C 
ATOM     22  C   UNL A   1      32.394  21.899  24.252  1.00  0.00     0.005 C 
ATOM     23  C   UNL A   1      33.825  22.423  24.449  1.00  0.00     0.007 C 
ATOM     24  C   UNL A   1      32.407  20.495  23.657  1.00  0.00     0.009 C 
ENDBRANCH  15  18
ENDBRANCH  13  14
ENDBRANCH   6   8
ENDBRANCH   5   6
ENDBRANCH   4   5
ENDBRANCH   3   4
ENDBRANCH   2   3
ENDBRANCH   1   2
BRANCH   1  25
ATOM     25  C   UNL A   1      35.386  33.365  27.909  1.00  0.00     0.188 C 
BRANCH  25  26
ATOM     26  O   UNL A   1      34.880  34.629  28.303  1.00  0.00    -0.376 OA
BRANCH  26  27
ATOM     27  C   UNL A   1      33.481  34.697  28.548  1.00  0.00     0.202 C 
BRANCH  27  28
ATOM     28  C   UNL A   1      33.078  35.404  29.841  1.00  0.00     0.261 C 
BRANCH  28  29
ATOM     29  O   UNL A   1      34.032  35.294  30.888  1.00  0.00    -0.460 OA
BRANCH  29  30
ATOM     30  C   UNL A   1      33.558  34.889  32.082  1.00  0.00     0.338 C 
ATOM     31  O   UNL A   1      32.435  35.057  32.524  1.00  0.00    -0.246 OA
BRANCH  30  32
ATOM     32  C   UNL A   1      34.658  34.248  32.815  1.00  0.00     0.060 A 
ATOM     33  C   UNL A   1      35.763  35.042  33.129  1.00  0.00     0.016 A 
ATOM     34  C   UNL A   1      34.703  32.848  32.874  1.00  0.00     0.016 A 
ATOM     35  C   UNL A   1      36.991  34.427  33.234  1.00  0.00     0.010 A 
ATOM     36  C   UNL A   1      35.929  32.237  32.947  1.00  0.00     0.010 A 
ATOM     37  C   UNL A   1      37.060  33.048  33.014  1.00  0.00    -0.014 A 
BRANCH  37  38
ATOM     38  C   UNL A   1      38.350  32.486  32.689  1.00  0.00     0.031 A 
ATOM     39  C   UNL A   1      39.287  32.303  33.813  1.00  0.00     0.074 A 
ATOM     40  C   UNL A   1      38.601  32.035  31.445  1.00  0.00     0.049 A 
ATOM     41  N   UNL A   1      40.484  32.772  33.931  1.00  0.00    -0.248 NA
ATOM     42  C   UNL A   1      38.807  31.549  34.980  1.00  0.00     0.031 C 
ATOM     43  C   UNL A   1      37.652  31.856  30.340  1.00  0.00     0.029 A 
ATOM     44  N   UNL A   1      39.753  31.511  30.952  1.00  0.00    -0.354 N 
ATOM     45  C   UNL A   1      40.970  32.254  35.125  1.00  0.00     0.074 A 
ATOM     46  C   UNL A   1      39.864  31.613  35.786  1.00  0.00     0.031 C 
ATOM     47  C   UNL A   1      38.215  31.060  29.405  1.00  0.00     0.029 A 
ATOM     48  C   UNL A   1      39.583  30.764  29.798  1.00  0.00     0.049 A 
ATOM     49  H   UNL A   1      40.631  31.649  31.376  1.00  0.00     0.167 HD
ATOM     50  C   UNL A   1      42.302  32.207  35.392  1.00  0.00     0.037 A 
ATOM     51  C   UNL A   1      40.473  29.880  29.285  1.00  0.00     0.037 A 
ATOM     52  C   UNL A   1      43.054  33.122  34.578  1.00  0.00     0.049 A 
ATOM     53  C   UNL A   1      41.803  30.181  29.883  1.00  0.00     0.074 A 
ATOM     54  C   UNL A   1      43.002  34.489  34.374  1.00  0.00     0.029 A 
ATOM     55  N   UNL A   1      43.811  32.628  33.544  1.00  0.00    -0.354 N 
ATOM     56  N   UNL A   1      42.511  31.243  29.612  1.00  0.00    -0.248 NA
ATOM     57  C   UNL A   1      42.155  29.499  31.122  1.00  0.00     0.031 C 
ATOM     58  C   UNL A   1      43.290  34.670  32.990  1.00  0.00     0.029 A 
ATOM     59  C   UNL A   1      43.527  33.406  32.450  1.00  0.00     0.049 A 
ATOM     60  H   UNL A   1      44.435  31.867  33.580  1.00  0.00     0.167 HD
ATOM     61  C   UNL A   1      43.100  31.595  30.819  1.00  0.00     0.074 A 
ATOM     62  C   UNL A   1      42.925  30.435  31.685  1.00  0.00     0.031 C 
ATOM     63  C   UNL A   1      43.417  32.891  31.107  1.00  0.00     0.037 A 
BRANCH  50  64
ATOM     64  C   UNL A   1      42.936  31.103  36.186  1.00  0.00     0.064 A 
ATOM     65  C   UNL A   1      43.748  31.413  37.290  1.00  0.00     0.173 A 
ATOM     66  C   UNL A   1      42.992  29.764  35.736  1.00  0.00     0.173 A 
ATOM     67  F   UNL A   1      43.801  32.667  37.765  1.00  0.00    -0.203 F 
ATOM     68  C   UNL A   1      44.585  30.462  37.875  1.00  0.00     0.198 A 
ATOM     69  C   UNL A   1      43.781  28.803  36.359  1.00  0.00     0.198 A 
ATOM     70  F   UNL A   1      42.374  29.369  34.614  1.00  0.00    -0.203 F 
ATOM     71  F   UNL A   1      45.426  30.828  38.850  1.00  0.00    -0.200 F 
ATOM     72  C   UNL A   1      44.600  29.158  37.411  1.00  0.00     0.200 A 
ATOM     73  F   UNL A   1      43.799  27.552  35.879  1.00  0.00    -0.200 F 
ATOM     74  F   UNL A   1      45.437  28.256  37.940  1.00  0.00    -0.200 F 
ENDBRANCH  50  64
BRANCH  51  75
ATOM     75  C   UNL A   1      40.183  28.622  28.557  1.00  0.00     0.064 A 
ATOM     76  C   UNL A   1      40.707  28.391  27.276  1.00  0.00     0.173 A 
ATOM     77  C   UNL A   1      39.580  27.514  29.190  1.00  0.00     0.173 A 
ATOM     78  F   UNL A   1      41.349  29.371  26.622  1.00  0.00    -0.203 F 
ATOM     79  C   UNL A   1      40.637  27.132  26.669  1.00  0.00     0.198 A 
ATOM     80  C   UNL A   1      39.493  26.266  28.576  1.00  0.00     0.198 A 
ATOM     81  F   UNL A   1      39.143  27.591  30.454  1.00  0.00    -0.203 F 
ATOM     82  F   UNL A   1      41.203  26.937  25.469  1.00  0.00    -0.200 F 
ATOM     83  C   UNL A   1      40.032  26.071  27.320  1.00  0.00     0.200 A 
ATOM     84  F   UNL A   1      38.934  25.240  29.235  1.00  0.00    -0.200 F 
ATOM     85  F   UNL A   1      40.004  24.854  26.758  1.00  0.00    -0.200 F 
ENDBRANCH  51  75
BRANCH  63  86
ATOM     86  C   UNL A   1      43.358  33.904  29.999  1.00  0.00     0.064 A 
ATOM     87  C   UNL A   1      44.435  34.178  29.139  1.00  0.00     0.173 A 
ATOM     88  C   UNL A   1      42.123  34.493  29.692  1.00  0.00     0.173 A 
ATOM     89  F   UNL A   1      45.615  33.565  29.295  1.00  0.00    -0.203 F 
ATOM     90  C   UNL A   1      44.294  35.042  28.056  1.00  0.00     0.198 A 
ATOM     91  C   UNL A   1      41.975  35.326  28.585  1.00  0.00     0.198 A 
ATOM     92  F   UNL A   1      41.041  34.218  30.438  1.00  0.00    -0.203 F 
ATOM     93  F   UNL A   1      45.343  35.295  27.258  1.00  0.00    -0.200 F 
ATOM     94  C   UNL A   1      43.063  35.610  27.776  1.00  0.00     0.200 A 
ATOM     95  F   UNL A   1      40.769  35.829  28.285  1.00  0.00    -0.200 F 
ATOM     96  F   UNL A   1      42.916  36.405  26.706  1.00  0.00    -0.200 F 
ENDBRANCH  63  86
ENDBRANCH  37  38
ENDBRANCH  30  32
ENDBRANCH  29  30
ENDBRANCH  28  29
ENDBRANCH  27  28
ENDBRANCH  26  27
ENDBRANCH  25  26
ENDBRANCH   1  25
TORSDOF 19
ENDMDL
MODEL 3
REMARK VINA RESULT:     -10.8      4.627      9.949
REMARK SMILES Cc1nsc(NC(=O)N2CCC[C@@H](C)C2)c1C(=O)OCCOCCOCCOC(=O)c1ccc(-c2c3nc(c(-c4c(F)c(F)c(F)c(F)c4F)c4ccc([nH]4)c(-c4c(F)c(F)c(F)c(F)c4F)c4nc(c(-c5c(F)c(F)c(F)c(F)c5F)c5ccc2[nH]5)C=C4)C=C3)cc1
REMARK SMILES IDX 23 1 22 2 21 3 20 4 19 5 17 6 18 7 16 8 1 9 2 10 3 11 4 12
REMARK SMILES IDX 5 13 6 14 7 15 8 17 9 18 10 19 15 20 11 21 13 22 12 23 14 24
REMARK SMILES IDX 24 25 25 26 26 27 27 28 28 29 29 30 30 31 31 32 32 33 93 34
REMARK SMILES IDX 33 35 92 36 34 37 35 38 36 39 86 40 37 41 91 42 85 43 87 44
REMARK SMILES IDX 38 45 90 46 84 47 83 48 39 50 71 51 51 52 70 53 52 54 55 55
REMARK SMILES IDX 69 56 88 57 53 58 54 59 68 61 89 62 56 63 40 64 41 65 49 66
REMARK SMILES IDX 42 67 43 68 47 69 50 70 44 71 45 72 48 73 46 74 72 75 73 76
REMARK SMILES IDX 81 77 74 78 75 79 79 80 82 81 76 82 77 83 80 84 78 85 57 86
REMARK SMILES IDX 58 87 66 88 59 89 60 90 64 91 67 92 61 93 62 94 65 95 63 96
REMARK H PARENT 6 16 87 49 55 60
REMARK Flexibility Score: inf
ROOT
ATOM      1  C   UNL A   1      33.404  31.232  27.274  1.00  0.00     0.188 C 
ENDROOT
BRANCH   1   2
ATOM      2  O   UNL A   1      33.345  29.812  27.281  1.00  0.00    -0.376 OA
BRANCH   2   3
ATOM      3  C   UNL A   1      34.099  29.077  26.320  1.00  0.00     0.202 C 
BRANCH   3   4
ATOM      4  C   UNL A   1      33.540  28.922  24.892  1.00  0.00     0.261 C 
BRANCH   4   5
ATOM      5  O   UNL A   1      33.360  27.554  24.476  1.00  0.00    -0.460 OA
BRANCH   5   6
ATOM      6  C   UNL A   1      32.165  27.228  23.904  1.00  0.00     0.343 C 
ATOM      7  O   UNL A   1      31.808  27.596  22.789  1.00  0.00    -0.246 OA
BRANCH   6   8
ATOM      8  C   UNL A   1      31.470  26.179  24.639  1.00  0.00     0.117 A 
ATOM      9  C   UNL A   1      31.027  27.338  26.969  1.00  0.00     0.069 C 
ATOM     10  C   UNL A   1      31.019  26.193  26.017  1.00  0.00     0.068 A 
ATOM     11  N   UNL A   1      30.604  25.021  26.501  1.00  0.00    -0.195 NA
ATOM     12  S   UNL A   1      30.862  23.856  25.370  1.00  0.00    -0.017 S 
ATOM     13  C   UNL A   1      31.315  24.900  24.110  1.00  0.00     0.132 A 
BRANCH  13  14
ATOM     14  N   UNL A   1      31.675  24.445  22.848  1.00  0.00    -0.297 N 
ATOM     15  C   UNL A   1      32.898  24.030  22.411  1.00  0.00     0.322 C 
ATOM     16  H   UNL A   1      30.951  24.418  22.181  1.00  0.00     0.172 HD
ATOM     17  O   UNL A   1      33.278  24.425  21.306  1.00  0.00    -0.248 OA
BRANCH  15  18
ATOM     18  N   UNL A   1      33.649  23.174  23.179  1.00  0.00    -0.324 N 
ATOM     19  C   UNL A   1      33.291  21.775  23.409  1.00  0.00     0.121 C 
ATOM     20  C   UNL A   1      35.053  23.493  23.411  1.00  0.00     0.124 C 
ATOM     21  C   UNL A   1      33.709  21.290  24.798  1.00  0.00     0.022 C 
ATOM     22  C   UNL A   1      35.419  23.174  24.862  1.00  0.00     0.005 C 
ATOM     23  C   UNL A   1      35.136  21.695  25.168  1.00  0.00     0.007 C 
ATOM     24  C   UNL A   1      36.877  23.518  25.153  1.00  0.00     0.009 C 
ENDBRANCH  15  18
ENDBRANCH  13  14
ENDBRANCH   6   8
ENDBRANCH   5   6
ENDBRANCH   4   5
ENDBRANCH   3   4
ENDBRANCH   2   3
ENDBRANCH   1   2
BRANCH   1  25
ATOM     25  C   UNL A   1      34.441  31.964  28.149  1.00  0.00     0.188 C 
BRANCH  25  26
ATOM     26  O   UNL A   1      34.866  33.219  27.644  1.00  0.00    -0.376 OA
BRANCH  26  27
ATOM     27  C   UNL A   1      35.056  34.251  28.604  1.00  0.00     0.202 C 
BRANCH  27  28
ATOM     28  C   UNL A   1      33.774  34.866  29.164  1.00  0.00     0.261 C 
BRANCH  28  29
ATOM     29  O   UNL A   1      33.961  35.624  30.350  1.00  0.00    -0.460 OA
BRANCH  29  30
ATOM     30  C   UNL A   1      33.376  35.140  31.463  1.00  0.00     0.338 C 
ATOM     31  O   UNL A   1      32.220  35.299  31.814  1.00  0.00    -0.246 OA
BRANCH  30  32
ATOM     32  C   UNL A   1      34.396  34.424  32.240  1.00  0.00     0.060 A 
ATOM     33  C   UNL A   1      35.479  35.169  32.712  1.00  0.00     0.016 A 
ATOM     34  C   UNL A   1      34.416  33.022  32.194  1.00  0.00     0.016 A 
ATOM     35  C   UNL A   1      36.683  34.522  32.878  1.00  0.00     0.010 A 
ATOM     36  C   UNL A   1      35.622  32.383  32.329  1.00  0.00     0.010 A 
ATOM     37  C   UNL A   1      36.752  33.163  32.560  1.00  0.00    -0.014 A 
BRANCH  37  38
ATOM     38  C   UNL A   1      38.059  32.600  32.310  1.00  0.00     0.031 A 
ATOM     39  C   UNL A   1      38.949  32.465  33.477  1.00  0.00     0.074 A 
ATOM     40  C   UNL A   1      38.366  32.108  31.094  1.00  0.00     0.049 A 
ATOM     41  N   UNL A   1      40.137  32.947  33.629  1.00  0.00    -0.248 NA
ATOM     42  C   UNL A   1      38.425  31.749  34.649  1.00  0.00     0.031 C 
ATOM     43  C   UNL A   1      37.465  31.882  29.958  1.00  0.00     0.029 A 
ATOM     44  N   UNL A   1      39.541  31.576  30.669  1.00  0.00    -0.354 N 
ATOM     45  C   UNL A   1      40.576  32.476  34.860  1.00  0.00     0.074 A 
ATOM     46  C   UNL A   1      39.447  31.850  35.496  1.00  0.00     0.031 C 
ATOM     47  C   UNL A   1      38.072  31.058  29.076  1.00  0.00     0.029 A 
ATOM     48  C   UNL A   1      39.424  30.788  29.537  1.00  0.00     0.049 A 
ATOM     49  H   UNL A   1      40.399  31.737  31.124  1.00  0.00     0.167 HD
ATOM     50  C   UNL A   1      41.895  32.450  35.184  1.00  0.00     0.037 A 
ATOM     51  C   UNL A   1      40.341  29.893  29.093  1.00  0.00     0.037 A 
ATOM     52  C   UNL A   1      42.675  33.341  34.370  1.00  0.00     0.049 A 
ATOM     53  C   UNL A   1      41.643  30.226  29.735  1.00  0.00     0.074 A 
ATOM     54  C   UNL A   1      42.622  34.700  34.115  1.00  0.00     0.029 A 
ATOM     55  N   UNL A   1      43.478  32.818  33.387  1.00  0.00    -0.354 N 
ATOM     56  N   UNL A   1      42.354  31.284  29.456  1.00  0.00    -0.248 NA
ATOM     57  C   UNL A   1      41.947  29.591  31.011  1.00  0.00     0.031 C 
ATOM     58  C   UNL A   1      42.967  34.834  32.739  1.00  0.00     0.029 A 
ATOM     59  C   UNL A   1      43.235  33.554  32.255  1.00  0.00     0.049 A 
ATOM     60  H   UNL A   1      44.105  32.064  33.477  1.00  0.00     0.167 HD
ATOM     61  C   UNL A   1      42.889  31.683  30.673  1.00  0.00     0.074 A 
ATOM     62  C   UNL A   1      42.686  30.552  31.572  1.00  0.00     0.031 C 
ATOM     63  C   UNL A   1      43.185  32.991  30.928  1.00  0.00     0.037 A 
BRANCH  50  64
ATOM     64  C   UNL A   1      42.503  31.380  36.042  1.00  0.00     0.064 A 
ATOM     65  C   UNL A   1      43.330  31.735  37.121  1.00  0.00     0.173 A 
ATOM     66  C   UNL A   1      42.518  30.014  35.677  1.00  0.00     0.173 A 
ATOM     67  F   UNL A   1      43.422  33.014  37.517  1.00  0.00    -0.203 F 
ATOM     68  C   UNL A   1      44.144  30.799  37.761  1.00  0.00     0.198 A 
ATOM     69  C   UNL A   1      43.284  29.072  36.356  1.00  0.00     0.198 A 
ATOM     70  F   UNL A   1      41.883  29.568  34.585  1.00  0.00    -0.203 F 
ATOM     71  F   UNL A   1      45.001  31.201  38.708  1.00  0.00    -0.200 F 
ATOM     72  C   UNL A   1      44.119  29.468  37.380  1.00  0.00     0.200 A 
ATOM     73  F   UNL A   1      43.263  27.793  35.955  1.00  0.00    -0.200 F 
ATOM     74  F   UNL A   1      44.933  28.578  37.961  1.00  0.00    -0.200 F 
ENDBRANCH  50  64
BRANCH  51  75
ATOM     75  C   UNL A   1      40.091  28.608  28.398  1.00  0.00     0.064 A 
ATOM     76  C   UNL A   1      40.646  28.348  27.136  1.00  0.00     0.173 A 
ATOM     77  C   UNL A   1      39.496  27.508  29.054  1.00  0.00     0.173 A 
ATOM     78  F   UNL A   1      41.283  29.320  26.466  1.00  0.00    -0.203 F 
ATOM     79  C   UNL A   1      40.613  27.069  26.568  1.00  0.00     0.198 A 
ATOM     80  C   UNL A   1      39.445  26.240  28.478  1.00  0.00     0.198 A 
ATOM     81  F   UNL A   1      39.031  27.616  30.306  1.00  0.00    -0.203 F 
ATOM     82  F   UNL A   1      41.207  26.848  25.387  1.00  0.00    -0.200 F 
ATOM     83  C   UNL A   1      40.014  26.017  27.239  1.00  0.00     0.200 A 
ATOM     84  F   UNL A   1      38.893  25.224  29.156  1.00  0.00    -0.200 F 
ATOM     85  F   UNL A   1      40.021  24.783  26.716  1.00  0.00    -0.200 F 
ENDBRANCH  51  75
BRANCH  63  86
ATOM     86  C   UNL A   1      43.166  33.963  29.783  1.00  0.00     0.064 A 
ATOM     87  C   UNL A   1      42.018  34.665  29.378  1.00  0.00     0.173 A 
ATOM     88  C   UNL A   1      44.383  34.320  29.184  1.00  0.00     0.173 A 
ATOM     89  F   UNL A   1      40.839  34.465  29.982  1.00  0.00    -0.203 F 
ATOM     90  C   UNL A   1      42.078  35.639  28.385  1.00  0.00     0.198 A 
ATOM     91  C   UNL A   1      44.447  35.323  28.220  1.00  0.00     0.198 A 
ATOM     92  F   UNL A   1      45.525  33.732  29.575  1.00  0.00    -0.203 F 
ATOM     93  F   UNL A   1      40.963  36.285  28.010  1.00  0.00    -0.200 F 
ATOM     94  C   UNL A   1      43.293  35.973  27.812  1.00  0.00     0.200 A 
ATOM     95  F   UNL A   1      45.632  35.681  27.706  1.00  0.00    -0.200 F 
ATOM     96  F   UNL A   1      43.358  36.943  26.889  1.00  0.00    -0.200 F 
ENDBRANCH  63  86
ENDBRANCH  37  38
ENDBRANCH  30  32
ENDBRANCH  29  30
ENDBRANCH  28  29
ENDBRANCH  27  28
ENDBRANCH  26  27
ENDBRANCH  25  26
ENDBRANCH   1  25
TORSDOF 19
ENDMDL
