MODEL 1
REMARK VINA RESULT:     -12.4      0.000      0.000
REMARK SMILES COc1ccc(N2C(=O)/C(=C/c3c(C(=O)OCCOCCOCCOC(=O)c4ccc(-c5c6nc(c(-c7c(F)c(F)c(F)c(F)c7F)c7ccc([nH]7)c(-c7c(F)c(F)c(F)c(F)c7F)c7nc(c(-c8c(F)c(F)c(F)c(F)c8F)c8ccc5[nH]8)C=C7)C=C6)cc4)[nH]c4cc(OC)ccc34)SC2=S)cc1
REMARK SMILES IDX 20 1 19 2 18 3 17 4 16 5 14 6 15 7 13 8 12 9 99 10 91 11
REMARK SMILES IDX 92 12 98 13 93 15 97 16 94 17 11 18 7 19 8 20 101 21 9 22
REMARK SMILES IDX 10 23 100 24 102 25 6 26 3 27 4 28 104 29 5 30 103 31 2 32
REMARK SMILES IDX 1 33 95 34 96 35 21 36 22 37 23 38 24 39 25 40 26 41 27 42
REMARK SMILES IDX 28 43 29 44 90 45 30 46 89 47 31 48 32 49 33 50 83 51 34 52
REMARK SMILES IDX 88 53 82 54 84 55 35 56 87 57 81 58 80 59 36 61 68 62 48 63
REMARK SMILES IDX 67 64 49 65 52 66 66 67 85 68 50 69 51 70 65 72 86 73 53 74
REMARK SMILES IDX 37 75 38 76 46 77 39 78 40 79 44 80 47 81 41 82 42 83 45 84
REMARK SMILES IDX 43 85 69 86 70 87 78 88 71 89 72 90 76 91 79 92 73 93 74 94
REMARK SMILES IDX 77 95 75 96 54 97 55 98 63 99 56 100 57 101 61 102 64 103
REMARK SMILES IDX 58 104 59 105 62 106 60 107
REMARK H PARENT 91 14 84 60 52 71
REMARK Flexibility Score: inf
ROOT
ATOM      1  C   UNL A   1      34.854  34.119  28.097  1.00  0.00     0.188 C 
ENDROOT
BRANCH   1   2
ATOM      2  O   UNL A   1      35.027  32.800  27.594  1.00  0.00    -0.376 OA
BRANCH   2   3
ATOM      3  C   UNL A   1      34.085  31.828  28.083  1.00  0.00     0.202 C 
BRANCH   3   4
ATOM      4  C   UNL A   1      34.244  30.408  27.510  1.00  0.00     0.261 C 
BRANCH   4   5
ATOM      5  O   UNL A   1      33.077  30.054  26.739  1.00  0.00    -0.459 OA
BRANCH   5   6
ATOM      6  C   UNL A   1      33.321  29.249  25.677  1.00  0.00     0.355 C 
ATOM      7  O   UNL A   1      34.363  28.626  25.509  1.00  0.00    -0.244 OA
BRANCH   6   8
ATOM      8  C   UNL A   1      32.086  28.927  25.002  1.00  0.00     0.133 A 
ATOM      9  C   UNL A   1      31.253  27.812  24.872  1.00  0.00     0.016 A 
ATOM     10  C   UNL A   1      30.114  28.238  24.075  1.00  0.00     0.008 A 
ATOM     11  N   UNL A   1      31.544  29.925  24.225  1.00  0.00    -0.348 N 
ATOM     12  C   UNL A   1      30.386  29.531  23.625  1.00  0.00     0.050 A 
ATOM     13  C   UNL A   1      28.882  27.673  23.663  1.00  0.00     0.015 A 
ATOM     14  H   UNL A   1      31.945  30.818  24.115  1.00  0.00     0.167 HD
ATOM     15  C   UNL A   1      29.572  30.251  22.745  1.00  0.00     0.073 A 
ATOM     16  C   UNL A   1      28.011  28.408  22.826  1.00  0.00     0.047 A 
ATOM     17  C   UNL A   1      28.364  29.675  22.369  1.00  0.00     0.120 A 
BRANCH   9  18
ATOM     18  C   UNL A   1      31.440  26.522  25.512  1.00  0.00     0.032 C 
ATOM     19  N   UNL A   1      32.493  23.122  24.618  1.00  0.00    -0.261 N 
ATOM     20  C   UNL A   1      32.027  24.026  25.581  1.00  0.00     0.270 C 
ATOM     21  C   UNL A   1      32.564  23.592  23.318  1.00  0.00     0.152 C 
ATOM     22  O   UNL A   1      31.912  23.841  26.784  1.00  0.00    -0.268 OA
ATOM     23  C   UNL A   1      31.677  25.336  24.915  1.00  0.00     0.081 C 
ATOM     24  S   UNL A   1      31.660  25.071  23.227  1.00  0.00    -0.054 SA
ATOM     25  S   UNL A   1      33.421  22.973  22.015  1.00  0.00    -0.051 S 
BRANCH  19  26
ATOM     26  C   UNL A   1      32.938  21.806  24.912  1.00  0.00     0.051 A 
ATOM     27  C   UNL A   1      33.991  19.214  24.616  1.00  0.00     0.119 A 
ATOM     28  C   UNL A   1      32.630  19.446  24.420  1.00  0.00     0.048 A 
ATOM     29  C   UNL A   1      34.811  20.268  25.032  1.00  0.00     0.048 A 
ATOM     30  C   UNL A   1      32.105  20.729  24.568  1.00  0.00     0.030 A 
ATOM     31  C   UNL A   1      34.285  21.563  25.194  1.00  0.00     0.030 A 
BRANCH  27  32
ATOM     32  O   UNL A   1      34.384  17.936  24.334  1.00  0.00    -0.497 OA
ATOM     33  C   UNL A   1      33.651  16.879  24.935  1.00  0.00     0.278 C 
ENDBRANCH  27  32
ENDBRANCH  19  26
ENDBRANCH   9  18
BRANCH  17  34
ATOM     34  O   UNL A   1      27.613  30.382  21.469  1.00  0.00    -0.497 OA
ATOM     35  C   UNL A   1      28.174  31.658  21.165  1.00  0.00     0.278 C 
ENDBRANCH  17  34
ENDBRANCH   6   8
ENDBRANCH   5   6
ENDBRANCH   4   5
ENDBRANCH   3   4
ENDBRANCH   2   3
ENDBRANCH   1   2
BRANCH   1  36
ATOM     36  C   UNL A   1      33.700  34.396  29.073  1.00  0.00     0.188 C 
BRANCH  36  37
ATOM     37  O   UNL A   1      33.759  35.541  29.907  1.00  0.00    -0.376 OA
BRANCH  37  38
ATOM     38  C   UNL A   1      33.843  35.342  31.317  1.00  0.00     0.202 C 
BRANCH  38  39
ATOM     39  C   UNL A   1      34.191  33.923  31.769  1.00  0.00     0.261 C 
BRANCH  39  40
ATOM     40  O   UNL A   1      35.621  33.773  31.851  1.00  0.00    -0.460 OA
BRANCH  40  41
ATOM     41  C   UNL A   1      36.062  32.812  32.696  1.00  0.00     0.338 C 
ATOM     42  O   UNL A   1      35.629  32.538  33.802  1.00  0.00    -0.246 OA
BRANCH  41  43
ATOM     43  C   UNL A   1      37.005  31.944  31.966  1.00  0.00     0.060 A 
ATOM     44  C   UNL A   1      37.968  31.245  32.711  1.00  0.00     0.016 A 
ATOM     45  C   UNL A   1      36.965  31.838  30.575  1.00  0.00     0.016 A 
ATOM     46  C   UNL A   1      38.930  30.479  32.060  1.00  0.00     0.010 A 
ATOM     47  C   UNL A   1      37.953  31.099  29.921  1.00  0.00     0.010 A 
ATOM     48  C   UNL A   1      38.959  30.456  30.661  1.00  0.00    -0.014 A 
BRANCH  48  49
ATOM     49  C   UNL A   1      40.176  29.966  29.978  1.00  0.00     0.031 A 
ATOM     50  C   UNL A   1      41.312  30.932  29.790  1.00  0.00     0.074 A 
ATOM     51  C   UNL A   1      40.274  28.698  29.550  1.00  0.00     0.049 A 
ATOM     52  N   UNL A   1      42.475  30.749  29.221  1.00  0.00    -0.248 NA
ATOM     53  C   UNL A   1      41.108  32.292  30.321  1.00  0.00     0.031 C 
ATOM     54  C   UNL A   1      39.248  27.671  29.705  1.00  0.00     0.029 A 
ATOM     55  N   UNL A   1      41.293  28.066  28.888  1.00  0.00    -0.354 N 
ATOM     56  C   UNL A   1      43.141  31.961  29.335  1.00  0.00     0.074 A 
ATOM     57  C   UNL A   1      42.248  32.882  30.002  1.00  0.00     0.031 C 
ATOM     58  C   UNL A   1      39.684  26.534  29.134  1.00  0.00     0.029 A 
ATOM     59  C   UNL A   1      41.011  26.764  28.562  1.00  0.00     0.049 A 
ATOM     60  H   UNL A   1      42.147  28.504  28.668  1.00  0.00     0.167 HD
ATOM     61  C   UNL A   1      44.391  32.278  28.924  1.00  0.00     0.037 A 
ATOM     62  C   UNL A   1      41.741  25.873  27.864  1.00  0.00     0.037 A 
ATOM     63  C   UNL A   1      45.266  31.372  28.234  1.00  0.00     0.049 A 
ATOM     64  C   UNL A   1      43.101  26.271  27.352  1.00  0.00     0.074 A 
ATOM     65  C   UNL A   1      46.550  31.593  27.770  1.00  0.00     0.029 A 
ATOM     66  N   UNL A   1      44.935  30.068  27.896  1.00  0.00    -0.354 N 
ATOM     67  N   UNL A   1      43.739  27.409  27.491  1.00  0.00    -0.248 NA
ATOM     68  C   UNL A   1      43.843  25.259  26.589  1.00  0.00     0.031 C 
ATOM     69  C   UNL A   1      46.982  30.433  27.116  1.00  0.00     0.029 A 
ATOM     70  C   UNL A   1      45.982  29.478  27.210  1.00  0.00     0.049 A 
ATOM     71  H   UNL A   1      44.081  29.629  28.112  1.00  0.00     0.167 HD
ATOM     72  C   UNL A   1      44.962  27.243  26.855  1.00  0.00     0.074 A 
ATOM     73  C   UNL A   1      44.982  25.889  26.339  1.00  0.00     0.031 C 
ATOM     74  C   UNL A   1      45.977  28.128  26.708  1.00  0.00     0.037 A 
BRANCH  61  75
ATOM     75  C   UNL A   1      44.864  33.673  29.192  1.00  0.00     0.064 A 
ATOM     76  C   UNL A   1      45.557  33.997  30.368  1.00  0.00     0.173 A 
ATOM     77  C   UNL A   1      44.627  34.696  28.263  1.00  0.00     0.173 A 
ATOM     78  F   UNL A   1      45.787  33.056  31.296  1.00  0.00    -0.203 F 
ATOM     79  C   UNL A   1      45.978  35.300  30.613  1.00  0.00     0.198 A 
ATOM     80  C   UNL A   1      45.069  35.994  28.502  1.00  0.00     0.198 A 
ATOM     81  F   UNL A   1      43.964  34.437  27.126  1.00  0.00    -0.203 F 
ATOM     82  F   UNL A   1      46.601  35.597  31.762  1.00  0.00    -0.200 F 
ATOM     83  C   UNL A   1      45.738  36.297  29.679  1.00  0.00     0.200 A 
ATOM     84  F   UNL A   1      44.839  36.956  27.596  1.00  0.00    -0.200 F 
ATOM     85  F   UNL A   1      46.144  37.552  29.915  1.00  0.00    -0.200 F 
ENDBRANCH  61  75
BRANCH  62  86
ATOM     86  C   UNL A   1      41.201  24.515  27.603  1.00  0.00     0.064 A 
ATOM     87  C   UNL A   1      41.755  23.387  28.221  1.00  0.00     0.173 A 
ATOM     88  C   UNL A   1      40.134  24.318  26.714  1.00  0.00     0.173 A 
ATOM     89  F   UNL A   1      42.793  23.524  29.058  1.00  0.00    -0.203 F 
ATOM     90  C   UNL A   1      41.271  22.108  27.948  1.00  0.00     0.198 A 
ATOM     91  C   UNL A   1      39.636  23.042  26.459  1.00  0.00     0.198 A 
ATOM     92  F   UNL A   1      39.574  25.368  26.094  1.00  0.00    -0.203 F 
ATOM     93  F   UNL A   1      41.845  21.042  28.521  1.00  0.00    -0.200 F 
ATOM     94  C   UNL A   1      40.210  21.939  27.071  1.00  0.00     0.200 A 
ATOM     95  F   UNL A   1      38.608  22.882  25.615  1.00  0.00    -0.200 F 
ATOM     96  F   UNL A   1      39.747  20.708  26.808  1.00  0.00    -0.200 F 
ENDBRANCH  62  86
BRANCH  74  97
ATOM     97  C   UNL A   1      47.201  27.652  25.984  1.00  0.00     0.064 A 
ATOM     98  C   UNL A   1      48.309  27.140  26.675  1.00  0.00     0.173 A 
ATOM     99  C   UNL A   1      47.250  27.674  24.582  1.00  0.00     0.173 A 
ATOM    100  F   UNL A   1      48.312  27.112  28.016  1.00  0.00    -0.203 F 
ATOM    101  C   UNL A   1      49.433  26.691  25.988  1.00  0.00     0.198 A 
ATOM    102  C   UNL A   1      48.367  27.201  23.899  1.00  0.00     0.198 A 
ATOM    103  F   UNL A   1      46.212  28.148  23.876  1.00  0.00    -0.203 F 
ATOM    104  F   UNL A   1      50.499  26.247  26.670  1.00  0.00    -0.200 F 
ATOM    105  C   UNL A   1      49.459  26.716  24.602  1.00  0.00     0.200 A 
ATOM    106  F   UNL A   1      48.386  27.217  22.559  1.00  0.00    -0.200 F 
ATOM    107  F   UNL A   1      50.541  26.282  23.943  1.00  0.00    -0.200 F 
ENDBRANCH  74  97
ENDBRANCH  48  49
ENDBRANCH  41  43
ENDBRANCH  40  41
ENDBRANCH  39  40
ENDBRANCH  38  39
ENDBRANCH  37  38
ENDBRANCH  36  37
ENDBRANCH   1  36
TORSDOF 21
ENDMDL
MODEL 2
REMARK VINA RESULT:     -12.1      4.300      6.239
REMARK SMILES COc1ccc(N2C(=O)/C(=C/c3c(C(=O)OCCOCCOCCOC(=O)c4ccc(-c5c6nc(c(-c7c(F)c(F)c(F)c(F)c7F)c7ccc([nH]7)c(-c7c(F)c(F)c(F)c(F)c7F)c7nc(c(-c8c(F)c(F)c(F)c(F)c8F)c8ccc5[nH]8)C=C7)C=C6)cc4)[nH]c4cc(OC)ccc34)SC2=S)cc1
REMARK SMILES IDX 20 1 19 2 18 3 17 4 16 5 14 6 15 7 13 8 12 9 99 10 91 11
REMARK SMILES IDX 92 12 98 13 93 15 97 16 94 17 11 18 7 19 8 20 101 21 9 22
REMARK SMILES IDX 10 23 100 24 102 25 6 26 3 27 4 28 104 29 5 30 103 31 2 32
REMARK SMILES IDX 1 33 95 34 96 35 21 36 22 37 23 38 24 39 25 40 26 41 27 42
REMARK SMILES IDX 28 43 29 44 90 45 30 46 89 47 31 48 32 49 33 50 83 51 34 52
REMARK SMILES IDX 88 53 82 54 84 55 35 56 87 57 81 58 80 59 36 61 68 62 48 63
REMARK SMILES IDX 67 64 49 65 52 66 66 67 85 68 50 69 51 70 65 72 86 73 53 74
REMARK SMILES IDX 37 75 38 76 46 77 39 78 40 79 44 80 47 81 41 82 42 83 45 84
REMARK SMILES IDX 43 85 69 86 70 87 78 88 71 89 72 90 76 91 79 92 73 93 74 94
REMARK SMILES IDX 77 95 75 96 54 97 55 98 63 99 56 100 57 101 61 102 64 103
REMARK SMILES IDX 58 104 59 105 62 106 60 107
REMARK H PARENT 91 14 84 60 52 71
REMARK Flexibility Score: inf
ROOT
ATOM      1  C   UNL A   1      34.681  34.062  27.973  1.00  0.00     0.188 C 
ENDROOT
BRANCH   1   2
ATOM      2  O   UNL A   1      35.358  32.810  27.975  1.00  0.00    -0.376 OA
BRANCH   2   3
ATOM      3  C   UNL A   1      34.567  31.685  28.399  1.00  0.00     0.202 C 
BRANCH   3   4
ATOM      4  C   UNL A   1      34.829  30.371  27.642  1.00  0.00     0.261 C 
BRANCH   4   5
ATOM      5  O   UNL A   1      33.946  30.272  26.506  1.00  0.00    -0.459 OA
BRANCH   5   6
ATOM      6  C   UNL A   1      33.468  29.027  26.264  1.00  0.00     0.355 C 
ATOM      7  O   UNL A   1      33.621  28.072  27.017  1.00  0.00    -0.244 OA
BRANCH   6   8
ATOM      8  C   UNL A   1      32.456  29.073  25.235  1.00  0.00     0.133 A 
ATOM      9  C   UNL A   1      32.106  28.321  24.110  1.00  0.00     0.016 A 
ATOM     10  C   UNL A   1      30.904  28.929  23.564  1.00  0.00     0.008 A 
ATOM     11  N   UNL A   1      31.590  30.142  25.287  1.00  0.00    -0.348 N 
ATOM     12  C   UNL A   1      30.676  30.106  24.278  1.00  0.00     0.050 A 
ATOM     13  C   UNL A   1      29.983  28.630  22.531  1.00  0.00     0.015 A 
ATOM     14  H   UNL A   1      31.627  30.849  25.972  1.00  0.00     0.167 HD
ATOM     15  C   UNL A   1      29.665  31.026  23.985  1.00  0.00     0.073 A 
ATOM     16  C   UNL A   1      28.912  29.513  22.259  1.00  0.00     0.047 A 
ATOM     17  C   UNL A   1      28.769  30.698  22.974  1.00  0.00     0.120 A 
BRANCH   9  18
ATOM     18  C   UNL A   1      32.757  27.104  23.656  1.00  0.00     0.032 C 
ATOM     19  N   UNL A   1      32.672  23.502  24.350  1.00  0.00    -0.261 N 
ATOM     20  C   UNL A   1      33.223  24.582  23.649  1.00  0.00     0.270 C 
ATOM     21  C   UNL A   1      31.763  23.815  25.345  1.00  0.00     0.152 C 
ATOM     22  O   UNL A   1      34.015  24.542  22.719  1.00  0.00    -0.268 OA
ATOM     23  C   UNL A   1      32.677  25.876  24.207  1.00  0.00     0.081 C 
ATOM     24  S   UNL A   1      31.888  25.514  25.679  1.00  0.00    -0.054 SA
ATOM     25  S   UNL A   1      30.629  22.828  26.091  1.00  0.00    -0.051 S 
BRANCH  19  26
ATOM     26  C   UNL A   1      32.950  22.140  24.059  1.00  0.00     0.051 A 
ATOM     27  C   UNL A   1      32.792  19.332  24.017  1.00  0.00     0.119 A 
ATOM     28  C   UNL A   1      33.524  19.980  25.012  1.00  0.00     0.048 A 
ATOM     29  C   UNL A   1      32.201  20.089  23.001  1.00  0.00     0.048 A 
ATOM     30  C   UNL A   1      33.606  21.371  25.034  1.00  0.00     0.030 A 
ATOM     31  C   UNL A   1      32.288  21.494  23.011  1.00  0.00     0.030 A 
BRANCH  27  32
ATOM     32  O   UNL A   1      32.709  17.977  24.179  1.00  0.00    -0.497 OA
ATOM     33  C   UNL A   1      32.888  17.464  25.491  1.00  0.00     0.278 C 
ENDBRANCH  27  32
ENDBRANCH  19  26
ENDBRANCH   9  18
BRANCH  17  34
ATOM     34  O   UNL A   1      27.821  31.642  22.679  1.00  0.00    -0.497 OA
ATOM     35  C   UNL A   1      28.013  32.234  21.396  1.00  0.00     0.278 C 
ENDBRANCH  17  34
ENDBRANCH   6   8
ENDBRANCH   5   6
ENDBRANCH   4   5
ENDBRANCH   3   4
ENDBRANCH   2   3
ENDBRANCH   1   2
BRANCH   1  36
ATOM     36  C   UNL A   1      33.151  34.078  28.124  1.00  0.00     0.188 C 
BRANCH  36  37
ATOM     37  O   UNL A   1      32.532  35.175  28.776  1.00  0.00    -0.376 OA
BRANCH  37  38
ATOM     38  C   UNL A   1      33.340  36.305  29.103  1.00  0.00     0.202 C 
BRANCH  38  39
ATOM     39  C   UNL A   1      32.849  37.154  30.276  1.00  0.00     0.261 C 
BRANCH  39  40
ATOM     40  O   UNL A   1      33.548  36.778  31.477  1.00  0.00    -0.460 OA
BRANCH  40  41
ATOM     41  C   UNL A   1      33.135  35.629  32.060  1.00  0.00     0.338 C 
ATOM     42  O   UNL A   1      32.002  35.331  32.398  1.00  0.00    -0.246 OA
BRANCH  41  43
ATOM     43  C   UNL A   1      34.237  34.650  31.997  1.00  0.00     0.060 A 
ATOM     44  C   UNL A   1      34.122  33.479  32.763  1.00  0.00     0.016 A 
ATOM     45  C   UNL A   1      35.374  34.887  31.224  1.00  0.00     0.016 A 
ATOM     46  C   UNL A   1      35.171  32.565  32.800  1.00  0.00     0.010 A 
ATOM     47  C   UNL A   1      36.440  33.988  31.289  1.00  0.00     0.010 A 
ATOM     48  C   UNL A   1      36.355  32.851  32.111  1.00  0.00    -0.014 A 
BRANCH  48  49
ATOM     49  C   UNL A   1      37.578  32.091  32.444  1.00  0.00     0.031 A 
ATOM     50  C   UNL A   1      38.301  32.446  33.714  1.00  0.00     0.074 A 
ATOM     51  C   UNL A   1      38.026  31.106  31.650  1.00  0.00     0.049 A 
ATOM     52  N   UNL A   1      39.392  31.935  34.221  1.00  0.00    -0.248 NA
ATOM     53  C   UNL A   1      37.708  33.526  34.523  1.00  0.00     0.031 C 
ATOM     54  C   UNL A   1      37.391  30.659  30.414  1.00  0.00     0.029 A 
ATOM     55  N   UNL A   1      39.134  30.309  31.772  1.00  0.00    -0.354 N 
ATOM     56  C   UNL A   1      39.608  32.619  35.409  1.00  0.00     0.074 A 
ATOM     57  C   UNL A   1      38.554  33.601  35.537  1.00  0.00     0.031 C 
ATOM     58  C   UNL A   1      38.133  29.674  29.877  1.00  0.00     0.029 A 
ATOM     59  C   UNL A   1      39.300  29.437  30.726  1.00  0.00     0.049 A 
ATOM     60  H   UNL A   1      39.752  30.357  32.538  1.00  0.00     0.167 HD
ATOM     61  C   UNL A   1      40.596  32.443  36.316  1.00  0.00     0.037 A 
ATOM     62  C   UNL A   1      40.296  28.564  30.483  1.00  0.00     0.037 A 
ATOM     63  C   UNL A   1      41.660  31.489  36.174  1.00  0.00     0.049 A 
ATOM     64  C   UNL A   1      41.425  28.436  31.472  1.00  0.00     0.074 A 
ATOM     65  C   UNL A   1      42.714  31.231  37.032  1.00  0.00     0.029 A 
ATOM     66  N   UNL A   1      41.811  30.641  35.086  1.00  0.00    -0.354 N 
ATOM     67  N   UNL A   1      41.607  29.064  32.609  1.00  0.00    -0.248 NA
ATOM     68  C   UNL A   1      42.486  27.474  31.143  1.00  0.00     0.031 C 
ATOM     69  C   UNL A   1      43.524  30.253  36.445  1.00  0.00     0.029 A 
ATOM     70  C   UNL A   1      42.952  29.874  35.240  1.00  0.00     0.049 A 
ATOM     71  H   UNL A   1      41.197  30.593  34.318  1.00  0.00     0.167 HD
ATOM     72  C   UNL A   1      42.786  28.559  33.141  1.00  0.00     0.074 A 
ATOM     73  C   UNL A   1      43.272  27.563  32.208  1.00  0.00     0.031 C 
ATOM     74  C   UNL A   1      43.413  28.889  34.297  1.00  0.00     0.037 A 
BRANCH  61  75
ATOM     75  C   UNL A   1      40.576  33.324  37.527  1.00  0.00     0.064 A 
ATOM     76  C   UNL A   1      39.684  33.093  38.585  1.00  0.00     0.173 A 
ATOM     77  C   UNL A   1      41.459  34.407  37.633  1.00  0.00     0.173 A 
ATOM     78  F   UNL A   1      38.806  32.081  38.518  1.00  0.00    -0.203 F 
ATOM     79  C   UNL A   1      39.664  33.927  39.698  1.00  0.00     0.198 A 
ATOM     80  C   UNL A   1      41.451  35.228  38.759  1.00  0.00     0.198 A 
ATOM     81  F   UNL A   1      42.327  34.673  36.646  1.00  0.00    -0.203 F 
ATOM     82  F   UNL A   1      38.776  33.714  40.679  1.00  0.00    -0.200 F 
ATOM     83  C   UNL A   1      40.550  34.991  39.787  1.00  0.00     0.200 A 
ATOM     84  F   UNL A   1      42.310  36.253  38.844  1.00  0.00    -0.200 F 
ATOM     85  F   UNL A   1      40.531  35.795  40.859  1.00  0.00    -0.200 F 
ENDBRANCH  61  75
BRANCH  62  86
ATOM     86  C   UNL A   1      40.275  27.743  29.246  1.00  0.00     0.064 A 
ATOM     87  C   UNL A   1      39.540  26.552  29.183  1.00  0.00     0.173 A 
ATOM     88  C   UNL A   1      41.006  28.122  28.111  1.00  0.00     0.173 A 
ATOM     89  F   UNL A   1      38.847  26.136  30.252  1.00  0.00    -0.203 F 
ATOM     90  C   UNL A   1      39.549  25.763  28.034  1.00  0.00     0.198 A 
ATOM     91  C   UNL A   1      40.997  27.344  26.956  1.00  0.00     0.198 A 
ATOM     92  F   UNL A   1      41.729  29.252  28.126  1.00  0.00    -0.203 F 
ATOM     93  F   UNL A   1      38.871  24.608  28.014  1.00  0.00    -0.200 F 
ATOM     94  C   UNL A   1      40.274  26.162  26.922  1.00  0.00     0.200 A 
ATOM     95  F   UNL A   1      41.694  27.736  25.881  1.00  0.00    -0.200 F 
ATOM     96  F   UNL A   1      40.283  25.401  25.818  1.00  0.00    -0.200 F 
ENDBRANCH  62  86
BRANCH  74  97
ATOM     97  C   UNL A   1      44.676  28.149  34.625  1.00  0.00     0.064 A 
ATOM     98  C   UNL A   1      45.933  28.643  34.249  1.00  0.00     0.173 A 
ATOM     99  C   UNL A   1      44.628  26.952  35.354  1.00  0.00     0.173 A 
ATOM    100  F   UNL A   1      46.027  29.777  33.538  1.00  0.00    -0.203 F 
ATOM    101  C   UNL A   1      47.098  27.951  34.570  1.00  0.00     0.198 A 
ATOM    102  C   UNL A   1      45.796  26.276  35.696  1.00  0.00     0.198 A 
ATOM    103  F   UNL A   1      43.449  26.443  35.744  1.00  0.00    -0.203 F 
ATOM    104  F   UNL A   1      48.286  28.418  34.162  1.00  0.00    -0.200 F 
ATOM    105  C   UNL A   1      47.028  26.772  35.298  1.00  0.00     0.200 A 
ATOM    106  F   UNL A   1      45.728  25.142  36.407  1.00  0.00    -0.200 F 
ATOM    107  F   UNL A   1      48.150  26.108  35.608  1.00  0.00    -0.200 F 
ENDBRANCH  74  97
ENDBRANCH  48  49
ENDBRANCH  41  43
ENDBRANCH  40  41
ENDBRANCH  39  40
ENDBRANCH  38  39
ENDBRANCH  37  38
ENDBRANCH  36  37
ENDBRANCH   1  36
TORSDOF 21
ENDMDL
MODEL 3
REMARK VINA RESULT:     -11.7      3.303      9.285
REMARK SMILES COc1ccc(N2C(=O)/C(=C/c3c(C(=O)OCCOCCOCCOC(=O)c4ccc(-c5c6nc(c(-c7c(F)c(F)c(F)c(F)c7F)c7ccc([nH]7)c(-c7c(F)c(F)c(F)c(F)c7F)c7nc(c(-c8c(F)c(F)c(F)c(F)c8F)c8ccc5[nH]8)C=C7)C=C6)cc4)[nH]c4cc(OC)ccc34)SC2=S)cc1
REMARK SMILES IDX 20 1 19 2 18 3 17 4 16 5 14 6 15 7 13 8 12 9 99 10 91 11
REMARK SMILES IDX 92 12 98 13 93 15 97 16 94 17 11 18 7 19 8 20 101 21 9 22
REMARK SMILES IDX 10 23 100 24 102 25 6 26 3 27 4 28 104 29 5 30 103 31 2 32
REMARK SMILES IDX 1 33 95 34 96 35 21 36 22 37 23 38 24 39 25 40 26 41 27 42
REMARK SMILES IDX 28 43 29 44 90 45 30 46 89 47 31 48 32 49 33 50 83 51 34 52
REMARK SMILES IDX 88 53 82 54 84 55 35 56 87 57 81 58 80 59 36 61 68 62 48 63
REMARK SMILES IDX 67 64 49 65 52 66 66 67 85 68 50 69 51 70 65 72 86 73 53 74
REMARK SMILES IDX 37 75 38 76 46 77 39 78 40 79 44 80 47 81 41 82 42 83 45 84
REMARK SMILES IDX 43 85 69 86 70 87 78 88 71 89 72 90 76 91 79 92 73 93 74 94
REMARK SMILES IDX 77 95 75 96 54 97 55 98 63 99 56 100 57 101 61 102 64 103
REMARK SMILES IDX 58 104 59 105 62 106 60 107
REMARK H PARENT 91 14 84 60 52 71
REMARK Flexibility Score: inf
ROOT
ATOM      1  C   UNL A   1      37.024  22.562  24.070  1.00  0.00     0.188 C 
ENDROOT
BRANCH   1   2
ATOM      2  O   UNL A   1      36.665  23.728  24.802  1.00  0.00    -0.376 OA
BRANCH   2   3
ATOM      3  C   UNL A   1      36.524  23.542  26.222  1.00  0.00     0.202 C 
BRANCH   3   4
ATOM      4  C   UNL A   1      35.087  23.654  26.762  1.00  0.00     0.261 C 
BRANCH   4   5
ATOM      5  O   UNL A   1      34.816  22.568  27.672  1.00  0.00    -0.459 OA
BRANCH   5   6
ATOM      6  C   UNL A   1      33.513  22.204  27.749  1.00  0.00     0.355 C 
ATOM      7  O   UNL A   1      32.744  22.575  28.629  1.00  0.00    -0.244 OA
BRANCH   6   8
ATOM      8  C   UNL A   1      33.071  21.663  26.485  1.00  0.00     0.133 A 
ATOM      9  C   UNL A   1      32.178  22.026  25.474  1.00  0.00     0.016 A 
ATOM     10  C   UNL A   1      32.295  21.015  24.436  1.00  0.00     0.008 A 
ATOM     11  N   UNL A   1      33.600  20.441  26.133  1.00  0.00    -0.348 N 
ATOM     12  C   UNL A   1      33.125  20.008  24.933  1.00  0.00     0.050 A 
ATOM     13  C   UNL A   1      31.781  20.821  23.130  1.00  0.00     0.015 A 
ATOM     14  H   UNL A   1      34.244  19.940  26.684  1.00  0.00     0.167 HD
ATOM     15  C   UNL A   1      33.403  18.811  24.266  1.00  0.00     0.073 A 
ATOM     16  C   UNL A   1      32.102  19.648  22.409  1.00  0.00     0.047 A 
ATOM     17  C   UNL A   1      32.895  18.656  22.981  1.00  0.00     0.120 A 
BRANCH   9  18
ATOM     18  C   UNL A   1      31.382  23.240  25.428  1.00  0.00     0.032 C 
ATOM     19  N   UNL A   1      31.524  26.582  23.923  1.00  0.00    -0.261 N 
ATOM     20  C   UNL A   1      30.865  25.656  24.740  1.00  0.00     0.270 C 
ATOM     21  C   UNL A   1      32.771  26.210  23.453  1.00  0.00     0.152 C 
ATOM     22  O   UNL A   1      29.753  25.757  25.239  1.00  0.00    -0.268 OA
ATOM     23  C   UNL A   1      31.742  24.440  24.930  1.00  0.00     0.081 C 
ATOM     24  S   UNL A   1      33.306  24.835  24.366  1.00  0.00    -0.054 SA
ATOM     25  S   UNL A   1      33.651  26.843  22.172  1.00  0.00    -0.051 S 
BRANCH  19  26
ATOM     26  C   UNL A   1      30.965  27.825  23.518  1.00  0.00     0.051 A 
ATOM     27  C   UNL A   1      29.230  30.028  23.300  1.00  0.00     0.119 A 
ATOM     28  C   UNL A   1      29.042  28.903  22.498  1.00  0.00     0.048 A 
ATOM     29  C   UNL A   1      30.333  30.078  24.160  1.00  0.00     0.048 A 
ATOM     30  C   UNL A   1      29.901  27.811  22.603  1.00  0.00     0.030 A 
ATOM     31  C   UNL A   1      31.211  28.982  24.262  1.00  0.00     0.030 A 
BRANCH  27  32
ATOM     32  O   UNL A   1      28.255  30.976  23.169  1.00  0.00    -0.497 OA
ATOM     33  C   UNL A   1      28.033  31.510  21.872  1.00  0.00     0.278 C 
ENDBRANCH  27  32
ENDBRANCH  19  26
ENDBRANCH   9  18
BRANCH  17  34
ATOM     34  O   UNL A   1      33.144  17.454  22.375  1.00  0.00    -0.497 OA
ATOM     35  C   UNL A   1      33.976  16.602  23.160  1.00  0.00     0.278 C 
ENDBRANCH  17  34
ENDBRANCH   6   8
ENDBRANCH   5   6
ENDBRANCH   4   5
ENDBRANCH   3   4
ENDBRANCH   2   3
ENDBRANCH   1   2
BRANCH   1  36
ATOM     36  C   UNL A   1      36.342  21.229  24.416  1.00  0.00     0.188 C 
BRANCH  36  37
ATOM     37  O   UNL A   1      37.129  20.155  24.902  1.00  0.00    -0.376 OA
BRANCH  37  38
ATOM     38  C   UNL A   1      38.529  20.372  25.075  1.00  0.00     0.202 C 
BRANCH  38  39
ATOM     39  C   UNL A   1      39.314  19.202  25.670  1.00  0.00     0.261 C 
BRANCH  39  40
ATOM     40  O   UNL A   1      40.259  19.690  26.640  1.00  0.00    -0.460 OA
BRANCH  40  41
ATOM     41  C   UNL A   1      41.563  19.562  26.304  1.00  0.00     0.338 C 
ATOM     42  O   UNL A   1      42.100  18.619  25.747  1.00  0.00    -0.246 OA
BRANCH  41  43
ATOM     43  C   UNL A   1      42.222  20.870  26.481  1.00  0.00     0.060 A 
ATOM     44  C   UNL A   1      42.513  21.290  27.789  1.00  0.00     0.016 A 
ATOM     45  C   UNL A   1      42.526  21.682  25.388  1.00  0.00     0.016 A 
ATOM     46  C   UNL A   1      43.059  22.550  28.010  1.00  0.00     0.010 A 
ATOM     47  C   UNL A   1      43.040  22.961  25.612  1.00  0.00     0.010 A 
ATOM     48  C   UNL A   1      43.265  23.409  26.925  1.00  0.00    -0.014 A 
BRANCH  48  49
ATOM     49  C   UNL A   1      43.482  24.849  27.183  1.00  0.00     0.031 A 
ATOM     50  C   UNL A   1      44.837  25.422  26.873  1.00  0.00     0.074 A 
ATOM     51  C   UNL A   1      42.501  25.627  27.667  1.00  0.00     0.049 A 
ATOM     52  N   UNL A   1      45.277  26.644  27.016  1.00  0.00    -0.248 NA
ATOM     53  C   UNL A   1      45.832  24.484  26.323  1.00  0.00     0.031 C 
ATOM     54  C   UNL A   1      41.145  25.185  27.976  1.00  0.00     0.029 A 
ATOM     55  N   UNL A   1      42.508  26.959  27.988  1.00  0.00    -0.354 N 
ATOM     56  C   UNL A   1      46.589  26.625  26.564  1.00  0.00     0.074 A 
ATOM     57  C   UNL A   1      46.887  25.267  26.168  1.00  0.00     0.031 C 
ATOM     58  C   UNL A   1      40.450  26.229  28.462  1.00  0.00     0.029 A 
ATOM     59  C   UNL A   1      41.321  27.403  28.512  1.00  0.00     0.049 A 
ATOM     60  H   UNL A   1      43.291  27.542  27.855  1.00  0.00     0.167 HD
ATOM     61  C   UNL A   1      47.468  27.650  26.483  1.00  0.00     0.037 A 
ATOM     62  C   UNL A   1      40.992  28.617  28.991  1.00  0.00     0.037 A 
ATOM     63  C   UNL A   1      47.182  28.993  26.906  1.00  0.00     0.049 A 
ATOM     64  C   UNL A   1      42.011  29.726  28.958  1.00  0.00     0.074 A 
ATOM     65  C   UNL A   1      48.002  30.106  26.871  1.00  0.00     0.029 A 
ATOM     66  N   UNL A   1      45.976  29.399  27.458  1.00  0.00    -0.354 N 
ATOM     67  N   UNL A   1      43.240  29.710  28.500  1.00  0.00    -0.248 NA
ATOM     68  C   UNL A   1      41.594  31.024  29.506  1.00  0.00     0.031 C 
ATOM     69  C   UNL A   1      47.304  31.178  27.438  1.00  0.00     0.029 A 
ATOM     70  C   UNL A   1      46.036  30.742  27.788  1.00  0.00     0.049 A 
ATOM     71  H   UNL A   1      45.193  28.818  27.595  1.00  0.00     0.167 HD
ATOM     72  C   UNL A   1      43.735  30.994  28.683  1.00  0.00     0.074 A 
ATOM     73  C   UNL A   1      42.668  31.770  29.283  1.00  0.00     0.031 C 
ATOM     74  C   UNL A   1      44.960  31.490  28.384  1.00  0.00     0.037 A 
BRANCH  61  75
ATOM     75  C   UNL A   1      48.828  27.342  25.938  1.00  0.00     0.064 A 
ATOM     76  C   UNL A   1      49.902  27.026  26.784  1.00  0.00     0.173 A 
ATOM     77  C   UNL A   1      49.060  27.357  24.555  1.00  0.00     0.173 A 
ATOM     78  F   UNL A   1      49.732  27.021  28.114  1.00  0.00    -0.203 F 
ATOM     79  C   UNL A   1      51.164  26.756  26.266  1.00  0.00     0.198 A 
ATOM     80  C   UNL A   1      50.320  27.065  24.039  1.00  0.00     0.198 A 
ATOM     81  F   UNL A   1      48.067  27.658  23.705  1.00  0.00    -0.203 F 
ATOM     82  F   UNL A   1      52.186  26.499  27.093  1.00  0.00    -0.200 F 
ATOM     83  C   UNL A   1      51.372  26.772  24.894  1.00  0.00     0.200 A 
ATOM     84  F   UNL A   1      50.518  27.077  22.713  1.00  0.00    -0.200 F 
ATOM     85  F   UNL A   1      52.588  26.511  24.395  1.00  0.00    -0.200 F 
ENDBRANCH  61  75
BRANCH  62  86
ATOM     86  C   UNL A   1      39.636  28.851  29.550  1.00  0.00     0.064 A 
ATOM     87  C   UNL A   1      38.612  29.386  28.759  1.00  0.00     0.173 A 
ATOM     88  C   UNL A   1      39.345  28.562  30.891  1.00  0.00     0.173 A 
ATOM     89  F   UNL A   1      38.851  29.702  27.478  1.00  0.00    -0.203 F 
ATOM     90  C   UNL A   1      37.349  29.639  29.293  1.00  0.00     0.198 A 
ATOM     91  C   UNL A   1      38.077  28.794  31.418  1.00  0.00     0.198 A 
ATOM     92  F   UNL A   1      40.295  28.052  31.689  1.00  0.00    -0.203 F 
ATOM     93  F   UNL A   1      36.399  30.190  28.526  1.00  0.00    -0.200 F 
ATOM     94  C   UNL A   1      37.083  29.338  30.620  1.00  0.00     0.200 A 
ATOM     95  F   UNL A   1      37.821  28.496  32.699  1.00  0.00    -0.200 F 
ATOM     96  F   UNL A   1      35.868  29.583  31.133  1.00  0.00    -0.200 F 
ENDBRANCH  62  86
BRANCH  74  97
ATOM     97  C   UNL A   1      45.201  32.941  28.677  1.00  0.00     0.064 A 
ATOM     98  C   UNL A   1      45.793  33.356  29.879  1.00  0.00     0.173 A 
ATOM     99  C   UNL A   1      44.870  33.922  27.731  1.00  0.00     0.173 A 
ATOM    100  F   UNL A   1      46.113  32.455  30.820  1.00  0.00    -0.203 F 
ATOM    101  C   UNL A   1      46.021  34.706  30.134  1.00  0.00     0.198 A 
ATOM    102  C   UNL A   1      45.123  35.268  27.979  1.00  0.00     0.198 A 
ATOM    103  F   UNL A   1      44.309  33.573  26.563  1.00  0.00    -0.203 F 
ATOM    104  F   UNL A   1      46.546  35.085  31.307  1.00  0.00    -0.200 F 
ATOM    105  C   UNL A   1      45.692  35.659  29.181  1.00  0.00     0.200 A 
ATOM    106  F   UNL A   1      44.814  36.187  27.053  1.00  0.00    -0.200 F 
ATOM    107  F   UNL A   1      45.913  36.957  29.427  1.00  0.00    -0.200 F 
ENDBRANCH  74  97
ENDBRANCH  48  49
ENDBRANCH  41  43
ENDBRANCH  40  41
ENDBRANCH  39  40
ENDBRANCH  38  39
ENDBRANCH  37  38
ENDBRANCH  36  37
ENDBRANCH   1  36
TORSDOF 21
ENDMDL
