MODEL 1
REMARK VINA RESULT:     -12.5      0.000      0.000
REMARK SMILES O=C(OCCOCCOCCOC(=O)[C@H]1CC2=c3ccccc3=N[C@H]2[C@H](c2ccccc2F)[NH2+]1)c1ccc(-c2c3nc(c(-c4c(F)c(F)c(F)c(F)c4F)c4ccc([nH]4)c(-c4c(F)c(F)c(F)c(F)c4F)c4nc(c(-c5c(F)c(F)c(F)c(F)c5F)c5ccc2[nH]5)C=C4)C=C3)cc1
REMARK SMILES IDX 7 1 6 2 5 3 4 4 3 5 2 6 1 7 35 8 36 9 97 10 37 11 96 12
REMARK SMILES IDX 38 13 39 14 40 15 90 16 41 17 95 18 89 19 91 20 42 21 94 22
REMARK SMILES IDX 88 23 87 24 43 26 75 27 55 28 74 29 56 30 59 31 73 32 92 33
REMARK SMILES IDX 57 34 58 35 72 37 93 38 60 39 44 40 45 41 53 42 46 43 47 44
REMARK SMILES IDX 51 45 54 46 48 47 49 48 52 49 50 50 76 51 77 52 85 53 78 54
REMARK SMILES IDX 79 55 83 56 86 57 80 58 81 59 84 60 82 61 61 62 62 63 70 64
REMARK SMILES IDX 63 65 64 66 68 67 71 68 65 69 66 70 69 71 67 72 8 73 9 74
REMARK SMILES IDX 10 75 11 76 12 77 13 78 14 79 15 80 16 81 34 82 17 83 26 84
REMARK SMILES IDX 18 87 25 88 19 89 23 90 24 91 20 92 22 93 21 94 27 95 28 96
REMARK SMILES IDX 32 97 29 98 31 99 33 100 30 101
REMARK H PARENT 91 25 59 36 34 85 34 86
REMARK Flexibility Score: inf
ROOT
ATOM      1  C   UNL A   1      36.928  22.241  25.657  1.00  0.00     0.188 C 
ENDROOT
BRANCH   1   2
ATOM      2  O   UNL A   1      38.216  21.609  25.674  1.00  0.00    -0.376 OA
BRANCH   2   3
ATOM      3  C   UNL A   1      38.228  20.336  25.022  1.00  0.00     0.202 C 
BRANCH   3   4
ATOM      4  C   UNL A   1      38.974  19.208  25.750  1.00  0.00     0.261 C 
BRANCH   4   5
ATOM      5  O   UNL A   1      40.397  19.204  25.564  1.00  0.00    -0.460 OA
BRANCH   5   6
ATOM      6  C   UNL A   1      41.364  19.682  26.387  1.00  0.00     0.338 C 
ATOM      7  O   UNL A   1      42.038  18.867  27.015  1.00  0.00    -0.246 OA
BRANCH   6   8
ATOM      8  C   UNL A   1      41.583  21.142  26.674  1.00  0.00     0.060 A 
ATOM      9  C   UNL A   1      41.658  21.529  28.025  1.00  0.00     0.016 A 
ATOM     10  C   UNL A   1      41.731  22.149  25.721  1.00  0.00     0.016 A 
ATOM     11  C   UNL A   1      41.840  22.876  28.391  1.00  0.00     0.010 A 
ATOM     12  C   UNL A   1      41.910  23.487  26.075  1.00  0.00     0.010 A 
ATOM     13  C   UNL A   1      41.960  23.876  27.409  1.00  0.00    -0.014 A 
BRANCH  13  14
ATOM     14  C   UNL A   1      42.424  25.243  27.731  1.00  0.00     0.031 A 
ATOM     15  C   UNL A   1      43.862  25.665  27.871  1.00  0.00     0.074 A 
ATOM     16  C   UNL A   1      41.501  26.116  28.165  1.00  0.00     0.049 A 
ATOM     17  N   UNL A   1      44.384  26.846  27.649  1.00  0.00    -0.248 NA
ATOM     18  C   UNL A   1      44.853  24.688  28.339  1.00  0.00     0.031 C 
ATOM     19  C   UNL A   1      40.096  25.813  28.449  1.00  0.00     0.029 A 
ATOM     20  N   UNL A   1      41.653  27.415  28.547  1.00  0.00    -0.354 N 
ATOM     21  C   UNL A   1      45.768  26.660  27.654  1.00  0.00     0.074 A 
ATOM     22  C   UNL A   1      46.002  25.351  28.185  1.00  0.00     0.031 C 
ATOM     23  C   UNL A   1      39.540  26.878  29.048  1.00  0.00     0.029 A 
ATOM     24  C   UNL A   1      40.533  27.945  29.118  1.00  0.00     0.049 A 
ATOM     25  H   UNL A   1      42.489  27.921  28.423  1.00  0.00     0.167 HD
ATOM     26  C   UNL A   1      46.659  27.499  27.063  1.00  0.00     0.037 A 
ATOM     27  C   UNL A   1      40.357  29.173  29.634  1.00  0.00     0.037 A 
ATOM     28  C   UNL A   1      46.357  28.904  26.974  1.00  0.00     0.049 A 
ATOM     29  C   UNL A   1      41.457  30.179  29.440  1.00  0.00     0.074 A 
ATOM     30  C   UNL A   1      47.119  29.953  26.503  1.00  0.00     0.029 A 
ATOM     31  N   UNL A   1      45.213  29.455  27.535  1.00  0.00    -0.354 N 
ATOM     32  N   UNL A   1      42.604  30.041  28.813  1.00  0.00    -0.248 NA
ATOM     33  C   UNL A   1      41.227  31.520  29.983  1.00  0.00     0.031 C 
ATOM     34  C   UNL A   1      46.507  31.142  26.940  1.00  0.00     0.029 A 
ATOM     35  C   UNL A   1      45.336  30.823  27.616  1.00  0.00     0.049 A 
ATOM     36  H   UNL A   1      44.427  28.941  27.833  1.00  0.00     0.167 HD
ATOM     37  C   UNL A   1      43.220  31.284  28.854  1.00  0.00     0.074 A 
ATOM     38  C   UNL A   1      42.310  32.164  29.566  1.00  0.00     0.031 C 
ATOM     39  C   UNL A   1      44.419  31.668  28.342  1.00  0.00     0.037 A 
BRANCH  26  40
ATOM     40  C   UNL A   1      47.944  27.003  26.440  1.00  0.00     0.064 A 
ATOM     41  C   UNL A   1      48.039  26.790  25.044  1.00  0.00     0.173 A 
ATOM     42  C   UNL A   1      49.140  26.938  27.153  1.00  0.00     0.173 A 
ATOM     43  F   UNL A   1      46.972  26.902  24.249  1.00  0.00    -0.203 F 
ATOM     44  C   UNL A   1      49.245  26.504  24.404  1.00  0.00     0.198 A 
ATOM     45  C   UNL A   1      50.358  26.676  26.508  1.00  0.00     0.198 A 
ATOM     46  F   UNL A   1      49.144  27.176  28.472  1.00  0.00    -0.203 F 
ATOM     47  F   UNL A   1      49.270  26.310  23.078  1.00  0.00    -0.200 F 
ATOM     48  C   UNL A   1      50.410  26.458  25.138  1.00  0.00     0.200 A 
ATOM     49  F   UNL A   1      51.496  26.669  27.215  1.00  0.00    -0.200 F 
ATOM     50  F   UNL A   1      51.578  26.231  24.523  1.00  0.00    -0.200 F 
ENDBRANCH  26  40
BRANCH  27  51
ATOM     51  C   UNL A   1      39.070  29.484  30.292  1.00  0.00     0.064 A 
ATOM     52  C   UNL A   1      38.905  29.313  31.670  1.00  0.00     0.173 A 
ATOM     53  C   UNL A   1      38.012  30.064  29.570  1.00  0.00     0.173 A 
ATOM     54  F   UNL A   1      39.891  28.768  32.397  1.00  0.00    -0.203 F 
ATOM     55  C   UNL A   1      37.731  29.708  32.305  1.00  0.00     0.198 A 
ATOM     56  C   UNL A   1      36.846  30.477  30.210  1.00  0.00     0.198 A 
ATOM     57  F   UNL A   1      38.130  30.267  28.249  1.00  0.00    -0.203 F 
ATOM     58  F   UNL A   1      37.596  29.529  33.626  1.00  0.00    -0.200 F 
ATOM     59  C   UNL A   1      36.707  30.299  31.579  1.00  0.00     0.200 A 
ATOM     60  F   UNL A   1      35.870  31.068  29.508  1.00  0.00    -0.200 F 
ATOM     61  F   UNL A   1      35.589  30.700  32.197  1.00  0.00    -0.200 F 
ENDBRANCH  27  51
BRANCH  39  62
ATOM     62  C   UNL A   1      44.841  33.084  28.569  1.00  0.00     0.064 A 
ATOM     63  C   UNL A   1      44.441  34.106  27.696  1.00  0.00     0.173 A 
ATOM     64  C   UNL A   1      45.574  33.437  29.711  1.00  0.00     0.173 A 
ATOM     65  F   UNL A   1      43.745  33.813  26.587  1.00  0.00    -0.203 F 
ATOM     66  C   UNL A   1      44.778  35.430  27.949  1.00  0.00     0.198 A 
ATOM     67  C   UNL A   1      45.875  34.766  29.981  1.00  0.00     0.198 A 
ATOM     68  F   UNL A   1      45.965  32.494  30.581  1.00  0.00    -0.203 F 
ATOM     69  F   UNL A   1      44.423  36.386  27.080  1.00  0.00    -0.200 F 
ATOM     70  C   UNL A   1      45.482  35.761  29.097  1.00  0.00     0.200 A 
ATOM     71  F   UNL A   1      46.532  35.087  31.104  1.00  0.00    -0.200 F 
ATOM     72  F   UNL A   1      45.786  37.041  29.351  1.00  0.00    -0.200 F 
ENDBRANCH  39  62
ENDBRANCH  13  14
ENDBRANCH   6   8
ENDBRANCH   5   6
ENDBRANCH   4   5
ENDBRANCH   3   4
ENDBRANCH   2   3
ENDBRANCH   1   2
BRANCH   1  73
ATOM     73  C   UNL A   1      35.882  21.450  24.863  1.00  0.00     0.188 C 
BRANCH  73  74
ATOM     74  O   UNL A   1      34.723  21.036  25.593  1.00  0.00    -0.376 OA
BRANCH  74  75
ATOM     75  C   UNL A   1      33.465  21.560  25.175  1.00  0.00     0.202 C 
BRANCH  75  76
ATOM     76  C   UNL A   1      32.524  22.084  26.279  1.00  0.00     0.261 C 
BRANCH  76  77
ATOM     77  O   UNL A   1      31.239  22.464  25.761  1.00  0.00    -0.459 OA
BRANCH  77  78
ATOM     78  C   UNL A   1      30.499  23.381  26.473  1.00  0.00     0.365 C 
ATOM     79  O   UNL A   1      29.862  23.145  27.482  1.00  0.00    -0.245 OA
BRANCH  78  80
ATOM     80  C   UNL A   1      30.704  24.773  25.839  1.00  0.00     0.298 C 
ATOM     81  C   UNL A   1      29.461  25.550  25.276  1.00  0.00     0.111 C 
ATOM     82  N   UNL A   1      31.535  25.654  26.735  1.00  0.00    -0.326 N 
ATOM     83  C   UNL A   1      29.936  26.718  24.383  1.00  0.00    -0.024 C 
ATOM     84  C   UNL A   1      31.439  27.048  26.213  1.00  0.00     0.246 C 
ATOM     85  H   UNL A   1      32.507  25.344  26.723  1.00  0.00     0.347 HD
ATOM     86  H   UNL A   1      31.198  25.608  27.696  1.00  0.00     0.347 HD
ATOM     87  C   UNL A   1      29.449  27.702  23.609  1.00  0.00     0.002 A 
ATOM     88  C   UNL A   1      31.398  26.994  24.651  1.00  0.00     0.196 C 
ATOM     89  C   UNL A   1      28.199  28.210  23.135  1.00  0.00     0.010 A 
ATOM     90  C   UNL A   1      30.654  28.521  23.321  1.00  0.00     0.066 A 
ATOM     91  N   UNL A   1      31.758  28.214  23.916  1.00  0.00    -0.270 NA
ATOM     92  C   UNL A   1      28.130  29.327  22.390  1.00  0.00     0.001 A 
ATOM     93  C   UNL A   1      30.535  29.665  22.399  1.00  0.00     0.028 A 
ATOM     94  C   UNL A   1      29.320  30.029  21.971  1.00  0.00     0.002 A 
BRANCH  84  95
ATOM     95  C   UNL A   1      32.375  28.108  26.692  1.00  0.00     0.048 A 
ATOM     96  C   UNL A   1      31.778  29.328  27.093  1.00  0.00     0.013 A 
ATOM     97  C   UNL A   1      33.746  28.052  26.514  1.00  0.00     0.132 A 
ATOM     98  C   UNL A   1      32.534  30.484  27.210  1.00  0.00     0.001 A 
ATOM     99  C   UNL A   1      34.513  29.202  26.666  1.00  0.00     0.040 A 
ATOM    100  F   UNL A   1      34.343  26.918  26.124  1.00  0.00    -0.206 F 
ATOM    101  C   UNL A   1      33.903  30.421  26.982  1.00  0.00     0.003 A 
ENDBRANCH  84  95
ENDBRANCH  78  80
ENDBRANCH  77  78
ENDBRANCH  76  77
ENDBRANCH  75  76
ENDBRANCH  74  75
ENDBRANCH  73  74
ENDBRANCH   1  73
TORSDOF 18
ENDMDL
MODEL 2
REMARK VINA RESULT:     -12.3      4.437      9.856
REMARK SMILES O=C(OCCOCCOCCOC(=O)[C@H]1CC2=c3ccccc3=N[C@H]2[C@H](c2ccccc2F)[NH2+]1)c1ccc(-c2c3nc(c(-c4c(F)c(F)c(F)c(F)c4F)c4ccc([nH]4)c(-c4c(F)c(F)c(F)c(F)c4F)c4nc(c(-c5c(F)c(F)c(F)c(F)c5F)c5ccc2[nH]5)C=C4)C=C3)cc1
REMARK SMILES IDX 7 1 6 2 5 3 4 4 3 5 2 6 1 7 35 8 36 9 97 10 37 11 96 12
REMARK SMILES IDX 38 13 39 14 40 15 90 16 41 17 95 18 89 19 91 20 42 21 94 22
REMARK SMILES IDX 88 23 87 24 43 26 75 27 55 28 74 29 56 30 59 31 73 32 92 33
REMARK SMILES IDX 57 34 58 35 72 37 93 38 60 39 44 40 45 41 53 42 46 43 47 44
REMARK SMILES IDX 51 45 54 46 48 47 49 48 52 49 50 50 76 51 77 52 85 53 78 54
REMARK SMILES IDX 79 55 83 56 86 57 80 58 81 59 84 60 82 61 61 62 62 63 70 64
REMARK SMILES IDX 63 65 64 66 68 67 71 68 65 69 66 70 69 71 67 72 8 73 9 74
REMARK SMILES IDX 10 75 11 76 12 77 13 78 14 79 15 80 16 81 34 82 17 83 26 84
REMARK SMILES IDX 18 87 25 88 19 89 23 90 24 91 20 92 22 93 21 94 27 95 28 96
REMARK SMILES IDX 32 97 29 98 31 99 33 100 30 101
REMARK H PARENT 91 25 59 36 34 85 34 86
REMARK Flexibility Score: inf
ROOT
ATOM      1  C   UNL A   1      31.328  29.469  24.987  1.00  0.00     0.188 C 
ENDROOT
BRANCH   1   2
ATOM      2  O   UNL A   1      31.357  28.483  26.029  1.00  0.00    -0.376 OA
BRANCH   2   3
ATOM      3  C   UNL A   1      32.486  28.613  26.896  1.00  0.00     0.202 C 
BRANCH   3   4
ATOM      4  C   UNL A   1      33.597  29.564  26.426  1.00  0.00     0.261 C 
BRANCH   4   5
ATOM      5  O   UNL A   1      33.733  30.766  27.198  1.00  0.00    -0.460 OA
BRANCH   5   6
ATOM      6  C   UNL A   1      34.860  31.331  27.701  1.00  0.00     0.338 C 
ATOM      7  O   UNL A   1      34.973  32.554  27.626  1.00  0.00    -0.246 OA
BRANCH   6   8
ATOM      8  C   UNL A   1      36.032  30.550  28.232  1.00  0.00     0.060 A 
ATOM      9  C   UNL A   1      37.166  30.448  27.405  1.00  0.00     0.016 A 
ATOM     10  C   UNL A   1      36.102  29.928  29.477  1.00  0.00     0.016 A 
ATOM     11  C   UNL A   1      38.301  29.721  27.807  1.00  0.00     0.010 A 
ATOM     12  C   UNL A   1      37.223  29.203  29.883  1.00  0.00     0.010 A 
ATOM     13  C   UNL A   1      38.336  29.080  29.059  1.00  0.00    -0.014 A 
BRANCH  13  14
ATOM     14  C   UNL A   1      39.589  28.547  29.636  1.00  0.00     0.031 A 
ATOM     15  C   UNL A   1      40.437  29.240  30.668  1.00  0.00     0.074 A 
ATOM     16  C   UNL A   1      40.141  27.486  29.026  1.00  0.00     0.049 A 
ATOM     17  N   UNL A   1      41.215  28.698  31.573  1.00  0.00    -0.248 NA
ATOM     18  C   UNL A   1      40.465  30.707  30.705  1.00  0.00     0.031 C 
ATOM     19  C   UNL A   1      39.674  26.869  27.782  1.00  0.00     0.029 A 
ATOM     20  N   UNL A   1      41.288  26.815  29.328  1.00  0.00    -0.354 N 
ATOM     21  C   UNL A   1      41.561  29.729  32.449  1.00  0.00     0.074 A 
ATOM     22  C   UNL A   1      41.167  30.952  31.815  1.00  0.00     0.031 C 
ATOM     23  C   UNL A   1      40.584  25.968  27.382  1.00  0.00     0.029 A 
ATOM     24  C   UNL A   1      41.648  25.905  28.379  1.00  0.00     0.049 A 
ATOM     25  H   UNL A   1      41.805  26.973  30.151  1.00  0.00     0.167 HD
ATOM     26  C   UNL A   1      41.987  29.544  33.725  1.00  0.00     0.037 A 
ATOM     27  C   UNL A   1      42.733  25.113  28.346  1.00  0.00     0.037 A 
ATOM     28  C   UNL A   1      42.725  28.354  34.060  1.00  0.00     0.049 A 
ATOM     29  C   UNL A   1      43.610  25.076  29.566  1.00  0.00     0.074 A 
ATOM     30  C   UNL A   1      43.326  27.979  35.244  1.00  0.00     0.029 A 
ATOM     31  N   UNL A   1      43.084  27.410  33.107  1.00  0.00    -0.354 N 
ATOM     32  N   UNL A   1      43.472  25.717  30.706  1.00  0.00    -0.248 NA
ATOM     33  C   UNL A   1      44.768  24.180  29.519  1.00  0.00     0.031 C 
ATOM     34  C   UNL A   1      44.185  26.904  34.953  1.00  0.00     0.029 A 
ATOM     35  C   UNL A   1      44.057  26.577  33.609  1.00  0.00     0.049 A 
ATOM     36  H   UNL A   1      42.698  27.346  32.203  1.00  0.00     0.167 HD
ATOM     37  C   UNL A   1      44.502  25.278  31.526  1.00  0.00     0.074 A 
ATOM     38  C   UNL A   1      45.254  24.310  30.747  1.00  0.00     0.031 C 
ATOM     39  C   UNL A   1      44.794  25.632  32.805  1.00  0.00     0.037 A 
BRANCH  26  40
ATOM     40  C   UNL A   1      41.668  30.522  34.833  1.00  0.00     0.064 A 
ATOM     41  C   UNL A   1      42.613  31.496  35.235  1.00  0.00     0.173 A 
ATOM     42  C   UNL A   1      40.384  30.660  35.359  1.00  0.00     0.173 A 
ATOM     43  F   UNL A   1      43.853  31.510  34.739  1.00  0.00    -0.203 F 
ATOM     44  C   UNL A   1      42.304  32.526  36.124  1.00  0.00     0.198 A 
ATOM     45  C   UNL A   1      40.065  31.710  36.233  1.00  0.00     0.198 A 
ATOM     46  F   UNL A   1      39.418  29.807  34.989  1.00  0.00    -0.203 F 
ATOM     47  F   UNL A   1      43.244  33.418  36.468  1.00  0.00    -0.200 F 
ATOM     48  C   UNL A   1      41.022  32.639  36.616  1.00  0.00     0.200 A 
ATOM     49  F   UNL A   1      38.809  31.842  36.681  1.00  0.00    -0.200 F 
ATOM     50  F   UNL A   1      40.706  33.653  37.432  1.00  0.00    -0.200 F 
ENDBRANCH  26  40
BRANCH  27  51
ATOM     51  C   UNL A   1      42.957  24.271  27.151  1.00  0.00     0.064 A 
ATOM     52  C   UNL A   1      43.935  24.605  26.209  1.00  0.00     0.173 A 
ATOM     53  C   UNL A   1      42.271  23.055  26.986  1.00  0.00     0.173 A 
ATOM     54  F   UNL A   1      44.615  25.753  26.332  1.00  0.00    -0.203 F 
ATOM     55  C   UNL A   1      44.220  23.756  25.143  1.00  0.00     0.198 A 
ATOM     56  C   UNL A   1      42.572  22.199  25.930  1.00  0.00     0.198 A 
ATOM     57  F   UNL A   1      41.339  22.682  27.875  1.00  0.00    -0.203 F 
ATOM     58  F   UNL A   1      45.158  24.102  24.250  1.00  0.00    -0.200 F 
ATOM     59  C   UNL A   1      43.547  22.550  25.009  1.00  0.00     0.200 A 
ATOM     60  F   UNL A   1      41.936  21.024  25.818  1.00  0.00    -0.200 F 
ATOM     61  F   UNL A   1      43.842  21.725  23.996  1.00  0.00    -0.200 F 
ENDBRANCH  27  51
BRANCH  39  62
ATOM     62  C   UNL A   1      45.999  25.007  33.431  1.00  0.00     0.064 A 
ATOM     63  C   UNL A   1      47.248  25.644  33.390  1.00  0.00     0.173 A 
ATOM     64  C   UNL A   1      45.889  23.809  34.151  1.00  0.00     0.173 A 
ATOM     65  F   UNL A   1      47.401  26.788  32.706  1.00  0.00    -0.203 F 
ATOM     66  C   UNL A   1      48.350  25.092  34.033  1.00  0.00     0.198 A 
ATOM     67  C   UNL A   1      46.984  23.281  34.825  1.00  0.00     0.198 A 
ATOM     68  F   UNL A   1      44.711  23.173  34.229  1.00  0.00    -0.203 F 
ATOM     69  F   UNL A   1      49.543  25.694  33.946  1.00  0.00    -0.200 F 
ATOM     70  C   UNL A   1      48.214  23.918  34.760  1.00  0.00     0.200 A 
ATOM     71  F   UNL A   1      46.845  22.162  35.549  1.00  0.00    -0.200 F 
ATOM     72  F   UNL A   1      49.272  23.400  35.399  1.00  0.00    -0.200 F 
ENDBRANCH  39  62
ENDBRANCH  13  14
ENDBRANCH   6   8
ENDBRANCH   5   6
ENDBRANCH   4   5
ENDBRANCH   3   4
ENDBRANCH   2   3
ENDBRANCH   1   2
BRANCH   1  73
ATOM     73  C   UNL A   1      30.678  28.960  23.695  1.00  0.00     0.188 C 
BRANCH  73  74
ATOM     74  O   UNL A   1      31.577  28.521  22.672  1.00  0.00    -0.376 OA
BRANCH  74  75
ATOM     75  C   UNL A   1      32.973  28.614  22.943  1.00  0.00     0.202 C 
BRANCH  75  76
ATOM     76  C   UNL A   1      33.689  27.320  23.380  1.00  0.00     0.261 C 
BRANCH  76  77
ATOM     77  O   UNL A   1      33.911  26.424  22.279  1.00  0.00    -0.459 OA
BRANCH  77  78
ATOM     78  C   UNL A   1      32.946  25.481  22.009  1.00  0.00     0.365 C 
ATOM     79  O   UNL A   1      32.079  25.578  21.161  1.00  0.00    -0.245 OA
BRANCH  78  80
ATOM     80  C   UNL A   1      33.216  24.240  22.886  1.00  0.00     0.298 C 
ATOM     81  C   UNL A   1      32.877  22.814  22.322  1.00  0.00     0.111 C 
ATOM     82  N   UNL A   1      34.608  24.281  23.461  1.00  0.00    -0.326 N 
ATOM     83  C   UNL A   1      32.881  21.783  23.473  1.00  0.00    -0.024 C 
ATOM     84  C   UNL A   1      34.899  22.935  24.035  1.00  0.00     0.246 C 
ATOM     85  H   UNL A   1      34.661  24.991  24.192  1.00  0.00     0.347 HD
ATOM     86  H   UNL A   1      35.287  24.516  22.737  1.00  0.00     0.347 HD
ATOM     87  C   UNL A   1      32.658  20.479  23.704  1.00  0.00     0.002 A 
ATOM     88  C   UNL A   1      33.588  22.370  24.673  1.00  0.00     0.196 C 
ATOM     89  C   UNL A   1      32.249  19.295  23.013  1.00  0.00     0.010 A 
ATOM     90  C   UNL A   1      33.140  20.304  25.097  1.00  0.00     0.066 A 
ATOM     91  N   UNL A   1      33.721  21.304  25.673  1.00  0.00    -0.270 NA
ATOM     92  C   UNL A   1      32.217  18.098  23.624  1.00  0.00     0.001 A 
ATOM     93  C   UNL A   1      32.968  18.995  25.752  1.00  0.00     0.028 A 
ATOM     94  C   UNL A   1      32.527  17.959  25.027  1.00  0.00     0.002 A 
BRANCH  84  95
ATOM     95  C   UNL A   1      36.070  22.729  24.936  1.00  0.00     0.048 A 
ATOM     96  C   UNL A   1      36.541  23.878  25.616  1.00  0.00     0.013 A 
ATOM     97  C   UNL A   1      36.847  21.584  24.927  1.00  0.00     0.132 A 
ATOM     98  C   UNL A   1      37.806  23.902  26.183  1.00  0.00     0.001 A 
ATOM     99  C   UNL A   1      38.102  21.592  25.526  1.00  0.00     0.040 A 
ATOM    100  F   UNL A   1      36.440  20.482  24.284  1.00  0.00    -0.206 F 
ATOM    101  C   UNL A   1      38.592  22.758  26.124  1.00  0.00     0.003 A 
ENDBRANCH  84  95
ENDBRANCH  78  80
ENDBRANCH  77  78
ENDBRANCH  76  77
ENDBRANCH  75  76
ENDBRANCH  74  75
ENDBRANCH  73  74
ENDBRANCH   1  73
TORSDOF 18
ENDMDL
MODEL 3
REMARK VINA RESULT:     -12.3      1.559      2.502
REMARK SMILES O=C(OCCOCCOCCOC(=O)[C@H]1CC2=c3ccccc3=N[C@H]2[C@H](c2ccccc2F)[NH2+]1)c1ccc(-c2c3nc(c(-c4c(F)c(F)c(F)c(F)c4F)c4ccc([nH]4)c(-c4c(F)c(F)c(F)c(F)c4F)c4nc(c(-c5c(F)c(F)c(F)c(F)c5F)c5ccc2[nH]5)C=C4)C=C3)cc1
REMARK SMILES IDX 7 1 6 2 5 3 4 4 3 5 2 6 1 7 35 8 36 9 97 10 37 11 96 12
REMARK SMILES IDX 38 13 39 14 40 15 90 16 41 17 95 18 89 19 91 20 42 21 94 22
REMARK SMILES IDX 88 23 87 24 43 26 75 27 55 28 74 29 56 30 59 31 73 32 92 33
REMARK SMILES IDX 57 34 58 35 72 37 93 38 60 39 44 40 45 41 53 42 46 43 47 44
REMARK SMILES IDX 51 45 54 46 48 47 49 48 52 49 50 50 76 51 77 52 85 53 78 54
REMARK SMILES IDX 79 55 83 56 86 57 80 58 81 59 84 60 82 61 61 62 62 63 70 64
REMARK SMILES IDX 63 65 64 66 68 67 71 68 65 69 66 70 69 71 67 72 8 73 9 74
REMARK SMILES IDX 10 75 11 76 12 77 13 78 14 79 15 80 16 81 34 82 17 83 26 84
REMARK SMILES IDX 18 87 25 88 19 89 23 90 24 91 20 92 22 93 21 94 27 95 28 96
REMARK SMILES IDX 32 97 29 98 31 99 33 100 30 101
REMARK H PARENT 91 25 59 36 34 85 34 86
REMARK Flexibility Score: inf
ROOT
ATOM      1  C   UNL A   1      35.442  24.039  25.361  1.00  0.00     0.188 C 
ENDROOT
BRANCH   1   2
ATOM      2  O   UNL A   1      36.779  23.535  25.496  1.00  0.00    -0.376 OA
BRANCH   2   3
ATOM      3  C   UNL A   1      37.015  22.352  24.728  1.00  0.00     0.202 C 
BRANCH   3   4
ATOM      4  C   UNL A   1      37.770  21.219  25.441  1.00  0.00     0.261 C 
BRANCH   4   5
ATOM      5  O   UNL A   1      39.193  21.392  25.514  1.00  0.00    -0.460 OA
BRANCH   5   6
ATOM      6  C   UNL A   1      39.958  21.693  26.594  1.00  0.00     0.338 C 
ATOM      7  O   UNL A   1      40.352  20.763  27.296  1.00  0.00    -0.246 OA
BRANCH   6   8
ATOM      8  C   UNL A   1      40.252  23.094  27.056  1.00  0.00     0.060 A 
ATOM      9  C   UNL A   1      41.189  23.246  28.096  1.00  0.00     0.016 A 
ATOM     10  C   UNL A   1      39.690  24.260  26.539  1.00  0.00     0.016 A 
ATOM     11  C   UNL A   1      41.513  24.516  28.608  1.00  0.00     0.010 A 
ATOM     12  C   UNL A   1      40.005  25.523  27.043  1.00  0.00     0.010 A 
ATOM     13  C   UNL A   1      40.912  25.674  28.086  1.00  0.00    -0.014 A 
BRANCH  13  14
ATOM     14  C   UNL A   1      41.416  27.031  28.394  1.00  0.00     0.031 A 
ATOM     15  C   UNL A   1      42.865  27.436  28.422  1.00  0.00     0.074 A 
ATOM     16  C   UNL A   1      40.543  27.903  28.922  1.00  0.00     0.049 A 
ATOM     17  N   UNL A   1      43.380  28.616  28.180  1.00  0.00    -0.248 NA
ATOM     18  C   UNL A   1      43.881  26.440  28.786  1.00  0.00     0.031 C 
ATOM     19  C   UNL A   1      39.163  27.608  29.316  1.00  0.00     0.029 A 
ATOM     20  N   UNL A   1      40.740  29.193  29.315  1.00  0.00    -0.354 N 
ATOM     21  C   UNL A   1      44.757  28.417  28.064  1.00  0.00     0.074 A 
ATOM     22  C   UNL A   1      45.021  27.095  28.549  1.00  0.00     0.031 C 
ATOM     23  C   UNL A   1      38.671  28.666  29.980  1.00  0.00     0.029 A 
ATOM     24  C   UNL A   1      39.678  29.722  29.988  1.00  0.00     0.049 A 
ATOM     25  H   UNL A   1      41.569  29.693  29.131  1.00  0.00     0.167 HD
ATOM     26  C   UNL A   1      45.605  29.259  27.417  1.00  0.00     0.037 A 
ATOM     27  C   UNL A   1      39.560  30.940  30.541  1.00  0.00     0.037 A 
ATOM     28  C   UNL A   1      45.313  30.669  27.381  1.00  0.00     0.049 A 
ATOM     29  C   UNL A   1      40.651  31.940  30.275  1.00  0.00     0.074 A 
ATOM     30  C   UNL A   1      46.044  31.720  26.868  1.00  0.00     0.029 A 
ATOM     31  N   UNL A   1      44.226  31.219  28.047  1.00  0.00    -0.354 N 
ATOM     32  N   UNL A   1      41.740  31.804  29.550  1.00  0.00    -0.248 NA
ATOM     33  C   UNL A   1      40.482  33.271  30.861  1.00  0.00     0.031 C 
ATOM     34  C   UNL A   1      45.484  32.905  27.378  1.00  0.00     0.029 A 
ATOM     35  C   UNL A   1      44.371  32.583  28.144  1.00  0.00     0.049 A 
ATOM     36  H   UNL A   1      43.462  30.706  28.400  1.00  0.00     0.167 HD
ATOM     37  C   UNL A   1      42.371  33.040  29.564  1.00  0.00     0.074 A 
ATOM     38  C   UNL A   1      41.534  33.913  30.367  1.00  0.00     0.031 C 
ATOM     39  C   UNL A   1      43.527  33.422  28.960  1.00  0.00     0.037 A 
BRANCH  26  40
ATOM     40  C   UNL A   1      46.828  28.764  26.679  1.00  0.00     0.064 A 
ATOM     41  C   UNL A   1      48.110  28.824  27.277  1.00  0.00     0.173 A 
ATOM     42  C   UNL A   1      46.739  28.040  25.491  1.00  0.00     0.173 A 
ATOM     43  F   UNL A   1      48.301  29.424  28.454  1.00  0.00    -0.203 F 
ATOM     44  C   UNL A   1      49.234  28.223  26.712  1.00  0.00     0.198 A 
ATOM     45  C   UNL A   1      47.864  27.414  24.934  1.00  0.00     0.198 A 
ATOM     46  F   UNL A   1      45.551  27.894  24.887  1.00  0.00    -0.203 F 
ATOM     47  F   UNL A   1      50.423  28.317  27.326  1.00  0.00    -0.200 F 
ATOM     48  C   UNL A   1      49.108  27.507  25.542  1.00  0.00     0.200 A 
ATOM     49  F   UNL A   1      47.734  26.686  23.817  1.00  0.00    -0.200 F 
ATOM     50  F   UNL A   1      50.175  26.888  25.019  1.00  0.00    -0.200 F 
ENDBRANCH  26  40
BRANCH  27  51
ATOM     51  C   UNL A   1      38.336  31.250  31.310  1.00  0.00     0.064 A 
ATOM     52  C   UNL A   1      38.342  31.238  32.709  1.00  0.00     0.173 A 
ATOM     53  C   UNL A   1      37.163  31.674  30.661  1.00  0.00     0.173 A 
ATOM     54  F   UNL A   1      39.441  30.845  33.367  1.00  0.00    -0.203 F 
ATOM     55  C   UNL A   1      37.221  31.635  33.432  1.00  0.00     0.198 A 
ATOM     56  C   UNL A   1      36.050  32.090  31.387  1.00  0.00     0.198 A 
ATOM     57  F   UNL A   1      37.115  31.723  29.321  1.00  0.00    -0.203 F 
ATOM     58  F   UNL A   1      37.250  31.608  34.772  1.00  0.00    -0.200 F 
ATOM     59  C   UNL A   1      36.080  32.070  32.773  1.00  0.00     0.200 A 
ATOM     60  F   UNL A   1      34.959  32.532  30.746  1.00  0.00    -0.200 F 
ATOM     61  F   UNL A   1      35.013  32.475  33.474  1.00  0.00    -0.200 F 
ENDBRANCH  27  51
BRANCH  39  62
ATOM     62  C   UNL A   1      43.982  34.830  29.179  1.00  0.00     0.064 A 
ATOM     63  C   UNL A   1      44.894  35.145  30.196  1.00  0.00     0.173 A 
ATOM     64  C   UNL A   1      43.573  35.854  28.313  1.00  0.00     0.173 A 
ATOM     65  F   UNL A   1      45.306  34.198  31.052  1.00  0.00    -0.203 F 
ATOM     66  C   UNL A   1      45.366  36.443  30.351  1.00  0.00     0.198 A 
ATOM     67  C   UNL A   1      44.077  37.142  28.447  1.00  0.00     0.198 A 
ATOM     68  F   UNL A   1      42.713  35.595  27.317  1.00  0.00    -0.203 F 
ATOM     69  F   UNL A   1      46.203  36.733  31.356  1.00  0.00    -0.200 F 
ATOM     70  C   UNL A   1      44.968  37.437  29.469  1.00  0.00     0.200 A 
ATOM     71  F   UNL A   1      43.713  38.095  27.578  1.00  0.00    -0.200 F 
ATOM     72  F   UNL A   1      45.442  38.683  29.606  1.00  0.00    -0.200 F 
ENDBRANCH  39  62
ENDBRANCH  13  14
ENDBRANCH   6   8
ENDBRANCH   5   6
ENDBRANCH   4   5
ENDBRANCH   3   4
ENDBRANCH   2   3
ENDBRANCH   1   2
BRANCH   1  73
ATOM     73  C   UNL A   1      34.828  23.751  23.986  1.00  0.00     0.188 C 
BRANCH  73  74
ATOM     74  O   UNL A   1      33.708  22.862  23.973  1.00  0.00    -0.376 OA
BRANCH  74  75
ATOM     75  C   UNL A   1      33.347  22.246  25.207  1.00  0.00     0.202 C 
BRANCH  75  76
ATOM     76  C   UNL A   1      31.887  21.770  25.352  1.00  0.00     0.261 C 
BRANCH  76  77
ATOM     77  O   UNL A   1      30.958  22.866  25.366  1.00  0.00    -0.459 OA
BRANCH  77  78
ATOM     78  C   UNL A   1      31.117  23.837  26.328  1.00  0.00     0.365 C 
ATOM     79  O   UNL A   1      31.271  23.636  27.518  1.00  0.00    -0.245 OA
BRANCH  78  80
ATOM     80  C   UNL A   1      31.177  25.212  25.629  1.00  0.00     0.298 C 
ATOM     81  C   UNL A   1      29.841  25.899  25.172  1.00  0.00     0.111 C 
ATOM     82  N   UNL A   1      32.044  26.171  26.404  1.00  0.00    -0.326 N 
ATOM     83  C   UNL A   1      30.157  27.055  24.197  1.00  0.00    -0.024 C 
ATOM     84  C   UNL A   1      31.817  27.536  25.848  1.00  0.00     0.246 C 
ATOM     85  H   UNL A   1      33.026  25.912  26.301  1.00  0.00     0.347 HD
ATOM     86  H   UNL A   1      31.810  26.144  27.396  1.00  0.00     0.347 HD
ATOM     87  C   UNL A   1      29.539  27.981  23.444  1.00  0.00     0.002 A 
ATOM     88  C   UNL A   1      31.620  27.419  24.301  1.00  0.00     0.196 C 
ATOM     89  C   UNL A   1      28.220  28.404  23.087  1.00  0.00     0.010 A 
ATOM     90  C   UNL A   1      30.659  28.851  23.006  1.00  0.00     0.066 A 
ATOM     91  N   UNL A   1      31.834  28.625  23.493  1.00  0.00    -0.270 NA
ATOM     92  C   UNL A   1      28.012  29.485  22.315  1.00  0.00     0.001 A 
ATOM     93  C   UNL A   1      30.383  29.950  22.064  1.00  0.00     0.028 A 
ATOM     94  C   UNL A   1      29.111  30.232  21.751  1.00  0.00     0.002 A 
BRANCH  84  95
ATOM     95  C   UNL A   1      32.735  28.661  26.191  1.00  0.00     0.048 A 
ATOM     96  C   UNL A   1      34.048  28.296  26.576  1.00  0.00     0.013 A 
ATOM     97  C   UNL A   1      32.305  29.959  26.405  1.00  0.00     0.132 A 
ATOM     98  C   UNL A   1      34.867  29.189  27.250  1.00  0.00     0.001 A 
ATOM     99  C   UNL A   1      33.136  30.869  27.049  1.00  0.00     0.040 A 
ATOM    100  F   UNL A   1      31.066  30.337  26.065  1.00  0.00    -0.206 F 
ATOM    101  C   UNL A   1      34.401  30.475  27.498  1.00  0.00     0.003 A 
ENDBRANCH  84  95
ENDBRANCH  78  80
ENDBRANCH  77  78
ENDBRANCH  76  77
ENDBRANCH  75  76
ENDBRANCH  74  75
ENDBRANCH  73  74
ENDBRANCH   1  73
TORSDOF 18
ENDMDL
