MODEL 1
REMARK VINA RESULT:     -11.0      0.000      0.000
REMARK SMILES COc1ccc(CSc2ncccc2C(=O)OCCOCCOCCOC(=O)c2ccc(-c3c4nc(c(-c5c(F)c(F)c(F)c(F)c5F)c5ccc([nH]5)c(-c5c(F)c(F)c(F)c(F)c5F)c5nc(c(-c6c(F)c(F)c(F)c(F)c6F)c6ccc3[nH]6)C=C5)C=C4)cc2)cc1
REMARK SMILES IDX 21 1 20 2 19 3 18 4 17 5 15 6 16 7 14 8 9 9 10 10 11 11
REMARK SMILES IDX 13 12 12 13 8 14 7 15 6 16 3 17 4 18 93 19 5 20 92 21 2 22
REMARK SMILES IDX 1 23 22 24 23 25 24 26 25 27 26 28 27 29 28 30 29 31 30 32
REMARK SMILES IDX 91 33 31 34 90 35 32 36 33 37 34 38 84 39 35 40 89 41 83 42
REMARK SMILES IDX 85 43 36 44 88 45 82 46 81 47 37 49 69 50 49 51 68 52 50 53
REMARK SMILES IDX 53 54 67 55 86 56 51 57 52 58 66 60 87 61 54 62 38 63 39 64
REMARK SMILES IDX 47 65 40 66 41 67 45 68 48 69 42 70 43 71 46 72 44 73 70 74
REMARK SMILES IDX 71 75 79 76 72 77 73 78 77 79 80 80 74 81 75 82 78 83 76 84
REMARK SMILES IDX 55 85 56 86 64 87 57 88 58 89 62 90 65 91 59 92 60 93 63 94
REMARK SMILES IDX 61 95
REMARK H PARENT 85 48 53 59
REMARK Flexibility Score: inf
ROOT
ATOM      1  C   UNL A   1      39.998  22.004  26.788  1.00  0.00     0.188 C 
ENDROOT
BRANCH   1   2
ATOM      2  O   UNL A   1      38.729  22.298  26.218  1.00  0.00    -0.376 OA
BRANCH   2   3
ATOM      3  C   UNL A   1      38.073  21.338  25.400  1.00  0.00     0.202 C 
BRANCH   3   4
ATOM      4  C   UNL A   1      37.225  21.816  24.205  1.00  0.00     0.261 C 
BRANCH   4   5
ATOM      5  O   UNL A   1      35.918  22.275  24.571  1.00  0.00    -0.460 OA
BRANCH   5   6
ATOM      6  C   UNL A   1      35.690  23.592  24.842  1.00  0.00     0.340 C 
ATOM      7  O   UNL A   1      36.341  24.329  25.536  1.00  0.00    -0.246 OA
BRANCH   6   8
ATOM      8  C   UNL A   1      34.452  23.897  24.092  1.00  0.00     0.092 A 
ATOM      9  C   UNL A   1      33.476  24.823  24.478  1.00  0.00     0.111 A 
ATOM     10  N   UNL A   1      32.495  25.195  23.606  1.00  0.00    -0.249 NA
ATOM     11  C   UNL A   1      32.437  24.588  22.394  1.00  0.00     0.112 A 
ATOM     12  C   UNL A   1      34.346  23.271  22.836  1.00  0.00     0.020 A 
ATOM     13  C   UNL A   1      33.314  23.606  21.978  1.00  0.00     0.021 A 
BRANCH   9  14
ATOM     14  S   UNL A   1      33.149  25.376  26.150  1.00  0.00    -0.101 SA
BRANCH  14  15
ATOM     15  C   UNL A   1      31.754  24.319  26.737  1.00  0.00     0.112 C 
BRANCH  15  16
ATOM     16  C   UNL A   1      32.062  22.882  26.386  1.00  0.00    -0.037 A 
ATOM     17  C   UNL A   1      33.150  20.375  25.636  1.00  0.00     0.118 A 
ATOM     18  C   UNL A   1      32.076  20.926  24.935  1.00  0.00     0.047 A 
ATOM     19  C   UNL A   1      33.645  21.074  26.717  1.00  0.00     0.047 A 
ATOM     20  C   UNL A   1      31.539  22.180  25.297  1.00  0.00     0.008 A 
ATOM     21  C   UNL A   1      33.071  22.271  27.112  1.00  0.00     0.008 A 
BRANCH  17  22
ATOM     22  O   UNL A   1      33.677  19.192  25.192  1.00  0.00    -0.497 OA
ATOM     23  C   UNL A   1      32.865  18.033  25.406  1.00  0.00     0.278 C 
ENDBRANCH  17  22
ENDBRANCH  15  16
ENDBRANCH  14  15
ENDBRANCH   9  14
ENDBRANCH   6   8
ENDBRANCH   5   6
ENDBRANCH   4   5
ENDBRANCH   3   4
ENDBRANCH   2   3
ENDBRANCH   1   2
BRANCH   1  24
ATOM     24  C   UNL A   1      40.602  20.620  26.540  1.00  0.00     0.188 C 
BRANCH  24  25
ATOM     25  O   UNL A   1      41.975  20.528  26.879  1.00  0.00    -0.376 OA
BRANCH  25  26
ATOM     26  C   UNL A   1      42.900  20.540  25.799  1.00  0.00     0.202 C 
BRANCH  26  27
ATOM     27  C   UNL A   1      43.768  21.798  25.620  1.00  0.00     0.261 C 
BRANCH  27  28
ATOM     28  O   UNL A   1      43.153  22.966  25.042  1.00  0.00    -0.460 OA
BRANCH  28  29
ATOM     29  C   UNL A   1      43.840  24.126  25.021  1.00  0.00     0.338 C 
ATOM     30  O   UNL A   1      44.853  24.375  24.393  1.00  0.00    -0.246 OA
BRANCH  29  31
ATOM     31  C   UNL A   1      43.080  25.135  25.795  1.00  0.00     0.060 A 
ATOM     32  C   UNL A   1      43.655  26.391  26.030  1.00  0.00     0.016 A 
ATOM     33  C   UNL A   1      41.830  24.824  26.335  1.00  0.00     0.016 A 
ATOM     34  C   UNL A   1      43.011  27.312  26.863  1.00  0.00     0.010 A 
ATOM     35  C   UNL A   1      41.194  25.738  27.183  1.00  0.00     0.010 A 
ATOM     36  C   UNL A   1      41.807  26.967  27.493  1.00  0.00    -0.014 A 
BRANCH  36  37
ATOM     37  C   UNL A   1      41.338  27.757  28.665  1.00  0.00     0.031 A 
ATOM     38  C   UNL A   1      42.099  27.619  29.960  1.00  0.00     0.074 A 
ATOM     39  C   UNL A   1      40.290  28.598  28.598  1.00  0.00     0.049 A 
ATOM     40  N   UNL A   1      41.898  28.200  31.116  1.00  0.00    -0.248 NA
ATOM     41  C   UNL A   1      43.246  26.697  29.944  1.00  0.00     0.031 C 
ATOM     42  C   UNL A   1      39.482  28.856  27.411  1.00  0.00     0.029 A 
ATOM     43  N   UNL A   1      39.724  29.389  29.571  1.00  0.00    -0.354 N 
ATOM     44  C   UNL A   1      42.893  27.718  31.958  1.00  0.00     0.074 A 
ATOM     45  C   UNL A   1      43.672  26.767  31.195  1.00  0.00     0.031 C 
ATOM     46  C   UNL A   1      38.516  29.739  27.726  1.00  0.00     0.029 A 
ATOM     47  C   UNL A   1      38.624  30.091  29.143  1.00  0.00     0.049 A 
ATOM     48  H   UNL A   1      40.076  29.448  30.489  1.00  0.00     0.167 HD
ATOM     49  C   UNL A   1      43.150  28.046  33.246  1.00  0.00     0.037 A 
ATOM     50  C   UNL A   1      37.797  30.913  29.821  1.00  0.00     0.037 A 
ATOM     51  C   UNL A   1      42.376  28.980  34.018  1.00  0.00     0.049 A 
ATOM     52  C   UNL A   1      38.054  31.202  31.281  1.00  0.00     0.074 A 
ATOM     53  C   UNL A   1      42.570  29.386  35.328  1.00  0.00     0.029 A 
ATOM     54  N   UNL A   1      41.251  29.645  33.557  1.00  0.00    -0.354 N 
ATOM     55  N   UNL A   1      39.026  30.780  32.054  1.00  0.00    -0.248 NA
ATOM     56  C   UNL A   1      37.100  32.093  31.961  1.00  0.00     0.031 C 
ATOM     57  C   UNL A   1      41.529  30.252  35.676  1.00  0.00     0.029 A 
ATOM     58  C   UNL A   1      40.723  30.436  34.565  1.00  0.00     0.049 A 
ATOM     59  H   UNL A   1      40.881  29.565  32.647  1.00  0.00     0.167 HD
ATOM     60  C   UNL A   1      38.823  31.383  33.292  1.00  0.00     0.074 A 
ATOM     61  C   UNL A   1      37.640  32.206  33.167  1.00  0.00     0.031 C 
ATOM     62  C   UNL A   1      39.556  31.268  34.427  1.00  0.00     0.037 A 
BRANCH  49  63
ATOM     63  C   UNL A   1      44.312  27.366  33.911  1.00  0.00     0.064 A 
ATOM     64  C   UNL A   1      44.189  26.091  34.482  1.00  0.00     0.173 A 
ATOM     65  C   UNL A   1      45.568  27.989  33.955  1.00  0.00     0.173 A 
ATOM     66  F   UNL A   1      43.005  25.461  34.480  1.00  0.00    -0.203 F 
ATOM     67  C   UNL A   1      45.276  25.476  35.098  1.00  0.00     0.198 A 
ATOM     68  C   UNL A   1      46.660  27.357  34.544  1.00  0.00     0.198 A 
ATOM     69  F   UNL A   1      45.739  29.207  33.420  1.00  0.00    -0.203 F 
ATOM     70  F   UNL A   1      45.124  24.279  35.683  1.00  0.00    -0.200 F 
ATOM     71  C   UNL A   1      46.511  26.107  35.123  1.00  0.00     0.200 A 
ATOM     72  F   UNL A   1      47.855  27.962  34.555  1.00  0.00    -0.200 F 
ATOM     73  F   UNL A   1      47.558  25.510  35.711  1.00  0.00    -0.200 F 
ENDBRANCH  49  63
BRANCH  50  74
ATOM     74  C   UNL A   1      36.631  31.532  29.133  1.00  0.00     0.064 A 
ATOM     75  C   UNL A   1      36.594  32.908  28.862  1.00  0.00     0.173 A 
ATOM     76  C   UNL A   1      35.511  30.768  28.774  1.00  0.00     0.173 A 
ATOM     77  F   UNL A   1      37.627  33.687  29.218  1.00  0.00    -0.203 F 
ATOM     78  C   UNL A   1      35.475  33.498  28.279  1.00  0.00     0.198 A 
ATOM     79  C   UNL A   1      34.402  31.355  28.165  1.00  0.00     0.198 A 
ATOM     80  F   UNL A   1      35.489  29.450  29.020  1.00  0.00    -0.203 F 
ATOM     81  F   UNL A   1      35.443  34.823  28.086  1.00  0.00    -0.200 F 
ATOM     82  C   UNL A   1      34.381  32.721  27.927  1.00  0.00     0.200 A 
ATOM     83  F   UNL A   1      33.351  30.599  27.821  1.00  0.00    -0.200 F 
ATOM     84  F   UNL A   1      33.303  33.290  27.371  1.00  0.00    -0.200 F 
ENDBRANCH  50  74
BRANCH  62  85
ATOM     85  C   UNL A   1      39.141  32.088  35.617  1.00  0.00     0.064 A 
ATOM     86  C   UNL A   1      38.307  31.573  36.620  1.00  0.00     0.173 A 
ATOM     87  C   UNL A   1      39.633  33.393  35.781  1.00  0.00     0.173 A 
ATOM     88  F   UNL A   1      37.800  30.335  36.508  1.00  0.00    -0.203 F 
ATOM     89  C   UNL A   1      37.961  32.342  37.730  1.00  0.00     0.198 A 
ATOM     90  C   UNL A   1      39.311  34.147  36.907  1.00  0.00     0.198 A 
ATOM     91  F   UNL A   1      40.444  33.932  34.858  1.00  0.00    -0.203 F 
ATOM     92  F   UNL A   1      37.126  31.844  38.652  1.00  0.00    -0.200 F 
ATOM     93  C   UNL A   1      38.470  33.623  37.877  1.00  0.00     0.200 A 
ATOM     94  F   UNL A   1      39.819  35.379  37.055  1.00  0.00    -0.200 F 
ATOM     95  F   UNL A   1      38.145  34.357  38.950  1.00  0.00    -0.200 F 
ENDBRANCH  62  85
ENDBRANCH  36  37
ENDBRANCH  29  31
ENDBRANCH  28  29
ENDBRANCH  27  28
ENDBRANCH  26  27
ENDBRANCH  25  26
ENDBRANCH  24  25
ENDBRANCH   1  24
TORSDOF 21
ENDMDL
MODEL 2
REMARK VINA RESULT:     -10.5      1.128      2.038
REMARK SMILES COc1ccc(CSc2ncccc2C(=O)OCCOCCOCCOC(=O)c2ccc(-c3c4nc(c(-c5c(F)c(F)c(F)c(F)c5F)c5ccc([nH]5)c(-c5c(F)c(F)c(F)c(F)c5F)c5nc(c(-c6c(F)c(F)c(F)c(F)c6F)c6ccc3[nH]6)C=C5)C=C4)cc2)cc1
REMARK SMILES IDX 21 1 20 2 19 3 18 4 17 5 15 6 16 7 14 8 9 9 10 10 11 11
REMARK SMILES IDX 13 12 12 13 8 14 7 15 6 16 3 17 4 18 93 19 5 20 92 21 2 22
REMARK SMILES IDX 1 23 22 24 23 25 24 26 25 27 26 28 27 29 28 30 29 31 30 32
REMARK SMILES IDX 91 33 31 34 90 35 32 36 33 37 34 38 84 39 35 40 89 41 83 42
REMARK SMILES IDX 85 43 36 44 88 45 82 46 81 47 37 49 69 50 49 51 68 52 50 53
REMARK SMILES IDX 53 54 67 55 86 56 51 57 52 58 66 60 87 61 54 62 38 63 39 64
REMARK SMILES IDX 47 65 40 66 41 67 45 68 48 69 42 70 43 71 46 72 44 73 70 74
REMARK SMILES IDX 71 75 79 76 72 77 73 78 77 79 80 80 74 81 75 82 78 83 76 84
REMARK SMILES IDX 55 85 56 86 64 87 57 88 58 89 62 90 65 91 59 92 60 93 63 94
REMARK SMILES IDX 61 95
REMARK H PARENT 85 48 53 59
REMARK Flexibility Score: inf
ROOT
ATOM      1  C   UNL A   1      40.356  21.978  27.055  1.00  0.00     0.188 C 
ENDROOT
BRANCH   1   2
ATOM      2  O   UNL A   1      39.080  22.209  26.468  1.00  0.00    -0.376 OA
BRANCH   2   3
ATOM      3  C   UNL A   1      38.427  21.173  25.746  1.00  0.00     0.202 C 
BRANCH   3   4
ATOM      4  C   UNL A   1      37.465  21.541  24.599  1.00  0.00     0.261 C 
BRANCH   4   5
ATOM      5  O   UNL A   1      36.212  20.849  24.653  1.00  0.00    -0.460 OA
BRANCH   5   6
ATOM      6  C   UNL A   1      35.176  21.336  25.394  1.00  0.00     0.340 C 
ATOM      7  O   UNL A   1      35.100  21.428  26.591  1.00  0.00    -0.246 OA
BRANCH   6   8
ATOM      8  C   UNL A   1      34.166  21.715  24.381  1.00  0.00     0.092 A 
ATOM      9  C   UNL A   1      34.242  22.826  23.534  1.00  0.00     0.111 A 
ATOM     10  N   UNL A   1      33.380  22.954  22.485  1.00  0.00    -0.249 NA
ATOM     11  C   UNL A   1      32.397  22.030  22.333  1.00  0.00     0.112 A 
ATOM     12  C   UNL A   1      33.119  20.789  24.207  1.00  0.00     0.020 A 
ATOM     13  C   UNL A   1      32.209  20.956  23.179  1.00  0.00     0.021 A 
BRANCH   9  14
ATOM     14  S   UNL A   1      35.167  24.328  23.844  1.00  0.00    -0.101 SA
BRANCH  14  15
ATOM     15  C   UNL A   1      33.886  25.616  24.172  1.00  0.00     0.112 C 
BRANCH  15  16
ATOM     16  C   UNL A   1      32.753  24.980  24.942  1.00  0.00    -0.037 A 
ATOM     17  C   UNL A   1      30.455  24.306  26.458  1.00  0.00     0.118 A 
ATOM     18  C   UNL A   1      31.729  23.932  26.888  1.00  0.00     0.047 A 
ATOM     19  C   UNL A   1      30.348  24.987  25.264  1.00  0.00     0.047 A 
ATOM     20  C   UNL A   1      32.878  24.277  26.142  1.00  0.00     0.008 A 
ATOM     21  C   UNL A   1      31.471  25.263  24.501  1.00  0.00     0.008 A 
BRANCH  17  22
ATOM     22  O   UNL A   1      29.386  24.010  27.261  1.00  0.00    -0.497 OA
ATOM     23  C   UNL A   1      29.200  22.622  27.558  1.00  0.00     0.278 C 
ENDBRANCH  17  22
ENDBRANCH  15  16
ENDBRANCH  14  15
ENDBRANCH   9  14
ENDBRANCH   6   8
ENDBRANCH   5   6
ENDBRANCH   4   5
ENDBRANCH   3   4
ENDBRANCH   2   3
ENDBRANCH   1   2
BRANCH   1  24
ATOM     24  C   UNL A   1      41.093  20.685  26.701  1.00  0.00     0.188 C 
BRANCH  24  25
ATOM     25  O   UNL A   1      42.498  20.768  26.862  1.00  0.00    -0.376 OA
BRANCH  25  26
ATOM     26  C   UNL A   1      43.272  20.866  25.673  1.00  0.00     0.202 C 
BRANCH  26  27
ATOM     27  C   UNL A   1      44.085  22.153  25.456  1.00  0.00     0.261 C 
BRANCH  27  28
ATOM     28  O   UNL A   1      43.382  23.330  25.012  1.00  0.00    -0.460 OA
BRANCH  28  29
ATOM     29  C   UNL A   1      44.006  24.524  25.059  1.00  0.00     0.338 C 
ATOM     30  O   UNL A   1      45.015  24.856  24.464  1.00  0.00    -0.246 OA
BRANCH  29  31
ATOM     31  C   UNL A   1      43.181  25.454  25.865  1.00  0.00     0.060 A 
ATOM     32  C   UNL A   1      43.618  26.772  26.050  1.00  0.00     0.016 A 
ATOM     33  C   UNL A   1      42.008  25.010  26.482  1.00  0.00     0.016 A 
ATOM     34  C   UNL A   1      42.921  27.627  26.910  1.00  0.00     0.010 A 
ATOM     35  C   UNL A   1      41.321  25.861  27.356  1.00  0.00     0.010 A 
ATOM     36  C   UNL A   1      41.804  27.158  27.615  1.00  0.00    -0.014 A 
BRANCH  36  37
ATOM     37  C   UNL A   1      41.314  27.910  28.802  1.00  0.00     0.031 A 
ATOM     38  C   UNL A   1      42.064  27.745  30.101  1.00  0.00     0.074 A 
ATOM     39  C   UNL A   1      40.258  28.741  28.749  1.00  0.00     0.049 A 
ATOM     40  N   UNL A   1      41.846  28.291  31.270  1.00  0.00    -0.248 NA
ATOM     41  C   UNL A   1      43.222  26.836  30.071  1.00  0.00     0.031 C 
ATOM     42  C   UNL A   1      39.459  29.023  27.561  1.00  0.00     0.029 A 
ATOM     43  N   UNL A   1      39.674  29.499  29.737  1.00  0.00    -0.354 N 
ATOM     44  C   UNL A   1      42.838  27.798  32.109  1.00  0.00     0.074 A 
ATOM     45  C   UNL A   1      43.634  26.876  31.328  1.00  0.00     0.031 C 
ATOM     46  C   UNL A   1      38.480  29.886  27.890  1.00  0.00     0.029 A 
ATOM     47  C   UNL A   1      38.571  30.201  29.317  1.00  0.00     0.049 A 
ATOM     48  H   UNL A   1      40.016  29.536  30.660  1.00  0.00     0.167 HD
ATOM     49  C   UNL A   1      43.079  28.093  33.408  1.00  0.00     0.037 A 
ATOM     50  C   UNL A   1      37.727  30.994  30.010  1.00  0.00     0.037 A 
ATOM     51  C   UNL A   1      42.287  28.997  34.198  1.00  0.00     0.049 A 
ATOM     52  C   UNL A   1      37.967  31.246  31.480  1.00  0.00     0.074 A 
ATOM     53  C   UNL A   1      42.464  29.368  35.520  1.00  0.00     0.029 A 
ATOM     54  N   UNL A   1      41.159  29.661  33.743  1.00  0.00    -0.354 N 
ATOM     55  N   UNL A   1      38.936  30.814  32.250  1.00  0.00    -0.248 NA
ATOM     56  C   UNL A   1      36.996  32.107  32.174  1.00  0.00     0.031 C 
ATOM     57  C   UNL A   1      41.410  30.214  35.881  1.00  0.00     0.029 A 
ATOM     58  C   UNL A   1      40.613  30.419  34.767  1.00  0.00     0.049 A 
ATOM     59  H   UNL A   1      40.799  29.603  32.828  1.00  0.00     0.167 HD
ATOM     60  C   UNL A   1      38.714  31.380  33.502  1.00  0.00     0.074 A 
ATOM     61  C   UNL A   1      37.523  32.193  33.388  1.00  0.00     0.031 C 
ATOM     62  C   UNL A   1      39.438  31.242  34.641  1.00  0.00     0.037 A 
BRANCH  49  63
ATOM     63  C   UNL A   1      44.242  27.408  34.065  1.00  0.00     0.064 A 
ATOM     64  C   UNL A   1      44.110  26.145  34.663  1.00  0.00     0.173 A 
ATOM     65  C   UNL A   1      45.507  28.011  34.076  1.00  0.00     0.173 A 
ATOM     66  F   UNL A   1      42.917  25.533  34.694  1.00  0.00    -0.203 F 
ATOM     67  C   UNL A   1      45.198  25.525  35.272  1.00  0.00     0.198 A 
ATOM     68  C   UNL A   1      46.600  27.374  34.658  1.00  0.00     0.198 A 
ATOM     69  F   UNL A   1      45.687  29.217  33.515  1.00  0.00    -0.203 F 
ATOM     70  F   UNL A   1      45.037  24.342  35.882  1.00  0.00    -0.200 F 
ATOM     71  C   UNL A   1      46.443  26.137  35.263  1.00  0.00     0.200 A 
ATOM     72  F   UNL A   1      47.804  27.961  34.637  1.00  0.00    -0.200 F 
ATOM     73  F   UNL A   1      47.490  25.535  35.844  1.00  0.00    -0.200 F 
ENDBRANCH  49  63
BRANCH  50  74
ATOM     74  C   UNL A   1      36.562  31.619  29.327  1.00  0.00     0.064 A 
ATOM     75  C   UNL A   1      35.469  30.847  28.904  1.00  0.00     0.173 A 
ATOM     76  C   UNL A   1      36.537  32.992  29.041  1.00  0.00     0.173 A 
ATOM     77  F   UNL A   1      35.461  29.523  29.123  1.00  0.00    -0.203 F 
ATOM     78  C   UNL A   1      34.409  31.420  28.205  1.00  0.00     0.198 A 
ATOM     79  C   UNL A   1      35.462  33.569  28.366  1.00  0.00     0.198 A 
ATOM     80  F   UNL A   1      37.560  33.774  29.413  1.00  0.00    -0.203 F 
ATOM     81  F   UNL A   1      33.406  30.649  27.762  1.00  0.00    -0.200 F 
ATOM     82  C   UNL A   1      34.404  32.782  27.940  1.00  0.00     0.200 A 
ATOM     83  F   UNL A   1      35.459  34.886  28.118  1.00  0.00    -0.200 F 
ATOM     84  F   UNL A   1      33.386  33.331  27.263  1.00  0.00    -0.200 F 
ENDBRANCH  50  74
BRANCH  62  85
ATOM     85  C   UNL A   1      39.002  32.024  35.849  1.00  0.00     0.064 A 
ATOM     86  C   UNL A   1      38.203  31.457  36.852  1.00  0.00     0.173 A 
ATOM     87  C   UNL A   1      39.440  33.346  36.028  1.00  0.00     0.173 A 
ATOM     88  F   UNL A   1      37.749  30.201  36.725  1.00  0.00    -0.203 F 
ATOM     89  C   UNL A   1      37.838  32.193  37.978  1.00  0.00     0.198 A 
ATOM     90  C   UNL A   1      39.099  34.068  37.170  1.00  0.00     0.198 A 
ATOM     91  F   UNL A   1      40.215  33.934  35.105  1.00  0.00    -0.203 F 
ATOM     92  F   UNL A   1      37.036  31.646  38.902  1.00  0.00    -0.200 F 
ATOM     93  C   UNL A   1      38.293  33.493  38.140  1.00  0.00     0.200 A 
ATOM     94  F   UNL A   1      39.555  35.318  37.332  1.00  0.00    -0.200 F 
ATOM     95  F   UNL A   1      37.949  34.195  39.229  1.00  0.00    -0.200 F 
ENDBRANCH  62  85
ENDBRANCH  36  37
ENDBRANCH  29  31
ENDBRANCH  28  29
ENDBRANCH  27  28
ENDBRANCH  26  27
ENDBRANCH  25  26
ENDBRANCH  24  25
ENDBRANCH   1  24
TORSDOF 21
ENDMDL
MODEL 3
REMARK VINA RESULT:     -10.4      5.263     10.620
REMARK SMILES COc1ccc(CSc2ncccc2C(=O)OCCOCCOCCOC(=O)c2ccc(-c3c4nc(c(-c5c(F)c(F)c(F)c(F)c5F)c5ccc([nH]5)c(-c5c(F)c(F)c(F)c(F)c5F)c5nc(c(-c6c(F)c(F)c(F)c(F)c6F)c6ccc3[nH]6)C=C5)C=C4)cc2)cc1
REMARK SMILES IDX 21 1 20 2 19 3 18 4 17 5 15 6 16 7 14 8 9 9 10 10 11 11
REMARK SMILES IDX 13 12 12 13 8 14 7 15 6 16 3 17 4 18 93 19 5 20 92 21 2 22
REMARK SMILES IDX 1 23 22 24 23 25 24 26 25 27 26 28 27 29 28 30 29 31 30 32
REMARK SMILES IDX 91 33 31 34 90 35 32 36 33 37 34 38 84 39 35 40 89 41 83 42
REMARK SMILES IDX 85 43 36 44 88 45 82 46 81 47 37 49 69 50 49 51 68 52 50 53
REMARK SMILES IDX 53 54 67 55 86 56 51 57 52 58 66 60 87 61 54 62 38 63 39 64
REMARK SMILES IDX 47 65 40 66 41 67 45 68 48 69 42 70 43 71 46 72 44 73 70 74
REMARK SMILES IDX 71 75 79 76 72 77 73 78 77 79 80 80 74 81 75 82 78 83 76 84
REMARK SMILES IDX 55 85 56 86 64 87 57 88 58 89 62 90 65 91 59 92 60 93 63 94
REMARK SMILES IDX 61 95
REMARK H PARENT 85 48 53 59
REMARK Flexibility Score: inf
ROOT
ATOM      1  C   UNL A   1      34.192  32.619  27.926  1.00  0.00     0.188 C 
ENDROOT
BRANCH   1   2
ATOM      2  O   UNL A   1      33.658  31.301  27.979  1.00  0.00    -0.376 OA
BRANCH   2   3
ATOM      3  C   UNL A   1      32.735  30.864  26.991  1.00  0.00     0.202 C 
BRANCH   3   4
ATOM      4  C   UNL A   1      31.911  29.584  27.239  1.00  0.00     0.261 C 
BRANCH   4   5
ATOM      5  O   UNL A   1      32.022  28.615  26.190  1.00  0.00    -0.460 OA
BRANCH   5   6
ATOM      6  C   UNL A   1      32.943  27.611  26.260  1.00  0.00     0.340 C 
ATOM      7  O   UNL A   1      34.109  27.694  26.548  1.00  0.00    -0.246 OA
BRANCH   6   8
ATOM      8  C   UNL A   1      32.176  26.401  25.892  1.00  0.00     0.092 A 
ATOM      9  C   UNL A   1      32.712  25.241  25.321  1.00  0.00     0.111 A 
ATOM     10  N   UNL A   1      31.963  24.105  25.235  1.00  0.00    -0.249 NA
ATOM     11  C   UNL A   1      30.667  24.147  25.635  1.00  0.00     0.112 A 
ATOM     12  C   UNL A   1      30.821  26.414  26.275  1.00  0.00     0.020 A 
ATOM     13  C   UNL A   1      30.048  25.278  26.130  1.00  0.00     0.021 A 
BRANCH   9  14
ATOM     14  S   UNL A   1      34.220  25.139  24.359  1.00  0.00    -0.101 SA
BRANCH  14  15
ATOM     15  C   UNL A   1      33.669  25.226  22.599  1.00  0.00     0.112 C 
BRANCH  15  16
ATOM     16  C   UNL A   1      32.730  26.400  22.448  1.00  0.00    -0.037 A 
ATOM     17  C   UNL A   1      31.138  28.733  22.674  1.00  0.00     0.118 A 
ATOM     18  C   UNL A   1      30.551  27.488  22.444  1.00  0.00     0.047 A 
ATOM     19  C   UNL A   1      32.512  28.795  22.761  1.00  0.00     0.047 A 
ATOM     20  C   UNL A   1      31.339  26.321  22.344  1.00  0.00     0.008 A 
ATOM     21  C   UNL A   1      33.287  27.659  22.592  1.00  0.00     0.008 A 
BRANCH  17  22
ATOM     22  O   UNL A   1      30.318  29.817  22.838  1.00  0.00    -0.497 OA
ATOM     23  C   UNL A   1      28.989  29.672  22.327  1.00  0.00     0.278 C 
ENDBRANCH  17  22
ENDBRANCH  15  16
ENDBRANCH  14  15
ENDBRANCH   9  14
ENDBRANCH   6   8
ENDBRANCH   5   6
ENDBRANCH   4   5
ENDBRANCH   3   4
ENDBRANCH   2   3
ENDBRANCH   1   2
BRANCH   1  24
ATOM     24  C   UNL A   1      33.234  33.797  28.117  1.00  0.00     0.188 C 
BRANCH  24  25
ATOM     25  O   UNL A   1      33.166  34.264  29.453  1.00  0.00    -0.376 OA
BRANCH  25  26
ATOM     26  C   UNL A   1      34.405  34.478  30.118  1.00  0.00     0.202 C 
BRANCH  26  27
ATOM     27  C   UNL A   1      34.592  33.833  31.501  1.00  0.00     0.261 C 
BRANCH  27  28
ATOM     28  O   UNL A   1      35.938  33.620  31.971  1.00  0.00    -0.460 OA
BRANCH  28  29
ATOM     29  C   UNL A   1      36.193  32.568  32.775  1.00  0.00     0.338 C 
ATOM     30  O   UNL A   1      35.696  32.328  33.860  1.00  0.00    -0.246 OA
BRANCH  29  31
ATOM     31  C   UNL A   1      37.102  31.641  32.062  1.00  0.00     0.060 A 
ATOM     32  C   UNL A   1      38.171  31.062  32.757  1.00  0.00     0.016 A 
ATOM     33  C   UNL A   1      36.931  31.388  30.698  1.00  0.00     0.016 A 
ATOM     34  C   UNL A   1      39.112  30.285  32.073  1.00  0.00     0.010 A 
ATOM     35  C   UNL A   1      37.883  30.626  30.011  1.00  0.00     0.010 A 
ATOM     36  C   UNL A   1      39.007  30.113  30.685  1.00  0.00    -0.014 A 
BRANCH  36  37
ATOM     37  C   UNL A   1      40.189  29.646  29.911  1.00  0.00     0.031 A 
ATOM     38  C   UNL A   1      41.316  30.623  29.683  1.00  0.00     0.074 A 
ATOM     39  C   UNL A   1      40.296  28.390  29.439  1.00  0.00     0.049 A 
ATOM     40  N   UNL A   1      42.451  30.461  29.050  1.00  0.00    -0.248 NA
ATOM     41  C   UNL A   1      41.133  31.969  30.250  1.00  0.00     0.031 C 
ATOM     42  C   UNL A   1      39.306  27.333  29.608  1.00  0.00     0.029 A 
ATOM     43  N   UNL A   1      41.300  27.799  28.708  1.00  0.00    -0.354 N 
ATOM     44  C   UNL A   1      43.115  31.678  29.148  1.00  0.00     0.074 A 
ATOM     45  C   UNL A   1      42.241  32.582  29.865  1.00  0.00     0.031 C 
ATOM     46  C   UNL A   1      39.745  26.222  28.989  1.00  0.00     0.029 A 
ATOM     47  C   UNL A   1      41.040  26.496  28.362  1.00  0.00     0.049 A 
ATOM     48  H   UNL A   1      42.130  28.267  28.457  1.00  0.00     0.167 HD
ATOM     49  C   UNL A   1      44.346  32.014  28.699  1.00  0.00     0.037 A 
ATOM     50  C   UNL A   1      41.759  25.632  27.616  1.00  0.00     0.037 A 
ATOM     51  C   UNL A   1      45.219  31.130  27.975  1.00  0.00     0.049 A 
ATOM     52  C   UNL A   1      43.096  26.054  27.054  1.00  0.00     0.074 A 
ATOM     53  C   UNL A   1      46.492  31.379  27.491  1.00  0.00     0.029 A 
ATOM     54  N   UNL A   1      44.903  29.828  27.618  1.00  0.00    -0.354 N 
ATOM     55  N   UNL A   1      43.735  27.190  27.195  1.00  0.00    -0.248 NA
ATOM     56  C   UNL A   1      43.815  25.066  26.235  1.00  0.00     0.031 C 
ATOM     57  C   UNL A   1      46.923  30.246  26.792  1.00  0.00     0.029 A 
ATOM     58  C   UNL A   1      45.945  29.271  26.895  1.00  0.00     0.049 A 
ATOM     59  H   UNL A   1      44.062  29.368  27.844  1.00  0.00     0.167 HD
ATOM     60  C   UNL A   1      44.943  27.039  26.521  1.00  0.00     0.074 A 
ATOM     61  C   UNL A   1      44.951  25.699  25.976  1.00  0.00     0.031 C 
ATOM     62  C   UNL A   1      45.955  27.929  26.372  1.00  0.00     0.037 A 
BRANCH  49  63
ATOM     63  C   UNL A   1      44.816  33.416  28.961  1.00  0.00     0.064 A 
ATOM     64  C   UNL A   1      45.562  33.740  30.105  1.00  0.00     0.173 A 
ATOM     65  C   UNL A   1      44.537  34.441  28.046  1.00  0.00     0.173 A 
ATOM     66  F   UNL A   1      45.841  32.799  31.019  1.00  0.00    -0.203 F 
ATOM     67  C   UNL A   1      45.987  35.046  30.335  1.00  0.00     0.198 A 
ATOM     68  C   UNL A   1      44.991  35.739  28.264  1.00  0.00     0.198 A 
ATOM     69  F   UNL A   1      43.830  34.183  26.935  1.00  0.00    -0.203 F 
ATOM     70  F   UNL A   1      46.654  35.343  31.459  1.00  0.00    -0.200 F 
ATOM     71  C   UNL A   1      45.707  36.042  29.412  1.00  0.00     0.200 A 
ATOM     72  F   UNL A   1      44.730  36.698  27.365  1.00  0.00    -0.200 F 
ATOM     73  F   UNL A   1      46.122  37.297  29.633  1.00  0.00    -0.200 F 
ENDBRANCH  49  63
BRANCH  50  74
ATOM     74  C   UNL A   1      41.234  24.265  27.345  1.00  0.00     0.064 A 
ATOM     75  C   UNL A   1      40.138  24.065  26.494  1.00  0.00     0.173 A 
ATOM     76  C   UNL A   1      41.789  23.138  27.968  1.00  0.00     0.173 A 
ATOM     77  F   UNL A   1      39.550  25.115  25.901  1.00  0.00    -0.203 F 
ATOM     78  C   UNL A   1      39.604  22.793  26.293  1.00  0.00     0.198 A 
ATOM     79  C   UNL A   1      41.272  21.862  27.745  1.00  0.00     0.198 A 
ATOM     80  F   UNL A   1      42.831  23.274  28.800  1.00  0.00    -0.203 F 
ATOM     81  F   UNL A   1      38.520  22.638  25.521  1.00  0.00    -0.200 F 
ATOM     82  C   UNL A   1      40.174  21.692  26.915  1.00  0.00     0.200 A 
ATOM     83  F   UNL A   1      41.830  20.801  28.343  1.00  0.00    -0.200 F 
ATOM     84  F   UNL A   1      39.657  20.470  26.726  1.00  0.00    -0.200 F 
ENDBRANCH  50  74
BRANCH  62  85
ATOM     85  C   UNL A   1      47.186  27.476  25.637  1.00  0.00     0.064 A 
ATOM     86  C   UNL A   1      47.337  27.664  24.255  1.00  0.00     0.173 A 
ATOM     87  C   UNL A   1      48.254  26.896  26.340  1.00  0.00     0.173 A 
ATOM     88  F   UNL A   1      46.343  28.205  23.534  1.00  0.00    -0.203 F 
ATOM     89  C   UNL A   1      48.501  27.265  23.601  1.00  0.00     0.198 A 
ATOM     90  C   UNL A   1      49.428  26.527  25.688  1.00  0.00     0.198 A 
ATOM     91  F   UNL A   1      48.168  26.703  27.664  1.00  0.00    -0.203 F 
ATOM     92  F   UNL A   1      48.605  27.413  22.273  1.00  0.00    -0.200 F 
ATOM     93  C   UNL A   1      49.548  26.705  24.318  1.00  0.00     0.200 A 
ATOM     94  F   UNL A   1      50.445  26.003  26.386  1.00  0.00    -0.200 F 
ATOM     95  F   UNL A   1      50.670  26.332  23.688  1.00  0.00    -0.200 F 
ENDBRANCH  62  85
ENDBRANCH  36  37
ENDBRANCH  29  31
ENDBRANCH  28  29
ENDBRANCH  27  28
ENDBRANCH  26  27
ENDBRANCH  25  26
ENDBRANCH  24  25
ENDBRANCH   1  24
TORSDOF 21
ENDMDL
