MODEL 1
REMARK VINA RESULT:     -11.4      0.000      0.000
REMARK SMILES CCc1cc(/C=C/C(=O)OCCOCCOCCOC(=O)c2ccc(-c3c4nc(c(-c5c(F)c(F)c(F)c(F)c5F)c5ccc([nH]5)c(-c5c(F)c(F)c(F)c(F)c5F)c5nc(c(-c6c(F)c(F)c(F)c(F)c6F)c6ccc3[nH]6)C=C5)C=C4)cc2)cc(C(=O)c2ccccc2)c1
REMARK SMILES IDX 14 1 13 2 12 3 11 4 10 5 8 6 9 7 7 8 6 9 5 10 3 11 4 12
REMARK SMILES IDX 95 13 86 14 85 15 2 16 1 17 87 18 88 19 89 20 90 21 94 22
REMARK SMILES IDX 91 23 93 24 92 25 15 26 16 27 17 28 18 29 19 30 20 31 21 32
REMARK SMILES IDX 22 33 23 34 84 35 24 36 83 37 25 38 26 39 27 40 77 41 28 42
REMARK SMILES IDX 82 43 76 44 78 45 29 46 81 47 75 48 74 49 30 51 62 52 42 53
REMARK SMILES IDX 61 54 43 55 46 56 60 57 79 58 44 59 45 60 59 62 80 63 47 64
REMARK SMILES IDX 31 65 32 66 40 67 33 68 34 69 38 70 41 71 35 72 36 73 39 74
REMARK SMILES IDX 37 75 63 76 64 77 72 78 65 79 66 80 70 81 73 82 67 83 68 84
REMARK SMILES IDX 71 85 69 86 48 87 49 88 57 89 50 90 51 91 55 92 58 93 52 94
REMARK SMILES IDX 53 95 56 96 54 97
REMARK H PARENT 78 50 46 61
REMARK Flexibility Score: inf
ROOT
ATOM      1  C   UNL A   1      29.941  29.096  23.413  1.00  0.00     0.188 C 
ENDROOT
BRANCH   1   2
ATOM      2  O   UNL A   1      29.448  27.810  23.068  1.00  0.00    -0.376 OA
BRANCH   2   3
ATOM      3  C   UNL A   1      29.915  26.664  23.770  1.00  0.00     0.202 C 
BRANCH   3   4
ATOM      4  C   UNL A   1      30.779  25.613  23.056  1.00  0.00     0.261 C 
BRANCH   4   5
ATOM      5  O   UNL A   1      31.512  26.096  21.919  1.00  0.00    -0.460 OA
BRANCH   5   6
ATOM      6  C   UNL A   1      32.855  25.920  21.968  1.00  0.00     0.330 C 
ATOM      7  O   UNL A   1      33.705  26.701  21.563  1.00  0.00    -0.247 OA
BRANCH   6   8
ATOM      8  C   UNL A   1      33.240  24.713  22.733  1.00  0.00     0.094 C 
ATOM      9  C   UNL A   1      34.484  24.226  22.864  1.00  0.00     0.015 C 
BRANCH   9  10
ATOM     10  C   UNL A   1      34.798  22.991  23.607  1.00  0.00    -0.024 A 
ATOM     11  C   UNL A   1      36.383  21.502  24.749  1.00  0.00    -0.047 A 
ATOM     12  C   UNL A   1      36.093  22.697  24.064  1.00  0.00     0.011 A 
ATOM     13  C   UNL A   1      35.338  20.601  24.984  1.00  0.00     0.016 A 
ATOM     14  C   UNL A   1      34.023  20.904  24.605  1.00  0.00     0.023 A 
ATOM     15  C   UNL A   1      33.764  22.099  23.914  1.00  0.00     0.020 A 
BRANCH  11  16
ATOM     16  C   UNL A   1      37.803  21.262  25.220  1.00  0.00     0.032 C 
ATOM     17  C   UNL A   1      38.524  22.440  25.866  1.00  0.00     0.009 C 
ENDBRANCH  11  16
BRANCH  14  18
ATOM     18  C   UNL A   1      32.885  19.972  24.863  1.00  0.00     0.193 C 
ATOM     19  O   UNL A   1      31.768  20.426  25.099  1.00  0.00    -0.289 OA
BRANCH  18  20
ATOM     20  C   UNL A   1      33.040  18.497  24.799  1.00  0.00     0.022 A 
ATOM     21  C   UNL A   1      33.572  17.942  23.631  1.00  0.00     0.012 A 
ATOM     22  C   UNL A   1      32.653  17.665  25.857  1.00  0.00     0.012 A 
ATOM     23  C   UNL A   1      33.769  16.564  23.540  1.00  0.00     0.001 A 
ATOM     24  C   UNL A   1      32.860  16.286  25.764  1.00  0.00     0.001 A 
ATOM     25  C   UNL A   1      33.423  15.739  24.611  1.00  0.00     0.000 A 
ENDBRANCH  18  20
ENDBRANCH  14  18
ENDBRANCH   9  10
ENDBRANCH   6   8
ENDBRANCH   5   6
ENDBRANCH   4   5
ENDBRANCH   3   4
ENDBRANCH   2   3
ENDBRANCH   1   2
BRANCH   1  26
ATOM     26  C   UNL A   1      31.332  29.253  24.061  1.00  0.00     0.188 C 
BRANCH  26  27
ATOM     27  O   UNL A   1      31.338  29.771  25.367  1.00  0.00    -0.376 OA
BRANCH  27  28
ATOM     28  C   UNL A   1      30.935  31.107  25.615  1.00  0.00     0.202 C 
BRANCH  28  29
ATOM     29  C   UNL A   1      31.586  32.075  26.625  1.00  0.00     0.261 C 
BRANCH  29  30
ATOM     30  O   UNL A   1      32.971  31.908  26.933  1.00  0.00    -0.460 OA
BRANCH  30  31
ATOM     31  C   UNL A   1      33.557  32.918  27.620  1.00  0.00     0.338 C 
ATOM     32  O   UNL A   1      33.114  34.030  27.832  1.00  0.00    -0.246 OA
BRANCH  31  33
ATOM     33  C   UNL A   1      34.793  32.397  28.232  1.00  0.00     0.060 A 
ATOM     34  C   UNL A   1      34.814  31.076  28.696  1.00  0.00     0.016 A 
ATOM     35  C   UNL A   1      35.918  33.215  28.354  1.00  0.00     0.016 A 
ATOM     36  C   UNL A   1      35.968  30.567  29.291  1.00  0.00     0.010 A 
ATOM     37  C   UNL A   1      37.065  32.710  28.971  1.00  0.00     0.010 A 
ATOM     38  C   UNL A   1      37.091  31.390  29.456  1.00  0.00    -0.014 A 
BRANCH  38  39
ATOM     39  C   UNL A   1      38.245  30.924  30.260  1.00  0.00     0.031 A 
ATOM     40  C   UNL A   1      39.201  29.938  29.652  1.00  0.00     0.074 A 
ATOM     41  C   UNL A   1      38.440  31.368  31.514  1.00  0.00     0.049 A 
ATOM     42  N   UNL A   1      40.231  29.337  30.188  1.00  0.00    -0.248 NA
ATOM     43  C   UNL A   1      38.958  29.583  28.245  1.00  0.00     0.031 C 
ATOM     44  C   UNL A   1      37.611  32.355  32.199  1.00  0.00     0.029 A 
ATOM     45  N   UNL A   1      39.396  31.027  32.439  1.00  0.00    -0.354 N 
ATOM     46  C   UNL A   1      40.758  28.531  29.187  1.00  0.00     0.074 A 
ATOM     47  C   UNL A   1      39.915  28.696  28.022  1.00  0.00     0.031 C 
ATOM     48  C   UNL A   1      38.087  32.533  33.444  1.00  0.00     0.029 A 
ATOM     49  C   UNL A   1      39.228  31.643  33.654  1.00  0.00     0.049 A 
ATOM     50  H   UNL A   1      40.133  30.402  32.248  1.00  0.00     0.167 HD
ATOM     51  C   UNL A   1      41.849  27.730  29.235  1.00  0.00     0.037 A 
ATOM     52  C   UNL A   1      39.902  31.481  34.809  1.00  0.00     0.037 A 
ATOM     53  C   UNL A   1      42.675  27.554  30.400  1.00  0.00     0.049 A 
ATOM     54  C   UNL A   1      41.048  30.503  34.869  1.00  0.00     0.074 A 
ATOM     55  C   UNL A   1      43.810  26.775  30.545  1.00  0.00     0.029 A 
ATOM     56  N   UNL A   1      42.445  28.157  31.629  1.00  0.00    -0.354 N 
ATOM     57  N   UNL A   1      41.560  29.764  33.914  1.00  0.00    -0.248 NA
ATOM     58  C   UNL A   1      41.709  30.335  36.171  1.00  0.00     0.031 C 
ATOM     59  C   UNL A   1      44.231  26.860  31.876  1.00  0.00     0.029 A 
ATOM     60  C   UNL A   1      43.396  27.740  32.547  1.00  0.00     0.049 A 
ATOM     61  H   UNL A   1      41.714  28.787  31.820  1.00  0.00     0.167 HD
ATOM     62  C   UNL A   1      42.614  29.067  34.490  1.00  0.00     0.074 A 
ATOM     63  C   UNL A   1      42.680  29.483  35.876  1.00  0.00     0.031 C 
ATOM     64  C   UNL A   1      43.453  28.164  33.924  1.00  0.00     0.037 A 
BRANCH  51  65
ATOM     65  C   UNL A   1      42.190  26.957  27.993  1.00  0.00     0.064 A 
ATOM     66  C   UNL A   1      41.713  25.654  27.781  1.00  0.00     0.173 A 
ATOM     67  C   UNL A   1      42.991  27.533  26.996  1.00  0.00     0.173 A 
ATOM     68  F   UNL A   1      40.956  25.052  28.711  1.00  0.00    -0.203 F 
ATOM     69  C   UNL A   1      42.054  24.945  26.633  1.00  0.00     0.198 A 
ATOM     70  C   UNL A   1      43.303  26.833  25.834  1.00  0.00     0.198 A 
ATOM     71  F   UNL A   1      43.469  28.778  27.148  1.00  0.00    -0.203 F 
ATOM     72  F   UNL A   1      41.633  23.682  26.476  1.00  0.00    -0.200 F 
ATOM     73  C   UNL A   1      42.842  25.538  25.657  1.00  0.00     0.200 A 
ATOM     74  F   UNL A   1      44.055  27.412  24.887  1.00  0.00    -0.200 F 
ATOM     75  F   UNL A   1      43.167  24.856  24.550  1.00  0.00    -0.200 F 
ENDBRANCH  51  65
BRANCH  52  76
ATOM     76  C   UNL A   1      39.504  32.250  36.018  1.00  0.00     0.064 A 
ATOM     77  C   UNL A   1      38.516  31.767  36.887  1.00  0.00     0.173 A 
ATOM     78  C   UNL A   1      40.081  33.494  36.316  1.00  0.00     0.173 A 
ATOM     79  F   UNL A   1      37.913  30.597  36.629  1.00  0.00    -0.203 F 
ATOM     80  C   UNL A   1      38.110  32.503  37.997  1.00  0.00     0.198 A 
ATOM     81  C   UNL A   1      39.694  34.218  37.442  1.00  0.00     0.198 A 
ATOM     82  F   UNL A   1      41.024  34.006  35.511  1.00  0.00    -0.203 F 
ATOM     83  F   UNL A   1      37.128  32.041  38.783  1.00  0.00    -0.200 F 
ATOM     84  C   UNL A   1      38.703  33.726  38.278  1.00  0.00     0.200 A 
ATOM     85  F   UNL A   1      40.276  35.394  37.713  1.00  0.00    -0.200 F 
ATOM     86  F   UNL A   1      38.311  34.433  39.346  1.00  0.00    -0.200 F 
ENDBRANCH  52  76
BRANCH  64  87
ATOM     87  C   UNL A   1      44.537  27.585  34.789  1.00  0.00     0.064 A 
ATOM     88  C   UNL A   1      45.790  28.204  34.916  1.00  0.00     0.173 A 
ATOM     89  C   UNL A   1      44.304  26.420  35.536  1.00  0.00     0.173 A 
ATOM     90  F   UNL A   1      46.069  29.311  34.211  1.00  0.00    -0.203 F 
ATOM     91  C   UNL A   1      46.775  27.664  35.738  1.00  0.00     0.198 A 
ATOM     92  C   UNL A   1      45.280  25.902  36.383  1.00  0.00     0.198 A 
ATOM     93  F   UNL A   1      43.121  25.791  35.459  1.00  0.00    -0.203 F 
ATOM     94  F   UNL A   1      47.981  28.247  35.806  1.00  0.00    -0.200 F 
ATOM     95  C   UNL A   1      46.517  26.520  36.478  1.00  0.00     0.200 A 
ATOM     96  F   UNL A   1      45.022  24.805  37.108  1.00  0.00    -0.200 F 
ATOM     97  F   UNL A   1      47.464  26.009  37.278  1.00  0.00    -0.200 F 
ENDBRANCH  64  87
ENDBRANCH  38  39
ENDBRANCH  31  33
ENDBRANCH  30  31
ENDBRANCH  29  30
ENDBRANCH  28  29
ENDBRANCH  27  28
ENDBRANCH  26  27
ENDBRANCH   1  26
TORSDOF 21
ENDMDL
MODEL 2
REMARK VINA RESULT:     -11.1      3.336      8.504
REMARK SMILES CCc1cc(/C=C/C(=O)OCCOCCOCCOC(=O)c2ccc(-c3c4nc(c(-c5c(F)c(F)c(F)c(F)c5F)c5ccc([nH]5)c(-c5c(F)c(F)c(F)c(F)c5F)c5nc(c(-c6c(F)c(F)c(F)c(F)c6F)c6ccc3[nH]6)C=C5)C=C4)cc2)cc(C(=O)c2ccccc2)c1
REMARK SMILES IDX 14 1 13 2 12 3 11 4 10 5 8 6 9 7 7 8 6 9 5 10 3 11 4 12
REMARK SMILES IDX 95 13 86 14 85 15 2 16 1 17 87 18 88 19 89 20 90 21 94 22
REMARK SMILES IDX 91 23 93 24 92 25 15 26 16 27 17 28 18 29 19 30 20 31 21 32
REMARK SMILES IDX 22 33 23 34 84 35 24 36 83 37 25 38 26 39 27 40 77 41 28 42
REMARK SMILES IDX 82 43 76 44 78 45 29 46 81 47 75 48 74 49 30 51 62 52 42 53
REMARK SMILES IDX 61 54 43 55 46 56 60 57 79 58 44 59 45 60 59 62 80 63 47 64
REMARK SMILES IDX 31 65 32 66 40 67 33 68 34 69 38 70 41 71 35 72 36 73 39 74
REMARK SMILES IDX 37 75 63 76 64 77 72 78 65 79 66 80 70 81 73 82 67 83 68 84
REMARK SMILES IDX 71 85 69 86 48 87 49 88 57 89 50 90 51 91 55 92 58 93 52 94
REMARK SMILES IDX 53 95 56 96 54 97
REMARK H PARENT 78 50 46 61
REMARK Flexibility Score: inf
ROOT
ATOM      1  C   UNL A   1      41.227  19.610  26.295  1.00  0.00     0.188 C 
ENDROOT
BRANCH   1   2
ATOM      2  O   UNL A   1      40.132  19.176  25.501  1.00  0.00    -0.376 OA
BRANCH   2   3
ATOM      3  C   UNL A   1      38.832  19.699  25.745  1.00  0.00     0.202 C 
BRANCH   3   4
ATOM      4  C   UNL A   1      38.462  21.114  25.275  1.00  0.00     0.261 C 
BRANCH   4   5
ATOM      5  O   UNL A   1      39.006  22.182  26.068  1.00  0.00    -0.460 OA
BRANCH   5   6
ATOM      6  C   UNL A   1      38.239  23.295  26.157  1.00  0.00     0.330 C 
ATOM      7  O   UNL A   1      38.612  24.407  26.506  1.00  0.00    -0.247 OA
BRANCH   6   8
ATOM      8  C   UNL A   1      36.875  23.088  25.623  1.00  0.00     0.094 C 
ATOM      9  C   UNL A   1      36.168  23.972  24.902  1.00  0.00     0.015 C 
BRANCH   9  10
ATOM     10  C   UNL A   1      34.791  23.721  24.433  1.00  0.00    -0.024 A 
ATOM     11  C   UNL A   1      32.760  24.406  23.234  1.00  0.00    -0.047 A 
ATOM     12  C   UNL A   1      34.082  24.649  23.653  1.00  0.00     0.011 A 
ATOM     13  C   UNL A   1      32.157  23.198  23.604  1.00  0.00     0.016 A 
ATOM     14  C   UNL A   1      32.869  22.224  24.318  1.00  0.00     0.023 A 
ATOM     15  C   UNL A   1      34.183  22.497  24.731  1.00  0.00     0.020 A 
BRANCH  11  16
ATOM     16  C   UNL A   1      32.065  25.451  22.385  1.00  0.00     0.032 C 
ATOM     17  C   UNL A   1      32.842  26.001  21.194  1.00  0.00     0.009 C 
ENDBRANCH  11  16
BRANCH  14  18
ATOM     18  C   UNL A   1      32.259  20.917  24.705  1.00  0.00     0.193 C 
ATOM     19  O   UNL A   1      31.354  20.889  25.535  1.00  0.00    -0.289 OA
BRANCH  18  20
ATOM     20  C   UNL A   1      32.676  19.635  24.084  1.00  0.00     0.022 A 
ATOM     21  C   UNL A   1      33.593  18.836  24.775  1.00  0.00     0.012 A 
ATOM     22  C   UNL A   1      32.193  19.225  22.835  1.00  0.00     0.012 A 
ATOM     23  C   UNL A   1      33.985  17.606  24.245  1.00  0.00     0.001 A 
ATOM     24  C   UNL A   1      32.582  17.989  22.313  1.00  0.00     0.001 A 
ATOM     25  C   UNL A   1      33.471  17.179  23.021  1.00  0.00     0.000 A 
ENDBRANCH  18  20
ENDBRANCH  14  18
ENDBRANCH   9  10
ENDBRANCH   6   8
ENDBRANCH   5   6
ENDBRANCH   4   5
ENDBRANCH   3   4
ENDBRANCH   2   3
ENDBRANCH   1   2
BRANCH   1  26
ATOM     26  C   UNL A   1      42.655  19.105  26.001  1.00  0.00     0.188 C 
BRANCH  26  27
ATOM     27  O   UNL A   1      43.472  19.988  25.274  1.00  0.00    -0.376 OA
BRANCH  27  28
ATOM     28  C   UNL A   1      43.538  21.361  25.621  1.00  0.00     0.202 C 
BRANCH  28  29
ATOM     29  C   UNL A   1      43.994  22.506  24.693  1.00  0.00     0.261 C 
BRANCH  29  30
ATOM     30  O   UNL A   1      43.354  23.777  24.814  1.00  0.00    -0.460 OA
BRANCH  30  31
ATOM     31  C   UNL A   1      44.154  24.821  25.139  1.00  0.00     0.338 C 
ATOM     32  O   UNL A   1      45.168  25.186  24.577  1.00  0.00    -0.246 OA
BRANCH  31  33
ATOM     33  C   UNL A   1      43.502  25.575  26.225  1.00  0.00     0.060 A 
ATOM     34  C   UNL A   1      43.885  26.903  26.451  1.00  0.00     0.016 A 
ATOM     35  C   UNL A   1      42.528  24.967  27.020  1.00  0.00     0.016 A 
ATOM     36  C   UNL A   1      43.292  27.631  27.482  1.00  0.00     0.010 A 
ATOM     37  C   UNL A   1      41.952  25.691  28.067  1.00  0.00     0.010 A 
ATOM     38  C   UNL A   1      42.342  27.021  28.313  1.00  0.00    -0.014 A 
BRANCH  38  39
ATOM     39  C   UNL A   1      41.855  27.717  29.526  1.00  0.00     0.031 A 
ATOM     40  C   UNL A   1      40.603  28.542  29.435  1.00  0.00     0.074 A 
ATOM     41  C   UNL A   1      42.516  27.622  30.693  1.00  0.00     0.049 A 
ATOM     42  N   UNL A   1      40.033  29.295  30.340  1.00  0.00    -0.248 NA
ATOM     43  C   UNL A   1      39.899  28.511  28.144  1.00  0.00     0.031 C 
ATOM     44  C   UNL A   1      43.715  26.819  30.921  1.00  0.00     0.029 A 
ATOM     45  N   UNL A   1      42.275  28.222  31.903  1.00  0.00    -0.354 N 
ATOM     46  C   UNL A   1      38.908  29.830  29.728  1.00  0.00     0.074 A 
ATOM     47  C   UNL A   1      38.892  29.340  28.367  1.00  0.00     0.031 C 
ATOM     48  C   UNL A   1      44.114  26.987  32.194  1.00  0.00     0.029 A 
ATOM     49  C   UNL A   1      43.222  27.938  32.856  1.00  0.00     0.049 A 
ATOM     50  H   UNL A   1      41.496  28.800  32.074  1.00  0.00     0.167 HD
ATOM     51  C   UNL A   1      37.969  30.652  30.257  1.00  0.00     0.037 A 
ATOM     52  C   UNL A   1      43.366  28.417  34.107  1.00  0.00     0.037 A 
ATOM     53  C   UNL A   1      37.997  31.152  31.606  1.00  0.00     0.049 A 
ATOM     54  C   UNL A   1      42.367  29.414  34.639  1.00  0.00     0.074 A 
ATOM     55  C   UNL A   1      37.086  31.978  32.240  1.00  0.00     0.029 A 
ATOM     56  N   UNL A   1      39.000  30.882  32.527  1.00  0.00    -0.354 N 
ATOM     57  N   UNL A   1      41.289  29.896  34.068  1.00  0.00    -0.248 NA
ATOM     58  C   UNL A   1      42.608  29.937  35.991  1.00  0.00     0.031 C 
ATOM     59  C   UNL A   1      37.568  32.257  33.524  1.00  0.00     0.029 A 
ATOM     60  C   UNL A   1      38.747  31.555  33.713  1.00  0.00     0.049 A 
ATOM     61  H   UNL A   1      39.776  30.299  32.362  1.00  0.00     0.167 HD
ATOM     62  C   UNL A   1      40.713  30.754  34.996  1.00  0.00     0.074 A 
ATOM     63  C   UNL A   1      41.551  30.715  36.175  1.00  0.00     0.031 C 
ATOM     64  C   UNL A   1      39.590  31.505  34.882  1.00  0.00     0.037 A 
BRANCH  51  65
ATOM     65  C   UNL A   1      36.849  31.086  29.357  1.00  0.00     0.064 A 
ATOM     66  C   UNL A   1      36.797  32.380  28.815  1.00  0.00     0.173 A 
ATOM     67  C   UNL A   1      35.822  30.192  29.019  1.00  0.00     0.173 A 
ATOM     68  F   UNL A   1      37.745  33.278  29.119  1.00  0.00    -0.203 F 
ATOM     69  C   UNL A   1      35.741  32.771  27.996  1.00  0.00     0.198 A 
ATOM     70  C   UNL A   1      34.785  30.576  28.174  1.00  0.00     0.198 A 
ATOM     71  F   UNL A   1      35.827  28.941  29.507  1.00  0.00    -0.203 F 
ATOM     72  F   UNL A   1      35.683  34.029  27.535  1.00  0.00    -0.200 F 
ATOM     73  C   UNL A   1      34.740  31.868  27.670  1.00  0.00     0.200 A 
ATOM     74  F   UNL A   1      33.826  29.698  27.851  1.00  0.00    -0.200 F 
ATOM     75  F   UNL A   1      33.726  32.245  26.880  1.00  0.00    -0.200 F 
ENDBRANCH  51  65
BRANCH  52  76
ATOM     76  C   UNL A   1      44.511  27.976  34.947  1.00  0.00     0.064 A 
ATOM     77  C   UNL A   1      44.390  26.882  35.814  1.00  0.00     0.173 A 
ATOM     78  C   UNL A   1      45.739  28.653  34.921  1.00  0.00     0.173 A 
ATOM     79  F   UNL A   1      43.226  26.221  35.897  1.00  0.00    -0.203 F 
ATOM     80  C   UNL A   1      45.446  26.491  36.633  1.00  0.00     0.198 A 
ATOM     81  C   UNL A   1      46.805  28.245  35.720  1.00  0.00     0.198 A 
ATOM     82  F   UNL A   1      45.905  29.713  34.115  1.00  0.00    -0.203 F 
ATOM     83  F   UNL A   1      45.286  25.473  37.489  1.00  0.00    -0.200 F 
ATOM     84  C   UNL A   1      46.655  27.170  36.582  1.00  0.00     0.200 A 
ATOM     85  F   UNL A   1      47.974  28.898  35.661  1.00  0.00    -0.200 F 
ATOM     86  F   UNL A   1      47.671  26.793  37.371  1.00  0.00    -0.200 F 
ENDBRANCH  52  76
BRANCH  64  87
ATOM     87  C   UNL A   1      39.179  32.325  36.073  1.00  0.00     0.064 A 
ATOM     88  C   UNL A   1      38.343  31.806  37.074  1.00  0.00     0.173 A 
ATOM     89  C   UNL A   1      39.665  33.631  36.239  1.00  0.00     0.173 A 
ATOM     90  F   UNL A   1      37.839  30.568  36.956  1.00  0.00    -0.203 F 
ATOM     91  C   UNL A   1      37.990  32.573  38.181  1.00  0.00     0.198 A 
ATOM     92  C   UNL A   1      39.337  34.383  37.363  1.00  0.00     0.198 A 
ATOM     93  F   UNL A   1      40.474  34.174  35.316  1.00  0.00    -0.203 F 
ATOM     94  F   UNL A   1      37.152  32.072  39.100  1.00  0.00    -0.200 F 
ATOM     95  C   UNL A   1      38.494  33.856  38.330  1.00  0.00     0.200 A 
ATOM     96  F   UNL A   1      39.837  35.617  37.513  1.00  0.00    -0.200 F 
ATOM     97  F   UNL A   1      38.162  34.588  39.403  1.00  0.00    -0.200 F 
ENDBRANCH  64  87
ENDBRANCH  38  39
ENDBRANCH  31  33
ENDBRANCH  30  31
ENDBRANCH  29  30
ENDBRANCH  28  29
ENDBRANCH  27  28
ENDBRANCH  26  27
ENDBRANCH   1  26
TORSDOF 21
ENDMDL
MODEL 3
REMARK VINA RESULT:     -11.1      0.709      7.131
REMARK SMILES CCc1cc(/C=C/C(=O)OCCOCCOCCOC(=O)c2ccc(-c3c4nc(c(-c5c(F)c(F)c(F)c(F)c5F)c5ccc([nH]5)c(-c5c(F)c(F)c(F)c(F)c5F)c5nc(c(-c6c(F)c(F)c(F)c(F)c6F)c6ccc3[nH]6)C=C5)C=C4)cc2)cc(C(=O)c2ccccc2)c1
REMARK SMILES IDX 14 1 13 2 12 3 11 4 10 5 8 6 9 7 7 8 6 9 5 10 3 11 4 12
REMARK SMILES IDX 95 13 86 14 85 15 2 16 1 17 87 18 88 19 89 20 90 21 94 22
REMARK SMILES IDX 91 23 93 24 92 25 15 26 16 27 17 28 18 29 19 30 20 31 21 32
REMARK SMILES IDX 22 33 23 34 84 35 24 36 83 37 25 38 26 39 27 40 77 41 28 42
REMARK SMILES IDX 82 43 76 44 78 45 29 46 81 47 75 48 74 49 30 51 62 52 42 53
REMARK SMILES IDX 61 54 43 55 46 56 60 57 79 58 44 59 45 60 59 62 80 63 47 64
REMARK SMILES IDX 31 65 32 66 40 67 33 68 34 69 38 70 41 71 35 72 36 73 39 74
REMARK SMILES IDX 37 75 63 76 64 77 72 78 65 79 66 80 70 81 73 82 67 83 68 84
REMARK SMILES IDX 71 85 69 86 48 87 49 88 57 89 50 90 51 91 55 92 58 93 52 94
REMARK SMILES IDX 53 95 56 96 54 97
REMARK H PARENT 78 50 46 61
REMARK Flexibility Score: inf
ROOT
ATOM      1  C   UNL A   1      30.331  29.346  23.482  1.00  0.00     0.188 C 
ENDROOT
BRANCH   1   2
ATOM      2  O   UNL A   1      29.805  28.107  23.032  1.00  0.00    -0.376 OA
BRANCH   2   3
ATOM      3  C   UNL A   1      30.053  26.922  23.778  1.00  0.00     0.202 C 
BRANCH   3   4
ATOM      4  C   UNL A   1      30.861  25.768  23.162  1.00  0.00     0.261 C 
BRANCH   4   5
ATOM      5  O   UNL A   1      31.456  26.054  21.887  1.00  0.00    -0.460 OA
BRANCH   5   6
ATOM      6  C   UNL A   1      32.780  25.786  21.784  1.00  0.00     0.330 C 
ATOM      7  O   UNL A   1      33.623  26.486  21.241  1.00  0.00    -0.247 OA
BRANCH   6   8
ATOM      8  C   UNL A   1      33.176  24.587  22.557  1.00  0.00     0.094 C 
ATOM      9  C   UNL A   1      34.433  24.212  22.841  1.00  0.00     0.015 C 
BRANCH   9  10
ATOM     10  C   UNL A   1      34.765  22.980  23.582  1.00  0.00    -0.024 A 
ATOM     11  C   UNL A   1      36.373  21.510  24.718  1.00  0.00    -0.047 A 
ATOM     12  C   UNL A   1      36.066  22.702  24.034  1.00  0.00     0.011 A 
ATOM     13  C   UNL A   1      35.339  20.597  24.956  1.00  0.00     0.016 A 
ATOM     14  C   UNL A   1      34.019  20.884  24.583  1.00  0.00     0.023 A 
ATOM     15  C   UNL A   1      33.744  22.076  23.893  1.00  0.00     0.020 A 
BRANCH  11  16
ATOM     16  C   UNL A   1      37.797  21.287  25.182  1.00  0.00     0.032 C 
ATOM     17  C   UNL A   1      38.454  22.419  25.964  1.00  0.00     0.009 C 
ENDBRANCH  11  16
BRANCH  14  18
ATOM     18  C   UNL A   1      32.893  19.940  24.846  1.00  0.00     0.193 C 
ATOM     19  O   UNL A   1      31.776  20.380  25.105  1.00  0.00    -0.289 OA
BRANCH  18  20
ATOM     20  C   UNL A   1      33.059  18.467  24.758  1.00  0.00     0.022 A 
ATOM     21  C   UNL A   1      32.704  17.697  25.870  1.00  0.00     0.012 A 
ATOM     22  C   UNL A   1      33.572  17.846  23.612  1.00  0.00     0.012 A 
ATOM     23  C   UNL A   1      32.810  16.307  25.820  1.00  0.00     0.001 A 
ATOM     24  C   UNL A   1      33.668  16.453  23.564  1.00  0.00     0.001 A 
ATOM     25  C   UNL A   1      33.280  15.686  24.663  1.00  0.00     0.000 A 
ENDBRANCH  18  20
ENDBRANCH  14  18
ENDBRANCH   9  10
ENDBRANCH   6   8
ENDBRANCH   5   6
ENDBRANCH   4   5
ENDBRANCH   3   4
ENDBRANCH   2   3
ENDBRANCH   1   2
BRANCH   1  26
ATOM     26  C   UNL A   1      31.612  29.386  24.342  1.00  0.00     0.188 C 
BRANCH  26  27
ATOM     27  O   UNL A   1      31.435  29.801  25.673  1.00  0.00    -0.376 OA
BRANCH  27  28
ATOM     28  C   UNL A   1      31.381  31.179  25.998  1.00  0.00     0.202 C 
BRANCH  28  29
ATOM     29  C   UNL A   1      32.081  31.854  27.196  1.00  0.00     0.261 C 
BRANCH  29  30
ATOM     30  O   UNL A   1      33.050  32.870  26.935  1.00  0.00    -0.460 OA
BRANCH  30  31
ATOM     31  C   UNL A   1      33.325  33.711  27.960  1.00  0.00     0.338 C 
ATOM     32  O   UNL A   1      32.678  34.673  28.330  1.00  0.00    -0.246 OA
BRANCH  31  33
ATOM     33  C   UNL A   1      34.487  33.176  28.692  1.00  0.00     0.060 A 
ATOM     34  C   UNL A   1      35.756  33.267  28.106  1.00  0.00     0.016 A 
ATOM     35  C   UNL A   1      34.319  32.578  29.943  1.00  0.00     0.016 A 
ATOM     36  C   UNL A   1      36.868  32.754  28.775  1.00  0.00     0.010 A 
ATOM     37  C   UNL A   1      35.431  32.045  30.599  1.00  0.00     0.010 A 
ATOM     38  C   UNL A   1      36.707  32.116  30.012  1.00  0.00    -0.014 A 
BRANCH  38  39
ATOM     39  C   UNL A   1      37.844  31.397  30.634  1.00  0.00     0.031 A 
ATOM     40  C   UNL A   1      38.228  31.733  32.046  1.00  0.00     0.074 A 
ATOM     41  C   UNL A   1      38.527  30.461  29.952  1.00  0.00     0.049 A 
ATOM     42  N   UNL A   1      39.228  31.291  32.765  1.00  0.00    -0.248 NA
ATOM     43  C   UNL A   1      37.366  32.701  32.740  1.00  0.00     0.031 C 
ATOM     44  C   UNL A   1      38.225  30.015  28.595  1.00  0.00     0.029 A 
ATOM     45  N   UNL A   1      39.631  29.728  30.312  1.00  0.00    -0.354 N 
ATOM     46  C   UNL A   1      39.117  31.928  33.993  1.00  0.00     0.074 A 
ATOM     47  C   UNL A   1      37.973  32.810  33.912  1.00  0.00     0.031 C 
ATOM     48  C   UNL A   1      39.131  29.092  28.229  1.00  0.00     0.029 A 
ATOM     49  C   UNL A   1      40.098  28.912  29.312  1.00  0.00     0.049 A 
ATOM     50  H   UNL A   1      40.046  29.780  31.204  1.00  0.00     0.167 HD
ATOM     51  C   UNL A   1      39.897  31.786  35.092  1.00  0.00     0.037 A 
ATOM     52  C   UNL A   1      41.197  28.135  29.268  1.00  0.00     0.037 A 
ATOM     53  C   UNL A   1      41.045  30.921  35.165  1.00  0.00     0.049 A 
ATOM     54  C   UNL A   1      42.110  28.074  30.467  1.00  0.00     0.074 A 
ATOM     55  C   UNL A   1      41.891  30.698  36.236  1.00  0.00     0.029 A 
ATOM     56  N   UNL A   1      41.517  30.147  34.114  1.00  0.00    -0.354 N 
ATOM     57  N   UNL A   1      41.987  28.656  31.636  1.00  0.00    -0.248 NA
ATOM     58  C   UNL A   1      43.320  27.249  30.338  1.00  0.00     0.031 C 
ATOM     59  C   UNL A   1      42.909  29.834  35.817  1.00  0.00     0.029 A 
ATOM     60  C   UNL A   1      42.664  29.472  34.502  1.00  0.00     0.049 A 
ATOM     61  H   UNL A   1      41.100  30.087  33.225  1.00  0.00     0.167 HD
ATOM     62  C   UNL A   1      43.083  28.248  32.386  1.00  0.00     0.074 A 
ATOM     63  C   UNL A   1      43.853  27.356  31.546  1.00  0.00     0.031 C 
ATOM     64  C   UNL A   1      43.421  28.582  33.656  1.00  0.00     0.037 A 
BRANCH  51  65
ATOM     65  C   UNL A   1      39.547  32.613  36.295  1.00  0.00     0.064 A 
ATOM     66  C   UNL A   1      38.565  32.205  37.211  1.00  0.00     0.173 A 
ATOM     67  C   UNL A   1      40.214  33.822  36.544  1.00  0.00     0.173 A 
ATOM     68  F   UNL A   1      37.887  31.065  37.010  1.00  0.00    -0.203 F 
ATOM     69  C   UNL A   1      38.240  32.993  38.312  1.00  0.00     0.198 A 
ATOM     70  C   UNL A   1      39.909  34.592  37.664  1.00  0.00     0.198 A 
ATOM     71  F   UNL A   1      41.164  34.256  35.702  1.00  0.00    -0.203 F 
ATOM     72  F   UNL A   1      37.260  32.610  39.142  1.00  0.00    -0.200 F 
ATOM     73  C   UNL A   1      38.917  34.181  38.541  1.00  0.00     0.200 A 
ATOM     74  F   UNL A   1      40.573  35.734  37.890  1.00  0.00    -0.200 F 
ATOM     75  F   UNL A   1      38.606  34.937  39.603  1.00  0.00    -0.200 F 
ENDBRANCH  51  65
BRANCH  52  76
ATOM     76  C   UNL A   1      41.513  27.358  28.040  1.00  0.00     0.064 A 
ATOM     77  C   UNL A   1      41.128  26.017  27.916  1.00  0.00     0.173 A 
ATOM     78  C   UNL A   1      42.228  27.931  26.978  1.00  0.00     0.173 A 
ATOM     79  F   UNL A   1      40.469  25.415  28.918  1.00  0.00    -0.203 F 
ATOM     80  C   UNL A   1      41.458  25.273  26.786  1.00  0.00     0.198 A 
ATOM     81  C   UNL A   1      42.534  27.196  25.834  1.00  0.00     0.198 A 
ATOM     82  F   UNL A   1      42.628  29.210  27.049  1.00  0.00    -0.203 F 
ATOM     83  F   UNL A   1      41.121  23.978  26.716  1.00  0.00    -0.200 F 
ATOM     84  C   UNL A   1      42.156  25.865  25.743  1.00  0.00     0.200 A 
ATOM     85  F   UNL A   1      43.201  27.773  24.826  1.00  0.00    -0.200 F 
ATOM     86  F   UNL A   1      42.473  25.148  24.656  1.00  0.00    -0.200 F 
ENDBRANCH  52  76
BRANCH  64  87
ATOM     87  C   UNL A   1      44.660  27.957  34.232  1.00  0.00     0.064 A 
ATOM     88  C   UNL A   1      44.644  26.674  34.801  1.00  0.00     0.173 A 
ATOM     89  C   UNL A   1      45.889  28.632  34.175  1.00  0.00     0.173 A 
ATOM     90  F   UNL A   1      43.492  25.993  34.894  1.00  0.00    -0.203 F 
ATOM     91  C   UNL A   1      45.807  26.102  35.311  1.00  0.00     0.198 A 
ATOM     92  C   UNL A   1      47.056  28.044  34.656  1.00  0.00     0.198 A 
ATOM     93  F   UNL A   1      45.964  29.858  33.635  1.00  0.00    -0.203 F 
ATOM     94  F   UNL A   1      45.757  24.895  35.892  1.00  0.00    -0.200 F 
ATOM     95  C   UNL A   1      47.013  26.783  35.229  1.00  0.00     0.200 A 
ATOM     96  F   UNL A   1      48.222  28.697  34.562  1.00  0.00    -0.200 F 
ATOM     97  F   UNL A   1      48.133  26.225  35.711  1.00  0.00    -0.200 F 
ENDBRANCH  64  87
ENDBRANCH  38  39
ENDBRANCH  31  33
ENDBRANCH  30  31
ENDBRANCH  29  30
ENDBRANCH  28  29
ENDBRANCH  27  28
ENDBRANCH  26  27
ENDBRANCH   1  26
TORSDOF 21
ENDMDL
