MODEL 1
REMARK VINA RESULT:     -11.8      0.000      0.000
REMARK SMILES O=C(OCCOCCOCCOC(=O)c1cc(-c2ccc(C(F)(F)F)cc2)cc([N+](=O)[O-])c1)c1ccc(-c2c3nc(c(-c4c(F)c(F)c(F)c(F)c4F)c4ccc([nH]4)c(-c4c(F)c(F)c(F)c(F)c4F)c4nc(c(-c5c(F)c(F)c(F)c(F)c5F)c5ccc2[nH]5)C=C4)C=C3)cc1
REMARK SMILES IDX 7 1 6 2 5 3 4 4 3 5 2 6 1 7 34 8 35 9 96 10 36 11 95 12
REMARK SMILES IDX 37 13 38 14 39 15 89 16 40 17 94 18 88 19 90 20 41 21 93 22
REMARK SMILES IDX 87 23 86 24 42 26 74 27 54 28 73 29 55 30 58 31 72 32 91 33
REMARK SMILES IDX 56 34 57 35 71 37 92 38 59 39 43 40 44 41 52 42 45 43 46 44
REMARK SMILES IDX 50 45 53 46 47 47 48 48 51 49 49 50 75 51 76 52 84 53 77 54
REMARK SMILES IDX 78 55 82 56 85 57 79 58 80 59 83 60 81 61 60 62 61 63 69 64
REMARK SMILES IDX 62 65 63 66 67 67 70 68 64 69 65 70 68 71 66 72 8 73 9 74
REMARK SMILES IDX 10 75 11 76 12 77 13 78 14 79 15 80 16 81 33 82 17 83 29 84
REMARK SMILES IDX 28 85 18 86 19 87 27 88 20 89 26 90 21 91 22 92 23 93 24 94
REMARK SMILES IDX 25 95 30 96 31 97 32 98
REMARK H PARENT 90 25 58 36
REMARK Flexibility Score: inf
ROOT
ATOM      1  C   UNL A   1      31.401  29.692  25.337  1.00  0.00     0.188 C 
ENDROOT
BRANCH   1   2
ATOM      2  O   UNL A   1      31.152  31.092  25.539  1.00  0.00    -0.376 OA
BRANCH   2   3
ATOM      3  C   UNL A   1      31.806  31.626  26.693  1.00  0.00     0.202 C 
BRANCH   3   4
ATOM      4  C   UNL A   1      31.827  33.157  26.723  1.00  0.00     0.261 C 
BRANCH   4   5
ATOM      5  O   UNL A   1      32.567  33.650  27.852  1.00  0.00    -0.460 OA
BRANCH   5   6
ATOM      6  C   UNL A   1      33.861  34.051  27.886  1.00  0.00     0.338 C 
ATOM      7  O   UNL A   1      34.148  35.178  27.483  1.00  0.00    -0.246 OA
BRANCH   6   8
ATOM      8  C   UNL A   1      34.963  33.229  28.471  1.00  0.00     0.060 A 
ATOM      9  C   UNL A   1      34.822  31.932  28.967  1.00  0.00     0.016 A 
ATOM     10  C   UNL A   1      36.253  33.791  28.450  1.00  0.00     0.016 A 
ATOM     11  C   UNL A   1      35.900  31.263  29.547  1.00  0.00     0.010 A 
ATOM     12  C   UNL A   1      37.352  33.097  28.967  1.00  0.00     0.010 A 
ATOM     13  C   UNL A   1      37.172  31.841  29.556  1.00  0.00    -0.014 A 
BRANCH  13  14
ATOM     14  C   UNL A   1      38.281  31.145  30.247  1.00  0.00     0.031 A 
ATOM     15  C   UNL A   1      38.540  31.425  31.699  1.00  0.00     0.074 A 
ATOM     16  C   UNL A   1      38.993  30.202  29.602  1.00  0.00     0.049 A 
ATOM     17  N   UNL A   1      39.463  30.934  32.485  1.00  0.00    -0.248 NA
ATOM     18  C   UNL A   1      37.627  32.371  32.359  1.00  0.00     0.031 C 
ATOM     19  C   UNL A   1      38.782  29.784  28.216  1.00  0.00     0.029 A 
ATOM     20  N   UNL A   1      40.022  29.405  30.038  1.00  0.00    -0.354 N 
ATOM     21  C   UNL A   1      39.246  31.513  33.727  1.00  0.00     0.074 A 
ATOM     22  C   UNL A   1      38.118  32.409  33.589  1.00  0.00     0.031 C 
ATOM     23  C   UNL A   1      39.643  28.796  27.926  1.00  0.00     0.029 A 
ATOM     24  C   UNL A   1      40.500  28.554  29.075  1.00  0.00     0.049 A 
ATOM     25  H   UNL A   1      40.381  29.442  30.954  1.00  0.00     0.167 HD
ATOM     26  C   UNL A   1      39.923  31.308  34.881  1.00  0.00     0.037 A 
ATOM     27  C   UNL A   1      41.533  27.691  29.104  1.00  0.00     0.037 A 
ATOM     28  C   UNL A   1      41.042  30.416  35.017  1.00  0.00     0.049 A 
ATOM     29  C   UNL A   1      42.323  27.550  30.371  1.00  0.00     0.074 A 
ATOM     30  C   UNL A   1      41.817  30.163  36.136  1.00  0.00     0.029 A 
ATOM     31  N   UNL A   1      41.546  29.627  33.994  1.00  0.00    -0.354 N 
ATOM     32  N   UNL A   1      42.139  28.139  31.527  1.00  0.00    -0.248 NA
ATOM     33  C   UNL A   1      43.468  26.630  30.336  1.00  0.00     0.031 C 
ATOM     34  C   UNL A   1      42.809  29.241  35.780  1.00  0.00     0.029 A 
ATOM     35  C   UNL A   1      42.631  28.898  34.449  1.00  0.00     0.049 A 
ATOM     36  H   UNL A   1      41.184  29.591  33.079  1.00  0.00     0.167 HD
ATOM     37  C   UNL A   1      43.140  27.661  32.358  1.00  0.00     0.074 A 
ATOM     38  C   UNL A   1      43.918  26.719  31.580  1.00  0.00     0.031 C 
ATOM     39  C   UNL A   1      43.395  27.976  33.650  1.00  0.00     0.037 A 
BRANCH  26  40
ATOM     40  C   UNL A   1      39.481  32.094  36.077  1.00  0.00     0.064 A 
ATOM     41  C   UNL A   1      38.445  31.644  36.907  1.00  0.00     0.173 A 
ATOM     42  C   UNL A   1      40.103  33.310  36.395  1.00  0.00     0.173 A 
ATOM     43  F   UNL A   1      37.805  30.498  36.629  1.00  0.00    -0.203 F 
ATOM     44  C   UNL A   1      38.033  32.396  38.005  1.00  0.00     0.198 A 
ATOM     45  C   UNL A   1      39.701  34.049  37.503  1.00  0.00     0.198 A 
ATOM     46  F   UNL A   1      41.094  33.782  35.625  1.00  0.00    -0.203 F 
ATOM     47  F   UNL A   1      37.013  31.969  38.762  1.00  0.00    -0.200 F 
ATOM     48  C   UNL A   1      38.663  33.594  38.304  1.00  0.00     0.200 A 
ATOM     49  F   UNL A   1      40.310  35.208  37.791  1.00  0.00    -0.200 F 
ATOM     50  F   UNL A   1      38.262  34.319  39.358  1.00  0.00    -0.200 F 
ENDBRANCH  26  40
BRANCH  27  51
ATOM     51  C   UNL A   1      41.927  26.944  27.883  1.00  0.00     0.064 A 
ATOM     52  C   UNL A   1      41.467  25.644  27.642  1.00  0.00     0.173 A 
ATOM     53  C   UNL A   1      42.825  27.504  26.963  1.00  0.00     0.173 A 
ATOM     54  F   UNL A   1      40.634  25.056  28.513  1.00  0.00    -0.203 F 
ATOM     55  C   UNL A   1      41.907  24.922  26.532  1.00  0.00     0.198 A 
ATOM     56  C   UNL A   1      43.263  26.783  25.855  1.00  0.00     0.198 A 
ATOM     57  F   UNL A   1      43.286  28.749  27.152  1.00  0.00    -0.203 F 
ATOM     58  F   UNL A   1      41.491  23.661  26.350  1.00  0.00    -0.200 F 
ATOM     59  C   UNL A   1      42.805  25.492  25.640  1.00  0.00     0.200 A 
ATOM     60  F   UNL A   1      44.143  27.333  25.007  1.00  0.00    -0.200 F 
ATOM     61  F   UNL A   1      43.248  24.786  24.591  1.00  0.00    -0.200 F 
ENDBRANCH  27  51
BRANCH  39  62
ATOM     62  C   UNL A   1      44.558  27.291  34.293  1.00  0.00     0.064 A 
ATOM     63  C   UNL A   1      44.428  26.017  34.863  1.00  0.00     0.173 A 
ATOM     64  C   UNL A   1      45.819  27.904  34.319  1.00  0.00     0.173 A 
ATOM     65  F   UNL A   1      43.235  25.404  34.878  1.00  0.00    -0.203 F 
ATOM     66  C   UNL A   1      45.518  25.387  35.454  1.00  0.00     0.198 A 
ATOM     67  C   UNL A   1      46.911  27.263  34.893  1.00  0.00     0.198 A 
ATOM     68  F   UNL A   1      45.989  29.124  33.787  1.00  0.00    -0.203 F 
ATOM     69  F   UNL A   1      45.365  24.185  36.028  1.00  0.00    -0.200 F 
ATOM     70  C   UNL A   1      46.759  26.008  35.465  1.00  0.00     0.200 A 
ATOM     71  F   UNL A   1      48.110  27.860  34.899  1.00  0.00    -0.200 F 
ATOM     72  F   UNL A   1      47.808  25.398  36.034  1.00  0.00    -0.200 F 
ENDBRANCH  39  62
ENDBRANCH  13  14
ENDBRANCH   6   8
ENDBRANCH   5   6
ENDBRANCH   4   5
ENDBRANCH   3   4
ENDBRANCH   2   3
ENDBRANCH   1   2
BRANCH   1  73
ATOM     73  C   UNL A   1      32.873  29.471  24.978  1.00  0.00     0.188 C 
BRANCH  73  74
ATOM     74  O   UNL A   1      33.122  28.290  24.208  1.00  0.00    -0.376 OA
BRANCH  74  75
ATOM     75  C   UNL A   1      32.738  28.322  22.838  1.00  0.00     0.202 C 
BRANCH  75  76
ATOM     76  C   UNL A   1      33.688  27.627  21.859  1.00  0.00     0.261 C 
BRANCH  76  77
ATOM     77  O   UNL A   1      34.177  26.345  22.291  1.00  0.00    -0.460 OA
BRANCH  77  78
ATOM     78  C   UNL A   1      33.353  25.318  21.989  1.00  0.00     0.338 C 
ATOM     79  O   UNL A   1      32.762  25.109  20.940  1.00  0.00    -0.246 OA
BRANCH  78  80
ATOM     80  C   UNL A   1      33.101  24.486  23.172  1.00  0.00     0.067 A 
ATOM     81  C   UNL A   1      33.490  23.136  23.194  1.00  0.00     0.025 A 
ATOM     82  C   UNL A   1      32.216  25.000  24.121  1.00  0.00     0.101 A 
ATOM     83  C   UNL A   1      32.972  22.269  24.172  1.00  0.00    -0.011 A 
ATOM     84  C   UNL A   1      31.709  24.136  25.087  1.00  0.00     0.270 A 
ATOM     85  C   UNL A   1      32.091  22.792  25.136  1.00  0.00     0.094 A 
BRANCH  83  86
ATOM     86  C   UNL A   1      33.187  20.816  24.114  1.00  0.00    -0.018 A 
ATOM     87  C   UNL A   1      32.314  19.946  23.450  1.00  0.00     0.009 A 
ATOM     88  C   UNL A   1      34.327  20.272  24.731  1.00  0.00     0.009 A 
ATOM     89  C   UNL A   1      32.589  18.571  23.390  1.00  0.00     0.014 A 
ATOM     90  C   UNL A   1      34.602  18.905  24.675  1.00  0.00     0.014 A 
ATOM     91  C   UNL A   1      33.737  18.038  23.998  1.00  0.00     0.056 A 
BRANCH  91  92
ATOM     92  C   UNL A   1      34.036  16.560  23.920  1.00  0.00     0.416 C 
ATOM     93  F   UNL A   1      35.071  16.192  24.723  1.00  0.00    -0.166 F 
ATOM     94  F   UNL A   1      32.976  15.793  24.297  1.00  0.00    -0.166 F 
ATOM     95  F   UNL A   1      34.370  16.138  22.666  1.00  0.00    -0.166 F 
ENDBRANCH  91  92
ENDBRANCH  83  86
BRANCH  84  96
ATOM     96  N   UNL A   1      30.694  24.621  26.013  1.00  0.00     0.062 N 
ATOM     97  O   UNL A   1      30.738  24.209  27.178  1.00  0.00    -0.258 OA
ATOM     98  O   UNL A   1      29.872  25.441  25.580  1.00  0.00    -0.258 OA
ENDBRANCH  84  96
ENDBRANCH  78  80
ENDBRANCH  77  78
ENDBRANCH  76  77
ENDBRANCH  75  76
ENDBRANCH  74  75
ENDBRANCH  73  74
ENDBRANCH   1  73
TORSDOF 20
ENDMDL
MODEL 2
REMARK VINA RESULT:     -11.6      3.093      8.334
REMARK SMILES O=C(OCCOCCOCCOC(=O)c1cc(-c2ccc(C(F)(F)F)cc2)cc([N+](=O)[O-])c1)c1ccc(-c2c3nc(c(-c4c(F)c(F)c(F)c(F)c4F)c4ccc([nH]4)c(-c4c(F)c(F)c(F)c(F)c4F)c4nc(c(-c5c(F)c(F)c(F)c(F)c5F)c5ccc2[nH]5)C=C4)C=C3)cc1
REMARK SMILES IDX 7 1 6 2 5 3 4 4 3 5 2 6 1 7 34 8 35 9 96 10 36 11 95 12
REMARK SMILES IDX 37 13 38 14 39 15 89 16 40 17 94 18 88 19 90 20 41 21 93 22
REMARK SMILES IDX 87 23 86 24 42 26 74 27 54 28 73 29 55 30 58 31 72 32 91 33
REMARK SMILES IDX 56 34 57 35 71 37 92 38 59 39 43 40 44 41 52 42 45 43 46 44
REMARK SMILES IDX 50 45 53 46 47 47 48 48 51 49 49 50 75 51 76 52 84 53 77 54
REMARK SMILES IDX 78 55 82 56 85 57 79 58 80 59 83 60 81 61 60 62 61 63 69 64
REMARK SMILES IDX 62 65 63 66 67 67 70 68 64 69 65 70 68 71 66 72 8 73 9 74
REMARK SMILES IDX 10 75 11 76 12 77 13 78 14 79 15 80 16 81 33 82 17 83 29 84
REMARK SMILES IDX 28 85 18 86 19 87 27 88 20 89 26 90 21 91 22 92 23 93 24 94
REMARK SMILES IDX 25 95 30 96 31 97 32 98
REMARK H PARENT 90 25 58 36
REMARK Flexibility Score: inf
ROOT
ATOM      1  C   UNL A   1      33.568  27.586  26.273  1.00  0.00     0.188 C 
ENDROOT
BRANCH   1   2
ATOM      2  O   UNL A   1      33.009  28.837  25.842  1.00  0.00    -0.376 OA
BRANCH   2   3
ATOM      3  C   UNL A   1      31.849  29.227  26.581  1.00  0.00     0.202 C 
BRANCH   3   4
ATOM      4  C   UNL A   1      31.587  30.736  26.547  1.00  0.00     0.261 C 
BRANCH   4   5
ATOM      5  O   UNL A   1      32.803  31.476  26.348  1.00  0.00    -0.460 OA
BRANCH   5   6
ATOM      6  C   UNL A   1      33.505  32.182  27.267  1.00  0.00     0.338 C 
ATOM      7  O   UNL A   1      33.113  33.302  27.588  1.00  0.00    -0.246 OA
BRANCH   6   8
ATOM      8  C   UNL A   1      34.695  31.637  27.989  1.00  0.00     0.060 A 
ATOM      9  C   UNL A   1      34.829  30.324  28.442  1.00  0.00     0.016 A 
ATOM     10  C   UNL A   1      35.787  32.508  28.158  1.00  0.00     0.016 A 
ATOM     11  C   UNL A   1      35.957  29.922  29.157  1.00  0.00     0.010 A 
ATOM     12  C   UNL A   1      36.950  32.090  28.813  1.00  0.00     0.010 A 
ATOM     13  C   UNL A   1      37.025  30.802  29.353  1.00  0.00    -0.014 A 
BRANCH  13  14
ATOM     14  C   UNL A   1      38.175  30.376  30.182  1.00  0.00     0.031 A 
ATOM     15  C   UNL A   1      39.220  29.475  29.591  1.00  0.00     0.074 A 
ATOM     16  C   UNL A   1      38.329  30.867  31.426  1.00  0.00     0.049 A 
ATOM     17  N   UNL A   1      40.295  28.978  30.147  1.00  0.00    -0.248 NA
ATOM     18  C   UNL A   1      39.039  29.095  28.181  1.00  0.00     0.031 C 
ATOM     19  C   UNL A   1      37.424  31.813  32.079  1.00  0.00     0.029 A 
ATOM     20  N   UNL A   1      39.319  30.657  32.352  1.00  0.00    -0.354 N 
ATOM     21  C   UNL A   1      40.915  28.226  29.159  1.00  0.00     0.074 A 
ATOM     22  C   UNL A   1      40.088  28.311  27.975  1.00  0.00     0.031 C 
ATOM     23  C   UNL A   1      37.915  32.114  33.292  1.00  0.00     0.029 A 
ATOM     24  C   UNL A   1      39.125  31.342  33.525  1.00  0.00     0.049 A 
ATOM     25  H   UNL A   1      40.094  30.071  32.191  1.00  0.00     0.167 HD
ATOM     26  C   UNL A   1      42.075  27.533  29.233  1.00  0.00     0.037 A 
ATOM     27  C   UNL A   1      39.829  31.331  34.672  1.00  0.00     0.037 A 
ATOM     28  C   UNL A   1      42.897  27.450  30.410  1.00  0.00     0.049 A 
ATOM     29  C   UNL A   1      41.063  30.482  34.756  1.00  0.00     0.074 A 
ATOM     30  C   UNL A   1      44.074  26.747  30.597  1.00  0.00     0.029 A 
ATOM     31  N   UNL A   1      42.623  28.099  31.605  1.00  0.00    -0.354 N 
ATOM     32  N   UNL A   1      41.615  29.736  33.831  1.00  0.00    -0.248 NA
ATOM     33  C   UNL A   1      41.769  30.469  36.045  1.00  0.00     0.031 C 
ATOM     34  C   UNL A   1      44.497  26.948  31.917  1.00  0.00     0.029 A 
ATOM     35  C   UNL A   1      43.600  27.800  32.540  1.00  0.00     0.049 A 
ATOM     36  H   UNL A   1      41.849  28.685  31.764  1.00  0.00     0.167 HD
ATOM     37  C   UNL A   1      42.732  29.167  34.421  1.00  0.00     0.074 A 
ATOM     38  C   UNL A   1      42.792  29.668  35.779  1.00  0.00     0.031 C 
ATOM     39  C   UNL A   1      43.629  28.303  33.888  1.00  0.00     0.037 A 
BRANCH  26  40
ATOM     40  C   UNL A   1      42.500  26.785  28.007  1.00  0.00     0.064 A 
ATOM     41  C   UNL A   1      42.072  25.472  27.765  1.00  0.00     0.173 A 
ATOM     42  C   UNL A   1      43.346  27.390  27.066  1.00  0.00     0.173 A 
ATOM     43  F   UNL A   1      41.283  24.845  28.649  1.00  0.00    -0.203 F 
ATOM     44  C   UNL A   1      42.493  24.783  26.630  1.00  0.00     0.198 A 
ATOM     45  C   UNL A   1      43.749  26.705  25.924  1.00  0.00     0.198 A 
ATOM     46  F   UNL A   1      43.785  28.642  27.260  1.00  0.00    -0.203 F 
ATOM     47  F   UNL A   1      42.107  23.515  26.437  1.00  0.00    -0.200 F 
ATOM     48  C   UNL A   1      43.327  25.401  25.710  1.00  0.00     0.200 A 
ATOM     49  F   UNL A   1      44.554  27.302  25.035  1.00  0.00    -0.200 F 
ATOM     50  F   UNL A   1      43.734  24.734  24.620  1.00  0.00    -0.200 F 
ENDBRANCH  26  40
BRANCH  27  51
ATOM     51  C   UNL A   1      39.354  32.088  35.857  1.00  0.00     0.064 A 
ATOM     52  C   UNL A   1      39.845  33.366  36.152  1.00  0.00     0.173 A 
ATOM     53  C   UNL A   1      38.438  31.515  36.751  1.00  0.00     0.173 A 
ATOM     54  F   UNL A   1      40.749  33.938  35.343  1.00  0.00    -0.203 F 
ATOM     55  C   UNL A   1      39.451  34.036  37.310  1.00  0.00     0.198 A 
ATOM     56  C   UNL A   1      38.045  32.185  37.906  1.00  0.00     0.198 A 
ATOM     57  F   UNL A   1      37.937  30.296  36.503  1.00  0.00    -0.203 F 
ATOM     58  F   UNL A   1      39.974  35.237  37.596  1.00  0.00    -0.200 F 
ATOM     59  C   UNL A   1      38.552  33.445  38.187  1.00  0.00     0.200 A 
ATOM     60  F   UNL A   1      37.189  31.601  38.757  1.00  0.00    -0.200 F 
ATOM     61  F   UNL A   1      38.197  34.078  39.313  1.00  0.00    -0.200 F 
ENDBRANCH  27  51
BRANCH  39  62
ATOM     62  C   UNL A   1      44.744  27.856  34.778  1.00  0.00     0.064 A 
ATOM     63  C   UNL A   1      44.634  26.692  35.552  1.00  0.00     0.173 A 
ATOM     64  C   UNL A   1      45.939  28.585  34.841  1.00  0.00     0.173 A 
ATOM     65  F   UNL A   1      43.499  25.977  35.537  1.00  0.00    -0.203 F 
ATOM     66  C   UNL A   1      45.679  26.283  36.374  1.00  0.00     0.198 A 
ATOM     67  C   UNL A   1      46.990  28.161  35.648  1.00  0.00     0.198 A 
ATOM     68  F   UNL A   1      46.087  29.705  34.118  1.00  0.00    -0.203 F 
ATOM     69  F   UNL A   1      45.541  25.188  37.135  1.00  0.00    -0.200 F 
ATOM     70  C   UNL A   1      46.857  27.014  36.417  1.00  0.00     0.200 A 
ATOM     71  F   UNL A   1      48.129  28.866  35.687  1.00  0.00    -0.200 F 
ATOM     72  F   UNL A   1      47.863  26.618  37.209  1.00  0.00    -0.200 F 
ENDBRANCH  39  62
ENDBRANCH  13  14
ENDBRANCH   6   8
ENDBRANCH   5   6
ENDBRANCH   4   5
ENDBRANCH   3   4
ENDBRANCH   2   3
ENDBRANCH   1   2
BRANCH   1  73
ATOM     73  C   UNL A   1      33.801  26.676  25.064  1.00  0.00     0.188 C 
BRANCH  73  74
ATOM     74  O   UNL A   1      34.010  25.299  25.393  1.00  0.00    -0.376 OA
BRANCH  74  75
ATOM     75  C   UNL A   1      35.179  24.681  24.864  1.00  0.00     0.202 C 
BRANCH  75  76
ATOM     76  C   UNL A   1      34.961  23.745  23.672  1.00  0.00     0.261 C 
BRANCH  76  77
ATOM     77  O   UNL A   1      33.970  24.185  22.726  1.00  0.00    -0.460 OA
BRANCH  77  78
ATOM     78  C   UNL A   1      32.903  23.361  22.632  1.00  0.00     0.338 C 
ATOM     79  O   UNL A   1      32.773  22.373  21.924  1.00  0.00    -0.246 OA
BRANCH  78  80
ATOM     80  C   UNL A   1      31.774  23.878  23.415  1.00  0.00     0.067 A 
ATOM     81  C   UNL A   1      31.096  25.040  23.010  1.00  0.00     0.025 A 
ATOM     82  C   UNL A   1      31.609  23.352  24.697  1.00  0.00     0.101 A 
ATOM     83  C   UNL A   1      30.245  25.709  23.908  1.00  0.00    -0.011 A 
ATOM     84  C   UNL A   1      30.764  24.019  25.580  1.00  0.00     0.270 A 
ATOM     85  C   UNL A   1      30.069  25.170  25.196  1.00  0.00     0.094 A 
BRANCH  83  86
ATOM     86  C   UNL A   1      29.678  27.029  23.603  1.00  0.00    -0.018 A 
ATOM     87  C   UNL A   1      28.300  27.268  23.543  1.00  0.00     0.009 A 
ATOM     88  C   UNL A   1      30.550  28.111  23.383  1.00  0.00     0.009 A 
ATOM     89  C   UNL A   1      27.811  28.558  23.288  1.00  0.00     0.014 A 
ATOM     90  C   UNL A   1      30.067  29.394  23.126  1.00  0.00     0.014 A 
ATOM     91  C   UNL A   1      28.690  29.635  23.082  1.00  0.00     0.056 A 
BRANCH  91  92
ATOM     92  C   UNL A   1      28.160  31.025  22.822  1.00  0.00     0.416 C 
ATOM     93  F   UNL A   1      27.666  31.169  21.561  1.00  0.00    -0.166 F 
ATOM     94  F   UNL A   1      27.144  31.362  23.664  1.00  0.00    -0.166 F 
ATOM     95  F   UNL A   1      29.101  32.001  22.968  1.00  0.00    -0.166 F 
ENDBRANCH  91  92
ENDBRANCH  83  86
BRANCH  84  96
ATOM     96  N   UNL A   1      30.668  23.557  26.958  1.00  0.00     0.062 N 
ATOM     97  O   UNL A   1      31.684  23.632  27.659  1.00  0.00    -0.258 OA
ATOM     98  O   UNL A   1      29.564  23.149  27.348  1.00  0.00    -0.258 OA
ENDBRANCH  84  96
ENDBRANCH  78  80
ENDBRANCH  77  78
ENDBRANCH  76  77
ENDBRANCH  75  76
ENDBRANCH  74  75
ENDBRANCH  73  74
ENDBRANCH   1  73
TORSDOF 20
ENDMDL
MODEL 3
REMARK VINA RESULT:     -11.6      3.038      4.736
REMARK SMILES O=C(OCCOCCOCCOC(=O)c1cc(-c2ccc(C(F)(F)F)cc2)cc([N+](=O)[O-])c1)c1ccc(-c2c3nc(c(-c4c(F)c(F)c(F)c(F)c4F)c4ccc([nH]4)c(-c4c(F)c(F)c(F)c(F)c4F)c4nc(c(-c5c(F)c(F)c(F)c(F)c5F)c5ccc2[nH]5)C=C4)C=C3)cc1
REMARK SMILES IDX 7 1 6 2 5 3 4 4 3 5 2 6 1 7 34 8 35 9 96 10 36 11 95 12
REMARK SMILES IDX 37 13 38 14 39 15 89 16 40 17 94 18 88 19 90 20 41 21 93 22
REMARK SMILES IDX 87 23 86 24 42 26 74 27 54 28 73 29 55 30 58 31 72 32 91 33
REMARK SMILES IDX 56 34 57 35 71 37 92 38 59 39 43 40 44 41 52 42 45 43 46 44
REMARK SMILES IDX 50 45 53 46 47 47 48 48 51 49 49 50 75 51 76 52 84 53 77 54
REMARK SMILES IDX 78 55 82 56 85 57 79 58 80 59 83 60 81 61 60 62 61 63 69 64
REMARK SMILES IDX 62 65 63 66 67 67 70 68 64 69 65 70 68 71 66 72 8 73 9 74
REMARK SMILES IDX 10 75 11 76 12 77 13 78 14 79 15 80 16 81 33 82 17 83 29 84
REMARK SMILES IDX 28 85 18 86 19 87 27 88 20 89 26 90 21 91 22 92 23 93 24 94
REMARK SMILES IDX 25 95 30 96 31 97 32 98
REMARK H PARENT 90 25 58 36
REMARK Flexibility Score: inf
ROOT
ATOM      1  C   UNL A   1      32.939  29.169  26.607  1.00  0.00     0.188 C 
ENDROOT
BRANCH   1   2
ATOM      2  O   UNL A   1      32.873  30.603  26.548  1.00  0.00    -0.376 OA
BRANCH   2   3
ATOM      3  C   UNL A   1      31.540  31.108  26.448  1.00  0.00     0.202 C 
BRANCH   3   4
ATOM      4  C   UNL A   1      31.413  32.573  26.875  1.00  0.00     0.261 C 
BRANCH   4   5
ATOM      5  O   UNL A   1      32.694  33.225  26.905  1.00  0.00    -0.460 OA
BRANCH   5   6
ATOM      6  C   UNL A   1      33.387  33.645  27.991  1.00  0.00     0.338 C 
ATOM      7  O   UNL A   1      33.024  34.666  28.573  1.00  0.00    -0.246 OA
BRANCH   6   8
ATOM      8  C   UNL A   1      34.527  32.883  28.585  1.00  0.00     0.060 A 
ATOM      9  C   UNL A   1      34.405  31.743  29.381  1.00  0.00     0.016 A 
ATOM     10  C   UNL A   1      35.822  33.320  28.252  1.00  0.00     0.016 A 
ATOM     11  C   UNL A   1      35.528  31.132  29.937  1.00  0.00     0.010 A 
ATOM     12  C   UNL A   1      36.955  32.669  28.751  1.00  0.00     0.010 A 
ATOM     13  C   UNL A   1      36.812  31.591  29.632  1.00  0.00    -0.014 A 
BRANCH  13  14
ATOM     14  C   UNL A   1      37.982  30.975  30.297  1.00  0.00     0.031 A 
ATOM     15  C   UNL A   1      38.277  31.308  31.731  1.00  0.00     0.074 A 
ATOM     16  C   UNL A   1      38.721  30.056  29.650  1.00  0.00     0.049 A 
ATOM     17  N   UNL A   1      39.254  30.889  32.494  1.00  0.00    -0.248 NA
ATOM     18  C   UNL A   1      37.338  32.221  32.401  1.00  0.00     0.031 C 
ATOM     19  C   UNL A   1      38.483  29.590  28.283  1.00  0.00     0.029 A 
ATOM     20  N   UNL A   1      39.807  29.328  30.066  1.00  0.00    -0.354 N 
ATOM     21  C   UNL A   1      39.050  31.489  33.728  1.00  0.00     0.074 A 
ATOM     22  C   UNL A   1      37.870  32.318  33.611  1.00  0.00     0.031 C 
ATOM     23  C   UNL A   1      39.386  28.643  27.986  1.00  0.00     0.029 A 
ATOM     24  C   UNL A   1      40.297  28.478  29.108  1.00  0.00     0.049 A 
ATOM     25  H   UNL A   1      40.197  29.409  30.967  1.00  0.00     0.167 HD
ATOM     26  C   UNL A   1      39.779  31.352  34.860  1.00  0.00     0.037 A 
ATOM     27  C   UNL A   1      41.376  27.674  29.119  1.00  0.00     0.037 A 
ATOM     28  C   UNL A   1      40.950  30.526  34.977  1.00  0.00     0.049 A 
ATOM     29  C   UNL A   1      42.219  27.611  30.358  1.00  0.00     0.074 A 
ATOM     30  C   UNL A   1      41.778  30.346  36.071  1.00  0.00     0.029 A 
ATOM     31  N   UNL A   1      41.459  29.739  33.956  1.00  0.00    -0.354 N 
ATOM     32  N   UNL A   1      42.044  28.219  31.506  1.00  0.00    -0.248 NA
ATOM     33  C   UNL A   1      43.411  26.754  30.303  1.00  0.00     0.031 C 
ATOM     34  C   UNL A   1      42.806  29.469  35.701  1.00  0.00     0.029 A 
ATOM     35  C   UNL A   1      42.599  29.082  34.387  1.00  0.00     0.049 A 
ATOM     36  H   UNL A   1      41.067  29.659  33.056  1.00  0.00     0.167 HD
ATOM     37  C   UNL A   1      43.100  27.819  32.310  1.00  0.00     0.074 A 
ATOM     38  C   UNL A   1      43.900  26.900  31.526  1.00  0.00     0.031 C 
ATOM     39  C   UNL A   1      43.383  28.182  33.583  1.00  0.00     0.037 A 
BRANCH  26  40
ATOM     40  C   UNL A   1      39.338  32.144  36.053  1.00  0.00     0.064 A 
ATOM     41  C   UNL A   1      39.901  33.393  36.352  1.00  0.00     0.173 A 
ATOM     42  C   UNL A   1      38.342  31.646  36.906  1.00  0.00     0.173 A 
ATOM     43  F   UNL A   1      40.873  33.898  35.579  1.00  0.00    -0.203 F 
ATOM     44  C   UNL A   1      39.494  34.108  37.476  1.00  0.00     0.198 A 
ATOM     45  C   UNL A   1      37.925  32.372  38.017  1.00  0.00     0.198 A 
ATOM     46  F   UNL A   1      37.780  30.453  36.663  1.00  0.00    -0.203 F 
ATOM     47  F   UNL A   1      40.074  35.280  37.768  1.00  0.00    -0.200 F 
ATOM     48  C   UNL A   1      38.505  33.599  38.304  1.00  0.00     0.200 A 
ATOM     49  F   UNL A   1      36.970  31.880  38.818  1.00  0.00    -0.200 F 
ATOM     50  F   UNL A   1      38.118  34.286  39.388  1.00  0.00    -0.200 F 
ENDBRANCH  26  40
BRANCH  27  51
ATOM     51  C   UNL A   1      41.767  26.918  27.903  1.00  0.00     0.064 A 
ATOM     52  C   UNL A   1      41.294  25.621  27.666  1.00  0.00     0.173 A 
ATOM     53  C   UNL A   1      42.673  27.464  26.983  1.00  0.00     0.173 A 
ATOM     54  F   UNL A   1      40.453  25.046  28.538  1.00  0.00    -0.203 F 
ATOM     55  C   UNL A   1      41.730  24.890  26.562  1.00  0.00     0.198 A 
ATOM     56  C   UNL A   1      43.107  26.733  25.880  1.00  0.00     0.198 A 
ATOM     57  F   UNL A   1      43.146  28.706  27.167  1.00  0.00    -0.203 F 
ATOM     58  F   UNL A   1      41.302  23.632  26.384  1.00  0.00    -0.200 F 
ATOM     59  C   UNL A   1      42.637  25.445  25.670  1.00  0.00     0.200 A 
ATOM     60  F   UNL A   1      43.996  27.270  25.032  1.00  0.00    -0.200 F 
ATOM     61  F   UNL A   1      43.076  24.731  24.625  1.00  0.00    -0.200 F 
ENDBRANCH  27  51
BRANCH  39  62
ATOM     62  C   UNL A   1      44.605  27.579  34.199  1.00  0.00     0.064 A 
ATOM     63  C   UNL A   1      45.849  28.221  34.124  1.00  0.00     0.173 A 
ATOM     64  C   UNL A   1      44.528  26.360  34.886  1.00  0.00     0.173 A 
ATOM     65  F   UNL A   1      45.972  29.379  33.457  1.00  0.00    -0.203 F 
ATOM     66  C   UNL A   1      46.979  27.653  34.703  1.00  0.00     0.198 A 
ATOM     67  C   UNL A   1      45.655  25.805  35.482  1.00  0.00     0.198 A 
ATOM     68  F   UNL A   1      43.357  25.710  34.981  1.00  0.00    -0.203 F 
ATOM     69  F   UNL A   1      48.167  28.263  34.589  1.00  0.00    -0.200 F 
ATOM     70  C   UNL A   1      46.880  26.449  35.386  1.00  0.00     0.200 A 
ATOM     71  F   UNL A   1      45.559  24.644  36.144  1.00  0.00    -0.200 F 
ATOM     72  F   UNL A   1      47.970  25.904  35.944  1.00  0.00    -0.200 F 
ENDBRANCH  39  62
ENDBRANCH  13  14
ENDBRANCH   6   8
ENDBRANCH   5   6
ENDBRANCH   4   5
ENDBRANCH   3   4
ENDBRANCH   2   3
ENDBRANCH   1   2
BRANCH   1  73
ATOM     73  C   UNL A   1      33.823  28.640  25.475  1.00  0.00     0.188 C 
BRANCH  73  74
ATOM     74  O   UNL A   1      33.495  27.317  25.038  1.00  0.00    -0.376 OA
BRANCH  74  75
ATOM     75  C   UNL A   1      33.964  26.929  23.751  1.00  0.00     0.202 C 
BRANCH  75  76
ATOM     76  C   UNL A   1      34.266  25.439  23.568  1.00  0.00     0.261 C 
BRANCH  76  77
ATOM     77  O   UNL A   1      33.751  24.858  22.357  1.00  0.00    -0.460 OA
BRANCH  77  78
ATOM     78  C   UNL A   1      32.867  23.857  22.567  1.00  0.00     0.338 C 
ATOM     79  O   UNL A   1      32.887  22.724  22.108  1.00  0.00    -0.246 OA
BRANCH  78  80
ATOM     80  C   UNL A   1      31.716  24.332  23.346  1.00  0.00     0.067 A 
ATOM     81  C   UNL A   1      31.033  25.500  22.971  1.00  0.00     0.025 A 
ATOM     82  C   UNL A   1      31.531  23.756  24.603  1.00  0.00     0.101 A 
ATOM     83  C   UNL A   1      30.156  26.126  23.876  1.00  0.00    -0.011 A 
ATOM     84  C   UNL A   1      30.661  24.380  25.493  1.00  0.00     0.270 A 
ATOM     85  C   UNL A   1      29.961  25.537  25.139  1.00  0.00     0.094 A 
BRANCH  83  86
ATOM     86  C   UNL A   1      29.579  27.450  23.609  1.00  0.00    -0.018 A 
ATOM     87  C   UNL A   1      28.221  27.645  23.334  1.00  0.00     0.009 A 
ATOM     88  C   UNL A   1      30.418  28.579  23.651  1.00  0.00     0.009 A 
ATOM     89  C   UNL A   1      27.714  28.938  23.127  1.00  0.00     0.014 A 
ATOM     90  C   UNL A   1      29.918  29.865  23.443  1.00  0.00     0.014 A 
ATOM     91  C   UNL A   1      28.557  30.060  23.185  1.00  0.00     0.056 A 
BRANCH  91  92
ATOM     92  C   UNL A   1      28.006  31.450  22.975  1.00  0.00     0.416 C 
ATOM     93  F   UNL A   1      27.624  31.673  21.687  1.00  0.00    -0.166 F 
ATOM     94  F   UNL A   1      26.908  31.697  23.740  1.00  0.00    -0.166 F 
ATOM     95  F   UNL A   1      28.896  32.439  23.276  1.00  0.00    -0.166 F 
ENDBRANCH  91  92
ENDBRANCH  83  86
BRANCH  84  96
ATOM     96  N   UNL A   1      30.543  23.865  26.851  1.00  0.00     0.062 N 
ATOM     97  O   UNL A   1      29.414  23.562  27.253  1.00  0.00    -0.258 OA
ATOM     98  O   UNL A   1      31.589  23.734  27.504  1.00  0.00    -0.258 OA
ENDBRANCH  84  96
ENDBRANCH  78  80
ENDBRANCH  77  78
ENDBRANCH  76  77
ENDBRANCH  75  76
ENDBRANCH  74  75
ENDBRANCH  73  74
ENDBRANCH   1  73
TORSDOF 20
ENDMDL
