MODEL 1
REMARK VINA RESULT:     -11.2      0.000      0.000
REMARK SMILES C[C@@H](C(=O)OCCOCCOCCOC(=O)c1ccc(-c2c3nc(c(-c4c(F)c(F)c(F)c(F)c4F)c4ccc([nH]4)c(-c4c(F)c(F)c(F)c(F)c4F)c4nc(c(-c5c(F)c(F)c(F)c(F)c5F)c5ccc2[nH]5)C=C4)C=C3)cc1)c1ccc(N[C@H]2CCC[C@@H]2O)cc1F
REMARK SMILES IDX 9 1 8 2 7 3 6 4 5 5 3 6 4 7 2 8 1 9 80 10 81 11 92 12 82 13
REMARK SMILES IDX 91 14 93 15 83 16 84 17 85 19 86 20 89 21 87 22 88 23 90 24
REMARK SMILES IDX 10 26 11 27 12 28 13 29 14 30 15 31 16 32 17 33 18 34 79 35
REMARK SMILES IDX 19 36 78 37 20 38 21 39 22 40 72 41 23 42 77 43 71 44 73 45
REMARK SMILES IDX 24 46 76 47 70 48 69 49 25 51 57 52 37 53 56 54 38 55 41 56
REMARK SMILES IDX 55 57 74 58 39 59 40 60 54 62 75 63 42 64 26 65 27 66 35 67
REMARK SMILES IDX 28 68 29 69 33 70 36 71 30 72 31 73 34 74 32 75 58 76 59 77
REMARK SMILES IDX 67 78 60 79 61 80 65 81 68 82 62 83 63 84 66 85 64 86 43 87
REMARK SMILES IDX 44 88 52 89 45 90 46 91 50 92 53 93 47 94 48 95 51 96 49 97
REMARK H PARENT 84 18 90 25 73 50 41 61
REMARK Flexibility Score: inf
ROOT
ATOM      1  C   UNL A   1      34.039  28.558  22.698  1.00  0.00     0.188 C 
ENDROOT
BRANCH   1   2
ATOM      2  O   UNL A   1      33.945  27.624  21.633  1.00  0.00    -0.376 OA
BRANCH   2   3
ATOM      3  C   UNL A   1      32.660  27.142  21.247  1.00  0.00     0.202 C 
BRANCH   3   4
ATOM      4  C   UNL A   1      32.369  25.670  21.523  1.00  0.00     0.261 C 
BRANCH   4   5
ATOM      5  O   UNL A   1      32.344  25.422  22.939  1.00  0.00    -0.463 OA
BRANCH   5   6
ATOM      6  C   UNL A   1      33.419  24.739  23.413  1.00  0.00     0.313 C 
ATOM      7  O   UNL A   1      34.419  24.497  22.744  1.00  0.00    -0.252 OA
BRANCH   6   8
ATOM      8  C   UNL A   1      33.333  24.487  24.919  1.00  0.00     0.129 C 
ATOM      9  C   UNL A   1      34.389  25.257  25.720  1.00  0.00     0.025 C 
BRANCH   8  10
ATOM     10  C   UNL A   1      33.259  23.008  25.273  1.00  0.00     0.002 A 
ATOM     11  C   UNL A   1      34.359  22.314  25.780  1.00  0.00     0.010 A 
ATOM     12  C   UNL A   1      32.103  22.261  25.024  1.00  0.00     0.129 A 
ATOM     13  C   UNL A   1      34.299  20.939  26.004  1.00  0.00     0.026 A 
ATOM     14  C   UNL A   1      32.042  20.884  25.267  1.00  0.00     0.065 A 
ATOM     15  F   UNL A   1      31.013  22.864  24.530  1.00  0.00    -0.207 F 
ATOM     16  C   UNL A   1      33.149  20.192  25.758  1.00  0.00     0.037 A 
BRANCH  16  17
ATOM     17  N   UNL A   1      33.049  18.841  26.023  1.00  0.00    -0.380 N 
ATOM     18  H   UNL A   1      33.075  18.573  26.970  1.00  0.00     0.160 HD
BRANCH  17  19
ATOM     19  C   UNL A   1      32.908  17.771  25.040  1.00  0.00     0.107 C 
ATOM     20  C   UNL A   1      33.919  17.813  23.892  1.00  0.00     0.027 C 
ATOM     21  C   UNL A   1      32.989  16.370  25.672  1.00  0.00     0.136 C 
ATOM     22  C   UNL A   1      34.368  16.371  23.679  1.00  0.00     0.005 C 
ATOM     23  C   UNL A   1      34.179  15.675  25.016  1.00  0.00     0.034 C 
BRANCH  21  24
ATOM     24  O   UNL A   1      31.782  15.684  25.377  1.00  0.00    -0.391 OA
ATOM     25  H   UNL A   1      31.230  16.236  24.800  1.00  0.00     0.211 HD
ENDBRANCH  21  24
ENDBRANCH  17  19
ENDBRANCH  16  17
ENDBRANCH   8  10
ENDBRANCH   6   8
ENDBRANCH   5   6
ENDBRANCH   4   5
ENDBRANCH   3   4
ENDBRANCH   2   3
ENDBRANCH   1   2
BRANCH   1  26
ATOM     26  C   UNL A   1      33.037  28.501  23.866  1.00  0.00     0.188 C 
BRANCH  26  27
ATOM     27  O   UNL A   1      32.973  29.535  24.831  1.00  0.00    -0.376 OA
BRANCH  27  28
ATOM     28  C   UNL A   1      31.704  30.047  25.207  1.00  0.00     0.202 C 
BRANCH  28  29
ATOM     29  C   UNL A   1      31.640  31.021  26.384  1.00  0.00     0.261 C 
BRANCH  29  30
ATOM     30  O   UNL A   1      32.681  30.818  27.354  1.00  0.00    -0.460 OA
BRANCH  30  31
ATOM     31  C   UNL A   1      33.460  31.903  27.581  1.00  0.00     0.338 C 
ATOM     32  O   UNL A   1      33.117  33.071  27.629  1.00  0.00    -0.246 OA
BRANCH  31  33
ATOM     33  C   UNL A   1      34.836  31.477  27.891  1.00  0.00     0.060 A 
ATOM     34  C   UNL A   1      35.081  30.114  28.093  1.00  0.00     0.016 A 
ATOM     35  C   UNL A   1      35.841  32.421  28.112  1.00  0.00     0.016 A 
ATOM     36  C   UNL A   1      36.329  29.696  28.556  1.00  0.00     0.010 A 
ATOM     37  C   UNL A   1      37.083  32.002  28.603  1.00  0.00     0.010 A 
ATOM     38  C   UNL A   1      37.323  30.643  28.858  1.00  0.00    -0.014 A 
BRANCH  38  39
ATOM     39  C   UNL A   1      38.542  30.207  29.584  1.00  0.00     0.031 A 
ATOM     40  C   UNL A   1      38.633  30.436  31.061  1.00  0.00     0.074 A 
ATOM     41  C   UNL A   1      39.563  29.609  28.947  1.00  0.00     0.049 A 
ATOM     42  N   UNL A   1      39.560  30.049  31.900  1.00  0.00    -0.248 NA
ATOM     43  C   UNL A   1      37.575  31.260  31.664  1.00  0.00     0.031 C 
ATOM     44  C   UNL A   1      39.645  29.416  27.508  1.00  0.00     0.029 A 
ATOM     45  N   UNL A   1      40.675  28.963  29.443  1.00  0.00    -0.354 N 
ATOM     46  C   UNL A   1      39.269  30.688  33.094  1.00  0.00     0.074 A 
ATOM     47  C   UNL A   1      38.024  31.403  32.902  1.00  0.00     0.031 C 
ATOM     48  C   UNL A   1      40.638  28.549  27.249  1.00  0.00     0.029 A 
ATOM     49  C   UNL A   1      41.257  28.138  28.503  1.00  0.00     0.049 A 
ATOM     50  H   UNL A   1      41.015  29.079  30.359  1.00  0.00     0.167 HD
ATOM     51  C   UNL A   1      40.027  30.737  34.216  1.00  0.00     0.037 A 
ATOM     52  C   UNL A   1      42.107  27.104  28.674  1.00  0.00     0.037 A 
ATOM     53  C   UNL A   1      41.258  30.014  34.399  1.00  0.00     0.049 A 
ATOM     54  C   UNL A   1      42.760  26.933  30.017  1.00  0.00     0.074 A 
ATOM     55  C   UNL A   1      42.119  30.022  35.484  1.00  0.00     0.029 A 
ATOM     56  N   UNL A   1      41.799  29.137  33.470  1.00  0.00    -0.354 N 
ATOM     57  N   UNL A   1      42.510  27.554  31.143  1.00  0.00    -0.248 NA
ATOM     58  C   UNL A   1      43.877  25.977  30.090  1.00  0.00     0.031 C 
ATOM     59  C   UNL A   1      43.195  29.173  35.198  1.00  0.00     0.029 A 
ATOM     60  C   UNL A   1      42.982  28.600  33.955  1.00  0.00     0.049 A 
ATOM     61  H   UNL A   1      41.402  28.928  32.595  1.00  0.00     0.167 HD
ATOM     62  C   UNL A   1      43.493  27.137  32.027  1.00  0.00     0.074 A 
ATOM     63  C   UNL A   1      44.266  26.116  31.350  1.00  0.00     0.031 C 
ATOM     64  C   UNL A   1      43.774  27.619  33.262  1.00  0.00     0.037 A 
BRANCH  51  65
ATOM     65  C   UNL A   1      39.605  31.711  35.273  1.00  0.00     0.064 A 
ATOM     66  C   UNL A   1      40.122  33.010  35.349  1.00  0.00     0.173 A 
ATOM     67  C   UNL A   1      38.667  31.316  36.240  1.00  0.00     0.173 A 
ATOM     68  F   UNL A   1      41.045  33.424  34.467  1.00  0.00    -0.203 F 
ATOM     69  C   UNL A   1      39.732  33.872  36.372  1.00  0.00     0.198 A 
ATOM     70  C   UNL A   1      38.259  32.188  37.243  1.00  0.00     0.198 A 
ATOM     71  F   UNL A   1      38.149  30.078  36.214  1.00  0.00    -0.203 F 
ATOM     72  F   UNL A   1      40.277  35.093  36.460  1.00  0.00    -0.200 F 
ATOM     73  C   UNL A   1      38.797  33.463  37.313  1.00  0.00     0.200 A 
ATOM     74  F   UNL A   1      37.353  31.790  38.147  1.00  0.00    -0.200 F 
ATOM     75  F   UNL A   1      38.425  34.294  38.295  1.00  0.00    -0.200 F 
ENDBRANCH  51  65
BRANCH  52  76
ATOM     76  C   UNL A   1      42.344  26.102  27.596  1.00  0.00     0.064 A 
ATOM     77  C   UNL A   1      41.498  24.982  27.490  1.00  0.00     0.173 A 
ATOM     78  C   UNL A   1      43.389  26.205  26.671  1.00  0.00     0.173 A 
ATOM     79  F   UNL A   1      40.495  24.811  28.364  1.00  0.00    -0.203 F 
ATOM     80  C   UNL A   1      41.699  24.006  26.514  1.00  0.00     0.198 A 
ATOM     81  C   UNL A   1      43.564  25.250  25.669  1.00  0.00     0.198 A 
ATOM     82  F   UNL A   1      44.244  27.235  26.732  1.00  0.00    -0.203 F 
ATOM     83  F   UNL A   1      40.906  22.927  26.474  1.00  0.00    -0.200 F 
ATOM     84  C   UNL A   1      42.726  24.147  25.596  1.00  0.00     0.200 A 
ATOM     85  F   UNL A   1      44.549  25.398  24.772  1.00  0.00    -0.200 F 
ATOM     86  F   UNL A   1      42.913  23.218  24.649  1.00  0.00    -0.200 F 
ENDBRANCH  52  76
BRANCH  64  87
ATOM     87  C   UNL A   1      45.027  27.115  33.912  1.00  0.00     0.064 A 
ATOM     88  C   UNL A   1      45.001  25.976  34.734  1.00  0.00     0.173 A 
ATOM     89  C   UNL A   1      46.257  27.752  33.711  1.00  0.00     0.173 A 
ATOM     90  F   UNL A   1      43.844  25.336  34.966  1.00  0.00    -0.203 F 
ATOM     91  C   UNL A   1      46.155  25.514  35.357  1.00  0.00     0.198 A 
ATOM     92  C   UNL A   1      47.416  27.272  34.317  1.00  0.00     0.198 A 
ATOM     93  F   UNL A   1      46.336  28.840  32.931  1.00  0.00    -0.203 F 
ATOM     94  F   UNL A   1      46.095  24.456  36.178  1.00  0.00    -0.200 F 
ATOM     95  C   UNL A   1      47.363  26.161  35.146  1.00  0.00     0.200 A 
ATOM     96  F   UNL A   1      48.585  27.894  34.109  1.00  0.00    -0.200 F 
ATOM     97  F   UNL A   1      48.474  25.720  35.751  1.00  0.00    -0.200 F 
ENDBRANCH  64  87
ENDBRANCH  38  39
ENDBRANCH  31  33
ENDBRANCH  30  31
ENDBRANCH  29  30
ENDBRANCH  28  29
ENDBRANCH  27  28
ENDBRANCH  26  27
ENDBRANCH   1  26
TORSDOF 21
ENDMDL
MODEL 2
REMARK VINA RESULT:     -10.9      2.814      8.356
REMARK SMILES C[C@@H](C(=O)OCCOCCOCCOC(=O)c1ccc(-c2c3nc(c(-c4c(F)c(F)c(F)c(F)c4F)c4ccc([nH]4)c(-c4c(F)c(F)c(F)c(F)c4F)c4nc(c(-c5c(F)c(F)c(F)c(F)c5F)c5ccc2[nH]5)C=C4)C=C3)cc1)c1ccc(N[C@H]2CCC[C@@H]2O)cc1F
REMARK SMILES IDX 9 1 8 2 7 3 6 4 5 5 3 6 4 7 2 8 1 9 80 10 81 11 92 12 82 13
REMARK SMILES IDX 91 14 93 15 83 16 84 17 85 19 86 20 89 21 87 22 88 23 90 24
REMARK SMILES IDX 10 26 11 27 12 28 13 29 14 30 15 31 16 32 17 33 18 34 79 35
REMARK SMILES IDX 19 36 78 37 20 38 21 39 22 40 72 41 23 42 77 43 71 44 73 45
REMARK SMILES IDX 24 46 76 47 70 48 69 49 25 51 57 52 37 53 56 54 38 55 41 56
REMARK SMILES IDX 55 57 74 58 39 59 40 60 54 62 75 63 42 64 26 65 27 66 35 67
REMARK SMILES IDX 28 68 29 69 33 70 36 71 30 72 31 73 34 74 32 75 58 76 59 77
REMARK SMILES IDX 67 78 60 79 61 80 65 81 68 82 62 83 63 84 66 85 64 86 43 87
REMARK SMILES IDX 44 88 52 89 45 90 46 91 50 92 53 93 47 94 48 95 51 96 49 97
REMARK H PARENT 84 18 90 25 73 50 41 61
REMARK Flexibility Score: inf
ROOT
ATOM      1  C   UNL A   1      33.990  31.624  27.575  1.00  0.00     0.188 C 
ENDROOT
BRANCH   1   2
ATOM      2  O   UNL A   1      33.267  30.402  27.556  1.00  0.00    -0.376 OA
BRANCH   2   3
ATOM      3  C   UNL A   1      33.941  29.206  27.171  1.00  0.00     0.202 C 
BRANCH   3   4
ATOM      4  C   UNL A   1      33.132  28.192  26.370  1.00  0.00     0.261 C 
BRANCH   4   5
ATOM      5  O   UNL A   1      33.732  26.888  26.462  1.00  0.00    -0.463 OA
BRANCH   5   6
ATOM      6  C   UNL A   1      33.067  25.910  25.793  1.00  0.00     0.313 C 
ATOM      7  O   UNL A   1      31.902  25.602  26.024  1.00  0.00    -0.252 OA
BRANCH   6   8
ATOM      8  C   UNL A   1      33.856  25.383  24.594  1.00  0.00     0.129 C 
ATOM      9  C   UNL A   1      33.266  25.815  23.247  1.00  0.00     0.025 C 
BRANCH   8  10
ATOM     10  C   UNL A   1      34.144  23.890  24.680  1.00  0.00     0.002 A 
ATOM     11  C   UNL A   1      33.337  22.944  24.047  1.00  0.00     0.010 A 
ATOM     12  C   UNL A   1      35.188  23.399  25.471  1.00  0.00     0.129 A 
ATOM     13  C   UNL A   1      33.561  21.578  24.220  1.00  0.00     0.026 A 
ATOM     14  C   UNL A   1      35.420  22.029  25.629  1.00  0.00     0.065 A 
ATOM     15  F   UNL A   1      35.997  24.255  26.113  1.00  0.00    -0.207 F 
ATOM     16  C   UNL A   1      34.600  21.086  25.007  1.00  0.00     0.037 A 
BRANCH  16  17
ATOM     17  N   UNL A   1      34.874  19.741  25.149  1.00  0.00    -0.380 N 
ATOM     18  H   UNL A   1      35.631  19.502  25.732  1.00  0.00     0.160 HD
BRANCH  17  19
ATOM     19  C   UNL A   1      34.154  18.637  24.521  1.00  0.00     0.107 C 
ATOM     20  C   UNL A   1      34.953  17.338  24.391  1.00  0.00     0.027 C 
ATOM     21  C   UNL A   1      32.840  18.297  25.247  1.00  0.00     0.136 C 
ATOM     22  C   UNL A   1      33.991  16.218  24.774  1.00  0.00     0.005 C 
ATOM     23  C   UNL A   1      32.969  16.847  25.705  1.00  0.00     0.034 C 
BRANCH  21  24
ATOM     24  O   UNL A   1      31.776  18.437  24.317  1.00  0.00    -0.391 OA
ATOM     25  H   UNL A   1      31.961  19.184  23.725  1.00  0.00     0.211 HD
ENDBRANCH  21  24
ENDBRANCH  17  19
ENDBRANCH  16  17
ENDBRANCH   8  10
ENDBRANCH   6   8
ENDBRANCH   5   6
ENDBRANCH   4   5
ENDBRANCH   3   4
ENDBRANCH   2   3
ENDBRANCH   1   2
BRANCH   1  26
ATOM     26  C   UNL A   1      34.756  32.049  28.841  1.00  0.00     0.188 C 
BRANCH  26  27
ATOM     27  O   UNL A   1      34.887  33.413  29.199  1.00  0.00    -0.376 OA
BRANCH  27  28
ATOM     28  C   UNL A   1      34.258  34.399  28.395  1.00  0.00     0.202 C 
BRANCH  28  29
ATOM     29  C   UNL A   1      33.442  35.485  29.095  1.00  0.00     0.261 C 
BRANCH  29  30
ATOM     30  O   UNL A   1      32.657  34.996  30.194  1.00  0.00    -0.460 OA
BRANCH  30  31
ATOM     31  C   UNL A   1      32.808  35.689  31.349  1.00  0.00     0.338 C 
ATOM     32  O   UNL A   1      32.171  36.657  31.726  1.00  0.00    -0.246 OA
BRANCH  31  33
ATOM     33  C   UNL A   1      33.819  35.036  32.198  1.00  0.00     0.060 A 
ATOM     34  C   UNL A   1      35.023  35.707  32.436  1.00  0.00     0.016 A 
ATOM     35  C   UNL A   1      33.636  33.723  32.640  1.00  0.00     0.016 A 
ATOM     36  C   UNL A   1      36.066  35.047  33.088  1.00  0.00     0.010 A 
ATOM     37  C   UNL A   1      34.692  33.055  33.269  1.00  0.00     0.010 A 
ATOM     38  C   UNL A   1      35.922  33.702  33.467  1.00  0.00    -0.014 A 
BRANCH  38  39
ATOM     39  C   UNL A   1      37.116  32.946  33.924  1.00  0.00     0.031 A 
ATOM     40  C   UNL A   1      37.913  32.168  32.923  1.00  0.00     0.074 A 
ATOM     41  C   UNL A   1      37.498  32.949  35.212  1.00  0.00     0.049 A 
ATOM     42  N   UNL A   1      39.039  31.522  33.089  1.00  0.00    -0.248 NA
ATOM     43  C   UNL A   1      37.340  32.051  31.575  1.00  0.00     0.031 C 
ATOM     44  C   UNL A   1      36.761  33.578  36.296  1.00  0.00     0.029 A 
ATOM     45  N   UNL A   1      38.655  32.490  35.805  1.00  0.00    -0.354 N 
ATOM     46  C   UNL A   1      39.239  30.817  31.913  1.00  0.00     0.074 A 
ATOM     47  C   UNL A   1      38.177  31.196  31.005  1.00  0.00     0.031 C 
ATOM     48  C   UNL A   1      37.557  33.633  37.377  1.00  0.00     0.029 A 
ATOM     49  C   UNL A   1      38.848  33.039  37.056  1.00  0.00     0.049 A 
ATOM     50  H   UNL A   1      39.270  31.846  35.386  1.00  0.00     0.167 HD
ATOM     51  C   UNL A   1      40.179  29.875  31.659  1.00  0.00     0.037 A 
ATOM     52  C   UNL A   1      39.976  33.132  37.790  1.00  0.00     0.037 A 
ATOM     53  C   UNL A   1      41.236  29.514  32.566  1.00  0.00     0.049 A 
ATOM     54  C   UNL A   1      41.169  32.319  37.370  1.00  0.00     0.074 A 
ATOM     55  C   UNL A   1      42.217  28.549  32.418  1.00  0.00     0.029 A 
ATOM     56  N   UNL A   1      41.457  30.119  33.795  1.00  0.00    -0.354 N 
ATOM     57  N   UNL A   1      41.353  31.628  36.274  1.00  0.00    -0.248 NA
ATOM     58  C   UNL A   1      42.278  32.229  38.333  1.00  0.00     0.031 C 
ATOM     59  C   UNL A   1      43.014  28.550  33.571  1.00  0.00     0.029 A 
ATOM     60  C   UNL A   1      42.556  29.547  34.416  1.00  0.00     0.049 A 
ATOM     61  H   UNL A   1      40.911  30.846  34.171  1.00  0.00     0.167 HD
ATOM     62  C   UNL A   1      42.548  30.948  36.455  1.00  0.00     0.074 A 
ATOM     63  C   UNL A   1      43.109  31.407  37.708  1.00  0.00     0.031 C 
ATOM     64  C   UNL A   1      43.087  29.973  35.684  1.00  0.00     0.037 A 
BRANCH  51  65
ATOM     65  C   UNL A   1      40.013  29.080  30.400  1.00  0.00     0.064 A 
ATOM     66  C   UNL A   1      39.319  27.865  30.363  1.00  0.00     0.173 A 
ATOM     67  C   UNL A   1      40.583  29.553  29.207  1.00  0.00     0.173 A 
ATOM     68  F   UNL A   1      38.783  27.357  31.483  1.00  0.00    -0.203 F 
ATOM     69  C   UNL A   1      39.222  27.138  29.178  1.00  0.00     0.198 A 
ATOM     70  C   UNL A   1      40.461  28.837  28.021  1.00  0.00     0.198 A 
ATOM     71  F   UNL A   1      41.266  30.708  29.194  1.00  0.00    -0.203 F 
ATOM     72  F   UNL A   1      38.599  25.951  29.172  1.00  0.00    -0.200 F 
ATOM     73  C   UNL A   1      39.786  27.627  28.008  1.00  0.00     0.200 A 
ATOM     74  F   UNL A   1      41.004  29.315  26.893  1.00  0.00    -0.200 F 
ATOM     75  F   UNL A   1      39.692  26.924  26.872  1.00  0.00    -0.200 F 
ENDBRANCH  51  65
BRANCH  52  76
ATOM     76  C   UNL A   1      40.081  34.071  38.943  1.00  0.00     0.064 A 
ATOM     77  C   UNL A   1      40.510  35.394  38.726  1.00  0.00     0.173 A 
ATOM     78  C   UNL A   1      39.784  33.702  40.260  1.00  0.00     0.173 A 
ATOM     79  F   UNL A   1      40.837  35.801  37.490  1.00  0.00    -0.203 F 
ATOM     80  C   UNL A   1      40.649  36.297  39.779  1.00  0.00     0.198 A 
ATOM     81  C   UNL A   1      39.883  34.619  41.308  1.00  0.00     0.198 A 
ATOM     82  F   UNL A   1      39.392  32.451  40.538  1.00  0.00    -0.203 F 
ATOM     83  F   UNL A   1      41.110  37.534  39.545  1.00  0.00    -0.200 F 
ATOM     84  C   UNL A   1      40.324  35.912  41.069  1.00  0.00     0.200 A 
ATOM     85  F   UNL A   1      39.552  34.247  42.552  1.00  0.00    -0.200 F 
ATOM     86  F   UNL A   1      40.443  36.782  42.081  1.00  0.00    -0.200 F 
ENDBRANCH  52  76
BRANCH  64  87
ATOM     87  C   UNL A   1      44.293  29.271  36.233  1.00  0.00     0.064 A 
ATOM     88  C   UNL A   1      45.575  29.826  36.085  1.00  0.00     0.173 A 
ATOM     89  C   UNL A   1      44.177  28.055  36.917  1.00  0.00     0.173 A 
ATOM     90  F   UNL A   1      45.739  30.985  35.428  1.00  0.00    -0.203 F 
ATOM     91  C   UNL A   1      46.701  29.171  36.573  1.00  0.00     0.198 A 
ATOM     92  C   UNL A   1      45.305  27.413  37.426  1.00  0.00     0.198 A 
ATOM     93  F   UNL A   1      42.975  27.486  37.088  1.00  0.00    -0.203 F 
ATOM     94  F   UNL A   1      47.919  29.695  36.376  1.00  0.00    -0.200 F 
ATOM     95  C   UNL A   1      46.564  27.967  37.246  1.00  0.00     0.200 A 
ATOM     96  F   UNL A   1      45.173  26.252  38.081  1.00  0.00    -0.200 F 
ATOM     97  F   UNL A   1      47.649  27.332  37.711  1.00  0.00    -0.200 F 
ENDBRANCH  64  87
ENDBRANCH  38  39
ENDBRANCH  31  33
ENDBRANCH  30  31
ENDBRANCH  29  30
ENDBRANCH  28  29
ENDBRANCH  27  28
ENDBRANCH  26  27
ENDBRANCH   1  26
TORSDOF 21
ENDMDL
MODEL 3
REMARK VINA RESULT:     -10.6      1.150      7.402
REMARK SMILES C[C@@H](C(=O)OCCOCCOCCOC(=O)c1ccc(-c2c3nc(c(-c4c(F)c(F)c(F)c(F)c4F)c4ccc([nH]4)c(-c4c(F)c(F)c(F)c(F)c4F)c4nc(c(-c5c(F)c(F)c(F)c(F)c5F)c5ccc2[nH]5)C=C4)C=C3)cc1)c1ccc(N[C@H]2CCC[C@@H]2O)cc1F
REMARK SMILES IDX 9 1 8 2 7 3 6 4 5 5 3 6 4 7 2 8 1 9 80 10 81 11 92 12 82 13
REMARK SMILES IDX 91 14 93 15 83 16 84 17 85 19 86 20 89 21 87 22 88 23 90 24
REMARK SMILES IDX 10 26 11 27 12 28 13 29 14 30 15 31 16 32 17 33 18 34 79 35
REMARK SMILES IDX 19 36 78 37 20 38 21 39 22 40 72 41 23 42 77 43 71 44 73 45
REMARK SMILES IDX 24 46 76 47 70 48 69 49 25 51 57 52 37 53 56 54 38 55 41 56
REMARK SMILES IDX 55 57 74 58 39 59 40 60 54 62 75 63 42 64 26 65 27 66 35 67
REMARK SMILES IDX 28 68 29 69 33 70 36 71 30 72 31 73 34 74 32 75 58 76 59 77
REMARK SMILES IDX 67 78 60 79 61 80 65 81 68 82 62 83 63 84 66 85 64 86 43 87
REMARK SMILES IDX 44 88 52 89 45 90 46 91 50 92 53 93 47 94 48 95 51 96 49 97
REMARK H PARENT 84 18 90 25 73 50 41 61
REMARK Flexibility Score: inf
ROOT
ATOM      1  C   UNL A   1      31.892  28.751  24.854  1.00  0.00     0.188 C 
ENDROOT
BRANCH   1   2
ATOM      2  O   UNL A   1      32.786  29.462  24.010  1.00  0.00    -0.376 OA
BRANCH   2   3
ATOM      3  C   UNL A   1      33.805  28.743  23.320  1.00  0.00     0.202 C 
BRANCH   3   4
ATOM      4  C   UNL A   1      33.349  27.579  22.446  1.00  0.00     0.261 C 
BRANCH   4   5
ATOM      5  O   UNL A   1      33.805  26.332  22.997  1.00  0.00    -0.463 OA
BRANCH   5   6
ATOM      6  C   UNL A   1      32.814  25.482  23.372  1.00  0.00     0.313 C 
ATOM      7  O   UNL A   1      31.948  25.069  22.607  1.00  0.00    -0.252 OA
BRANCH   6   8
ATOM      8  C   UNL A   1      33.015  24.938  24.787  1.00  0.00     0.129 C 
ATOM      9  C   UNL A   1      33.948  25.805  25.640  1.00  0.00     0.025 C 
BRANCH   8  10
ATOM     10  C   UNL A   1      33.372  23.457  24.811  1.00  0.00     0.002 A 
ATOM     11  C   UNL A   1      32.400  22.466  24.956  1.00  0.00     0.010 A 
ATOM     12  C   UNL A   1      34.704  23.033  24.771  1.00  0.00     0.129 A 
ATOM     13  C   UNL A   1      32.758  21.123  25.074  1.00  0.00     0.026 A 
ATOM     14  C   UNL A   1      35.057  21.683  24.873  1.00  0.00     0.065 A 
ATOM     15  F   UNL A   1      35.687  23.935  24.641  1.00  0.00    -0.207 F 
ATOM     16  C   UNL A   1      34.084  20.697  25.035  1.00  0.00     0.037 A 
BRANCH  16  17
ATOM     17  N   UNL A   1      34.457  19.370  25.096  1.00  0.00    -0.380 N 
ATOM     18  H   UNL A   1      35.272  19.161  25.608  1.00  0.00     0.160 HD
BRANCH  17  19
ATOM     19  C   UNL A   1      33.765  18.243  24.475  1.00  0.00     0.107 C 
ATOM     20  C   UNL A   1      34.672  17.264  23.727  1.00  0.00     0.027 C 
ATOM     21  C   UNL A   1      32.939  17.426  25.483  1.00  0.00     0.136 C 
ATOM     22  C   UNL A   1      34.171  15.870  24.092  1.00  0.00     0.005 C 
ATOM     23  C   UNL A   1      33.508  16.010  25.452  1.00  0.00     0.034 C 
BRANCH  21  24
ATOM     24  O   UNL A   1      31.587  17.433  25.052  1.00  0.00    -0.391 OA
ATOM     25  H   UNL A   1      31.469  16.777  24.347  1.00  0.00     0.211 HD
ENDBRANCH  21  24
ENDBRANCH  17  19
ENDBRANCH  16  17
ENDBRANCH   8  10
ENDBRANCH   6   8
ENDBRANCH   5   6
ENDBRANCH   4   5
ENDBRANCH   3   4
ENDBRANCH   2   3
ENDBRANCH   1   2
BRANCH   1  26
ATOM     26  C   UNL A   1      31.775  29.121  26.343  1.00  0.00     0.188 C 
BRANCH  26  27
ATOM     27  O   UNL A   1      32.219  30.376  26.826  1.00  0.00    -0.376 OA
BRANCH  27  28
ATOM     28  C   UNL A   1      31.489  31.543  26.482  1.00  0.00     0.202 C 
BRANCH  28  29
ATOM     29  C   UNL A   1      32.026  32.894  26.954  1.00  0.00     0.261 C 
BRANCH  29  30
ATOM     30  O   UNL A   1      33.022  32.788  27.984  1.00  0.00    -0.460 OA
BRANCH  30  31
ATOM     31  C   UNL A   1      34.164  33.475  27.738  1.00  0.00     0.338 C 
ATOM     32  O   UNL A   1      34.274  34.607  27.303  1.00  0.00    -0.246 OA
BRANCH  31  33
ATOM     33  C   UNL A   1      35.328  32.690  28.185  1.00  0.00     0.060 A 
ATOM     34  C   UNL A   1      35.141  31.337  28.488  1.00  0.00     0.016 A 
ATOM     35  C   UNL A   1      36.554  33.313  28.433  1.00  0.00     0.016 A 
ATOM     36  C   UNL A   1      36.177  30.610  29.077  1.00  0.00     0.010 A 
ATOM     37  C   UNL A   1      37.581  32.590  29.049  1.00  0.00     0.010 A 
ATOM     38  C   UNL A   1      37.388  31.246  29.404  1.00  0.00    -0.014 A 
BRANCH  38  39
ATOM     39  C   UNL A   1      38.374  30.532  30.253  1.00  0.00     0.031 A 
ATOM     40  C   UNL A   1      39.492  29.780  29.598  1.00  0.00     0.074 A 
ATOM     41  C   UNL A   1      38.289  30.549  31.594  1.00  0.00     0.049 A 
ATOM     42  N   UNL A   1      40.511  29.172  30.150  1.00  0.00    -0.248 NA
ATOM     43  C   UNL A   1      39.421  29.642  28.136  1.00  0.00     0.031 C 
ATOM     44  C   UNL A   1      37.205  31.154  32.350  1.00  0.00     0.029 A 
ATOM     45  N   UNL A   1      39.185  30.131  32.555  1.00  0.00    -0.354 N 
ATOM     46  C   UNL A   1      41.125  28.473  29.124  1.00  0.00     0.074 A 
ATOM     47  C   UNL A   1      40.430  28.815  27.900  1.00  0.00     0.031 C 
ATOM     48  C   UNL A   1      37.577  31.238  33.638  1.00  0.00     0.029 A 
ATOM     49  C   UNL A   1      38.918  30.687  33.789  1.00  0.00     0.049 A 
ATOM     50  H   UNL A   1      39.926  29.507  32.381  1.00  0.00     0.167 HD
ATOM     51  C   UNL A   1      42.124  27.563  29.220  1.00  0.00     0.037 A 
ATOM     52  C   UNL A   1      39.721  30.819  34.865  1.00  0.00     0.037 A 
ATOM     53  C   UNL A   1      42.815  27.239  30.441  1.00  0.00     0.049 A 
ATOM     54  C   UNL A   1      41.010  30.047  34.891  1.00  0.00     0.074 A 
ATOM     55  C   UNL A   1      43.817  26.308  30.652  1.00  0.00     0.029 A 
ATOM     56  N   UNL A   1      42.580  27.853  31.662  1.00  0.00    -0.354 N 
ATOM     57  N   UNL A   1      41.582  29.361  33.935  1.00  0.00    -0.248 NA
ATOM     58  C   UNL A   1      41.722  29.996  36.179  1.00  0.00     0.031 C 
ATOM     59  C   UNL A   1      44.168  26.337  32.008  1.00  0.00     0.029 A 
ATOM     60  C   UNL A   1      43.416  27.319  32.631  1.00  0.00     0.049 A 
ATOM     61  H   UNL A   1      41.916  28.562  31.818  1.00  0.00     0.167 HD
ATOM     62  C   UNL A   1      42.663  28.722  34.524  1.00  0.00     0.074 A 
ATOM     63  C   UNL A   1      42.743  29.201  35.889  1.00  0.00     0.031 C 
ATOM     64  C   UNL A   1      43.464  27.765  33.999  1.00  0.00     0.037 A 
BRANCH  51  65
ATOM     65  C   UNL A   1      42.427  26.762  27.992  1.00  0.00     0.064 A 
ATOM     66  C   UNL A   1      41.748  25.578  27.678  1.00  0.00     0.173 A 
ATOM     67  C   UNL A   1      43.439  27.194  27.119  1.00  0.00     0.173 A 
ATOM     68  F   UNL A   1      40.795  25.108  28.497  1.00  0.00    -0.203 F 
ATOM     69  C   UNL A   1      42.088  24.842  26.545  1.00  0.00     0.198 A 
ATOM     70  C   UNL A   1      43.757  26.471  25.975  1.00  0.00     0.198 A 
ATOM     71  F   UNL A   1      44.124  28.317  27.381  1.00  0.00    -0.203 F 
ATOM     72  F   UNL A   1      41.463  23.684  26.289  1.00  0.00    -0.200 F 
ATOM     73  C   UNL A   1      43.086  25.292  25.692  1.00  0.00     0.200 A 
ATOM     74  F   UNL A   1      44.719  26.911  25.152  1.00  0.00    -0.200 F 
ATOM     75  F   UNL A   1      43.411  24.580  24.605  1.00  0.00    -0.200 F 
ENDBRANCH  51  65
BRANCH  52  76
ATOM     76  C   UNL A   1      39.393  31.763  35.972  1.00  0.00     0.064 A 
ATOM     77  C   UNL A   1      40.062  32.999  36.053  1.00  0.00     0.173 A 
ATOM     78  C   UNL A   1      38.448  31.480  36.964  1.00  0.00     0.173 A 
ATOM     79  F   UNL A   1      40.999  33.317  35.148  1.00  0.00    -0.203 F 
ATOM     80  C   UNL A   1      39.806  33.899  37.087  1.00  0.00     0.198 A 
ATOM     81  C   UNL A   1      38.162  32.399  37.975  1.00  0.00     0.198 A 
ATOM     82  F   UNL A   1      37.793  30.310  36.957  1.00  0.00    -0.203 F 
ATOM     83  F   UNL A   1      40.497  35.045  37.163  1.00  0.00    -0.200 F 
ATOM     84  C   UNL A   1      38.847  33.603  38.041  1.00  0.00     0.200 A 
ATOM     85  F   UNL A   1      37.222  32.116  38.886  1.00  0.00    -0.200 F 
ATOM     86  F   UNL A   1      38.589  34.472  39.027  1.00  0.00    -0.200 F 
ENDBRANCH  52  76
BRANCH  64  87
ATOM     87  C   UNL A   1      44.429  27.105  34.938  1.00  0.00     0.064 A 
ATOM     88  C   UNL A   1      45.724  27.620  35.115  1.00  0.00     0.173 A 
ATOM     89  C   UNL A   1      44.066  25.970  35.673  1.00  0.00     0.173 A 
ATOM     90  F   UNL A   1      46.122  28.700  34.425  1.00  0.00    -0.203 F 
ATOM     91  C   UNL A   1      46.631  27.002  35.969  1.00  0.00     0.198 A 
ATOM     92  C   UNL A   1      44.969  25.367  36.546  1.00  0.00     0.198 A 
ATOM     93  F   UNL A   1      42.840  25.442  35.543  1.00  0.00    -0.203 F 
ATOM     94  F   UNL A   1      47.877  27.481  36.083  1.00  0.00    -0.200 F 
ATOM     95  C   UNL A   1      46.252  25.877  36.686  1.00  0.00     0.200 A 
ATOM     96  F   UNL A   1      44.602  24.284  37.243  1.00  0.00    -0.200 F 
ATOM     97  F   UNL A   1      47.128  25.278  37.504  1.00  0.00    -0.200 F 
ENDBRANCH  64  87
ENDBRANCH  38  39
ENDBRANCH  31  33
ENDBRANCH  30  31
ENDBRANCH  29  30
ENDBRANCH  28  29
ENDBRANCH  27  28
ENDBRANCH  26  27
ENDBRANCH   1  26
TORSDOF 21
ENDMDL
