MODEL 1
REMARK VINA RESULT:     -13.0      0.000      0.000
REMARK SMILES Cc1cccc(-c2cccc(O)c2)c1C(=O)OCCOCCOCCOC(=O)c1ccc(-c2c3nc(c(-c4c(F)c(F)c(F)c(F)c4F)c4ccc([nH]4)c(-c4c(F)c(F)c(F)c(F)c4F)c4nc(c(-c5c(F)c(F)c(F)c(F)c5F)c5ccc2[nH]5)C=C4)C=C3)cc1
REMARK SMILES IDX 21 1 20 2 19 3 18 4 17 5 15 6 16 7 14 8 1 9 2 10 3 11 4 12
REMARK SMILES IDX 6 13 5 14 7 15 8 16 13 17 9 18 11 19 10 20 12 21 22 23 23 24
REMARK SMILES IDX 24 25 25 26 26 27 27 28 28 29 29 30 30 31 91 32 31 33 90 34
REMARK SMILES IDX 32 35 33 36 34 37 84 38 35 39 89 40 83 41 85 42 36 43 88 44
REMARK SMILES IDX 82 45 81 46 37 48 69 49 49 50 68 51 50 52 53 53 67 54 86 55
REMARK SMILES IDX 51 56 52 57 66 59 87 60 54 61 38 62 39 63 47 64 40 65 41 66
REMARK SMILES IDX 45 67 48 68 42 69 43 70 46 71 44 72 70 73 71 74 79 75 72 76
REMARK SMILES IDX 73 77 77 78 80 79 74 80 75 81 78 82 76 83 55 84 56 85 64 86
REMARK SMILES IDX 57 87 58 88 62 89 65 90 59 91 60 92 63 93 61 94
REMARK H PARENT 12 22 85 47 53 58
REMARK Flexibility Score: inf
ROOT
ATOM      1  C   UNL A   1      34.392  32.799  28.131  1.00  0.00     0.188 C 
ENDROOT
BRANCH   1   2
ATOM      2  O   UNL A   1      34.406  31.498  27.505  1.00  0.00    -0.376 OA
BRANCH   2   3
ATOM      3  C   UNL A   1      33.331  30.554  27.320  1.00  0.00     0.202 C 
BRANCH   3   4
ATOM      4  C   UNL A   1      33.364  28.786  27.161  1.00  0.00     0.261 C 
BRANCH   4   5
ATOM      5  O   UNL A   1      32.160  27.588  26.906  1.00  0.00    -0.460 OA
BRANCH   5   6
ATOM      6  C   UNL A   1      31.542  26.810  25.847  1.00  0.00     0.339 C 
ATOM      7  O   UNL A   1      30.758  25.871  25.994  1.00  0.00    -0.246 OA
BRANCH   6   8
ATOM      8  C   UNL A   1      31.919  26.814  24.406  1.00  0.00     0.070 A 
ATOM      9  C   UNL A   1      33.950  25.374  24.987  1.00  0.00     0.045 C 
ATOM     10  C   UNL A   1      32.994  25.995  24.012  1.00  0.00    -0.036 A 
ATOM     11  C   UNL A   1      33.110  25.624  22.661  1.00  0.00     0.004 A 
ATOM     12  C   UNL A   1      32.193  26.039  21.702  1.00  0.00     0.001 A 
ATOM     13  C   UNL A   1      30.975  27.303  23.397  1.00  0.00    -0.003 A 
ATOM     14  C   UNL A   1      31.149  26.871  22.065  1.00  0.00     0.009 A 
BRANCH  13  15
ATOM     15  C   UNL A   1      29.810  28.256  23.512  1.00  0.00    -0.014 A 
ATOM     16  C   UNL A   1      30.071  29.641  23.431  1.00  0.00     0.009 A 
ATOM     17  C   UNL A   1      28.459  27.867  23.356  1.00  0.00     0.055 A 
ATOM     18  C   UNL A   1      29.057  30.585  23.196  1.00  0.00     0.004 A 
ATOM     19  C   UNL A   1      27.447  28.819  23.126  1.00  0.00     0.116 A 
ATOM     20  C   UNL A   1      27.738  30.176  23.042  1.00  0.00     0.046 A 
BRANCH  19  21
ATOM     21  O   UNL A   1      26.156  28.389  22.986  1.00  0.00    -0.508 OA
ATOM     22  H   UNL A   1      25.448  28.922  23.289  1.00  0.00     0.293 HD
ENDBRANCH  19  21
ENDBRANCH  13  15
ENDBRANCH   6   8
ENDBRANCH   5   6
ENDBRANCH   4   5
ENDBRANCH   3   4
ENDBRANCH   2   3
ENDBRANCH   1   2
BRANCH   1  23
ATOM     23  C   UNL A   1      33.359  33.931  27.989  1.00  0.00     0.188 C 
BRANCH  23  24
ATOM     24  O   UNL A   1      32.770  34.347  29.203  1.00  0.00    -0.376 OA
BRANCH  24  25
ATOM     25  C   UNL A   1      33.039  35.713  29.537  1.00  0.00     0.202 C 
BRANCH  25  26
ATOM     26  C   UNL A   1      33.064  36.057  31.053  1.00  0.00     0.261 C 
BRANCH  26  27
ATOM     27  O   UNL A   1      34.299  35.652  31.690  1.00  0.00    -0.460 OA
BRANCH  27  28
ATOM     28  C   UNL A   1      34.260  34.501  32.460  1.00  0.00     0.338 C 
ATOM     29  O   UNL A   1      33.786  34.421  33.556  1.00  0.00    -0.246 OA
BRANCH  28  30
ATOM     30  C   UNL A   1      35.101  33.441  31.797  1.00  0.00     0.060 A 
ATOM     31  C   UNL A   1      35.189  32.079  32.125  1.00  0.00     0.016 A 
ATOM     32  C   UNL A   1      36.091  33.909  31.017  1.00  0.00     0.016 A 
ATOM     33  C   UNL A   1      36.382  31.279  31.824  1.00  0.00     0.010 A 
ATOM     34  C   UNL A   1      37.270  33.180  31.024  1.00  0.00     0.010 A 
ATOM     35  C   UNL A   1      37.563  31.831  31.328  1.00  0.00    -0.014 A 
BRANCH  35  36
ATOM     36  C   UNL A   1      39.064  31.107  31.143  1.00  0.00     0.031 A 
ATOM     37  C   UNL A   1      39.596  29.604  30.478  1.00  0.00     0.074 A 
ATOM     38  C   UNL A   1      40.117  31.857  31.562  1.00  0.00     0.049 A 
ATOM     39  N   UNL A   1      40.872  29.280  30.393  1.00  0.00    -0.248 NA
ATOM     40  C   UNL A   1      38.874  28.407  29.875  1.00  0.00     0.031 C 
ATOM     41  C   UNL A   1      41.538  31.692  31.240  1.00  0.00     0.029 A 
ATOM     42  N   UNL A   1      40.134  32.926  32.479  1.00  0.00    -0.354 N 
ATOM     43  C   UNL A   1      41.054  28.148  29.611  1.00  0.00     0.074 A 
ATOM     44  C   UNL A   1      39.786  27.607  29.346  1.00  0.00     0.031 C 
ATOM     45  C   UNL A   1      42.276  32.292  32.179  1.00  0.00     0.029 A 
ATOM     46  C   UNL A   1      41.363  32.807  33.169  1.00  0.00     0.049 A 
ATOM     47  H   UNL A   1      39.439  33.610  32.612  1.00  0.00     0.167 HD
ATOM     48  C   UNL A   1      42.266  27.674  29.235  1.00  0.00     0.037 A 
ATOM     49  C   UNL A   1      41.389  32.541  34.500  1.00  0.00     0.037 A 
ATOM     50  C   UNL A   1      43.233  28.029  30.241  1.00  0.00     0.049 A 
ATOM     51  C   UNL A   1      42.039  31.215  34.843  1.00  0.00     0.074 A 
ATOM     52  C   UNL A   1      44.220  28.982  30.355  1.00  0.00     0.029 A 
ATOM     53  N   UNL A   1      42.982  27.556  31.527  1.00  0.00    -0.354 N 
ATOM     54  N   UNL A   1      42.602  30.408  33.981  1.00  0.00    -0.248 NA
ATOM     55  C   UNL A   1      42.088  30.677  36.200  1.00  0.00     0.031 C 
ATOM     56  C   UNL A   1      44.426  29.199  31.753  1.00  0.00     0.029 A 
ATOM     57  C   UNL A   1      43.617  28.332  32.474  1.00  0.00     0.049 A 
ATOM     58  H   UNL A   1      42.425  26.771  31.732  1.00  0.00     0.167 HD
ATOM     59  C   UNL A   1      42.932  29.225  34.594  1.00  0.00     0.074 A 
ATOM     60  C   UNL A   1      42.677  29.486  35.998  1.00  0.00     0.031 C 
ATOM     61  C   UNL A   1      43.331  28.114  33.894  1.00  0.00     0.037 A 
BRANCH  48  62
ATOM     62  C   UNL A   1      42.491  26.865  27.970  1.00  0.00     0.064 A 
ATOM     63  C   UNL A   1      42.646  25.467  28.009  1.00  0.00     0.173 A 
ATOM     64  C   UNL A   1      42.715  27.445  26.692  1.00  0.00     0.173 A 
ATOM     65  F   UNL A   1      42.522  24.797  29.163  1.00  0.00    -0.203 F 
ATOM     66  C   UNL A   1      42.964  24.715  26.864  1.00  0.00     0.198 A 
ATOM     67  C   UNL A   1      42.969  26.690  25.542  1.00  0.00     0.198 A 
ATOM     68  F   UNL A   1      42.755  28.773  26.515  1.00  0.00    -0.203 F 
ATOM     69  F   UNL A   1      43.155  23.392  26.964  1.00  0.00    -0.200 F 
ATOM     70  C   UNL A   1      43.105  25.323  25.629  1.00  0.00     0.200 A 
ATOM     71  F   UNL A   1      43.113  27.306  24.359  1.00  0.00    -0.200 F 
ATOM     72  F   UNL A   1      43.401  24.605  24.538  1.00  0.00    -0.200 F 
ENDBRANCH  48  62
BRANCH  49  73
ATOM     73  C   UNL A   1      40.305  33.270  35.214  1.00  0.00     0.064 A 
ATOM     74  C   UNL A   1      39.181  32.533  35.629  1.00  0.00     0.173 A 
ATOM     75  C   UNL A   1      40.555  34.464  35.894  1.00  0.00     0.173 A 
ATOM     76  F   UNL A   1      38.889  31.372  35.022  1.00  0.00    -0.203 F 
ATOM     77  C   UNL A   1      38.422  32.905  36.741  1.00  0.00     0.198 A 
ATOM     78  C   UNL A   1      39.777  34.847  36.996  1.00  0.00     0.198 A 
ATOM     79  F   UNL A   1      41.650  35.163  35.589  1.00  0.00    -0.203 F 
ATOM     80  F   UNL A   1      37.427  32.118  37.173  1.00  0.00    -0.200 F 
ATOM     81  C   UNL A   1      38.745  34.046  37.446  1.00  0.00     0.200 A 
ATOM     82  F   UNL A   1      40.077  35.944  37.699  1.00  0.00    -0.200 F 
ATOM     83  F   UNL A   1      38.097  34.356  38.578  1.00  0.00    -0.200 F 
ENDBRANCH  49  73
BRANCH  61  84
ATOM     84  C   UNL A   1      43.483  26.714  34.479  1.00  0.00     0.064 A 
ATOM     85  C   UNL A   1      42.415  25.896  34.892  1.00  0.00     0.173 A 
ATOM     86  C   UNL A   1      44.757  26.092  34.527  1.00  0.00     0.173 A 
ATOM     87  F   UNL A   1      41.141  26.286  34.764  1.00  0.00    -0.203 F 
ATOM     88  C   UNL A   1      42.612  24.606  35.399  1.00  0.00     0.198 A 
ATOM     89  C   UNL A   1      44.941  24.775  34.958  1.00  0.00     0.198 A 
ATOM     90  F   UNL A   1      45.865  26.736  34.130  1.00  0.00    -0.203 F 
ATOM     91  F   UNL A   1      41.562  23.901  35.847  1.00  0.00    -0.200 F 
ATOM     92  C   UNL A   1      43.872  24.041  35.422  1.00  0.00     0.200 A 
ATOM     93  F   UNL A   1      46.160  24.220  34.904  1.00  0.00    -0.200 F 
ATOM     94  F   UNL A   1      44.050  22.790  35.866  1.00  0.00    -0.200 F 
ENDBRANCH  61  84
ENDBRANCH  35  36
ENDBRANCH  28  30
ENDBRANCH  27  28
ENDBRANCH  26  27
ENDBRANCH  25  26
ENDBRANCH  24  25
ENDBRANCH  23  24
ENDBRANCH   1  23
TORSDOF 19
ENDMDL
MODEL 2
REMARK VINA RESULT:     -12.7      5.717     11.848
REMARK SMILES Cc1cccc(-c2cccc(O)c2)c1C(=O)OCCOCCOCCOC(=O)c1ccc(-c2c3nc(c(-c4c(F)c(F)c(F)c(F)c4F)c4ccc([nH]4)c(-c4c(F)c(F)c(F)c(F)c4F)c4nc(c(-c5c(F)c(F)c(F)c(F)c5F)c5ccc2[nH]5)C=C4)C=C3)cc1
REMARK SMILES IDX 21 1 20 2 19 3 18 4 17 5 15 6 16 7 14 8 1 9 2 10 3 11 4 12
REMARK SMILES IDX 6 13 5 14 7 15 8 16 13 17 9 18 11 19 10 20 12 21 22 23 23 24
REMARK SMILES IDX 24 25 25 26 26 27 27 28 28 29 29 30 30 31 91 32 31 33 90 34
REMARK SMILES IDX 32 35 33 36 34 37 84 38 35 39 89 40 83 41 85 42 36 43 88 44
REMARK SMILES IDX 82 45 81 46 37 48 69 49 49 50 68 51 50 52 53 53 67 54 86 55
REMARK SMILES IDX 51 56 52 57 66 59 87 60 54 61 38 62 39 63 47 64 40 65 41 66
REMARK SMILES IDX 45 67 48 68 42 69 43 70 46 71 44 72 70 73 71 74 79 75 72 76
REMARK SMILES IDX 73 77 77 78 80 79 74 80 75 81 78 82 76 83 55 84 56 85 64 86
REMARK SMILES IDX 57 87 58 88 62 89 65 90 59 91 60 92 63 93 61 94
REMARK H PARENT 12 22 85 47 53 58
REMARK Flexibility Score: inf
ROOT
ATOM      1  C   UNL A   1      40.313  20.325  26.475  1.00  0.00     0.188 C 
ENDROOT
BRANCH   1   2
ATOM      2  O   UNL A   1      39.883  21.704  26.485  1.00  0.00    -0.376 OA
BRANCH   2   3
ATOM      3  C   UNL A   1      38.608  22.274  26.123  1.00  0.00     0.202 C 
BRANCH   3   4
ATOM      4  C   UNL A   1      37.393  21.725  24.951  1.00  0.00     0.261 C 
BRANCH   4   5
ATOM      5  O   UNL A   1      35.935  20.826  25.076  1.00  0.00    -0.460 OA
BRANCH   5   6
ATOM      6  C   UNL A   1      34.542  20.974  25.460  1.00  0.00     0.339 C 
ATOM      7  O   UNL A   1      34.090  20.910  26.605  1.00  0.00    -0.246 OA
BRANCH   6   8
ATOM      8  C   UNL A   1      33.364  20.970  24.550  1.00  0.00     0.070 A 
ATOM      9  C   UNL A   1      33.366  23.526  24.619  1.00  0.00     0.045 C 
ATOM     10  C   UNL A   1      32.921  22.211  24.053  1.00  0.00    -0.036 A 
ATOM     11  C   UNL A   1      32.132  22.237  22.888  1.00  0.00     0.004 A 
ATOM     12  C   UNL A   1      31.778  21.075  22.212  1.00  0.00     0.001 A 
ATOM     13  C   UNL A   1      32.954  19.734  23.877  1.00  0.00    -0.003 A 
ATOM     14  C   UNL A   1      32.177  19.846  22.704  1.00  0.00     0.009 A 
BRANCH  13  15
ATOM     15  C   UNL A   1      33.192  18.287  24.237  1.00  0.00    -0.014 A 
ATOM     16  C   UNL A   1      34.430  17.707  23.881  1.00  0.00     0.009 A 
ATOM     17  C   UNL A   1      32.422  17.577  25.186  1.00  0.00     0.055 A 
ATOM     18  C   UNL A   1      34.884  16.502  24.443  1.00  0.00     0.004 A 
ATOM     19  C   UNL A   1      32.880  16.367  25.741  1.00  0.00     0.116 A 
ATOM     20  C   UNL A   1      34.109  15.825  25.378  1.00  0.00     0.046 A 
BRANCH  19  21
ATOM     21  O   UNL A   1      32.093  15.718  26.653  1.00  0.00    -0.508 OA
ATOM     22  H   UNL A   1      32.436  15.498  27.496  1.00  0.00     0.293 HD
ENDBRANCH  19  21
ENDBRANCH  13  15
ENDBRANCH   6   8
ENDBRANCH   5   6
ENDBRANCH   4   5
ENDBRANCH   3   4
ENDBRANCH   2   3
ENDBRANCH   1   2
BRANCH   1  23
ATOM     23  C   UNL A   1      41.678  19.734  26.871  1.00  0.00     0.188 C 
BRANCH  23  24
ATOM     24  O   UNL A   1      42.152  18.718  26.011  1.00  0.00    -0.376 OA
BRANCH  24  25
ATOM     25  C   UNL A   1      43.491  18.299  26.294  1.00  0.00     0.202 C 
BRANCH  25  26
ATOM     26  C   UNL A   1      44.599  18.878  25.370  1.00  0.00     0.261 C 
BRANCH  26  27
ATOM     27  O   UNL A   1      44.632  20.324  25.386  1.00  0.00    -0.460 OA
BRANCH  27  28
ATOM     28  C   UNL A   1      44.506  20.969  24.166  1.00  0.00     0.338 C 
ATOM     29  O   UNL A   1      44.791  20.496  23.105  1.00  0.00    -0.246 OA
BRANCH  28  30
ATOM     30  C   UNL A   1      44.174  22.418  24.412  1.00  0.00     0.060 A 
ATOM     31  C   UNL A   1      45.015  23.532  24.268  1.00  0.00     0.016 A 
ATOM     32  C   UNL A   1      43.060  22.629  25.133  1.00  0.00     0.016 A 
ATOM     33  C   UNL A   1      44.807  24.771  25.027  1.00  0.00     0.010 A 
ATOM     34  C   UNL A   1      43.094  23.702  26.010  1.00  0.00     0.010 A 
ATOM     35  C   UNL A   1      43.860  24.890  26.044  1.00  0.00    -0.014 A 
BRANCH  35  36
ATOM     36  C   UNL A   1      43.649  26.140  27.140  1.00  0.00     0.031 A 
ATOM     37  C   UNL A   1      42.343  27.214  27.496  1.00  0.00     0.074 A 
ATOM     38  C   UNL A   1      44.701  26.357  27.973  1.00  0.00     0.049 A 
ATOM     39  N   UNL A   1      42.401  28.100  28.473  1.00  0.00    -0.248 NA
ATOM     40  C   UNL A   1      40.957  27.417  26.901  1.00  0.00     0.031 C 
ATOM     41  C   UNL A   1      44.726  27.103  29.235  1.00  0.00     0.029 A 
ATOM     42  N   UNL A   1      46.053  26.002  27.802  1.00  0.00    -0.354 N 
ATOM     43  C   UNL A   1      41.158  28.667  28.714  1.00  0.00     0.074 A 
ATOM     44  C   UNL A   1      40.296  28.252  27.686  1.00  0.00     0.031 C 
ATOM     45  C   UNL A   1      45.979  27.484  29.499  1.00  0.00     0.029 A 
ATOM     46  C   UNL A   1      46.793  27.055  28.389  1.00  0.00     0.049 A 
ATOM     47  H   UNL A   1      46.408  25.194  27.367  1.00  0.00     0.167 HD
ATOM     48  C   UNL A   1      40.892  29.497  29.751  1.00  0.00     0.037 A 
ATOM     49  C   UNL A   1      47.597  27.845  27.631  1.00  0.00     0.037 A 
ATOM     50  C   UNL A   1      42.097  30.208  30.093  1.00  0.00     0.049 A 
ATOM     51  C   UNL A   1      47.166  29.298  27.598  1.00  0.00     0.074 A 
ATOM     52  C   UNL A   1      43.040  30.109  31.091  1.00  0.00     0.029 A 
ATOM     53  N   UNL A   1      42.665  30.976  29.079  1.00  0.00    -0.354 N 
ATOM     54  N   UNL A   1      46.169  29.803  28.278  1.00  0.00    -0.248 NA
ATOM     55  C   UNL A   1      47.821  30.307  26.768  1.00  0.00     0.031 C 
ATOM     56  C   UNL A   1      44.247  30.679  30.578  1.00  0.00     0.029 A 
ATOM     57  C   UNL A   1      44.010  31.179  29.305  1.00  0.00     0.049 A 
ATOM     58  H   UNL A   1      42.170  31.327  28.304  1.00  0.00     0.167 HD
ATOM     59  C   UNL A   1      45.945  31.099  27.886  1.00  0.00     0.074 A 
ATOM     60  C   UNL A   1      47.065  31.391  27.012  1.00  0.00     0.031 C 
ATOM     61  C   UNL A   1      44.830  31.804  28.264  1.00  0.00     0.037 A 
BRANCH  48  62
ATOM     62  C   UNL A   1      39.515  29.644  30.372  1.00  0.00     0.064 A 
ATOM     63  C   UNL A   1      38.652  30.695  30.010  1.00  0.00     0.173 A 
ATOM     64  C   UNL A   1      39.050  28.850  31.456  1.00  0.00     0.173 A 
ATOM     65  F   UNL A   1      38.994  31.557  29.043  1.00  0.00    -0.203 F 
ATOM     66  C   UNL A   1      37.420  30.910  30.654  1.00  0.00     0.198 A 
ATOM     67  C   UNL A   1      37.797  29.026  32.053  1.00  0.00     0.198 A 
ATOM     68  F   UNL A   1      39.816  27.906  32.021  1.00  0.00    -0.203 F 
ATOM     69  F   UNL A   1      36.659  31.957  30.308  1.00  0.00    -0.200 F 
ATOM     70  C   UNL A   1      36.985  30.065  31.659  1.00  0.00     0.200 A 
ATOM     71  F   UNL A   1      37.404  28.199  33.033  1.00  0.00    -0.200 F 
ATOM     72  F   UNL A   1      35.807  30.267  32.266  1.00  0.00    -0.200 F 
ENDBRANCH  48  62
BRANCH  49  73
ATOM     73  C   UNL A   1      48.303  27.048  26.590  1.00  0.00     0.064 A 
ATOM     74  C   UNL A   1      47.850  27.155  25.261  1.00  0.00     0.173 A 
ATOM     75  C   UNL A   1      49.620  26.622  26.767  1.00  0.00     0.173 A 
ATOM     76  F   UNL A   1      46.595  27.568  25.021  1.00  0.00    -0.203 F 
ATOM     77  C   UNL A   1      48.704  26.966  24.172  1.00  0.00     0.198 A 
ATOM     78  C   UNL A   1      50.468  26.410  25.671  1.00  0.00     0.198 A 
ATOM     79  F   UNL A   1      50.122  26.575  28.003  1.00  0.00    -0.203 F 
ATOM     80  F   UNL A   1      48.264  27.186  22.925  1.00  0.00    -0.200 F 
ATOM     81  C   UNL A   1      50.025  26.628  24.381  1.00  0.00     0.200 A 
ATOM     82  F   UNL A   1      51.755  26.090  25.850  1.00  0.00    -0.200 F 
ATOM     83  F   UNL A   1      50.881  26.551  23.352  1.00  0.00    -0.200 F 
ENDBRANCH  49  73
BRANCH  61  84
ATOM     84  C   UNL A   1      44.400  33.148  27.683  1.00  0.00     0.064 A 
ATOM     85  C   UNL A   1      43.930  33.341  26.371  1.00  0.00     0.173 A 
ATOM     86  C   UNL A   1      44.336  34.298  28.511  1.00  0.00     0.173 A 
ATOM     87  F   UNL A   1      43.787  32.321  25.518  1.00  0.00    -0.203 F 
ATOM     88  C   UNL A   1      43.525  34.596  25.899  1.00  0.00     0.198 A 
ATOM     89  C   UNL A   1      43.855  35.530  28.059  1.00  0.00     0.198 A 
ATOM     90  F   UNL A   1      44.717  34.257  29.796  1.00  0.00    -0.203 F 
ATOM     91  F   UNL A   1      43.157  34.735  24.616  1.00  0.00    -0.200 F 
ATOM     92  C   UNL A   1      43.476  35.686  26.744  1.00  0.00     0.200 A 
ATOM     93  F   UNL A   1      43.747  36.558  28.912  1.00  0.00    -0.200 F 
ATOM     94  F   UNL A   1      43.045  36.874  26.299  1.00  0.00    -0.200 F 
ENDBRANCH  61  84
ENDBRANCH  35  36
ENDBRANCH  28  30
ENDBRANCH  27  28
ENDBRANCH  26  27
ENDBRANCH  25  26
ENDBRANCH  24  25
ENDBRANCH  23  24
ENDBRANCH   1  23
TORSDOF 19
ENDMDL
MODEL 3
REMARK VINA RESULT:     -12.7      2.919      4.584
REMARK SMILES Cc1cccc(-c2cccc(O)c2)c1C(=O)OCCOCCOCCOC(=O)c1ccc(-c2c3nc(c(-c4c(F)c(F)c(F)c(F)c4F)c4ccc([nH]4)c(-c4c(F)c(F)c(F)c(F)c4F)c4nc(c(-c5c(F)c(F)c(F)c(F)c5F)c5ccc2[nH]5)C=C4)C=C3)cc1
REMARK SMILES IDX 21 1 20 2 19 3 18 4 17 5 15 6 16 7 14 8 1 9 2 10 3 11 4 12
REMARK SMILES IDX 6 13 5 14 7 15 8 16 13 17 9 18 11 19 10 20 12 21 22 23 23 24
REMARK SMILES IDX 24 25 25 26 26 27 27 28 28 29 29 30 30 31 91 32 31 33 90 34
REMARK SMILES IDX 32 35 33 36 34 37 84 38 35 39 89 40 83 41 85 42 36 43 88 44
REMARK SMILES IDX 82 45 81 46 37 48 69 49 49 50 68 51 50 52 53 53 67 54 86 55
REMARK SMILES IDX 51 56 52 57 66 59 87 60 54 61 38 62 39 63 47 64 40 65 41 66
REMARK SMILES IDX 45 67 48 68 42 69 43 70 46 71 44 72 70 73 71 74 79 75 72 76
REMARK SMILES IDX 73 77 77 78 80 79 74 80 75 81 78 82 76 83 55 84 56 85 64 86
REMARK SMILES IDX 57 87 58 88 62 89 65 90 59 91 60 92 63 93 61 94
REMARK H PARENT 12 22 85 47 53 58
REMARK Flexibility Score: inf
ROOT
ATOM      1  C   UNL A   1      32.063  26.806  26.771  1.00  0.00     0.188 C 
ENDROOT
BRANCH   1   2
ATOM      2  O   UNL A   1      30.923  26.522  25.932  1.00  0.00    -0.376 OA
BRANCH   2   3
ATOM      3  C   UNL A   1      30.337  25.253  25.574  1.00  0.00     0.202 C 
BRANCH   3   4
ATOM      4  C   UNL A   1      30.780  23.603  26.056  1.00  0.00     0.261 C 
BRANCH   4   5
ATOM      5  O   UNL A   1      31.379  22.233  25.211  1.00  0.00    -0.460 OA
BRANCH   5   6
ATOM      6  C   UNL A   1      32.433  21.841  24.291  1.00  0.00     0.339 C 
ATOM      7  O   UNL A   1      32.366  20.948  23.444  1.00  0.00    -0.246 OA
BRANCH   6   8
ATOM      8  C   UNL A   1      33.864  22.246  24.355  1.00  0.00     0.070 A 
ATOM      9  C   UNL A   1      34.403  19.989  25.429  1.00  0.00     0.045 C 
ATOM     10  C   UNL A   1      34.797  21.277  24.771  1.00  0.00    -0.036 A 
ATOM     11  C   UNL A   1      36.153  21.450  24.439  1.00  0.00     0.004 A 
ATOM     12  C   UNL A   1      36.600  22.547  23.711  1.00  0.00     0.001 A 
ATOM     13  C   UNL A   1      34.328  23.434  23.634  1.00  0.00    -0.003 A 
ATOM     14  C   UNL A   1      35.702  23.525  23.323  1.00  0.00     0.009 A 
BRANCH  13  15
ATOM     15  C   UNL A   1      33.581  24.659  23.162  1.00  0.00    -0.014 A 
ATOM     16  C   UNL A   1      33.884  25.898  23.767  1.00  0.00     0.009 A 
ATOM     17  C   UNL A   1      32.859  24.719  21.947  1.00  0.00     0.055 A 
ATOM     18  C   UNL A   1      33.507  27.125  23.196  1.00  0.00     0.004 A 
ATOM     19  C   UNL A   1      32.479  25.952  21.384  1.00  0.00     0.116 A 
ATOM     20  C   UNL A   1      32.801  27.157  21.999  1.00  0.00     0.046 A 
BRANCH  19  21
ATOM     21  O   UNL A   1      31.779  25.953  20.209  1.00  0.00    -0.508 OA
ATOM     22  H   UNL A   1      31.020  26.494  20.115  1.00  0.00     0.293 HD
ENDBRANCH  19  21
ENDBRANCH  13  15
ENDBRANCH   6   8
ENDBRANCH   5   6
ENDBRANCH   4   5
ENDBRANCH   3   4
ENDBRANCH   2   3
ENDBRANCH   1   2
BRANCH   1  23
ATOM     23  C   UNL A   1      32.904  28.093  26.857  1.00  0.00     0.188 C 
BRANCH  23  24
ATOM     24  O   UNL A   1      32.585  29.071  25.889  1.00  0.00    -0.376 OA
BRANCH  24  25
ATOM     25  C   UNL A   1      31.783  30.144  26.394  1.00  0.00     0.202 C 
BRANCH  25  26
ATOM     26  C   UNL A   1      32.539  31.450  26.766  1.00  0.00     0.261 C 
BRANCH  26  27
ATOM     27  O   UNL A   1      33.276  31.327  28.005  1.00  0.00    -0.460 OA
BRANCH  27  28
ATOM     28  C   UNL A   1      34.598  31.742  27.993  1.00  0.00     0.338 C 
ATOM     29  O   UNL A   1      34.979  32.816  27.626  1.00  0.00    -0.246 OA
BRANCH  28  30
ATOM     30  C   UNL A   1      35.483  30.562  28.296  1.00  0.00     0.060 A 
ATOM     31  C   UNL A   1      35.892  30.090  29.553  1.00  0.00     0.016 A 
ATOM     32  C   UNL A   1      36.198  30.106  27.251  1.00  0.00     0.016 A 
ATOM     33  C   UNL A   1      37.136  29.334  29.736  1.00  0.00     0.010 A 
ATOM     34  C   UNL A   1      37.473  29.647  27.539  1.00  0.00     0.010 A 
ATOM     35  C   UNL A   1      38.073  29.150  28.719  1.00  0.00    -0.014 A 
BRANCH  35  36
ATOM     36  C   UNL A   1      39.621  28.515  28.818  1.00  0.00     0.031 A 
ATOM     37  C   UNL A   1      40.277  26.926  28.649  1.00  0.00     0.074 A 
ATOM     38  C   UNL A   1      40.602  29.429  29.041  1.00  0.00     0.049 A 
ATOM     39  N   UNL A   1      41.573  26.684  28.716  1.00  0.00    -0.248 NA
ATOM     40  C   UNL A   1      39.663  25.557  28.396  1.00  0.00     0.031 C 
ATOM     41  C   UNL A   1      42.047  29.280  28.841  1.00  0.00     0.029 A 
ATOM     42  N   UNL A   1      40.502  30.717  29.601  1.00  0.00    -0.354 N 
ATOM     43  C   UNL A   1      41.866  25.390  28.310  1.00  0.00     0.074 A 
ATOM     44  C   UNL A   1      40.649  24.705  28.164  1.00  0.00     0.031 C 
ATOM     45  C   UNL A   1      42.692  30.180  29.590  1.00  0.00     0.029 A 
ATOM     46  C   UNL A   1      41.692  30.893  30.346  1.00  0.00     0.049 A 
ATOM     47  H   UNL A   1      39.762  31.357  29.498  1.00  0.00     0.167 HD
ATOM     48  C   UNL A   1      43.124  24.916  28.141  1.00  0.00     0.037 A 
ATOM     49  C   UNL A   1      41.652  31.029  31.697  1.00  0.00     0.037 A 
ATOM     50  C   UNL A   1      44.006  25.618  29.037  1.00  0.00     0.049 A 
ATOM     51  C   UNL A   1      42.355  29.911  32.442  1.00  0.00     0.074 A 
ATOM     52  C   UNL A   1      44.928  26.632  28.906  1.00  0.00     0.029 A 
ATOM     53  N   UNL A   1      43.704  25.523  30.393  1.00  0.00    -0.354 N 
ATOM     54  N   UNL A   1      43.014  28.931  31.879  1.00  0.00    -0.248 NA
ATOM     55  C   UNL A   1      42.351  29.797  33.898  1.00  0.00     0.031 C 
ATOM     56  C   UNL A   1      45.036  27.261  30.185  1.00  0.00     0.029 A 
ATOM     57  C   UNL A   1      44.235  26.585  31.095  1.00  0.00     0.049 A 
ATOM     58  H   UNL A   1      43.182  24.793  30.797  1.00  0.00     0.167 HD
ATOM     59  C   UNL A   1      43.373  28.005  32.828  1.00  0.00     0.074 A 
ATOM     60  C   UNL A   1      43.018  28.645  34.081  1.00  0.00     0.031 C 
ATOM     61  C   UNL A   1      43.877  26.771  32.503  1.00  0.00     0.037 A 
BRANCH  48  62
ATOM     62  C   UNL A   1      43.471  23.792  27.182  1.00  0.00     0.064 A 
ATOM     63  C   UNL A   1      44.133  24.040  25.965  1.00  0.00     0.173 A 
ATOM     64  C   UNL A   1      43.033  22.450  27.348  1.00  0.00     0.173 A 
ATOM     65  F   UNL A   1      44.548  25.276  25.653  1.00  0.00    -0.203 F 
ATOM     66  C   UNL A   1      44.365  23.029  25.016  1.00  0.00     0.198 A 
ATOM     67  C   UNL A   1      43.318  21.431  26.432  1.00  0.00     0.198 A 
ATOM     68  F   UNL A   1      42.257  22.081  28.377  1.00  0.00    -0.203 F 
ATOM     69  F   UNL A   1      44.952  23.328  23.849  1.00  0.00    -0.200 F 
ATOM     70  C   UNL A   1      43.976  21.723  25.258  1.00  0.00     0.200 A 
ATOM     71  F   UNL A   1      42.920  20.176  26.686  1.00  0.00    -0.200 F 
ATOM     72  F   UNL A   1      44.204  20.759  24.356  1.00  0.00    -0.200 F 
ENDBRANCH  48  62
BRANCH  49  73
ATOM     73  C   UNL A   1      40.486  31.854  32.118  1.00  0.00     0.064 A 
ATOM     74  C   UNL A   1      40.447  33.197  31.697  1.00  0.00     0.173 A 
ATOM     75  C   UNL A   1      39.265  31.271  32.458  1.00  0.00     0.173 A 
ATOM     76  F   UNL A   1      41.586  33.815  31.348  1.00  0.00    -0.203 F 
ATOM     77  C   UNL A   1      39.242  33.877  31.510  1.00  0.00     0.198 A 
ATOM     78  C   UNL A   1      38.058  31.965  32.291  1.00  0.00     0.198 A 
ATOM     79  F   UNL A   1      39.238  29.979  32.792  1.00  0.00    -0.203 F 
ATOM     80  F   UNL A   1      39.240  35.117  31.002  1.00  0.00    -0.200 F 
ATOM     81  C   UNL A   1      38.044  33.246  31.774  1.00  0.00     0.200 A 
ATOM     82  F   UNL A   1      36.885  31.369  32.533  1.00  0.00    -0.200 F 
ATOM     83  F   UNL A   1      36.878  33.846  31.494  1.00  0.00    -0.200 F 
ENDBRANCH  49  73
BRANCH  61  84
ATOM     84  C   UNL A   1      44.073  25.616  33.481  1.00  0.00     0.064 A 
ATOM     85  C   UNL A   1      43.091  25.143  34.371  1.00  0.00     0.173 A 
ATOM     86  C   UNL A   1      45.267  24.851  33.456  1.00  0.00     0.173 A 
ATOM     87  F   UNL A   1      41.859  25.666  34.402  1.00  0.00    -0.203 F 
ATOM     88  C   UNL A   1      43.319  24.061  35.230  1.00  0.00     0.198 A 
ATOM     89  C   UNL A   1      45.460  23.723  34.257  1.00  0.00     0.198 A 
ATOM     90  F   UNL A   1      46.278  25.161  32.631  1.00  0.00    -0.203 F 
ATOM     91  F   UNL A   1      42.372  23.702  36.110  1.00  0.00    -0.200 F 
ATOM     92  C   UNL A   1      44.496  23.344  35.166  1.00  0.00     0.200 A 
ATOM     93  F   UNL A   1      46.580  22.997  34.129  1.00  0.00    -0.200 F 
ATOM     94  F   UNL A   1      44.692  22.282  35.959  1.00  0.00    -0.200 F 
ENDBRANCH  61  84
ENDBRANCH  35  36
ENDBRANCH  28  30
ENDBRANCH  27  28
ENDBRANCH  26  27
ENDBRANCH  25  26
ENDBRANCH  24  25
ENDBRANCH  23  24
ENDBRANCH   1  23
TORSDOF 19
ENDMDL
