MODEL 1
REMARK VINA RESULT:      -9.7      0.000      0.000
REMARK SMILES C[C@@H]1CCC[C@@]1(C[NH3+])C(=O)OCCOCCOCCOC(=O)c1ccc(-c2c3nc(c(-c4c(F)c(F)c(F)c(F)c4F)c4ccc([nH]4)c(-c4c(F)c(F)c(F)c(F)c4F)c4nc(c(-c5c(F)c(F)c(F)c(F)c5F)c5ccc2[nH]5)C=C4)C=C3)cc1
REMARK SMILES IDX 15 1 14 2 13 3 12 4 11 5 9 6 10 7 6 8 1 9 2 10 3 11 4 12
REMARK SMILES IDX 5 13 7 14 8 15 16 19 17 20 18 21 19 22 20 23 21 24 22 25
REMARK SMILES IDX 23 26 24 27 85 28 25 29 84 30 26 31 27 32 28 33 78 34 29 35
REMARK SMILES IDX 83 36 77 37 79 38 30 39 82 40 76 41 75 42 31 44 63 45 43 46
REMARK SMILES IDX 62 47 44 48 47 49 61 50 80 51 45 52 46 53 60 55 81 56 48 57
REMARK SMILES IDX 32 58 33 59 41 60 34 61 35 62 39 63 42 64 36 65 37 66 40 67
REMARK SMILES IDX 38 68 64 69 65 70 73 71 66 72 67 73 71 74 74 75 68 76 69 77
REMARK SMILES IDX 72 78 70 79 49 80 50 81 58 82 51 83 52 84 56 85 59 86 53 87
REMARK SMILES IDX 54 88 57 89 55 90
REMARK H PARENT 8 16 8 17 8 18 79 43 47 54
REMARK Flexibility Score: inf
ROOT
ATOM      1  C   UNL A   1      30.642  27.211  22.896  1.00  0.00     0.188 C 
ENDROOT
BRANCH   1   2
ATOM      2  O   UNL A   1      29.831  26.682  23.920  1.00  0.00    -0.376 OA
BRANCH   2   3
ATOM      3  C   UNL A   1      30.383  25.768  24.852  1.00  0.00     0.202 C 
BRANCH   3   4
ATOM      4  C   UNL A   1      31.138  24.478  24.474  1.00  0.00     0.261 C 
BRANCH   4   5
ATOM      5  O   UNL A   1      32.350  24.177  25.184  1.00  0.00    -0.463 OA
BRANCH   5   6
ATOM      6  C   UNL A   1      32.612  22.859  25.406  1.00  0.00     0.318 C 
ATOM      7  O   UNL A   1      31.761  21.988  25.251  1.00  0.00    -0.251 OA
BRANCH   6   8
ATOM      8  C   UNL A   1      34.096  22.554  25.787  1.00  0.00     0.119 C 
ATOM      9  C   UNL A   1      35.915  20.816  24.999  1.00  0.00     0.009 C 
ATOM     10  C   UNL A   1      34.678  21.645  24.656  1.00  0.00     0.009 C 
ATOM     11  C   UNL A   1      35.027  22.629  23.529  1.00  0.00     0.005 C 
ATOM     12  C   UNL A   1      35.485  23.900  24.225  1.00  0.00     0.002 C 
ATOM     13  C   UNL A   1      34.935  23.852  25.650  1.00  0.00     0.025 C 
BRANCH   8  14
ATOM     14  C   UNL A   1      34.159  21.915  27.209  1.00  0.00     0.278 C 
BRANCH  14  15
ATOM     15  N   UNL A   1      32.922  21.915  27.996  1.00  0.00    -0.357 N 
ATOM     16  H   UNL A   1      32.132  22.136  27.388  1.00  0.00     0.344 HD
ATOM     17  H   UNL A   1      32.988  22.615  28.735  1.00  0.00     0.344 HD
ATOM     18  H   UNL A   1      32.783  20.994  28.411  1.00  0.00     0.344 HD
ENDBRANCH  14  15
ENDBRANCH   8  14
ENDBRANCH   6   8
ENDBRANCH   5   6
ENDBRANCH   4   5
ENDBRANCH   3   4
ENDBRANCH   2   3
ENDBRANCH   1   2
BRANCH   1  19
ATOM     19  C   UNL A   1      31.240  28.621  23.074  1.00  0.00     0.188 C 
BRANCH  19  20
ATOM     20  O   UNL A   1      32.263  28.814  24.017  1.00  0.00    -0.376 OA
BRANCH  20  21
ATOM     21  C   UNL A   1      31.941  29.188  25.344  1.00  0.00     0.202 C 
BRANCH  21  22
ATOM     22  C   UNL A   1      32.005  30.624  25.908  1.00  0.00     0.261 C 
BRANCH  22  23
ATOM     23  O   UNL A   1      32.531  30.813  27.227  1.00  0.00    -0.460 OA
BRANCH  23  24
ATOM     24  C   UNL A   1      33.321  31.901  27.396  1.00  0.00     0.338 C 
ATOM     25  O   UNL A   1      33.003  33.078  27.277  1.00  0.00    -0.246 OA
BRANCH  24  26
ATOM     26  C   UNL A   1      34.622  31.470  27.941  1.00  0.00     0.060 A 
ATOM     27  C   UNL A   1      34.766  30.156  28.412  1.00  0.00     0.016 A 
ATOM     28  C   UNL A   1      35.683  32.370  28.021  1.00  0.00     0.016 A 
ATOM     29  C   UNL A   1      35.972  29.743  28.980  1.00  0.00     0.010 A 
ATOM     30  C   UNL A   1      36.880  31.963  28.616  1.00  0.00     0.010 A 
ATOM     31  C   UNL A   1      37.022  30.657  29.123  1.00  0.00    -0.014 A 
BRANCH  31  32
ATOM     32  C   UNL A   1      38.199  30.324  29.964  1.00  0.00     0.031 A 
ATOM     33  C   UNL A   1      39.213  29.354  29.419  1.00  0.00     0.074 A 
ATOM     34  C   UNL A   1      38.369  30.860  31.185  1.00  0.00     0.049 A 
ATOM     35  N   UNL A   1      40.251  28.814  30.005  1.00  0.00    -0.248 NA
ATOM     36  C   UNL A   1      39.024  28.936  28.020  1.00  0.00     0.031 C 
ATOM     37  C   UNL A   1      37.498  31.857  31.802  1.00  0.00     0.029 A 
ATOM     38  N   UNL A   1      39.335  30.622  32.132  1.00  0.00    -0.354 N 
ATOM     39  C   UNL A   1      40.835  27.993  29.050  1.00  0.00     0.074 A 
ATOM     40  C   UNL A   1      40.019  28.077  27.859  1.00  0.00     0.031 C 
ATOM     41  C   UNL A   1      37.958  32.132  33.035  1.00  0.00     0.029 A 
ATOM     42  C   UNL A   1      39.129  31.299  33.310  1.00  0.00     0.049 A 
ATOM     43  H   UNL A   1      40.102  30.023  31.983  1.00  0.00     0.167 HD
ATOM     44  C   UNL A   1      41.957  27.242  29.154  1.00  0.00     0.037 A 
ATOM     45  C   UNL A   1      39.793  31.225  34.481  1.00  0.00     0.037 A 
ATOM     46  C   UNL A   1      42.761  27.146  30.344  1.00  0.00     0.049 A 
ATOM     47  C   UNL A   1      40.970  30.288  34.609  1.00  0.00     0.074 A 
ATOM     48  C   UNL A   1      43.907  26.399  30.555  1.00  0.00     0.029 A 
ATOM     49  N   UNL A   1      42.499  27.818  31.529  1.00  0.00    -0.354 N 
ATOM     50  N   UNL A   1      41.523  29.517  33.703  1.00  0.00    -0.248 NA
ATOM     51  C   UNL A   1      41.618  30.211  35.928  1.00  0.00     0.031 C 
ATOM     52  C   UNL A   1      44.307  26.578  31.882  1.00  0.00     0.029 A 
ATOM     53  C   UNL A   1      43.450  27.486  32.480  1.00  0.00     0.049 A 
ATOM     54  H   UNL A   1      41.748  28.439  31.671  1.00  0.00     0.167 HD
ATOM     55  C   UNL A   1      42.602  28.901  34.328  1.00  0.00     0.074 A 
ATOM     56  C   UNL A   1      42.634  29.397  35.688  1.00  0.00     0.031 C 
ATOM     57  C   UNL A   1      43.488  28.008  33.822  1.00  0.00     0.037 A 
BRANCH  44  58
ATOM     58  C   UNL A   1      42.371  26.443  27.952  1.00  0.00     0.064 A 
ATOM     59  C   UNL A   1      41.838  25.171  27.694  1.00  0.00     0.173 A 
ATOM     60  C   UNL A   1      43.285  26.971  27.026  1.00  0.00     0.173 A 
ATOM     61  F   UNL A   1      40.971  24.616  28.556  1.00  0.00    -0.203 F 
ATOM     62  C   UNL A   1      42.220  24.449  26.567  1.00  0.00     0.198 A 
ATOM     63  C   UNL A   1      43.639  26.260  25.883  1.00  0.00     0.198 A 
ATOM     64  F   UNL A   1      43.822  28.185  27.222  1.00  0.00    -0.203 F 
ATOM     65  F   UNL A   1      41.731  23.218  26.365  1.00  0.00    -0.200 F 
ATOM     66  C   UNL A   1      43.113  24.997  25.659  1.00  0.00     0.200 A 
ATOM     67  F   UNL A   1      44.491  26.797  24.999  1.00  0.00    -0.200 F 
ATOM     68  F   UNL A   1      43.470  24.306  24.568  1.00  0.00    -0.200 F 
ENDBRANCH  44  58
BRANCH  45  69
ATOM     69  C   UNL A   1      39.357  32.039  35.650  1.00  0.00     0.064 A 
ATOM     70  C   UNL A   1      39.952  33.278  35.928  1.00  0.00     0.173 A 
ATOM     71  C   UNL A   1      38.389  31.567  36.549  1.00  0.00     0.173 A 
ATOM     72  F   UNL A   1      40.907  33.759  35.117  1.00  0.00    -0.203 F 
ATOM     73  C   UNL A   1      39.621  33.996  37.076  1.00  0.00     0.198 A 
ATOM     74  C   UNL A   1      38.032  32.304  37.678  1.00  0.00     0.198 A 
ATOM     75  F   UNL A   1      37.792  30.384  36.338  1.00  0.00    -0.203 F 
ATOM     76  F   UNL A   1      40.259  35.142  37.352  1.00  0.00    -0.200 F 
ATOM     77  C   UNL A   1      38.659  33.511  37.947  1.00  0.00     0.200 A 
ATOM     78  F   UNL A   1      37.096  31.835  38.514  1.00  0.00    -0.200 F 
ATOM     79  F   UNL A   1      38.348  34.198  39.056  1.00  0.00    -0.200 F 
ENDBRANCH  45  69
BRANCH  57  80
ATOM     80  C   UNL A   1      44.610  27.555  34.714  1.00  0.00     0.064 A 
ATOM     81  C   UNL A   1      45.819  28.257  34.803  1.00  0.00     0.173 A 
ATOM     82  C   UNL A   1      44.448  26.424  35.532  1.00  0.00     0.173 A 
ATOM     83  F   UNL A   1      46.031  29.337  34.036  1.00  0.00    -0.203 F 
ATOM     84  C   UNL A   1      46.837  27.830  35.655  1.00  0.00     0.198 A 
ATOM     85  C   UNL A   1      45.451  26.021  36.408  1.00  0.00     0.198 A 
ATOM     86  F   UNL A   1      43.307  25.720  35.495  1.00  0.00    -0.203 F 
ATOM     87  F   UNL A   1      48.003  28.488  35.686  1.00  0.00    -0.200 F 
ATOM     88  C   UNL A   1      46.648  26.719  36.463  1.00  0.00     0.200 A 
ATOM     89  F   UNL A   1      45.260  24.957  37.200  1.00  0.00    -0.200 F 
ATOM     90  F   UNL A   1      47.623  26.316  37.291  1.00  0.00    -0.200 F 
ENDBRANCH  57  80
ENDBRANCH  31  32
ENDBRANCH  24  26
ENDBRANCH  23  24
ENDBRANCH  22  23
ENDBRANCH  21  22
ENDBRANCH  20  21
ENDBRANCH  19  20
ENDBRANCH   1  19
TORSDOF 19
ENDMDL
MODEL 2
REMARK VINA RESULT:      -9.5      5.981     11.210
REMARK SMILES C[C@@H]1CCC[C@@]1(C[NH3+])C(=O)OCCOCCOCCOC(=O)c1ccc(-c2c3nc(c(-c4c(F)c(F)c(F)c(F)c4F)c4ccc([nH]4)c(-c4c(F)c(F)c(F)c(F)c4F)c4nc(c(-c5c(F)c(F)c(F)c(F)c5F)c5ccc2[nH]5)C=C4)C=C3)cc1
REMARK SMILES IDX 15 1 14 2 13 3 12 4 11 5 9 6 10 7 6 8 1 9 2 10 3 11 4 12
REMARK SMILES IDX 5 13 7 14 8 15 16 19 17 20 18 21 19 22 20 23 21 24 22 25
REMARK SMILES IDX 23 26 24 27 85 28 25 29 84 30 26 31 27 32 28 33 78 34 29 35
REMARK SMILES IDX 83 36 77 37 79 38 30 39 82 40 76 41 75 42 31 44 63 45 43 46
REMARK SMILES IDX 62 47 44 48 47 49 61 50 80 51 45 52 46 53 60 55 81 56 48 57
REMARK SMILES IDX 32 58 33 59 41 60 34 61 35 62 39 63 42 64 36 65 37 66 40 67
REMARK SMILES IDX 38 68 64 69 65 70 73 71 66 72 67 73 71 74 74 75 68 76 69 77
REMARK SMILES IDX 72 78 70 79 49 80 50 81 58 82 51 83 52 84 56 85 59 86 53 87
REMARK SMILES IDX 54 88 57 89 55 90
REMARK H PARENT 8 16 8 17 8 18 79 43 47 54
REMARK Flexibility Score: inf
ROOT
ATOM      1  C   UNL A   1      40.740  21.910  27.643  1.00  0.00     0.188 C 
ENDROOT
BRANCH   1   2
ATOM      2  O   UNL A   1      39.706  22.802  27.293  1.00  0.00    -0.376 OA
BRANCH   2   3
ATOM      3  C   UNL A   1      39.124  22.731  26.002  1.00  0.00     0.202 C 
BRANCH   3   4
ATOM      4  C   UNL A   1      38.015  21.742  25.594  1.00  0.00     0.261 C 
BRANCH   4   5
ATOM      5  O   UNL A   1      36.690  21.975  26.098  1.00  0.00    -0.463 OA
BRANCH   5   6
ATOM      6  C   UNL A   1      35.667  21.405  25.402  1.00  0.00     0.318 C 
ATOM      7  O   UNL A   1      35.761  20.292  24.895  1.00  0.00    -0.251 OA
BRANCH   6   8
ATOM      8  C   UNL A   1      34.354  22.252  25.382  1.00  0.00     0.119 C 
ATOM      9  C   UNL A   1      33.758  24.796  25.737  1.00  0.00     0.009 C 
ATOM     10  C   UNL A   1      34.782  23.753  25.292  1.00  0.00     0.009 C 
ATOM     11  C   UNL A   1      35.099  23.961  23.803  1.00  0.00     0.005 C 
ATOM     12  C   UNL A   1      34.117  23.080  23.050  1.00  0.00     0.002 C 
ATOM     13  C   UNL A   1      33.618  22.023  24.036  1.00  0.00     0.025 C 
BRANCH   8  14
ATOM     14  C   UNL A   1      33.486  21.915  26.635  1.00  0.00     0.278 C 
BRANCH  14  15
ATOM     15  N   UNL A   1      33.408  20.506  27.034  1.00  0.00    -0.357 N 
ATOM     16  H   UNL A   1      34.259  20.248  27.537  1.00  0.00     0.344 HD
ATOM     17  H   UNL A   1      33.314  19.922  26.203  1.00  0.00     0.344 HD
ATOM     18  H   UNL A   1      32.600  20.368  27.640  1.00  0.00     0.344 HD
ENDBRANCH  14  15
ENDBRANCH   8  14
ENDBRANCH   6   8
ENDBRANCH   5   6
ENDBRANCH   4   5
ENDBRANCH   3   4
ENDBRANCH   2   3
ENDBRANCH   1   2
BRANCH   1  19
ATOM     19  C   UNL A   1      41.675  21.382  26.537  1.00  0.00     0.188 C 
BRANCH  19  20
ATOM     20  O   UNL A   1      41.499  20.070  26.066  1.00  0.00    -0.376 OA
BRANCH  20  21
ATOM     21  C   UNL A   1      42.478  19.083  26.336  1.00  0.00     0.202 C 
BRANCH  21  22
ATOM     22  C   UNL A   1      43.553  18.596  25.341  1.00  0.00     0.261 C 
BRANCH  22  23
ATOM     23  O   UNL A   1      43.909  19.454  24.251  1.00  0.00    -0.460 OA
BRANCH  23  24
ATOM     24  C   UNL A   1      45.176  19.935  24.269  1.00  0.00     0.338 C 
ATOM     25  O   UNL A   1      46.170  19.433  23.759  1.00  0.00    -0.246 OA
BRANCH  24  26
ATOM     26  C   UNL A   1      45.167  21.290  24.852  1.00  0.00     0.060 A 
ATOM     27  C   UNL A   1      44.953  22.395  24.014  1.00  0.00     0.016 A 
ATOM     28  C   UNL A   1      45.407  21.470  26.213  1.00  0.00     0.016 A 
ATOM     29  C   UNL A   1      44.994  23.689  24.537  1.00  0.00     0.010 A 
ATOM     30  C   UNL A   1      45.476  22.767  26.728  1.00  0.00     0.010 A 
ATOM     31  C   UNL A   1      45.296  23.883  25.890  1.00  0.00    -0.014 A 
BRANCH  31  32
ATOM     32  C   UNL A   1      45.615  25.240  26.400  1.00  0.00     0.031 A 
ATOM     33  C   UNL A   1      44.498  26.064  26.981  1.00  0.00     0.074 A 
ATOM     34  C   UNL A   1      46.863  25.739  26.348  1.00  0.00     0.049 A 
ATOM     35  N   UNL A   1      44.499  27.312  27.374  1.00  0.00    -0.248 NA
ATOM     36  C   UNL A   1      43.202  25.384  27.134  1.00  0.00     0.031 C 
ATOM     37  C   UNL A   1      48.043  25.023  25.871  1.00  0.00     0.029 A 
ATOM     38  N   UNL A   1      47.337  26.982  26.692  1.00  0.00    -0.354 N 
ATOM     39  C   UNL A   1      43.207  27.566  27.818  1.00  0.00     0.074 A 
ATOM     40  C   UNL A   1      42.442  26.356  27.613  1.00  0.00     0.031 C 
ATOM     41  C   UNL A   1      49.105  25.846  25.933  1.00  0.00     0.029 A 
ATOM     42  C   UNL A   1      48.671  27.158  26.412  1.00  0.00     0.049 A 
ATOM     43  H   UNL A   1      46.775  27.680  27.099  1.00  0.00     0.167 HD
ATOM     44  C   UNL A   1      42.707  28.703  28.355  1.00  0.00     0.037 A 
ATOM     45  C   UNL A   1      49.438  28.262  26.504  1.00  0.00     0.037 A 
ATOM     46  C   UNL A   1      43.465  29.911  28.546  1.00  0.00     0.049 A 
ATOM     47  C   UNL A   1      48.825  29.553  26.995  1.00  0.00     0.074 A 
ATOM     48  C   UNL A   1      43.044  31.123  29.067  1.00  0.00     0.029 A 
ATOM     49  N   UNL A   1      44.804  30.063  28.215  1.00  0.00    -0.354 N 
ATOM     50  N   UNL A   1      47.606  29.788  27.417  1.00  0.00    -0.248 NA
ATOM     51  C   UNL A   1      49.700  30.736  27.020  1.00  0.00     0.031 C 
ATOM     52  C   UNL A   1      44.113  32.022  29.003  1.00  0.00     0.029 A 
ATOM     53  C   UNL A   1      45.218  31.354  28.503  1.00  0.00     0.049 A 
ATOM     54  H   UNL A   1      45.374  29.357  27.834  1.00  0.00     0.167 HD
ATOM     55  C   UNL A   1      47.582  31.126  27.797  1.00  0.00     0.074 A 
ATOM     56  C   UNL A   1      48.911  31.649  27.565  1.00  0.00     0.031 C 
ATOM     57  C   UNL A   1      46.552  31.855  28.294  1.00  0.00     0.037 A 
BRANCH  44  58
ATOM     58  C   UNL A   1      41.261  28.702  28.758  1.00  0.00     0.064 A 
ATOM     59  C   UNL A   1      40.244  29.037  27.851  1.00  0.00     0.173 A 
ATOM     60  C   UNL A   1      40.883  28.325  30.057  1.00  0.00     0.173 A 
ATOM     61  F   UNL A   1      40.553  29.418  26.602  1.00  0.00    -0.203 F 
ATOM     62  C   UNL A   1      38.906  29.017  28.235  1.00  0.00     0.198 A 
ATOM     63  C   UNL A   1      39.542  28.274  30.427  1.00  0.00     0.198 A 
ATOM     64  F   UNL A   1      41.815  27.992  30.963  1.00  0.00    -0.203 F 
ATOM     65  F   UNL A   1      37.956  29.383  27.364  1.00  0.00    -0.200 F 
ATOM     66  C   UNL A   1      38.556  28.627  29.519  1.00  0.00     0.200 A 
ATOM     67  F   UNL A   1      39.205  27.884  31.664  1.00  0.00    -0.200 F 
ATOM     68  F   UNL A   1      37.266  28.597  29.883  1.00  0.00    -0.200 F 
ENDBRANCH  44  58
BRANCH  45  69
ATOM     69  C   UNL A   1      50.872  28.223  26.102  1.00  0.00     0.064 A 
ATOM     70  C   UNL A   1      51.243  28.275  24.751  1.00  0.00     0.173 A 
ATOM     71  C   UNL A   1      51.893  28.066  27.050  1.00  0.00     0.173 A 
ATOM     72  F   UNL A   1      50.301  28.392  23.802  1.00  0.00    -0.203 F 
ATOM     73  C   UNL A   1      52.574  28.137  24.362  1.00  0.00     0.198 A 
ATOM     74  C   UNL A   1      53.229  27.965  26.663  1.00  0.00     0.198 A 
ATOM     75  F   UNL A   1      51.596  28.003  28.357  1.00  0.00    -0.203 F 
ATOM     76  F   UNL A   1      52.890  28.117  23.059  1.00  0.00    -0.200 F 
ATOM     77  C   UNL A   1      53.566  27.986  25.318  1.00  0.00     0.200 A 
ATOM     78  F   UNL A   1      54.185  27.827  27.591  1.00  0.00    -0.200 F 
ATOM     79  F   UNL A   1      54.845  27.844  24.944  1.00  0.00    -0.200 F 
ENDBRANCH  45  69
BRANCH  57  80
ATOM     80  C   UNL A   1      46.831  33.279  28.687  1.00  0.00     0.064 A 
ATOM     81  C   UNL A   1      46.599  34.351  27.813  1.00  0.00     0.173 A 
ATOM     82  C   UNL A   1      47.290  33.577  29.980  1.00  0.00     0.173 A 
ATOM     83  F   UNL A   1      46.172  34.122  26.562  1.00  0.00    -0.203 F 
ATOM     84  C   UNL A   1      46.844  35.665  28.208  1.00  0.00     0.198 A 
ATOM     85  C   UNL A   1      47.499  34.892  30.384  1.00  0.00     0.198 A 
ATOM     86  F   UNL A   1      47.519  32.591  30.861  1.00  0.00    -0.203 F 
ATOM     87  F   UNL A   1      46.664  36.669  27.340  1.00  0.00    -0.200 F 
ATOM     88  C   UNL A   1      47.284  35.935  29.496  1.00  0.00     0.200 A 
ATOM     89  F   UNL A   1      47.908  35.152  31.633  1.00  0.00    -0.200 F 
ATOM     90  F   UNL A   1      47.508  37.200  29.878  1.00  0.00    -0.200 F 
ENDBRANCH  57  80
ENDBRANCH  31  32
ENDBRANCH  24  26
ENDBRANCH  23  24
ENDBRANCH  22  23
ENDBRANCH  21  22
ENDBRANCH  20  21
ENDBRANCH  19  20
ENDBRANCH   1  19
TORSDOF 19
ENDMDL
MODEL 3
REMARK VINA RESULT:      -9.5      0.695      2.215
REMARK SMILES C[C@@H]1CCC[C@@]1(C[NH3+])C(=O)OCCOCCOCCOC(=O)c1ccc(-c2c3nc(c(-c4c(F)c(F)c(F)c(F)c4F)c4ccc([nH]4)c(-c4c(F)c(F)c(F)c(F)c4F)c4nc(c(-c5c(F)c(F)c(F)c(F)c5F)c5ccc2[nH]5)C=C4)C=C3)cc1
REMARK SMILES IDX 15 1 14 2 13 3 12 4 11 5 9 6 10 7 6 8 1 9 2 10 3 11 4 12
REMARK SMILES IDX 5 13 7 14 8 15 16 19 17 20 18 21 19 22 20 23 21 24 22 25
REMARK SMILES IDX 23 26 24 27 85 28 25 29 84 30 26 31 27 32 28 33 78 34 29 35
REMARK SMILES IDX 83 36 77 37 79 38 30 39 82 40 76 41 75 42 31 44 63 45 43 46
REMARK SMILES IDX 62 47 44 48 47 49 61 50 80 51 45 52 46 53 60 55 81 56 48 57
REMARK SMILES IDX 32 58 33 59 41 60 34 61 35 62 39 63 42 64 36 65 37 66 40 67
REMARK SMILES IDX 38 68 64 69 65 70 73 71 66 72 67 73 71 74 74 75 68 76 69 77
REMARK SMILES IDX 72 78 70 79 49 80 50 81 58 82 51 83 52 84 56 85 59 86 53 87
REMARK SMILES IDX 54 88 57 89 55 90
REMARK H PARENT 8 16 8 17 8 18 79 43 47 54
REMARK Flexibility Score: inf
ROOT
ATOM      1  C   UNL A   1      29.831  28.094  23.297  1.00  0.00     0.188 C 
ENDROOT
BRANCH   1   2
ATOM      2  O   UNL A   1      29.222  26.968  23.884  1.00  0.00    -0.376 OA
BRANCH   2   3
ATOM      3  C   UNL A   1      29.899  25.722  23.883  1.00  0.00     0.202 C 
BRANCH   3   4
ATOM      4  C   UNL A   1      30.639  25.126  25.097  1.00  0.00     0.261 C 
BRANCH   4   5
ATOM      5  O   UNL A   1      31.227  23.823  24.951  1.00  0.00    -0.463 OA
BRANCH   5   6
ATOM      6  C   UNL A   1      31.609  23.198  26.099  1.00  0.00     0.318 C 
ATOM      7  O   UNL A   1      31.046  23.397  27.171  1.00  0.00    -0.251 OA
BRANCH   6   8
ATOM      8  C   UNL A   1      32.757  22.155  25.911  1.00  0.00     0.119 C 
ATOM      9  C   UNL A   1      34.882  21.966  24.361  1.00  0.00     0.009 C 
ATOM     10  C   UNL A   1      33.885  22.863  25.091  1.00  0.00     0.009 C 
ATOM     11  C   UNL A   1      34.635  23.702  26.138  1.00  0.00     0.005 C 
ATOM     12  C   UNL A   1      34.591  22.888  27.420  1.00  0.00     0.002 C 
ATOM     13  C   UNL A   1      33.439  21.893  27.279  1.00  0.00     0.025 C 
BRANCH   8  14
ATOM     14  C   UNL A   1      32.197  20.866  25.233  1.00  0.00     0.278 C 
BRANCH  14  15
ATOM     15  N   UNL A   1      32.584  19.581  25.824  1.00  0.00    -0.357 N 
ATOM     16  H   UNL A   1      32.059  18.829  25.374  1.00  0.00     0.344 HD
ATOM     17  H   UNL A   1      32.378  19.589  26.822  1.00  0.00     0.344 HD
ATOM     18  H   UNL A   1      33.583  19.428  25.684  1.00  0.00     0.344 HD
ENDBRANCH  14  15
ENDBRANCH   8  14
ENDBRANCH   6   8
ENDBRANCH   5   6
ENDBRANCH   4   5
ENDBRANCH   3   4
ENDBRANCH   2   3
ENDBRANCH   1   2
BRANCH   1  19
ATOM     19  C   UNL A   1      31.141  28.635  23.905  1.00  0.00     0.188 C 
BRANCH  19  20
ATOM     20  O   UNL A   1      31.317  28.584  25.298  1.00  0.00    -0.376 OA
BRANCH  20  21
ATOM     21  C   UNL A   1      32.510  29.077  25.880  1.00  0.00     0.202 C 
BRANCH  21  22
ATOM     22  C   UNL A   1      32.895  30.568  26.000  1.00  0.00     0.261 C 
BRANCH  22  23
ATOM     23  O   UNL A   1      32.696  31.221  27.259  1.00  0.00    -0.460 OA
BRANCH  23  24
ATOM     24  C   UNL A   1      33.508  32.276  27.510  1.00  0.00     0.338 C 
ATOM     25  O   UNL A   1      33.217  33.465  27.476  1.00  0.00    -0.246 OA
BRANCH  24  26
ATOM     26  C   UNL A   1      34.796  31.778  28.028  1.00  0.00     0.060 A 
ATOM     27  C   UNL A   1      34.875  30.467  28.522  1.00  0.00     0.016 A 
ATOM     28  C   UNL A   1      35.911  32.614  28.060  1.00  0.00     0.016 A 
ATOM     29  C   UNL A   1      36.071  29.994  29.066  1.00  0.00     0.010 A 
ATOM     30  C   UNL A   1      37.099  32.148  28.630  1.00  0.00     0.010 A 
ATOM     31  C   UNL A   1      37.177  30.846  29.160  1.00  0.00    -0.014 A 
BRANCH  31  32
ATOM     32  C   UNL A   1      38.356  30.459  29.975  1.00  0.00     0.031 A 
ATOM     33  C   UNL A   1      39.339  29.482  29.387  1.00  0.00     0.074 A 
ATOM     34  C   UNL A   1      38.554  30.952  31.209  1.00  0.00     0.049 A 
ATOM     35  N   UNL A   1      40.371  28.900  29.943  1.00  0.00    -0.248 NA
ATOM     36  C   UNL A   1      39.123  29.112  27.979  1.00  0.00     0.031 C 
ATOM     37  C   UNL A   1      37.715  31.950  31.868  1.00  0.00     0.029 A 
ATOM     38  N   UNL A   1      39.525  30.662  32.137  1.00  0.00    -0.354 N 
ATOM     39  C   UNL A   1      40.924  28.095  28.955  1.00  0.00     0.074 A 
ATOM     40  C   UNL A   1      40.095  28.235  27.778  1.00  0.00     0.031 C 
ATOM     41  C   UNL A   1      38.196  32.176  33.104  1.00  0.00     0.029 A 
ATOM     42  C   UNL A   1      39.350  31.307  33.337  1.00  0.00     0.049 A 
ATOM     43  H   UNL A   1      40.276  30.049  31.959  1.00  0.00     0.167 HD
ATOM     44  C   UNL A   1      42.028  27.314  29.022  1.00  0.00     0.037 A 
ATOM     45  C   UNL A   1      40.026  31.181  34.497  1.00  0.00     0.037 A 
ATOM     46  C   UNL A   1      42.844  27.163  30.197  1.00  0.00     0.049 A 
ATOM     47  C   UNL A   1      41.182  30.212  34.580  1.00  0.00     0.074 A 
ATOM     48  C   UNL A   1      43.974  26.383  30.370  1.00  0.00     0.029 A 
ATOM     49  N   UNL A   1      42.612  27.804  31.406  1.00  0.00    -0.354 N 
ATOM     50  N   UNL A   1      41.705  29.457  33.644  1.00  0.00    -0.248 NA
ATOM     51  C   UNL A   1      41.844  30.079  35.887  1.00  0.00     0.031 C 
ATOM     52  C   UNL A   1      44.395  26.511  31.698  1.00  0.00     0.029 A 
ATOM     53  C   UNL A   1      43.567  27.420  32.334  1.00  0.00     0.049 A 
ATOM     54  H   UNL A   1      41.879  28.437  31.577  1.00  0.00     0.167 HD
ATOM     55  C   UNL A   1      42.776  28.797  34.236  1.00  0.00     0.074 A 
ATOM     56  C   UNL A   1      42.837  29.249  35.609  1.00  0.00     0.031 C 
ATOM     57  C   UNL A   1      43.634  27.899  33.691  1.00  0.00     0.037 A 
BRANCH  44  58
ATOM     58  C   UNL A   1      42.408  26.544  27.790  1.00  0.00     0.064 A 
ATOM     59  C   UNL A   1      43.342  27.043  26.870  1.00  0.00     0.173 A 
ATOM     60  C   UNL A   1      41.861  25.274  27.547  1.00  0.00     0.173 A 
ATOM     61  F   UNL A   1      43.884  28.258  27.049  1.00  0.00    -0.203 F 
ATOM     62  C   UNL A   1      43.695  26.311  25.740  1.00  0.00     0.198 A 
ATOM     63  C   UNL A   1      42.242  24.531  26.434  1.00  0.00     0.198 A 
ATOM     64  F   UNL A   1      40.967  24.748  28.398  1.00  0.00    -0.203 F 
ATOM     65  F   UNL A   1      44.555  26.827  24.851  1.00  0.00    -0.200 F 
ATOM     66  C   UNL A   1      43.153  25.052  25.528  1.00  0.00     0.200 A 
ATOM     67  F   UNL A   1      41.727  23.309  26.238  1.00  0.00    -0.200 F 
ATOM     68  F   UNL A   1      43.504  24.343  24.446  1.00  0.00    -0.200 F 
ENDBRANCH  44  58
BRANCH  45  69
ATOM     69  C   UNL A   1      39.625  31.968  35.696  1.00  0.00     0.064 A 
ATOM     70  C   UNL A   1      38.619  31.505  36.557  1.00  0.00     0.173 A 
ATOM     71  C   UNL A   1      40.186  33.223  35.969  1.00  0.00     0.173 A 
ATOM     72  F   UNL A   1      38.026  30.325  36.322  1.00  0.00    -0.203 F 
ATOM     73  C   UNL A   1      38.168  32.282  37.623  1.00  0.00     0.198 A 
ATOM     74  C   UNL A   1      39.759  33.984  37.057  1.00  0.00     0.198 A 
ATOM     75  F   UNL A   1      41.147  33.719  35.174  1.00  0.00    -0.203 F 
ATOM     76  F   UNL A   1      37.155  31.846  38.385  1.00  0.00    -0.200 F 
ATOM     77  C   UNL A   1      38.741  33.519  37.874  1.00  0.00     0.200 A 
ATOM     78  F   UNL A   1      40.322  35.176  37.300  1.00  0.00    -0.200 F 
ATOM     79  F   UNL A   1      38.300  34.270  38.893  1.00  0.00    -0.200 F 
ENDBRANCH  45  69
BRANCH  57  80
ATOM     80  C   UNL A   1      44.755  27.391  34.554  1.00  0.00     0.064 A 
ATOM     81  C   UNL A   1      44.644  26.210  35.300  1.00  0.00     0.173 A 
ATOM     82  C   UNL A   1      45.981  28.077  34.594  1.00  0.00     0.173 A 
ATOM     83  F   UNL A   1      43.492  25.522  35.308  1.00  0.00    -0.203 F 
ATOM     84  C   UNL A   1      45.706  25.748  36.076  1.00  0.00     0.198 A 
ATOM     85  C   UNL A   1      47.051  27.594  35.340  1.00  0.00     0.198 A 
ATOM     86  F   UNL A   1      46.147  29.208  33.892  1.00  0.00    -0.203 F 
ATOM     87  F   UNL A   1      45.559  24.644  36.820  1.00  0.00    -0.200 F 
ATOM     88  C   UNL A   1      46.911  26.435  36.087  1.00  0.00     0.200 A 
ATOM     89  F   UNL A   1      48.220  28.250  35.336  1.00  0.00    -0.200 F 
ATOM     90  F   UNL A   1      47.935  25.983  36.824  1.00  0.00    -0.200 F 
ENDBRANCH  57  80
ENDBRANCH  31  32
ENDBRANCH  24  26
ENDBRANCH  23  24
ENDBRANCH  22  23
ENDBRANCH  21  22
ENDBRANCH  20  21
ENDBRANCH  19  20
ENDBRANCH   1  19
TORSDOF 19
ENDMDL
