MODEL 1
REMARK VINA RESULT:     -11.6      0.000      0.000
REMARK SMILES Cc1cccc(C(=O)OCCOCCOCCOC(=O)c2ccc(-c3c4nc(c(-c5c(F)c(F)c(F)c(F)c5F)c5ccc([nH]5)c(-c5c(F)c(F)c(F)c(F)c5F)c5nc(c(-c6c(F)c(F)c(F)c(F)c6F)c6ccc3[nH]6)C=C5)C=C4)cc2)c1OC[C@@H]1C[C@H]2CC[C@@H]1C2
REMARK SMILES IDX 13 1 12 2 11 3 10 4 9 5 7 6 8 7 6 8 1 9 2 10 3 11 84 12 4 13
REMARK SMILES IDX 5 14 85 15 86 16 87 17 88 18 92 19 89 20 91 21 93 22 90 23
REMARK SMILES IDX 14 24 15 25 16 26 17 27 18 28 19 29 20 30 21 31 22 32 83 33
REMARK SMILES IDX 23 34 82 35 24 36 25 37 26 38 76 39 27 40 81 41 75 42 77 43
REMARK SMILES IDX 28 44 80 45 74 46 73 47 29 49 61 50 41 51 60 52 42 53 45 54
REMARK SMILES IDX 59 55 78 56 43 57 44 58 58 60 79 61 46 62 30 63 31 64 39 65
REMARK SMILES IDX 32 66 33 67 37 68 40 69 34 70 35 71 38 72 36 73 62 74 63 75
REMARK SMILES IDX 71 76 64 77 65 78 69 79 72 80 66 81 67 82 70 83 68 84 47 85
REMARK SMILES IDX 48 86 56 87 49 88 50 89 54 90 57 91 51 92 52 93 55 94 53 95
REMARK H PARENT 77 48 45 59
REMARK Flexibility Score: inf
ROOT
ATOM      1  C   UNL A   1      36.566  22.327  24.934  1.00  0.00     0.188 C 
ENDROOT
BRANCH   1   2
ATOM      2  O   UNL A   1      35.295  22.615  25.501  1.00  0.00    -0.376 OA
BRANCH   2   3
ATOM      3  C   UNL A   1      35.038  22.913  26.866  1.00  0.00     0.202 C 
BRANCH   3   4
ATOM      4  C   UNL A   1      33.683  22.314  27.617  1.00  0.00     0.261 C 
BRANCH   4   5
ATOM      5  O   UNL A   1      32.178  22.978  27.516  1.00  0.00    -0.460 OA
BRANCH   5   6
ATOM      6  C   UNL A   1      31.047  23.517  26.884  1.00  0.00     0.342 C 
ATOM      7  O   UNL A   1      29.993  23.496  27.525  1.00  0.00    -0.246 OA
BRANCH   6   8
ATOM      8  C   UNL A   1      30.797  24.147  25.515  1.00  0.00     0.102 A 
ATOM      9  C   UNL A   1      30.686  27.663  23.955  1.00  0.00     0.048 C 
ATOM     10  C   UNL A   1      30.679  26.164  24.108  1.00  0.00    -0.008 A 
ATOM     11  C   UNL A   1      30.620  25.383  22.948  1.00  0.00     0.007 A 
ATOM     12  C   UNL A   1      30.814  25.540  25.374  1.00  0.00     0.136 A 
ATOM     13  C   UNL A   1      30.720  24.001  23.045  1.00  0.00     0.001 A 
ATOM     14  C   UNL A   1      30.845  23.395  24.309  1.00  0.00     0.019 A 
BRANCH  12  15
ATOM     15  O   UNL A   1      31.068  26.377  26.424  1.00  0.00    -0.492 OA
BRANCH  15  16
ATOM     16  C   UNL A   1      32.461  26.630  26.676  1.00  0.00     0.233 C 
BRANCH  16  17
ATOM     17  C   UNL A   1      32.878  28.003  27.265  1.00  0.00     0.030 C 
ATOM     18  C   UNL A   1      31.672  28.963  27.248  1.00  0.00     0.011 C 
ATOM     19  C   UNL A   1      33.951  28.790  26.496  1.00  0.00    -0.004 C 
ATOM     20  C   UNL A   1      32.195  30.155  26.440  1.00  0.00    -0.010 C 
ATOM     21  C   UNL A   1      34.395  29.982  27.379  1.00  0.00     0.004 C 
ATOM     22  C   UNL A   1      33.122  29.485  25.426  1.00  0.00     0.007 C 
ATOM     23  C   UNL A   1      33.186  30.927  27.323  1.00  0.00     0.004 C 
ENDBRANCH  16  17
ENDBRANCH  15  16
ENDBRANCH  12  15
ENDBRANCH   6   8
ENDBRANCH   5   6
ENDBRANCH   4   5
ENDBRANCH   3   4
ENDBRANCH   2   3
ENDBRANCH   1   2
BRANCH   1  24
ATOM     24  C   UNL A   1      37.806  22.659  25.738  1.00  0.00     0.188 C 
BRANCH  24  25
ATOM     25  O   UNL A   1      38.825  21.738  25.400  1.00  0.00    -0.376 OA
BRANCH  25  26
ATOM     26  C   UNL A   1      39.639  21.328  26.481  1.00  0.00     0.202 C 
BRANCH  26  27
ATOM     27  C   UNL A   1      41.129  21.516  26.170  1.00  0.00     0.261 C 
BRANCH  27  28
ATOM     28  O   UNL A   1      41.406  22.917  25.947  1.00  0.00    -0.460 OA
BRANCH  28  29
ATOM     29  C   UNL A   1      41.723  23.666  27.063  1.00  0.00     0.338 C 
ATOM     30  O   UNL A   1      42.424  23.315  27.962  1.00  0.00    -0.246 OA
BRANCH  29  31
ATOM     31  C   UNL A   1      40.808  24.862  27.111  1.00  0.00     0.060 A 
ATOM     32  C   UNL A   1      41.135  26.125  26.626  1.00  0.00     0.016 A 
ATOM     33  C   UNL A   1      39.735  24.819  27.934  1.00  0.00     0.016 A 
ATOM     34  C   UNL A   1      40.577  27.328  27.218  1.00  0.00     0.010 A 
ATOM     35  C   UNL A   1      39.320  26.018  28.540  1.00  0.00     0.010 A 
ATOM     36  C   UNL A   1      39.758  27.348  28.362  1.00  0.00    -0.014 A 
BRANCH  36  37
ATOM     37  C   UNL A   1      39.592  28.692  29.348  1.00  0.00     0.031 A 
ATOM     38  C   UNL A   1      38.518  29.877  29.546  1.00  0.00     0.074 A 
ATOM     39  C   UNL A   1      40.520  28.874  30.323  1.00  0.00     0.049 A 
ATOM     40  N   UNL A   1      38.726  31.159  29.282  1.00  0.00    -0.248 NA
ATOM     41  C   UNL A   1      37.189  29.753  30.216  1.00  0.00     0.031 C 
ATOM     42  C   UNL A   1      40.498  29.843  31.427  1.00  0.00     0.029 A 
ATOM     43  N   UNL A   1      41.751  28.231  30.483  1.00  0.00    -0.354 N 
ATOM     44  C   UNL A   1      37.547  31.870  29.604  1.00  0.00     0.074 A 
ATOM     45  C   UNL A   1      36.569  30.904  29.978  1.00  0.00     0.031 C 
ATOM     46  C   UNL A   1      41.736  29.946  31.933  1.00  0.00     0.029 A 
ATOM     47  C   UNL A   1      42.610  29.152  31.094  1.00  0.00     0.049 A 
ATOM     48  H   UNL A   1      41.971  27.309  30.218  1.00  0.00     0.167 HD
ATOM     49  C   UNL A   1      37.402  33.178  29.982  1.00  0.00     0.037 A 
ATOM     50  C   UNL A   1      43.722  29.594  30.444  1.00  0.00     0.037 A 
ATOM     51  C   UNL A   1      38.625  33.623  30.584  1.00  0.00     0.049 A 
ATOM     52  C   UNL A   1      43.747  31.089  30.261  1.00  0.00     0.074 A 
ATOM     53  C   UNL A   1      39.037  33.561  31.904  1.00  0.00     0.029 A 
ATOM     54  N   UNL A   1      39.738  33.844  29.807  1.00  0.00    -0.354 N 
ATOM     55  N   UNL A   1      42.695  31.856  30.349  1.00  0.00    -0.248 NA
ATOM     56  C   UNL A   1      44.961  31.836  29.948  1.00  0.00     0.031 C 
ATOM     57  C   UNL A   1      40.444  33.658  31.912  1.00  0.00     0.029 A 
ATOM     58  C   UNL A   1      40.858  33.868  30.609  1.00  0.00     0.049 A 
ATOM     59  H   UNL A   1      39.734  33.967  28.830  1.00  0.00     0.167 HD
ATOM     60  C   UNL A   1      43.057  33.150  30.079  1.00  0.00     0.074 A 
ATOM     61  C   UNL A   1      44.487  33.089  29.861  1.00  0.00     0.031 C 
ATOM     62  C   UNL A   1      42.149  34.165  30.035  1.00  0.00     0.037 A 
BRANCH  49  63
ATOM     63  C   UNL A   1      36.027  33.800  30.260  1.00  0.00     0.064 A 
ATOM     64  C   UNL A   1      35.150  34.257  29.256  1.00  0.00     0.173 A 
ATOM     65  C   UNL A   1      35.544  33.967  31.579  1.00  0.00     0.173 A 
ATOM     66  F   UNL A   1      35.417  34.063  27.958  1.00  0.00    -0.203 F 
ATOM     67  C   UNL A   1      33.965  34.951  29.555  1.00  0.00     0.198 A 
ATOM     68  C   UNL A   1      34.378  34.684  31.880  1.00  0.00     0.198 A 
ATOM     69  F   UNL A   1      36.229  33.474  32.616  1.00  0.00    -0.203 F 
ATOM     70  F   UNL A   1      33.184  35.401  28.561  1.00  0.00    -0.200 F 
ATOM     71  C   UNL A   1      33.601  35.199  30.865  1.00  0.00     0.200 A 
ATOM     72  F   UNL A   1      34.037  34.903  33.158  1.00  0.00    -0.200 F 
ATOM     73  F   UNL A   1      32.508  35.924  31.147  1.00  0.00    -0.200 F 
ENDBRANCH  49  63
BRANCH  50  74
ATOM     74  C   UNL A   1      44.322  28.583  29.524  1.00  0.00     0.064 A 
ATOM     75  C   UNL A   1      44.805  27.384  30.089  1.00  0.00     0.173 A 
ATOM     76  C   UNL A   1      44.108  28.596  28.137  1.00  0.00     0.173 A 
ATOM     77  F   UNL A   1      45.013  27.305  31.414  1.00  0.00    -0.203 F 
ATOM     78  C   UNL A   1      44.955  26.223  29.333  1.00  0.00     0.198 A 
ATOM     79  C   UNL A   1      44.283  27.433  27.375  1.00  0.00     0.198 A 
ATOM     80  F   UNL A   1      43.611  29.685  27.538  1.00  0.00    -0.203 F 
ATOM     81  F   UNL A   1      45.275  25.069  29.935  1.00  0.00    -0.200 F 
ATOM     82  C   UNL A   1      44.675  26.244  27.978  1.00  0.00     0.200 A 
ATOM     83  F   UNL A   1      43.955  27.431  26.074  1.00  0.00    -0.200 F 
ATOM     84  F   UNL A   1      44.705  25.105  27.272  1.00  0.00    -0.200 F 
ENDBRANCH  50  74
BRANCH  62  85
ATOM     85  C   UNL A   1      42.374  35.557  29.507  1.00  0.00     0.064 A 
ATOM     86  C   UNL A   1      43.129  36.525  30.183  1.00  0.00     0.173 A 
ATOM     87  C   UNL A   1      41.978  35.898  28.188  1.00  0.00     0.173 A 
ATOM     88  F   UNL A   1      43.656  36.278  31.390  1.00  0.00    -0.203 F 
ATOM     89  C   UNL A   1      43.422  37.763  29.607  1.00  0.00     0.198 A 
ATOM     90  C   UNL A   1      42.328  37.106  27.592  1.00  0.00     0.198 A 
ATOM     91  F   UNL A   1      41.265  35.054  27.426  1.00  0.00    -0.203 F 
ATOM     92  F   UNL A   1      44.110  38.671  30.311  1.00  0.00    -0.200 F 
ATOM     93  C   UNL A   1      43.037  38.046  28.309  1.00  0.00     0.200 A 
ATOM     94  F   UNL A   1      41.995  37.343  26.315  1.00  0.00    -0.200 F 
ATOM     95  F   UNL A   1      43.366  39.215  27.746  1.00  0.00    -0.200 F 
ENDBRANCH  62  85
ENDBRANCH  36  37
ENDBRANCH  29  31
ENDBRANCH  28  29
ENDBRANCH  27  28
ENDBRANCH  26  27
ENDBRANCH  25  26
ENDBRANCH  24  25
ENDBRANCH   1  24
TORSDOF 20
ENDMDL
MODEL 2
REMARK VINA RESULT:     -11.3      3.961     10.293
REMARK SMILES Cc1cccc(C(=O)OCCOCCOCCOC(=O)c2ccc(-c3c4nc(c(-c5c(F)c(F)c(F)c(F)c5F)c5ccc([nH]5)c(-c5c(F)c(F)c(F)c(F)c5F)c5nc(c(-c6c(F)c(F)c(F)c(F)c6F)c6ccc3[nH]6)C=C5)C=C4)cc2)c1OC[C@@H]1C[C@H]2CC[C@@H]1C2
REMARK SMILES IDX 13 1 12 2 11 3 10 4 9 5 7 6 8 7 6 8 1 9 2 10 3 11 84 12 4 13
REMARK SMILES IDX 5 14 85 15 86 16 87 17 88 18 92 19 89 20 91 21 93 22 90 23
REMARK SMILES IDX 14 24 15 25 16 26 17 27 18 28 19 29 20 30 21 31 22 32 83 33
REMARK SMILES IDX 23 34 82 35 24 36 25 37 26 38 76 39 27 40 81 41 75 42 77 43
REMARK SMILES IDX 28 44 80 45 74 46 73 47 29 49 61 50 41 51 60 52 42 53 45 54
REMARK SMILES IDX 59 55 78 56 43 57 44 58 58 60 79 61 46 62 30 63 31 64 39 65
REMARK SMILES IDX 32 66 33 67 37 68 40 69 34 70 35 71 38 72 36 73 62 74 63 75
REMARK SMILES IDX 71 76 64 77 65 78 69 79 72 80 66 81 67 82 70 83 68 84 47 85
REMARK SMILES IDX 48 86 56 87 49 88 50 89 54 90 57 91 51 92 52 93 55 94 53 95
REMARK H PARENT 77 48 45 59
REMARK Flexibility Score: inf
ROOT
ATOM      1  C   UNL A   1      33.273  33.380  28.037  1.00  0.00     0.188 C 
ENDROOT
BRANCH   1   2
ATOM      2  O   UNL A   1      34.155  32.271  28.137  1.00  0.00    -0.376 OA
BRANCH   2   3
ATOM      3  C   UNL A   1      33.963  30.995  27.542  1.00  0.00     0.202 C 
BRANCH   3   4
ATOM      4  C   UNL A   1      32.446  30.508  27.071  1.00  0.00     0.261 C 
BRANCH   4   5
ATOM      5  O   UNL A   1      31.900  28.954  27.112  1.00  0.00    -0.460 OA
BRANCH   5   6
ATOM      6  C   UNL A   1      31.657  27.659  26.627  1.00  0.00     0.342 C 
ATOM      7  O   UNL A   1      30.841  26.979  27.252  1.00  0.00    -0.246 OA
BRANCH   6   8
ATOM      8  C   UNL A   1      32.201  26.849  25.452  1.00  0.00     0.102 A 
ATOM      9  C   UNL A   1      31.430  26.346  21.716  1.00  0.00     0.048 C 
ATOM     10  C   UNL A   1      32.103  26.269  23.061  1.00  0.00    -0.008 A 
ATOM     11  C   UNL A   1      33.324  25.590  23.150  1.00  0.00     0.007 A 
ATOM     12  C   UNL A   1      31.579  26.931  24.200  1.00  0.00     0.136 A 
ATOM     13  C   UNL A   1      34.026  25.590  24.348  1.00  0.00     0.001 A 
ATOM     14  C   UNL A   1      33.489  26.244  25.473  1.00  0.00     0.019 A 
BRANCH  12  15
ATOM     15  O   UNL A   1      30.496  27.733  23.974  1.00  0.00    -0.492 OA
BRANCH  15  16
ATOM     16  C   UNL A   1      30.769  29.144  24.006  1.00  0.00     0.233 C 
BRANCH  16  17
ATOM     17  C   UNL A   1      29.978  30.081  23.056  1.00  0.00     0.030 C 
ATOM     18  C   UNL A   1      29.284  31.186  23.875  1.00  0.00     0.011 C 
ATOM     19  C   UNL A   1      28.813  29.453  22.274  1.00  0.00    -0.004 C 
ATOM     20  C   UNL A   1      27.810  31.024  23.490  1.00  0.00    -0.010 C 
ATOM     21  C   UNL A   1      28.339  30.479  21.215  1.00  0.00     0.004 C 
ATOM     22  C   UNL A   1      27.686  29.513  23.293  1.00  0.00     0.007 C 
ATOM     23  C   UNL A   1      27.634  31.551  22.058  1.00  0.00     0.004 C 
ENDBRANCH  16  17
ENDBRANCH  15  16
ENDBRANCH  12  15
ENDBRANCH   6   8
ENDBRANCH   5   6
ENDBRANCH   4   5
ENDBRANCH   3   4
ENDBRANCH   2   3
ENDBRANCH   1   2
BRANCH   1  24
ATOM     24  C   UNL A   1      33.795  34.753  28.408  1.00  0.00     0.188 C 
BRANCH  24  25
ATOM     25  O   UNL A   1      34.977  34.598  29.170  1.00  0.00    -0.376 OA
BRANCH  25  26
ATOM     26  C   UNL A   1      34.768  34.323  30.541  1.00  0.00     0.202 C 
BRANCH  26  27
ATOM     27  C   UNL A   1      36.052  33.829  31.220  1.00  0.00     0.261 C 
BRANCH  27  28
ATOM     28  O   UNL A   1      36.526  32.636  30.554  1.00  0.00    -0.460 OA
BRANCH  28  29
ATOM     29  C   UNL A   1      36.091  31.431  31.068  1.00  0.00     0.338 C 
ATOM     30  O   UNL A   1      35.530  31.280  32.110  1.00  0.00    -0.246 OA
BRANCH  29  31
ATOM     31  C   UNL A   1      36.702  30.318  30.258  1.00  0.00     0.060 A 
ATOM     32  C   UNL A   1      37.053  29.072  30.770  1.00  0.00     0.016 A 
ATOM     33  C   UNL A   1      37.233  30.616  29.050  1.00  0.00     0.016 A 
ATOM     34  C   UNL A   1      38.154  28.309  30.208  1.00  0.00     0.010 A 
ATOM     35  C   UNL A   1      38.358  29.889  28.625  1.00  0.00     0.010 A 
ATOM     36  C   UNL A   1      39.011  28.773  29.193  1.00  0.00    -0.014 A 
BRANCH  36  37
ATOM     37  C   UNL A   1      40.556  28.174  28.953  1.00  0.00     0.031 A 
ATOM     38  C   UNL A   1      41.219  26.885  28.248  1.00  0.00     0.074 A 
ATOM     39  C   UNL A   1      41.598  28.947  29.355  1.00  0.00     0.049 A 
ATOM     40  N   UNL A   1      41.863  25.910  28.873  1.00  0.00    -0.248 NA
ATOM     41  C   UNL A   1      41.369  26.669  26.778  1.00  0.00     0.031 C 
ATOM     42  C   UNL A   1      43.030  28.750  29.088  1.00  0.00     0.029 A 
ATOM     43  N   UNL A   1      41.576  30.081  30.171  1.00  0.00    -0.354 N 
ATOM     44  C   UNL A   1      42.302  24.981  27.901  1.00  0.00     0.074 A 
ATOM     45  C   UNL A   1      41.777  25.412  26.649  1.00  0.00     0.031 C 
ATOM     46  C   UNL A   1      43.734  29.503  29.946  1.00  0.00     0.029 A 
ATOM     47  C   UNL A   1      42.789  30.100  30.868  1.00  0.00     0.049 A 
ATOM     48  H   UNL A   1      40.848  30.740  30.243  1.00  0.00     0.167 HD
ATOM     49  C   UNL A   1      43.372  24.127  27.943  1.00  0.00     0.037 A 
ATOM     50  C   UNL A   1      42.808  29.989  32.225  1.00  0.00     0.037 A 
ATOM     51  C   UNL A   1      44.359  24.666  28.833  1.00  0.00     0.049 A 
ATOM     52  C   UNL A   1      43.607  28.807  32.712  1.00  0.00     0.074 A 
ATOM     53  C   UNL A   1      45.401  25.541  28.576  1.00  0.00     0.029 A 
ATOM     54  N   UNL A   1      44.143  24.657  30.191  1.00  0.00    -0.354 N 
ATOM     55  N   UNL A   1      43.932  27.785  31.969  1.00  0.00    -0.248 NA
ATOM     56  C   UNL A   1      44.090  28.680  34.083  1.00  0.00     0.031 C 
ATOM     57  C   UNL A   1      45.762  26.139  29.802  1.00  0.00     0.029 A 
ATOM     58  C   UNL A   1      44.997  25.554  30.795  1.00  0.00     0.049 A 
ATOM     59  H   UNL A   1      43.483  24.096  30.658  1.00  0.00     0.167 HD
ATOM     60  C   UNL A   1      44.610  26.871  32.732  1.00  0.00     0.074 A 
ATOM     61  C   UNL A   1      44.707  27.488  34.037  1.00  0.00     0.031 C 
ATOM     62  C   UNL A   1      45.020  25.670  32.234  1.00  0.00     0.037 A 
BRANCH  49  63
ATOM     63  C   UNL A   1      43.681  23.151  26.801  1.00  0.00     0.064 A 
ATOM     64  C   UNL A   1      43.192  21.830  26.737  1.00  0.00     0.173 A 
ATOM     65  C   UNL A   1      44.508  23.521  25.715  1.00  0.00     0.173 A 
ATOM     66  F   UNL A   1      42.307  21.373  27.632  1.00  0.00    -0.203 F 
ATOM     67  C   UNL A   1      43.614  20.922  25.751  1.00  0.00     0.198 A 
ATOM     68  C   UNL A   1      44.953  22.610  24.748  1.00  0.00     0.198 A 
ATOM     69  F   UNL A   1      44.945  24.779  25.598  1.00  0.00    -0.203 F 
ATOM     70  F   UNL A   1      43.149  19.663  25.758  1.00  0.00    -0.200 F 
ATOM     71  C   UNL A   1      44.524  21.300  24.782  1.00  0.00     0.200 A 
ATOM     72  F   UNL A   1      45.826  23.001  23.808  1.00  0.00    -0.200 F 
ATOM     73  F   UNL A   1      44.980  20.412  23.887  1.00  0.00    -0.200 F 
ENDBRANCH  49  63
BRANCH  50  74
ATOM     74  C   UNL A   1      41.610  30.577  32.893  1.00  0.00     0.064 A 
ATOM     75  C   UNL A   1      41.529  31.984  32.977  1.00  0.00     0.173 A 
ATOM     76  C   UNL A   1      40.427  29.855  33.108  1.00  0.00     0.173 A 
ATOM     77  F   UNL A   1      42.625  32.732  32.763  1.00  0.00    -0.203 F 
ATOM     78  C   UNL A   1      40.311  32.641  33.148  1.00  0.00     0.198 A 
ATOM     79  C   UNL A   1      39.208  30.518  33.304  1.00  0.00     0.198 A 
ATOM     80  F   UNL A   1      40.419  28.520  33.003  1.00  0.00    -0.203 F 
ATOM     81  F   UNL A   1      40.257  33.978  33.074  1.00  0.00    -0.200 F 
ATOM     82  C   UNL A   1      39.148  31.906  33.293  1.00  0.00     0.200 A 
ATOM     83  F   UNL A   1      38.069  29.813  33.384  1.00  0.00    -0.200 F 
ATOM     84  F   UNL A   1      37.964  32.533  33.340  1.00  0.00    -0.200 F 
ENDBRANCH  50  74
BRANCH  62  85
ATOM     85  C   UNL A   1      45.536  24.495  33.021  1.00  0.00     0.064 A 
ATOM     86  C   UNL A   1      46.823  24.443  33.573  1.00  0.00     0.173 A 
ATOM     87  C   UNL A   1      44.661  23.446  33.403  1.00  0.00     0.173 A 
ATOM     88  F   UNL A   1      47.704  25.433  33.378  1.00  0.00    -0.203 F 
ATOM     89  C   UNL A   1      47.225  23.394  34.401  1.00  0.00     0.198 A 
ATOM     90  C   UNL A   1      45.045  22.436  34.282  1.00  0.00     0.198 A 
ATOM     91  F   UNL A   1      43.396  23.386  32.958  1.00  0.00    -0.203 F 
ATOM     92  F   UNL A   1      48.481  23.367  34.869  1.00  0.00    -0.200 F 
ATOM     93  C   UNL A   1      46.334  22.402  34.769  1.00  0.00     0.200 A 
ATOM     94  F   UNL A   1      44.153  21.515  34.672  1.00  0.00    -0.200 F 
ATOM     95  F   UNL A   1      46.713  21.428  35.605  1.00  0.00    -0.200 F 
ENDBRANCH  62  85
ENDBRANCH  36  37
ENDBRANCH  29  31
ENDBRANCH  28  29
ENDBRANCH  27  28
ENDBRANCH  26  27
ENDBRANCH  25  26
ENDBRANCH  24  25
ENDBRANCH   1  24
TORSDOF 20
ENDMDL
MODEL 3
REMARK VINA RESULT:     -11.2      3.756      9.831
REMARK SMILES Cc1cccc(C(=O)OCCOCCOCCOC(=O)c2ccc(-c3c4nc(c(-c5c(F)c(F)c(F)c(F)c5F)c5ccc([nH]5)c(-c5c(F)c(F)c(F)c(F)c5F)c5nc(c(-c6c(F)c(F)c(F)c(F)c6F)c6ccc3[nH]6)C=C5)C=C4)cc2)c1OC[C@@H]1C[C@H]2CC[C@@H]1C2
REMARK SMILES IDX 13 1 12 2 11 3 10 4 9 5 7 6 8 7 6 8 1 9 2 10 3 11 84 12 4 13
REMARK SMILES IDX 5 14 85 15 86 16 87 17 88 18 92 19 89 20 91 21 93 22 90 23
REMARK SMILES IDX 14 24 15 25 16 26 17 27 18 28 19 29 20 30 21 31 22 32 83 33
REMARK SMILES IDX 23 34 82 35 24 36 25 37 26 38 76 39 27 40 81 41 75 42 77 43
REMARK SMILES IDX 28 44 80 45 74 46 73 47 29 49 61 50 41 51 60 52 42 53 45 54
REMARK SMILES IDX 59 55 78 56 43 57 44 58 58 60 79 61 46 62 30 63 31 64 39 65
REMARK SMILES IDX 32 66 33 67 37 68 40 69 34 70 35 71 38 72 36 73 62 74 63 75
REMARK SMILES IDX 71 76 64 77 65 78 69 79 72 80 66 81 67 82 70 83 68 84 47 85
REMARK SMILES IDX 48 86 56 87 49 88 50 89 54 90 57 91 51 92 52 93 55 94 53 95
REMARK H PARENT 77 48 45 59
REMARK Flexibility Score: inf
ROOT
ATOM      1  C   UNL A   1      32.860  33.705  27.881  1.00  0.00     0.188 C 
ENDROOT
BRANCH   1   2
ATOM      2  O   UNL A   1      33.674  32.543  27.937  1.00  0.00    -0.376 OA
BRANCH   2   3
ATOM      3  C   UNL A   1      33.287  31.232  27.548  1.00  0.00     0.202 C 
BRANCH   3   4
ATOM      4  C   UNL A   1      34.403  30.180  26.911  1.00  0.00     0.261 C 
BRANCH   4   5
ATOM      5  O   UNL A   1      34.050  28.702  26.274  1.00  0.00    -0.460 OA
BRANCH   5   6
ATOM      6  C   UNL A   1      33.418  27.783  25.422  1.00  0.00     0.342 C 
ATOM      7  O   UNL A   1      33.904  27.647  24.297  1.00  0.00    -0.246 OA
BRANCH   6   8
ATOM      8  C   UNL A   1      32.201  26.871  25.563  1.00  0.00     0.102 A 
ATOM      9  C   UNL A   1      28.766  26.398  23.894  1.00  0.00     0.048 C 
ATOM     10  C   UNL A   1      29.971  26.186  24.771  1.00  0.00    -0.008 A 
ATOM     11  C   UNL A   1      30.011  25.039  25.573  1.00  0.00     0.007 A 
ATOM     12  C   UNL A   1      31.085  27.064  24.739  1.00  0.00     0.136 A 
ATOM     13  C   UNL A   1      31.152  24.757  26.313  1.00  0.00     0.001 A 
ATOM     14  C   UNL A   1      32.246  25.641  26.277  1.00  0.00     0.019 A 
BRANCH  12  15
ATOM     15  O   UNL A   1      31.044  28.039  23.783  1.00  0.00    -0.492 OA
BRANCH  15  16
ATOM     16  C   UNL A   1      30.600  29.325  24.246  1.00  0.00     0.233 C 
BRANCH  16  17
ATOM     17  C   UNL A   1      29.940  30.298  23.234  1.00  0.00     0.030 C 
ATOM     18  C   UNL A   1      29.154  31.383  23.995  1.00  0.00     0.011 C 
ATOM     19  C   UNL A   1      28.880  29.706  22.292  1.00  0.00    -0.004 C 
ATOM     20  C   UNL A   1      27.739  31.246  23.423  1.00  0.00    -0.010 C 
ATOM     21  C   UNL A   1      28.548  30.768  21.215  1.00  0.00     0.004 C 
ATOM     22  C   UNL A   1      27.633  29.744  23.163  1.00  0.00     0.007 C 
ATOM     23  C   UNL A   1      27.748  31.820  21.998  1.00  0.00     0.004 C 
ENDBRANCH  16  17
ENDBRANCH  15  16
ENDBRANCH  12  15
ENDBRANCH   6   8
ENDBRANCH   5   6
ENDBRANCH   4   5
ENDBRANCH   3   4
ENDBRANCH   2   3
ENDBRANCH   1   2
BRANCH   1  24
ATOM     24  C   UNL A   1      33.319  34.944  28.621  1.00  0.00     0.188 C 
BRANCH  24  25
ATOM     25  O   UNL A   1      32.636  35.012  29.858  1.00  0.00    -0.376 OA
BRANCH  25  26
ATOM     26  C   UNL A   1      32.940  36.149  30.643  1.00  0.00     0.202 C 
BRANCH  26  27
ATOM     27  C   UNL A   1      33.570  35.757  31.985  1.00  0.00     0.261 C 
BRANCH  27  28
ATOM     28  O   UNL A   1      34.697  34.882  31.756  1.00  0.00    -0.460 OA
BRANCH  28  29
ATOM     29  C   UNL A   1      34.675  33.666  32.411  1.00  0.00     0.338 C 
ATOM     30  O   UNL A   1      34.460  33.505  33.574  1.00  0.00    -0.246 OA
BRANCH  29  31
ATOM     31  C   UNL A   1      35.260  32.621  31.498  1.00  0.00     0.060 A 
ATOM     32  C   UNL A   1      35.615  31.335  31.897  1.00  0.00     0.016 A 
ATOM     33  C   UNL A   1      35.766  33.016  30.307  1.00  0.00     0.016 A 
ATOM     34  C   UNL A   1      36.697  30.616  31.249  1.00  0.00     0.010 A 
ATOM     35  C   UNL A   1      36.876  32.321  29.798  1.00  0.00     0.010 A 
ATOM     36  C   UNL A   1      37.534  31.158  30.257  1.00  0.00    -0.014 A 
BRANCH  36  37
ATOM     37  C   UNL A   1      39.070  30.574  29.933  1.00  0.00     0.031 A 
ATOM     38  C   UNL A   1      39.706  29.306  29.167  1.00  0.00     0.074 A 
ATOM     39  C   UNL A   1      40.126  31.343  30.306  1.00  0.00     0.049 A 
ATOM     40  N   UNL A   1      40.382  28.320  29.739  1.00  0.00    -0.248 NA
ATOM     41  C   UNL A   1      39.790  29.127  27.687  1.00  0.00     0.031 C 
ATOM     42  C   UNL A   1      41.544  31.160  29.970  1.00  0.00     0.029 A 
ATOM     43  N   UNL A   1      40.135  32.457  31.150  1.00  0.00    -0.354 N 
ATOM     44  C   UNL A   1      40.781  27.417  28.726  1.00  0.00     0.074 A 
ATOM     45  C   UNL A   1      40.198  27.875  27.510  1.00  0.00     0.031 C 
ATOM     46  C   UNL A   1      42.283  31.896  30.814  1.00  0.00     0.029 A 
ATOM     47  C   UNL A   1      41.379  32.465  31.791  1.00  0.00     0.049 A 
ATOM     48  H   UNL A   1      39.408  33.109  31.270  1.00  0.00     0.167 HD
ATOM     49  C   UNL A   1      41.855  26.568  28.699  1.00  0.00     0.037 A 
ATOM     50  C   UNL A   1      41.459  32.322  33.143  1.00  0.00     0.037 A 
ATOM     51  C   UNL A   1      42.878  27.091  29.556  1.00  0.00     0.049 A 
ATOM     52  C   UNL A   1      42.285  31.133  33.564  1.00  0.00     0.074 A 
ATOM     53  C   UNL A   1      43.904  27.977  29.274  1.00  0.00     0.029 A 
ATOM     54  N   UNL A   1      42.725  27.048  30.922  1.00  0.00    -0.354 N 
ATOM     55  N   UNL A   1      42.580  30.131  32.783  1.00  0.00    -0.248 NA
ATOM     56  C   UNL A   1      42.830  30.975  34.909  1.00  0.00     0.031 C 
ATOM     57  C   UNL A   1      44.317  28.547  30.497  1.00  0.00     0.029 A 
ATOM     58  C   UNL A   1      43.601  27.935  31.509  1.00  0.00     0.049 A 
ATOM     59  H   UNL A   1      42.089  26.472  31.405  1.00  0.00     0.167 HD
ATOM     60  C   UNL A   1      43.296  29.202  33.492  1.00  0.00     0.074 A 
ATOM     61  C   UNL A   1      43.449  29.788  34.807  1.00  0.00     0.031 C 
ATOM     62  C   UNL A   1      43.688  28.016  32.948  1.00  0.00     0.037 A 
BRANCH  49  63
ATOM     63  C   UNL A   1      42.116  25.621  27.520  1.00  0.00     0.064 A 
ATOM     64  C   UNL A   1      41.551  24.336  27.400  1.00  0.00     0.173 A 
ATOM     65  C   UNL A   1      42.974  25.985  26.455  1.00  0.00     0.173 A 
ATOM     66  F   UNL A   1      40.632  23.896  28.270  1.00  0.00    -0.203 F 
ATOM     67  C   UNL A   1      41.928  23.444  26.382  1.00  0.00     0.198 A 
ATOM     68  C   UNL A   1      43.373  25.088  25.456  1.00  0.00     0.198 A 
ATOM     69  F   UNL A   1      43.485  27.219  26.392  1.00  0.00    -0.203 F 
ATOM     70  F   UNL A   1      41.389  22.215  26.335  1.00  0.00    -0.200 F 
ATOM     71  C   UNL A   1      42.868  23.806  25.434  1.00  0.00     0.200 A 
ATOM     72  F   UNL A   1      44.277  25.464  24.539  1.00  0.00    -0.200 F 
ATOM     73  F   UNL A   1      43.279  22.928  24.507  1.00  0.00    -0.200 F 
ENDBRANCH  49  63
BRANCH  50  74
ATOM     74  C   UNL A   1      40.290  32.887  33.878  1.00  0.00     0.064 A 
ATOM     75  C   UNL A   1      39.300  31.987  34.330  1.00  0.00     0.173 A 
ATOM     76  C   UNL A   1      40.296  34.169  34.448  1.00  0.00     0.173 A 
ATOM     77  F   UNL A   1      39.254  30.739  33.835  1.00  0.00    -0.203 F 
ATOM     78  C   UNL A   1      38.438  32.308  35.377  1.00  0.00     0.198 A 
ATOM     79  C   UNL A   1      39.412  34.497  35.485  1.00  0.00     0.198 A 
ATOM     80  F   UNL A   1      41.232  35.061  34.099  1.00  0.00    -0.203 F 
ATOM     81  F   UNL A   1      37.613  31.376  35.874  1.00  0.00    -0.200 F 
ATOM     82  C   UNL A   1      38.507  33.558  35.967  1.00  0.00     0.200 A 
ATOM     83  F   UNL A   1      39.515  35.684  36.101  1.00  0.00    -0.200 F 
ATOM     84  F   UNL A   1      37.763  33.829  37.048  1.00  0.00    -0.200 F 
ENDBRANCH  50  74
BRANCH  62  85
ATOM     85  C   UNL A   1      44.245  26.825  33.681  1.00  0.00     0.064 A 
ATOM     86  C   UNL A   1      43.462  25.972  34.470  1.00  0.00     0.173 A 
ATOM     87  C   UNL A   1      45.578  26.398  33.451  1.00  0.00     0.173 A 
ATOM     88  F   UNL A   1      42.158  26.207  34.667  1.00  0.00    -0.203 F 
ATOM     89  C   UNL A   1      43.986  24.806  35.034  1.00  0.00     0.198 A 
ATOM     90  C   UNL A   1      46.078  25.202  33.960  1.00  0.00     0.198 A 
ATOM     91  F   UNL A   1      46.428  27.116  32.700  1.00  0.00    -0.203 F 
ATOM     92  F   UNL A   1      43.209  24.046  35.817  1.00  0.00    -0.200 F 
ATOM     93  C   UNL A   1      45.285  24.414  34.766  1.00  0.00     0.200 A 
ATOM     94  F   UNL A   1      47.320  24.810  33.646  1.00  0.00    -0.200 F 
ATOM     95  F   UNL A   1      45.763  23.269  35.268  1.00  0.00    -0.200 F 
ENDBRANCH  62  85
ENDBRANCH  36  37
ENDBRANCH  29  31
ENDBRANCH  28  29
ENDBRANCH  27  28
ENDBRANCH  26  27
ENDBRANCH  25  26
ENDBRANCH  24  25
ENDBRANCH   1  24
TORSDOF 20
ENDMDL
