MODEL 1
REMARK VINA RESULT:     -12.4      0.000      0.000
REMARK SMILES O=C(OCCOCCOCCOC(=O)c1ccc(-c2c3nc(c(-c4c(F)c(F)c(F)c(F)c4F)c4ccc([nH]4)c(-c4c(F)c(F)c(F)c(F)c4F)c4nc(c(-c5c(F)c(F)c(F)c(F)c5F)c5ccc2[nH]5)C=C4)C=C3)cc1)C1=Cc2cc(S(F)(F)(F)(F)F)ccc2O[C@@H]1C(F)(F)F
REMARK SMILES IDX 8 1 7 2 6 3 5 4 4 5 3 6 2 7 1 8 78 9 79 10 93 11 80 12 92 13
REMARK SMILES IDX 81 14 91 15 82 16 90 17 89 18 94 19 95 20 96 21 97 22 83 23
REMARK SMILES IDX 84 24 85 25 86 26 87 27 88 28 9 29 10 30 11 31 12 32 13 33
REMARK SMILES IDX 14 34 15 35 16 36 77 37 17 38 76 39 18 40 19 41 20 42 70 43
REMARK SMILES IDX 21 44 75 45 69 46 71 47 22 48 74 49 68 50 67 51 23 53 55 54
REMARK SMILES IDX 35 55 54 56 36 57 39 58 53 59 72 60 37 61 38 62 52 64 73 65
REMARK SMILES IDX 40 66 24 67 25 68 33 69 26 70 27 71 31 72 34 73 28 74 29 75
REMARK SMILES IDX 32 76 30 77 56 78 57 79 65 80 58 81 59 82 63 83 66 84 60 85
REMARK SMILES IDX 61 86 64 87 62 88 41 89 42 90 50 91 43 92 44 93 48 94 51 95
REMARK SMILES IDX 45 96 46 97 49 98 47 99
REMARK H PARENT 71 52 39 63
REMARK Flexibility Score: inf
ROOT
ATOM      1  C   UNL A   1      40.823  21.403  26.540  1.00  0.00     0.188 C 
ENDROOT
BRANCH   1   2
ATOM      2  C   UNL A   1      39.407  21.914  26.330  1.00  0.00     0.188 C 
BRANCH   2   3
ATOM      3  O   UNL A   1      39.360  23.305  26.611  1.00  0.00    -0.376 OA
BRANCH   3   4
ATOM      4  C   UNL A   1      38.037  23.783  26.420  1.00  0.00     0.202 C 
BRANCH   4   5
ATOM      5  C   UNL A   1      37.279  22.829  25.513  1.00  0.00     0.261 C 
BRANCH   5   6
ATOM      6  O   UNL A   1      36.603  23.568  24.506  1.00  0.00    -0.460 OA
BRANCH   6   7
ATOM      7  C   UNL A   1      35.540  22.970  23.779  1.00  0.00     0.338 C 
ATOM      8  O   UNL A   1      35.570  22.951  22.509  1.00  0.00    -0.246 OA
BRANCH   7   9
ATOM      9  C   UNL A   1      34.366  22.351  24.521  1.00  0.00     0.087 C 
ATOM     10  C   UNL A   1      33.427  23.150  25.095  1.00  0.00     0.027 C 
ATOM     11  C   UNL A   1      34.241  20.840  24.619  1.00  0.00     0.316 C 
ATOM     12  C   UNL A   1      33.552  24.662  24.996  1.00  0.00     0.019 A 
ATOM     13  O   UNL A   1      34.369  24.504  22.771  1.00  0.00    -0.475 OA
ATOM     14  C   UNL A   1      33.201  25.389  26.122  1.00  0.00     0.036 A 
ATOM     15  C   UNL A   1      33.861  25.267  23.855  1.00  0.00     0.128 A 
ATOM     16  C   UNL A   1      32.923  26.751  25.860  1.00  0.00     0.107 A 
ATOM     17  C   UNL A   1      33.693  26.623  23.713  1.00  0.00     0.048 A 
ATOM     18  C   UNL A   1      33.291  27.395  24.768  1.00  0.00     0.028 A 
BRANCH  11  19
ATOM     19  C   UNL A   1      32.937  20.396  23.976  1.00  0.00     0.430 C 
ATOM     20  F   UNL A   1      33.072  19.158  23.510  1.00  0.00    -0.167 F 
ATOM     21  F   UNL A   1      31.964  20.426  24.881  1.00  0.00    -0.167 F 
ATOM     22  F   UNL A   1      32.637  21.217  22.973  1.00  0.00    -0.167 F 
ENDBRANCH  11  19
BRANCH  16  23
ATOM     23  S   UNL A   1      31.998  27.676  27.112  1.00  0.00     0.310 S 
ATOM     24  F   UNL A   1      31.853  28.936  26.158  1.00  0.00    -0.094 F 
ATOM     25  F   UNL A   1      33.358  28.297  27.610  1.00  0.00    -0.094 F 
ATOM     26  F   UNL A   1      31.208  28.477  28.186  1.00  0.00    -0.094 F 
ATOM     27  F   UNL A   1      30.635  27.155  26.509  1.00  0.00    -0.094 F 
ATOM     28  F   UNL A   1      32.776  26.948  25.945  1.00  0.00    -0.094 F 
ENDBRANCH  16  23
ENDBRANCH   7   9
ENDBRANCH   6   7
ENDBRANCH   5   6
ENDBRANCH   4   5
ENDBRANCH   3   4
ENDBRANCH   2   3
ENDBRANCH   1   2
BRANCH   1  29
ATOM     29  O   UNL A   1      41.668  21.914  25.519  1.00  0.00    -0.376 OA
BRANCH  29  30
ATOM     30  C   UNL A   1      43.007  21.517  25.771  1.00  0.00     0.202 C 
BRANCH  30  31
ATOM     31  C   UNL A   1      43.959  22.443  25.030  1.00  0.00     0.261 C 
BRANCH  31  32
ATOM     32  O   UNL A   1      43.318  23.687  24.794  1.00  0.00    -0.460 OA
BRANCH  32  33
ATOM     33  C   UNL A   1      43.954  24.898  25.178  1.00  0.00     0.338 C 
ATOM     34  O   UNL A   1      45.051  25.239  24.636  1.00  0.00    -0.246 OA
BRANCH  33  35
ATOM     35  C   UNL A   1      43.321  25.785  26.238  1.00  0.00     0.060 A 
ATOM     36  C   UNL A   1      42.401  25.137  27.047  1.00  0.00     0.016 A 
ATOM     37  C   UNL A   1      43.689  27.037  26.479  1.00  0.00     0.016 A 
ATOM     38  C   UNL A   1      41.704  25.999  27.925  1.00  0.00     0.010 A 
ATOM     39  C   UNL A   1      43.053  27.779  27.446  1.00  0.00     0.010 A 
ATOM     40  C   UNL A   1      42.094  27.220  28.243  1.00  0.00    -0.014 A 
BRANCH  40  41
ATOM     41  C   UNL A   1      41.508  27.964  29.432  1.00  0.00     0.031 A 
ATOM     42  C   UNL A   1      40.438  28.847  29.280  1.00  0.00     0.074 A 
ATOM     43  C   UNL A   1      42.212  27.798  30.612  1.00  0.00     0.049 A 
ATOM     44  N   UNL A   1      39.895  29.637  30.207  1.00  0.00    -0.248 NA
ATOM     45  C   UNL A   1      39.709  29.049  28.018  1.00  0.00     0.031 C 
ATOM     46  C   UNL A   1      43.287  26.904  30.777  1.00  0.00     0.029 A 
ATOM     47  N   UNL A   1      42.017  28.447  31.811  1.00  0.00    -0.354 N 
ATOM     48  C   UNL A   1      38.875  30.324  29.689  1.00  0.00     0.074 A 
ATOM     49  C   UNL A   1      38.745  29.961  28.272  1.00  0.00     0.031 C 
ATOM     50  C   UNL A   1      43.740  27.018  32.053  1.00  0.00     0.029 A 
ATOM     51  C   UNL A   1      42.956  27.987  32.708  1.00  0.00     0.049 A 
ATOM     52  H   UNL A   1      41.324  29.123  31.996  1.00  0.00     0.167 HD
ATOM     53  C   UNL A   1      38.048  31.238  30.344  1.00  0.00     0.037 A 
ATOM     54  C   UNL A   1      43.135  28.379  34.025  1.00  0.00     0.037 A 
ATOM     55  C   UNL A   1      38.200  31.598  31.674  1.00  0.00     0.049 A 
ATOM     56  C   UNL A   1      42.344  29.337  34.664  1.00  0.00     0.074 A 
ATOM     57  C   UNL A   1      37.371  32.512  32.350  1.00  0.00     0.029 A 
ATOM     58  N   UNL A   1      39.155  31.156  32.563  1.00  0.00    -0.354 N 
ATOM     59  N   UNL A   1      41.300  29.994  34.156  1.00  0.00    -0.248 NA
ATOM     60  C   UNL A   1      42.546  29.783  36.048  1.00  0.00     0.031 C 
ATOM     61  C   UNL A   1      37.824  32.627  33.628  1.00  0.00     0.029 A 
ATOM     62  C   UNL A   1      38.946  31.788  33.768  1.00  0.00     0.049 A 
ATOM     63  H   UNL A   1      39.865  30.502  32.370  1.00  0.00     0.167 HD
ATOM     64  C   UNL A   1      40.785  30.815  35.074  1.00  0.00     0.074 A 
ATOM     65  C   UNL A   1      41.583  30.696  36.302  1.00  0.00     0.031 C 
ATOM     66  C   UNL A   1      39.677  31.655  34.938  1.00  0.00     0.037 A 
BRANCH  53  67
ATOM     67  C   UNL A   1      36.916  31.875  29.554  1.00  0.00     0.064 A 
ATOM     68  C   UNL A   1      37.005  33.153  29.025  1.00  0.00     0.173 A 
ATOM     69  C   UNL A   1      35.885  31.086  29.279  1.00  0.00     0.173 A 
ATOM     70  F   UNL A   1      38.120  33.877  29.063  1.00  0.00    -0.203 F 
ATOM     71  C   UNL A   1      35.802  33.617  28.443  1.00  0.00     0.198 A 
ATOM     72  C   UNL A   1      34.800  31.568  28.586  1.00  0.00     0.198 A 
ATOM     73  F   UNL A   1      35.901  29.818  29.677  1.00  0.00    -0.203 F 
ATOM     74  F   UNL A   1      35.677  34.925  28.239  1.00  0.00    -0.200 F 
ATOM     75  C   UNL A   1      34.795  32.841  28.086  1.00  0.00     0.200 A 
ATOM     76  F   UNL A   1      33.741  30.786  28.399  1.00  0.00    -0.200 F 
ATOM     77  F   UNL A   1      33.828  33.273  27.282  1.00  0.00    -0.200 F 
ENDBRANCH  53  67
BRANCH  54  78
ATOM     78  C   UNL A   1      44.257  27.729  34.819  1.00  0.00     0.064 A 
ATOM     79  C   UNL A   1      44.036  26.569  35.545  1.00  0.00     0.173 A 
ATOM     80  C   UNL A   1      45.402  28.394  34.915  1.00  0.00     0.173 A 
ATOM     81  F   UNL A   1      43.025  25.742  35.297  1.00  0.00    -0.203 F 
ATOM     82  C   UNL A   1      44.983  26.347  36.571  1.00  0.00     0.198 A 
ATOM     83  C   UNL A   1      46.342  28.036  35.851  1.00  0.00     0.198 A 
ATOM     84  F   UNL A   1      45.642  29.415  34.097  1.00  0.00    -0.203 F 
ATOM     85  F   UNL A   1      44.663  25.484  37.531  1.00  0.00    -0.200 F 
ATOM     86  C   UNL A   1      46.163  26.936  36.643  1.00  0.00     0.200 A 
ATOM     87  F   UNL A   1      47.442  28.770  35.989  1.00  0.00    -0.200 F 
ATOM     88  F   UNL A   1      47.124  26.484  37.442  1.00  0.00    -0.200 F 
ENDBRANCH  54  78
BRANCH  66  89
ATOM     89  C   UNL A   1      39.251  32.474  36.145  1.00  0.00     0.064 A 
ATOM     90  C   UNL A   1      38.322  31.857  36.968  1.00  0.00     0.173 A 
ATOM     91  C   UNL A   1      39.780  33.649  36.463  1.00  0.00     0.173 A 
ATOM     92  F   UNL A   1      37.959  30.586  36.826  1.00  0.00    -0.203 F 
ATOM     93  C   UNL A   1      37.797  32.703  37.973  1.00  0.00     0.198 A 
ATOM     94  C   UNL A   1      39.309  34.360  37.541  1.00  0.00     0.198 A 
ATOM     95  F   UNL A   1      40.776  34.143  35.733  1.00  0.00    -0.203 F 
ATOM     96  F   UNL A   1      36.665  32.330  38.566  1.00  0.00    -0.200 F 
ATOM     97  C   UNL A   1      38.350  33.837  38.363  1.00  0.00     0.200 A 
ATOM     98  F   UNL A   1      39.793  35.574  37.788  1.00  0.00    -0.200 F 
ATOM     99  F   UNL A   1      37.994  34.438  39.495  1.00  0.00    -0.200 F 
ENDBRANCH  66  89
ENDBRANCH  40  41
ENDBRANCH  33  35
ENDBRANCH  32  33
ENDBRANCH  31  32
ENDBRANCH  30  31
ENDBRANCH  29  30
ENDBRANCH   1  29
TORSDOF 19
ENDMDL
MODEL 2
REMARK VINA RESULT:     -12.2      0.498      1.678
REMARK SMILES O=C(OCCOCCOCCOC(=O)c1ccc(-c2c3nc(c(-c4c(F)c(F)c(F)c(F)c4F)c4ccc([nH]4)c(-c4c(F)c(F)c(F)c(F)c4F)c4nc(c(-c5c(F)c(F)c(F)c(F)c5F)c5ccc2[nH]5)C=C4)C=C3)cc1)C1=Cc2cc(S(F)(F)(F)(F)F)ccc2O[C@@H]1C(F)(F)F
REMARK SMILES IDX 8 1 7 2 6 3 5 4 4 5 3 6 2 7 1 8 78 9 79 10 93 11 80 12 92 13
REMARK SMILES IDX 81 14 91 15 82 16 90 17 89 18 94 19 95 20 96 21 97 22 83 23
REMARK SMILES IDX 84 24 85 25 86 26 87 27 88 28 9 29 10 30 11 31 12 32 13 33
REMARK SMILES IDX 14 34 15 35 16 36 77 37 17 38 76 39 18 40 19 41 20 42 70 43
REMARK SMILES IDX 21 44 75 45 69 46 71 47 22 48 74 49 68 50 67 51 23 53 55 54
REMARK SMILES IDX 35 55 54 56 36 57 39 58 53 59 72 60 37 61 38 62 52 64 73 65
REMARK SMILES IDX 40 66 24 67 25 68 33 69 26 70 27 71 31 72 34 73 28 74 29 75
REMARK SMILES IDX 32 76 30 77 56 78 57 79 65 80 58 81 59 82 63 83 66 84 60 85
REMARK SMILES IDX 61 86 64 87 62 88 41 89 42 90 50 91 43 92 44 93 48 94 51 95
REMARK SMILES IDX 45 96 46 97 49 98 47 99
REMARK H PARENT 71 52 39 63
REMARK Flexibility Score: inf
ROOT
ATOM      1  C   UNL A   1      40.913  21.393  26.700  1.00  0.00     0.188 C 
ENDROOT
BRANCH   1   2
ATOM      2  C   UNL A   1      39.483  21.863  26.488  1.00  0.00     0.188 C 
BRANCH   2   3
ATOM      3  O   UNL A   1      39.339  23.183  26.993  1.00  0.00    -0.376 OA
BRANCH   3   4
ATOM      4  C   UNL A   1      38.470  23.922  26.147  1.00  0.00     0.202 C 
BRANCH   4   5
ATOM      5  C   UNL A   1      37.576  22.964  25.379  1.00  0.00     0.261 C 
BRANCH   5   6
ATOM      6  O   UNL A   1      36.583  23.700  24.680  1.00  0.00    -0.460 OA
BRANCH   6   7
ATOM      7  C   UNL A   1      35.570  23.017  23.956  1.00  0.00     0.338 C 
ATOM      8  O   UNL A   1      35.708  22.814  22.709  1.00  0.00    -0.246 OA
BRANCH   7   9
ATOM      9  C   UNL A   1      34.322  22.529  24.672  1.00  0.00     0.087 C 
ATOM     10  C   UNL A   1      33.397  23.423  25.114  1.00  0.00     0.027 C 
ATOM     11  C   UNL A   1      34.106  21.041  24.894  1.00  0.00     0.316 C 
ATOM     12  C   UNL A   1      33.613  24.911  24.891  1.00  0.00     0.019 A 
ATOM     13  O   UNL A   1      34.550  24.511  22.744  1.00  0.00    -0.475 OA
ATOM     14  C   UNL A   1      33.238  25.754  25.924  1.00  0.00     0.036 A 
ATOM     15  C   UNL A   1      34.022  25.394  23.723  1.00  0.00     0.128 A 
ATOM     16  C   UNL A   1      33.053  27.100  25.528  1.00  0.00     0.107 A 
ATOM     17  C   UNL A   1      33.939  26.738  23.453  1.00  0.00     0.048 A 
ATOM     18  C   UNL A   1      33.520  27.623  24.409  1.00  0.00     0.028 A 
BRANCH  11  19
ATOM     19  C   UNL A   1      32.820  20.607  24.210  1.00  0.00     0.430 C 
ATOM     20  F   UNL A   1      31.797  20.773  25.042  1.00  0.00    -0.167 F 
ATOM     21  F   UNL A   1      32.628  21.344  23.119  1.00  0.00    -0.167 F 
ATOM     22  F   UNL A   1      32.910  19.325  23.868  1.00  0.00    -0.167 F 
ENDBRANCH  11  19
BRANCH  16  23
ATOM     23  S   UNL A   1      32.110  28.180  26.632  1.00  0.00     0.310 S 
ATOM     24  F   UNL A   1      31.465  26.943  27.388  1.00  0.00    -0.094 F 
ATOM     25  F   UNL A   1      30.903  28.105  25.623  1.00  0.00    -0.094 F 
ATOM     26  F   UNL A   1      31.294  29.105  27.580  1.00  0.00    -0.094 F 
ATOM     27  F   UNL A   1      33.275  28.130  27.698  1.00  0.00    -0.094 F 
ATOM     28  F   UNL A   1      32.905  27.151  25.735  1.00  0.00    -0.094 F 
ENDBRANCH  16  23
ENDBRANCH   7   9
ENDBRANCH   6   7
ENDBRANCH   5   6
ENDBRANCH   4   5
ENDBRANCH   3   4
ENDBRANCH   2   3
ENDBRANCH   1   2
BRANCH   1  29
ATOM     29  O   UNL A   1      41.721  21.836  25.620  1.00  0.00    -0.376 OA
BRANCH  29  30
ATOM     30  C   UNL A   1      43.082  21.535  25.893  1.00  0.00     0.202 C 
BRANCH  30  31
ATOM     31  C   UNL A   1      43.975  22.330  24.955  1.00  0.00     0.261 C 
BRANCH  31  32
ATOM     32  O   UNL A   1      43.387  23.597  24.703  1.00  0.00    -0.460 OA
BRANCH  32  33
ATOM     33  C   UNL A   1      44.050  24.783  25.115  1.00  0.00     0.338 C 
ATOM     34  O   UNL A   1      45.162  25.105  24.591  1.00  0.00    -0.246 OA
BRANCH  33  35
ATOM     35  C   UNL A   1      43.429  25.668  26.184  1.00  0.00     0.060 A 
ATOM     36  C   UNL A   1      42.405  25.065  26.898  1.00  0.00     0.016 A 
ATOM     37  C   UNL A   1      43.888  26.867  26.519  1.00  0.00     0.016 A 
ATOM     38  C   UNL A   1      41.730  25.940  27.780  1.00  0.00     0.010 A 
ATOM     39  C   UNL A   1      43.258  27.612  27.487  1.00  0.00     0.010 A 
ATOM     40  C   UNL A   1      42.204  27.102  28.192  1.00  0.00    -0.014 A 
BRANCH  40  41
ATOM     41  C   UNL A   1      41.608  27.833  29.383  1.00  0.00     0.031 A 
ATOM     42  C   UNL A   1      40.535  28.713  29.233  1.00  0.00     0.074 A 
ATOM     43  C   UNL A   1      42.308  27.661  30.566  1.00  0.00     0.049 A 
ATOM     44  N   UNL A   1      39.984  29.493  30.165  1.00  0.00    -0.248 NA
ATOM     45  C   UNL A   1      39.812  28.923  27.970  1.00  0.00     0.031 C 
ATOM     46  C   UNL A   1      43.386  26.770  30.728  1.00  0.00     0.029 A 
ATOM     47  N   UNL A   1      42.104  28.299  31.769  1.00  0.00    -0.354 N 
ATOM     48  C   UNL A   1      38.964  30.180  29.648  1.00  0.00     0.074 A 
ATOM     49  C   UNL A   1      38.842  29.828  28.227  1.00  0.00     0.031 C 
ATOM     50  C   UNL A   1      43.832  26.876  32.007  1.00  0.00     0.029 A 
ATOM     51  C   UNL A   1      43.041  27.835  32.666  1.00  0.00     0.049 A 
ATOM     52  H   UNL A   1      41.407  28.970  31.956  1.00  0.00     0.167 HD
ATOM     53  C   UNL A   1      38.130  31.084  30.306  1.00  0.00     0.037 A 
ATOM     54  C   UNL A   1      43.212  28.217  33.987  1.00  0.00     0.037 A 
ATOM     55  C   UNL A   1      38.274  31.433  31.640  1.00  0.00     0.049 A 
ATOM     56  C   UNL A   1      42.413  29.166  34.631  1.00  0.00     0.074 A 
ATOM     57  C   UNL A   1      37.436  32.338  32.320  1.00  0.00     0.029 A 
ATOM     58  N   UNL A   1      39.227  30.989  32.530  1.00  0.00    -0.354 N 
ATOM     59  N   UNL A   1      41.369  29.823  34.124  1.00  0.00    -0.248 NA
ATOM     60  C   UNL A   1      42.606  29.602  36.020  1.00  0.00     0.031 C 
ATOM     61  C   UNL A   1      37.883  32.445  33.600  1.00  0.00     0.029 A 
ATOM     62  C   UNL A   1      39.008  31.609  33.739  1.00  0.00     0.049 A 
ATOM     63  H   UNL A   1      39.940  30.340  32.334  1.00  0.00     0.167 HD
ATOM     64  C   UNL A   1      40.845  30.634  35.046  1.00  0.00     0.074 A 
ATOM     65  C   UNL A   1      41.638  30.508  36.276  1.00  0.00     0.031 C 
ATOM     66  C   UNL A   1      39.735  31.470  34.911  1.00  0.00     0.037 A 
BRANCH  53  67
ATOM     67  C   UNL A   1      36.999  31.723  29.516  1.00  0.00     0.064 A 
ATOM     68  C   UNL A   1      37.095  32.995  28.973  1.00  0.00     0.173 A 
ATOM     69  C   UNL A   1      35.959  30.940  29.256  1.00  0.00     0.173 A 
ATOM     70  F   UNL A   1      38.217  33.709  28.997  1.00  0.00    -0.203 F 
ATOM     71  C   UNL A   1      35.893  33.462  28.392  1.00  0.00     0.198 A 
ATOM     72  C   UNL A   1      34.874  31.425  28.564  1.00  0.00     0.198 A 
ATOM     73  F   UNL A   1      35.966  29.676  29.666  1.00  0.00    -0.203 F 
ATOM     74  F   UNL A   1      35.779  34.769  28.176  1.00  0.00    -0.200 F 
ATOM     75  C   UNL A   1      34.877  32.692  28.050  1.00  0.00     0.200 A 
ATOM     76  F   UNL A   1      33.807  30.650  28.391  1.00  0.00    -0.200 F 
ATOM     77  F   UNL A   1      33.909  33.124  27.247  1.00  0.00    -0.200 F 
ENDBRANCH  53  67
BRANCH  54  78
ATOM     78  C   UNL A   1      44.333  27.566  34.782  1.00  0.00     0.064 A 
ATOM     79  C   UNL A   1      45.627  28.059  34.720  1.00  0.00     0.173 A 
ATOM     80  C   UNL A   1      44.058  26.427  35.406  1.00  0.00     0.173 A 
ATOM     81  F   UNL A   1      45.912  29.299  34.335  1.00  0.00    -0.203 F 
ATOM     82  C   UNL A   1      46.614  27.123  35.105  1.00  0.00     0.198 A 
ATOM     83  C   UNL A   1      45.070  25.626  35.877  1.00  0.00     0.198 A 
ATOM     84  F   UNL A   1      42.792  26.058  35.576  1.00  0.00    -0.203 F 
ATOM     85  F   UNL A   1      47.871  27.367  34.745  1.00  0.00    -0.200 F 
ATOM     86  C   UNL A   1      46.376  26.023  35.798  1.00  0.00     0.200 A 
ATOM     87  F   UNL A   1      44.776  24.448  36.419  1.00  0.00    -0.200 F 
ATOM     88  F   UNL A   1      47.354  25.339  36.384  1.00  0.00    -0.200 F 
ENDBRANCH  54  78
BRANCH  66  89
ATOM     89  C   UNL A   1      39.299  32.277  36.123  1.00  0.00     0.064 A 
ATOM     90  C   UNL A   1      39.838  33.551  36.199  1.00  0.00     0.173 A 
ATOM     91  C   UNL A   1      38.399  31.856  37.004  1.00  0.00     0.173 A 
ATOM     92  F   UNL A   1      40.539  34.102  35.212  1.00  0.00    -0.203 F 
ATOM     93  C   UNL A   1      39.575  34.211  37.422  1.00  0.00     0.198 A 
ATOM     94  C   UNL A   1      38.089  32.616  38.106  1.00  0.00     0.198 A 
ATOM     95  F   UNL A   1      37.790  30.688  36.817  1.00  0.00    -0.203 F 
ATOM     96  F   UNL A   1      40.332  35.261  37.733  1.00  0.00    -0.200 F 
ATOM     97  C   UNL A   1      38.631  33.860  38.276  1.00  0.00     0.200 A 
ATOM     98  F   UNL A   1      37.253  32.136  39.020  1.00  0.00    -0.200 F 
ATOM     99  F   UNL A   1      38.228  34.673  39.249  1.00  0.00    -0.200 F 
ENDBRANCH  66  89
ENDBRANCH  40  41
ENDBRANCH  33  35
ENDBRANCH  32  33
ENDBRANCH  31  32
ENDBRANCH  30  31
ENDBRANCH  29  30
ENDBRANCH   1  29
TORSDOF 19
ENDMDL
MODEL 3
REMARK VINA RESULT:     -11.9      4.616      9.564
REMARK SMILES O=C(OCCOCCOCCOC(=O)c1ccc(-c2c3nc(c(-c4c(F)c(F)c(F)c(F)c4F)c4ccc([nH]4)c(-c4c(F)c(F)c(F)c(F)c4F)c4nc(c(-c5c(F)c(F)c(F)c(F)c5F)c5ccc2[nH]5)C=C4)C=C3)cc1)C1=Cc2cc(S(F)(F)(F)(F)F)ccc2O[C@@H]1C(F)(F)F
REMARK SMILES IDX 8 1 7 2 6 3 5 4 4 5 3 6 2 7 1 8 78 9 79 10 93 11 80 12 92 13
REMARK SMILES IDX 81 14 91 15 82 16 90 17 89 18 94 19 95 20 96 21 97 22 83 23
REMARK SMILES IDX 84 24 85 25 86 26 87 27 88 28 9 29 10 30 11 31 12 32 13 33
REMARK SMILES IDX 14 34 15 35 16 36 77 37 17 38 76 39 18 40 19 41 20 42 70 43
REMARK SMILES IDX 21 44 75 45 69 46 71 47 22 48 74 49 68 50 67 51 23 53 55 54
REMARK SMILES IDX 35 55 54 56 36 57 39 58 53 59 72 60 37 61 38 62 52 64 73 65
REMARK SMILES IDX 40 66 24 67 25 68 33 69 26 70 27 71 31 72 34 73 28 74 29 75
REMARK SMILES IDX 32 76 30 77 56 78 57 79 65 80 58 81 59 82 63 83 66 84 60 85
REMARK SMILES IDX 61 86 64 87 62 88 41 89 42 90 50 91 43 92 44 93 48 94 51 95
REMARK SMILES IDX 45 96 46 97 49 98 47 99
REMARK H PARENT 71 52 39 63
REMARK Flexibility Score: inf
ROOT
ATOM      1  C   UNL A   1      31.185  27.725  25.261  1.00  0.00     0.188 C 
ENDROOT
BRANCH   1   2
ATOM      2  C   UNL A   1      30.675  26.294  25.216  1.00  0.00     0.188 C 
BRANCH   2   3
ATOM      3  O   UNL A   1      30.612  25.773  26.535  1.00  0.00    -0.376 OA
BRANCH   3   4
ATOM      4  C   UNL A   1      30.522  24.357  26.482  1.00  0.00     0.202 C 
BRANCH   4   5
ATOM      5  C   UNL A   1      31.828  23.748  26.964  1.00  0.00     0.261 C 
BRANCH   5   6
ATOM      6  O   UNL A   1      32.420  23.001  25.912  1.00  0.00    -0.460 OA
BRANCH   6   7
ATOM      7  C   UNL A   1      33.623  23.455  25.308  1.00  0.00     0.338 C 
ATOM      8  O   UNL A   1      33.603  24.460  24.530  1.00  0.00    -0.246 OA
BRANCH   7   9
ATOM      9  C   UNL A   1      34.933  22.739  25.592  1.00  0.00     0.087 C 
ATOM     10  C   UNL A   1      35.076  21.427  25.265  1.00  0.00     0.027 C 
ATOM     11  C   UNL A   1      36.084  23.490  26.241  1.00  0.00     0.316 C 
ATOM     12  C   UNL A   1      33.925  20.676  24.615  1.00  0.00     0.019 A 
ATOM     13  O   UNL A   1      33.330  22.586  23.333  1.00  0.00    -0.475 OA
ATOM     14  C   UNL A   1      33.730  19.366  25.022  1.00  0.00     0.036 A 
ATOM     15  C   UNL A   1      33.219  21.200  23.619  1.00  0.00     0.128 A 
ATOM     16  C   UNL A   1      32.962  18.594  24.119  1.00  0.00     0.107 A 
ATOM     17  C   UNL A   1      32.384  20.413  22.864  1.00  0.00     0.048 A 
ATOM     18  C   UNL A   1      32.189  19.095  23.173  1.00  0.00     0.028 A 
BRANCH  11  19
ATOM     19  C   UNL A   1      37.288  23.472  25.314  1.00  0.00     0.430 C 
ATOM     20  F   UNL A   1      36.894  23.725  24.070  1.00  0.00    -0.167 F 
ATOM     21  F   UNL A   1      38.158  24.401  25.701  1.00  0.00    -0.167 F 
ATOM     22  F   UNL A   1      37.866  22.275  25.362  1.00  0.00    -0.167 F 
ENDBRANCH  11  19
BRANCH  16  23
ATOM     23  S   UNL A   1      33.044  16.792  24.273  1.00  0.00     0.310 S 
ATOM     24  F   UNL A   1      34.316  16.872  25.216  1.00  0.00    -0.094 F 
ATOM     25  F   UNL A   1      34.037  16.766  23.050  1.00  0.00    -0.094 F 
ATOM     26  F   UNL A   1      33.121  15.245  24.403  1.00  0.00    -0.094 F 
ATOM     27  F   UNL A   1      32.161  16.850  25.582  1.00  0.00    -0.094 F 
ATOM     28  F   UNL A   1      33.047  18.372  24.222  1.00  0.00    -0.094 F 
ENDBRANCH  16  23
ENDBRANCH   7   9
ENDBRANCH   6   7
ENDBRANCH   5   6
ENDBRANCH   4   5
ENDBRANCH   3   4
ENDBRANCH   2   3
ENDBRANCH   1   2
BRANCH   1  29
ATOM     29  O   UNL A   1      32.599  27.721  25.396  1.00  0.00    -0.376 OA
BRANCH  29  30
ATOM     30  C   UNL A   1      33.115  28.987  25.013  1.00  0.00     0.202 C 
BRANCH  30  31
ATOM     31  C   UNL A   1      32.904  29.983  26.142  1.00  0.00     0.261 C 
BRANCH  31  32
ATOM     32  O   UNL A   1      33.687  29.602  27.262  1.00  0.00    -0.460 OA
BRANCH  32  33
ATOM     33  C   UNL A   1      34.655  30.497  27.790  1.00  0.00     0.338 C 
ATOM     34  O   UNL A   1      34.398  31.738  27.867  1.00  0.00    -0.246 OA
BRANCH  33  35
ATOM     35  C   UNL A   1      36.000  29.968  28.263  1.00  0.00     0.060 A 
ATOM     36  C   UNL A   1      37.023  30.107  27.338  1.00  0.00     0.016 A 
ATOM     37  C   UNL A   1      36.238  29.527  29.492  1.00  0.00     0.016 A 
ATOM     38  C   UNL A   1      38.230  29.476  27.721  1.00  0.00     0.010 A 
ATOM     39  C   UNL A   1      37.480  29.049  29.835  1.00  0.00     0.010 A 
ATOM     40  C   UNL A   1      38.522  29.101  28.953  1.00  0.00    -0.014 A 
BRANCH  40  41
ATOM     41  C   UNL A   1      39.941  28.746  29.367  1.00  0.00     0.031 A 
ATOM     42  C   UNL A   1      40.736  29.646  30.079  1.00  0.00     0.074 A 
ATOM     43  C   UNL A   1      40.400  27.545  28.856  1.00  0.00     0.049 A 
ATOM     44  N   UNL A   1      42.019  29.510  30.415  1.00  0.00    -0.248 NA
ATOM     45  C   UNL A   1      40.259  30.939  30.594  1.00  0.00     0.031 C 
ATOM     46  C   UNL A   1      39.603  26.627  28.144  1.00  0.00     0.029 A 
ATOM     47  N   UNL A   1      41.673  27.025  28.933  1.00  0.00    -0.354 N 
ATOM     48  C   UNL A   1      42.430  30.572  31.111  1.00  0.00     0.074 A 
ATOM     49  C   UNL A   1      41.305  31.509  31.231  1.00  0.00     0.031 C 
ATOM     50  C   UNL A   1      40.386  25.575  27.788  1.00  0.00     0.029 A 
ATOM     51  C   UNL A   1      41.686  25.817  28.271  1.00  0.00     0.049 A 
ATOM     52  H   UNL A   1      42.442  27.445  29.384  1.00  0.00     0.167 HD
ATOM     53  C   UNL A   1      43.696  30.794  31.652  1.00  0.00     0.037 A 
ATOM     54  C   UNL A   1      42.760  24.961  28.087  1.00  0.00     0.037 A 
ATOM     55  C   UNL A   1      44.760  29.917  31.506  1.00  0.00     0.049 A 
ATOM     56  C   UNL A   1      44.044  25.211  28.579  1.00  0.00     0.074 A 
ATOM     57  C   UNL A   1      46.042  30.123  32.051  1.00  0.00     0.029 A 
ATOM     58  N   UNL A   1      44.779  28.721  30.822  1.00  0.00    -0.354 N 
ATOM     59  N   UNL A   1      44.443  26.254  29.309  1.00  0.00    -0.248 NA
ATOM     60  C   UNL A   1      45.197  24.328  28.362  1.00  0.00     0.031 C 
ATOM     61  C   UNL A   1      46.826  29.070  31.694  1.00  0.00     0.029 A 
ATOM     62  C   UNL A   1      46.046  28.190  30.919  1.00  0.00     0.049 A 
ATOM     63  H   UNL A   1      44.018  28.316  30.347  1.00  0.00     0.167 HD
ATOM     64  C   UNL A   1      45.738  26.136  29.608  1.00  0.00     0.074 A 
ATOM     65  C   UNL A   1      46.243  24.899  28.997  1.00  0.00     0.031 C 
ATOM     66  C   UNL A   1      46.518  27.008  30.370  1.00  0.00     0.037 A 
BRANCH  53  67
ATOM     67  C   UNL A   1      43.924  32.069  32.448  1.00  0.00     0.064 A 
ATOM     68  C   UNL A   1      43.810  32.115  33.828  1.00  0.00     0.173 A 
ATOM     69  C   UNL A   1      44.375  33.110  31.759  1.00  0.00     0.173 A 
ATOM     70  F   UNL A   1      43.609  31.034  34.575  1.00  0.00    -0.203 F 
ATOM     71  C   UNL A   1      43.927  33.418  34.369  1.00  0.00     0.198 A 
ATOM     72  C   UNL A   1      44.597  34.316  32.379  1.00  0.00     0.198 A 
ATOM     73  F   UNL A   1      44.615  32.985  30.457  1.00  0.00    -0.203 F 
ATOM     74  F   UNL A   1      43.483  33.615  35.606  1.00  0.00    -0.200 F 
ATOM     75  C   UNL A   1      44.447  34.450  33.731  1.00  0.00     0.200 A 
ATOM     76  F   UNL A   1      44.964  35.369  31.653  1.00  0.00    -0.200 F 
ATOM     77  F   UNL A   1      44.807  35.560  34.369  1.00  0.00    -0.200 F 
ENDBRANCH  53  67
BRANCH  54  78
ATOM     78  C   UNL A   1      42.529  23.678  27.306  1.00  0.00     0.064 A 
ATOM     79  C   UNL A   1      42.067  22.534  27.937  1.00  0.00     0.173 A 
ATOM     80  C   UNL A   1      42.929  23.653  26.040  1.00  0.00     0.173 A 
ATOM     81  F   UNL A   1      41.427  22.558  29.102  1.00  0.00    -0.203 F 
ATOM     82  C   UNL A   1      42.338  21.340  27.230  1.00  0.00     0.198 A 
ATOM     83  C   UNL A   1      43.042  22.460  25.367  1.00  0.00     0.198 A 
ATOM     84  F   UNL A   1      43.224  24.791  25.419  1.00  0.00    -0.203 F 
ATOM     85  F   UNL A   1      42.266  20.194  27.900  1.00  0.00    -0.200 F 
ATOM     86  C   UNL A   1      42.659  21.284  25.949  1.00  0.00     0.200 A 
ATOM     87  F   UNL A   1      43.530  22.450  24.129  1.00  0.00    -0.200 F 
ATOM     88  F   UNL A   1      42.613  20.145  25.265  1.00  0.00    -0.200 F 
ENDBRANCH  54  78
BRANCH  66  89
ATOM     89  C   UNL A   1      47.972  26.640  30.611  1.00  0.00     0.064 A 
ATOM     90  C   UNL A   1      48.867  27.166  29.693  1.00  0.00     0.173 A 
ATOM     91  C   UNL A   1      48.394  25.948  31.664  1.00  0.00     0.173 A 
ATOM     92  F   UNL A   1      48.520  28.066  28.777  1.00  0.00    -0.203 F 
ATOM     93  C   UNL A   1      50.182  26.660  29.819  1.00  0.00     0.198 A 
ATOM     94  C   UNL A   1      49.718  25.605  31.792  1.00  0.00     0.198 A 
ATOM     95  F   UNL A   1      47.525  25.586  32.604  1.00  0.00    -0.203 F 
ATOM     96  F   UNL A   1      51.007  26.819  28.788  1.00  0.00    -0.200 F 
ATOM     97  C   UNL A   1      50.648  26.041  30.889  1.00  0.00     0.200 A 
ATOM     98  F   UNL A   1      50.101  24.838  32.808  1.00  0.00    -0.200 F 
ATOM     99  F   UNL A   1      51.951  25.853  31.078  1.00  0.00    -0.200 F 
ENDBRANCH  66  89
ENDBRANCH  40  41
ENDBRANCH  33  35
ENDBRANCH  32  33
ENDBRANCH  31  32
ENDBRANCH  30  31
ENDBRANCH  29  30
ENDBRANCH   1  29
TORSDOF 19
ENDMDL
