MODEL 1
REMARK VINA RESULT:     -10.8      0.000      0.000
REMARK SMILES O=C(OCCOCCOCCOC(=O)c1cc(S(=O)(=O)NNC(=O)[C@H]2C=C(c3ccccc3)N=N2)ccc1F)c1ccc(-c2c3nc(c(-c4c(F)c(F)c(F)c(F)c4F)c4ccc([nH]4)c(-c4c(F)c(F)c(F)c(F)c4F)c4nc(c(-c5c(F)c(F)c(F)c(F)c5F)c5ccc2[nH]5)C=C4)C=C3)cc1
REMARK SMILES IDX 9 1 8 2 7 3 6 4 5 5 4 6 3 7 2 8 1 9 40 10 41 11 102 12 42 13
REMARK SMILES IDX 101 14 43 15 44 16 45 17 95 18 46 19 100 20 94 21 96 22
REMARK SMILES IDX 47 23 99 24 93 25 92 26 48 28 80 29 60 30 79 31 61 32 64 33
REMARK SMILES IDX 78 34 97 35 62 36 63 37 77 39 98 40 65 41 49 42 50 43 58 44
REMARK SMILES IDX 51 45 52 46 56 47 59 48 53 49 54 50 57 51 55 52 81 53 82 54
REMARK SMILES IDX 90 55 83 56 84 57 88 58 91 59 85 60 86 61 89 62 87 63 66 64
REMARK SMILES IDX 67 65 75 66 68 67 69 68 73 69 76 70 70 71 71 72 74 73 72 74
REMARK SMILES IDX 10 75 11 76 12 77 13 78 14 79 15 80 16 81 38 82 17 83 37 84
REMARK SMILES IDX 39 85 36 86 18 87 19 88 20 89 21 90 22 92 23 93 24 95 25 96
REMARK SMILES IDX 26 97 35 98 27 99 34 100 28 101 29 102 33 103 30 104 32 105
REMARK SMILES IDX 31 106
REMARK H PARENT 96 27 64 38 21 91 22 94
REMARK Flexibility Score: inf
ROOT
ATOM      1  O   UNL A   1      46.227  31.758  27.092  1.00  0.00    -0.376 OA
ENDROOT
BRANCH   1   2
ATOM      2  C   UNL A   1      47.632  31.838  26.912  1.00  0.00     0.188 C 
BRANCH   2   3
ATOM      3  C   UNL A   1      48.319  33.180  26.564  1.00  0.00     0.188 C 
BRANCH   3   4
ATOM      4  O   UNL A   1      47.765  33.921  25.505  1.00  0.00    -0.376 OA
BRANCH   4   5
ATOM      5  C   UNL A   1      47.019  35.104  25.710  1.00  0.00     0.202 C 
BRANCH   5   6
ATOM      6  C   UNL A   1      47.435  36.258  26.629  1.00  0.00     0.261 C 
BRANCH   6   7
ATOM      7  O   UNL A   1      46.474  36.707  27.580  1.00  0.00    -0.460 OA
BRANCH   7   8
ATOM      8  C   UNL A   1      45.206  37.121  27.395  1.00  0.00     0.338 C 
ATOM      9  O   UNL A   1      45.014  38.221  26.877  1.00  0.00    -0.246 OA
BRANCH   8  10
ATOM     10  C   UNL A   1      44.017  36.413  27.950  1.00  0.00     0.060 A 
ATOM     11  C   UNL A   1      42.827  37.001  28.377  1.00  0.00     0.016 A 
ATOM     12  C   UNL A   1      44.175  35.019  28.092  1.00  0.00     0.016 A 
ATOM     13  C   UNL A   1      41.917  36.259  29.114  1.00  0.00     0.010 A 
ATOM     14  C   UNL A   1      43.253  34.266  28.798  1.00  0.00     0.010 A 
ATOM     15  C   UNL A   1      42.185  34.920  29.395  1.00  0.00    -0.014 A 
BRANCH  15  16
ATOM     16  C   UNL A   1      41.339  34.263  30.378  1.00  0.00     0.031 A 
ATOM     17  C   UNL A   1      42.003  33.894  31.657  1.00  0.00     0.074 A 
ATOM     18  C   UNL A   1      40.035  34.033  30.126  1.00  0.00     0.049 A 
ATOM     19  N   UNL A   1      42.128  32.722  32.190  1.00  0.00    -0.248 NA
ATOM     20  C   UNL A   1      42.704  34.963  32.384  1.00  0.00     0.031 C 
ATOM     21  C   UNL A   1      39.213  34.549  29.026  1.00  0.00     0.029 A 
ATOM     22  N   UNL A   1      39.135  33.334  30.869  1.00  0.00    -0.354 N 
ATOM     23  C   UNL A   1      42.783  32.922  33.404  1.00  0.00     0.074 A 
ATOM     24  C   UNL A   1      43.217  34.293  33.415  1.00  0.00     0.031 C 
ATOM     25  C   UNL A   1      37.907  34.341  29.304  1.00  0.00     0.029 A 
ATOM     26  C   UNL A   1      37.811  33.555  30.520  1.00  0.00     0.049 A 
ATOM     27  H   UNL A   1      39.401  32.723  31.593  1.00  0.00     0.167 HD
ATOM     28  C   UNL A   1      42.738  31.993  34.400  1.00  0.00     0.037 A 
ATOM     29  C   UNL A   1      36.724  33.183  31.238  1.00  0.00     0.037 A 
ATOM     30  C   UNL A   1      42.470  30.679  33.879  1.00  0.00     0.049 A 
ATOM     31  C   UNL A   1      37.154  32.099  32.157  1.00  0.00     0.074 A 
ATOM     32  C   UNL A   1      43.130  29.836  33.006  1.00  0.00     0.029 A 
ATOM     33  N   UNL A   1      41.201  30.169  33.985  1.00  0.00    -0.354 N 
ATOM     34  N   UNL A   1      37.522  30.912  31.761  1.00  0.00    -0.248 NA
ATOM     35  C   UNL A   1      37.610  32.486  33.484  1.00  0.00     0.031 C 
ATOM     36  C   UNL A   1      42.098  29.199  32.257  1.00  0.00     0.029 A 
ATOM     37  C   UNL A   1      40.878  29.648  32.758  1.00  0.00     0.049 A 
ATOM     38  H   UNL A   1      40.631  30.176  34.788  1.00  0.00     0.167 HD
ATOM     39  C   UNL A   1      38.578  30.572  32.594  1.00  0.00     0.074 A 
ATOM     40  C   UNL A   1      38.538  31.546  33.681  1.00  0.00     0.031 C 
ATOM     41  C   UNL A   1      39.555  29.712  32.184  1.00  0.00     0.037 A 
BRANCH  28  42
ATOM     42  C   UNL A   1      42.597  32.338  35.863  1.00  0.00     0.064 A 
ATOM     43  C   UNL A   1      41.427  32.894  36.428  1.00  0.00     0.173 A 
ATOM     44  C   UNL A   1      43.529  31.826  36.790  1.00  0.00     0.173 A 
ATOM     45  F   UNL A   1      40.418  33.351  35.677  1.00  0.00    -0.203 F 
ATOM     46  C   UNL A   1      41.192  32.907  37.801  1.00  0.00     0.198 A 
ATOM     47  C   UNL A   1      43.267  31.796  38.162  1.00  0.00     0.198 A 
ATOM     48  F   UNL A   1      44.672  31.262  36.371  1.00  0.00    -0.203 F 
ATOM     49  F   UNL A   1      40.042  33.417  38.266  1.00  0.00    -0.200 F 
ATOM     50  C   UNL A   1      42.095  32.328  38.666  1.00  0.00     0.200 A 
ATOM     51  F   UNL A   1      44.126  31.186  38.991  1.00  0.00    -0.200 F 
ATOM     52  F   UNL A   1      41.812  32.244  39.972  1.00  0.00    -0.200 F 
ENDBRANCH  28  42
BRANCH  29  53
ATOM     53  C   UNL A   1      35.489  33.977  31.460  1.00  0.00     0.064 A 
ATOM     54  C   UNL A   1      34.464  34.031  30.493  1.00  0.00     0.173 A 
ATOM     55  C   UNL A   1      35.418  34.923  32.496  1.00  0.00     0.173 A 
ATOM     56  F   UNL A   1      34.484  33.230  29.420  1.00  0.00    -0.203 F 
ATOM     57  C   UNL A   1      33.446  34.983  30.548  1.00  0.00     0.198 A 
ATOM     58  C   UNL A   1      34.401  35.882  32.545  1.00  0.00     0.198 A 
ATOM     59  F   UNL A   1      36.379  34.970  33.430  1.00  0.00    -0.203 F 
ATOM     60  F   UNL A   1      32.528  35.030  29.573  1.00  0.00    -0.200 F 
ATOM     61  C   UNL A   1      33.422  35.918  31.566  1.00  0.00     0.200 A 
ATOM     62  F   UNL A   1      34.405  36.811  33.511  1.00  0.00    -0.200 F 
ATOM     63  F   UNL A   1      32.486  36.877  31.574  1.00  0.00    -0.200 F 
ENDBRANCH  29  53
BRANCH  41  64
ATOM     64  C   UNL A   1      39.350  28.970  30.894  1.00  0.00     0.064 A 
ATOM     65  C   UNL A   1      38.916  27.639  30.950  1.00  0.00     0.173 A 
ATOM     66  C   UNL A   1      39.746  29.468  29.640  1.00  0.00     0.173 A 
ATOM     67  F   UNL A   1      38.581  27.092  32.130  1.00  0.00    -0.203 F 
ATOM     68  C   UNL A   1      38.886  26.840  29.812  1.00  0.00     0.198 A 
ATOM     69  C   UNL A   1      39.682  28.676  28.494  1.00  0.00     0.198 A 
ATOM     70  F   UNL A   1      40.266  30.694  29.520  1.00  0.00    -0.203 F 
ATOM     71  F   UNL A   1      38.531  25.551  29.911  1.00  0.00    -0.200 F 
ATOM     72  C   UNL A   1      39.264  27.359  28.583  1.00  0.00     0.200 A 
ATOM     73  F   UNL A   1      40.073  29.173  27.311  1.00  0.00    -0.200 F 
ATOM     74  F   UNL A   1      39.258  26.580  27.492  1.00  0.00    -0.200 F 
ENDBRANCH  41  64
ENDBRANCH  15  16
ENDBRANCH   8  10
ENDBRANCH   7   8
ENDBRANCH   6   7
ENDBRANCH   5   6
ENDBRANCH   4   5
ENDBRANCH   3   4
ENDBRANCH   2   3
ENDBRANCH   1   2
BRANCH   1  75
ATOM     75  C   UNL A   1      45.498  30.697  26.503  1.00  0.00     0.202 C 
BRANCH  75  76
ATOM     76  C   UNL A   1      46.260  29.587  25.764  1.00  0.00     0.261 C 
BRANCH  76  77
ATOM     77  O   UNL A   1      45.518  28.382  25.505  1.00  0.00    -0.460 OA
BRANCH  77  78
ATOM     78  C   UNL A   1      46.197  27.371  24.910  1.00  0.00     0.341 C 
ATOM     79  O   UNL A   1      46.950  27.434  23.956  1.00  0.00    -0.246 OA
BRANCH  78  80
ATOM     80  C   UNL A   1      45.996  26.136  25.682  1.00  0.00     0.097 A 
ATOM     81  C   UNL A   1      45.386  25.024  25.087  1.00  0.00     0.040 A 
ATOM     82  C   UNL A   1      46.388  26.078  27.013  1.00  0.00     0.137 A 
ATOM     83  C   UNL A   1      45.247  23.831  25.814  1.00  0.00     0.085 A 
ATOM     84  C   UNL A   1      46.193  24.908  27.753  1.00  0.00     0.041 A 
ATOM     85  F   UNL A   1      46.942  27.141  27.610  1.00  0.00    -0.206 F 
ATOM     86  C   UNL A   1      45.636  23.771  27.153  1.00  0.00     0.025 A 
BRANCH  83  87
ATOM     87  S   UNL A   1      44.560  22.433  24.958  1.00  0.00     0.257 S 
ATOM     88  O   UNL A   1      43.404  22.902  24.234  1.00  0.00    -0.205 OA
ATOM     89  O   UNL A   1      45.665  21.771  24.294  1.00  0.00    -0.205 OA
BRANCH  87  90
ATOM     90  N   UNL A   1      44.003  21.357  26.149  1.00  0.00    -0.123 NA
ATOM     91  H   UNL A   1      43.505  21.916  26.841  1.00  0.00     0.167 HD
BRANCH  90  92
ATOM     92  N   UNL A   1      43.130  20.272  25.781  1.00  0.00    -0.275 N 
ATOM     93  C   UNL A   1      41.881  20.042  26.300  1.00  0.00     0.265 C 
ATOM     94  H   UNL A   1      43.458  19.641  25.100  1.00  0.00     0.186 HD
ATOM     95  O   UNL A   1      41.163  19.219  25.721  1.00  0.00    -0.271 OA
BRANCH  93  96
ATOM     96  C   UNL A   1      41.402  20.828  27.532  1.00  0.00     0.244 C 
ATOM     97  C   UNL A   1      42.232  22.046  27.710  1.00  0.00     0.042 C 
ATOM     98  N   UNL A   1      40.056  21.410  27.252  1.00  0.00    -0.171 NA
ATOM     99  C   UNL A   1      41.429  23.072  27.425  1.00  0.00     0.091 C 
ATOM    100  N   UNL A   1      40.136  22.672  27.198  1.00  0.00    -0.155 NA
BRANCH  99 101
ATOM    101  C   UNL A   1      41.873  24.460  27.282  1.00  0.00     0.002 A 
ATOM    102  C   UNL A   1      42.429  25.157  28.361  1.00  0.00     0.010 A 
ATOM    103  C   UNL A   1      41.717  25.125  26.055  1.00  0.00     0.010 A 
ATOM    104  C   UNL A   1      42.843  26.484  28.207  1.00  0.00     0.001 A 
ATOM    105  C   UNL A   1      42.121  26.453  25.906  1.00  0.00     0.001 A 
ATOM    106  C   UNL A   1      42.689  27.131  26.981  1.00  0.00     0.000 A 
ENDBRANCH  99 101
ENDBRANCH  93  96
ENDBRANCH  90  92
ENDBRANCH  87  90
ENDBRANCH  83  87
ENDBRANCH  78  80
ENDBRANCH  77  78
ENDBRANCH  76  77
ENDBRANCH  75  76
ENDBRANCH   1  75
TORSDOF 22
ENDMDL
MODEL 2
REMARK VINA RESULT:     -10.8      5.427     10.329
REMARK SMILES O=C(OCCOCCOCCOC(=O)c1cc(S(=O)(=O)NNC(=O)[C@H]2C=C(c3ccccc3)N=N2)ccc1F)c1ccc(-c2c3nc(c(-c4c(F)c(F)c(F)c(F)c4F)c4ccc([nH]4)c(-c4c(F)c(F)c(F)c(F)c4F)c4nc(c(-c5c(F)c(F)c(F)c(F)c5F)c5ccc2[nH]5)C=C4)C=C3)cc1
REMARK SMILES IDX 9 1 8 2 7 3 6 4 5 5 4 6 3 7 2 8 1 9 40 10 41 11 102 12 42 13
REMARK SMILES IDX 101 14 43 15 44 16 45 17 95 18 46 19 100 20 94 21 96 22
REMARK SMILES IDX 47 23 99 24 93 25 92 26 48 28 80 29 60 30 79 31 61 32 64 33
REMARK SMILES IDX 78 34 97 35 62 36 63 37 77 39 98 40 65 41 49 42 50 43 58 44
REMARK SMILES IDX 51 45 52 46 56 47 59 48 53 49 54 50 57 51 55 52 81 53 82 54
REMARK SMILES IDX 90 55 83 56 84 57 88 58 91 59 85 60 86 61 89 62 87 63 66 64
REMARK SMILES IDX 67 65 75 66 68 67 69 68 73 69 76 70 70 71 71 72 74 73 72 74
REMARK SMILES IDX 10 75 11 76 12 77 13 78 14 79 15 80 16 81 38 82 17 83 37 84
REMARK SMILES IDX 39 85 36 86 18 87 19 88 20 89 21 90 22 92 23 93 24 95 25 96
REMARK SMILES IDX 26 97 35 98 27 99 34 100 28 101 29 102 33 103 30 104 32 105
REMARK SMILES IDX 31 106
REMARK H PARENT 96 27 64 38 21 91 22 94
REMARK Flexibility Score: inf
ROOT
ATOM      1  O   UNL A   1      39.567  31.992  35.868  1.00  0.00    -0.376 OA
ENDROOT
BRANCH   1   2
ATOM      2  C   UNL A   1      38.733  33.137  35.965  1.00  0.00     0.188 C 
BRANCH   2   3
ATOM      3  C   UNL A   1      39.255  34.542  35.581  1.00  0.00     0.188 C 
BRANCH   3   4
ATOM      4  O   UNL A   1      38.549  35.229  34.578  1.00  0.00    -0.376 OA
BRANCH   4   5
ATOM      5  C   UNL A   1      37.866  34.565  33.533  1.00  0.00     0.202 C 
BRANCH   5   6
ATOM      6  C   UNL A   1      38.449  34.279  32.145  1.00  0.00     0.261 C 
BRANCH   6   7
ATOM      7  O   UNL A   1      39.869  34.260  32.029  1.00  0.00    -0.460 OA
BRANCH   7   8
ATOM      8  C   UNL A   1      40.642  34.067  30.944  1.00  0.00     0.338 C 
ATOM      9  O   UNL A   1      40.975  35.044  30.274  1.00  0.00    -0.246 OA
BRANCH   8  10
ATOM     10  C   UNL A   1      40.969  32.721  30.392  1.00  0.00     0.060 A 
ATOM     11  C   UNL A   1      40.074  31.670  30.187  1.00  0.00     0.016 A 
ATOM     12  C   UNL A   1      42.335  32.511  30.117  1.00  0.00     0.016 A 
ATOM     13  C   UNL A   1      40.554  30.397  29.922  1.00  0.00     0.010 A 
ATOM     14  C   UNL A   1      42.817  31.249  29.819  1.00  0.00     0.010 A 
ATOM     15  C   UNL A   1      41.929  30.183  29.833  1.00  0.00    -0.014 A 
BRANCH  15  16
ATOM     16  C   UNL A   1      42.390  28.804  29.815  1.00  0.00     0.031 A 
ATOM     17  C   UNL A   1      42.983  28.305  31.083  1.00  0.00     0.074 A 
ATOM     18  C   UNL A   1      42.257  28.044  28.708  1.00  0.00     0.049 A 
ATOM     19  N   UNL A   1      44.172  27.837  31.287  1.00  0.00    -0.248 NA
ATOM     20  C   UNL A   1      42.173  28.440  32.303  1.00  0.00     0.031 C 
ATOM     21  C   UNL A   1      41.489  28.331  27.492  1.00  0.00     0.029 A 
ATOM     22  N   UNL A   1      42.732  26.791  28.475  1.00  0.00    -0.354 N 
ATOM     23  C   UNL A   1      44.211  27.463  32.630  1.00  0.00     0.074 A 
ATOM     24  C   UNL A   1      43.004  27.965  33.231  1.00  0.00     0.031 C 
ATOM     25  C   UNL A   1      41.361  27.199  26.764  1.00  0.00     0.029 A 
ATOM     26  C   UNL A   1      42.154  26.155  27.386  1.00  0.00     0.049 A 
ATOM     27  H   UNL A   1      43.426  26.371  29.032  1.00  0.00     0.167 HD
ATOM     28  C   UNL A   1      45.144  26.589  33.099  1.00  0.00     0.037 A 
ATOM     29  C   UNL A   1      42.263  24.839  27.081  1.00  0.00     0.037 A 
ATOM     30  C   UNL A   1      46.315  26.572  32.263  1.00  0.00     0.049 A 
ATOM     31  C   UNL A   1      43.467  24.324  27.782  1.00  0.00     0.074 A 
ATOM     32  C   UNL A   1      47.257  27.517  31.905  1.00  0.00     0.029 A 
ATOM     33  N   UNL A   1      46.478  25.541  31.372  1.00  0.00    -0.354 N 
ATOM     34  N   UNL A   1      44.687  24.678  27.489  1.00  0.00    -0.248 NA
ATOM     35  C   UNL A   1      43.279  23.761  29.112  1.00  0.00     0.031 C 
ATOM     36  C   UNL A   1      47.563  27.234  30.542  1.00  0.00     0.029 A 
ATOM     37  C   UNL A   1      46.834  26.105  30.173  1.00  0.00     0.049 A 
ATOM     38  H   UNL A   1      46.362  24.581  31.558  1.00  0.00     0.167 HD
ATOM     39  C   UNL A   1      45.333  24.769  28.713  1.00  0.00     0.074 A 
ATOM     40  C   UNL A   1      44.438  24.122  29.668  1.00  0.00     0.031 C 
ATOM     41  C   UNL A   1      46.398  25.604  28.892  1.00  0.00     0.037 A 
BRANCH  28  42
ATOM     42  C   UNL A   1      44.847  25.512  34.114  1.00  0.00     0.064 A 
ATOM     43  C   UNL A   1      44.267  24.265  33.787  1.00  0.00     0.173 A 
ATOM     44  C   UNL A   1      45.429  25.587  35.397  1.00  0.00     0.173 A 
ATOM     45  F   UNL A   1      43.744  24.014  32.582  1.00  0.00    -0.203 F 
ATOM     46  C   UNL A   1      44.294  23.175  34.655  1.00  0.00     0.198 A 
ATOM     47  C   UNL A   1      45.499  24.477  36.244  1.00  0.00     0.198 A 
ATOM     48  F   UNL A   1      46.022  26.716  35.815  1.00  0.00    -0.203 F 
ATOM     49  F   UNL A   1      43.757  22.011  34.264  1.00  0.00    -0.200 F 
ATOM     50  C   UNL A   1      44.940  23.270  35.869  1.00  0.00     0.200 A 
ATOM     51  F   UNL A   1      46.171  24.563  37.400  1.00  0.00    -0.200 F 
ATOM     52  F   UNL A   1      45.060  22.188  36.649  1.00  0.00    -0.200 F 
ENDBRANCH  28  42
BRANCH  29  53
ATOM     53  C   UNL A   1      41.185  23.949  26.582  1.00  0.00     0.064 A 
ATOM     54  C   UNL A   1      39.825  24.304  26.694  1.00  0.00     0.173 A 
ATOM     55  C   UNL A   1      41.454  22.611  26.247  1.00  0.00     0.173 A 
ATOM     56  F   UNL A   1      39.462  25.531  27.090  1.00  0.00    -0.203 F 
ATOM     57  C   UNL A   1      38.801  23.376  26.504  1.00  0.00     0.198 A 
ATOM     58  C   UNL A   1      40.425  21.681  26.065  1.00  0.00     0.198 A 
ATOM     59  F   UNL A   1      42.721  22.180  26.166  1.00  0.00    -0.203 F 
ATOM     60  F   UNL A   1      37.526  23.750  26.680  1.00  0.00    -0.200 F 
ATOM     61  C   UNL A   1      39.101  22.061  26.204  1.00  0.00     0.200 A 
ATOM     62  F   UNL A   1      40.722  20.398  25.814  1.00  0.00    -0.200 F 
ATOM     63  F   UNL A   1      38.118  21.156  26.096  1.00  0.00    -0.200 F 
ENDBRANCH  29  53
BRANCH  41  64
ATOM     64  C   UNL A   1      46.995  26.259  27.679  1.00  0.00     0.064 A 
ATOM     65  C   UNL A   1      46.460  27.481  27.250  1.00  0.00     0.173 A 
ATOM     66  C   UNL A   1      47.930  25.632  26.837  1.00  0.00     0.173 A 
ATOM     67  F   UNL A   1      45.519  28.097  27.984  1.00  0.00    -0.203 F 
ATOM     68  C   UNL A   1      46.835  28.047  26.035  1.00  0.00     0.198 A 
ATOM     69  C   UNL A   1      48.331  26.218  25.637  1.00  0.00     0.198 A 
ATOM     70  F   UNL A   1      48.411  24.418  27.128  1.00  0.00    -0.203 F 
ATOM     71  F   UNL A   1      46.254  29.182  25.621  1.00  0.00    -0.200 F 
ATOM     72  C   UNL A   1      47.773  27.419  25.231  1.00  0.00     0.200 A 
ATOM     73  F   UNL A   1      49.219  25.595  24.849  1.00  0.00    -0.200 F 
ATOM     74  F   UNL A   1      48.114  27.954  24.050  1.00  0.00    -0.200 F 
ENDBRANCH  41  64
ENDBRANCH  15  16
ENDBRANCH   8  10
ENDBRANCH   7   8
ENDBRANCH   6   7
ENDBRANCH   5   6
ENDBRANCH   4   5
ENDBRANCH   3   4
ENDBRANCH   2   3
ENDBRANCH   1   2
BRANCH   1  75
ATOM     75  C   UNL A   1      39.271  30.982  34.922  1.00  0.00     0.202 C 
BRANCH  75  76
ATOM     76  C   UNL A   1      37.857  30.903  34.329  1.00  0.00     0.261 C 
BRANCH  76  77
ATOM     77  O   UNL A   1      37.782  30.734  32.903  1.00  0.00    -0.460 OA
BRANCH  77  78
ATOM     78  C   UNL A   1      37.508  29.483  32.456  1.00  0.00     0.341 C 
ATOM     79  O   UNL A   1      37.354  28.471  33.113  1.00  0.00    -0.246 OA
BRANCH  78  80
ATOM     80  C   UNL A   1      37.283  29.530  31.003  1.00  0.00     0.097 A 
ATOM     81  C   UNL A   1      36.432  30.497  30.453  1.00  0.00     0.040 A 
ATOM     82  C   UNL A   1      37.896  28.598  30.176  1.00  0.00     0.137 A 
ATOM     83  C   UNL A   1      36.265  30.569  29.061  1.00  0.00     0.085 A 
ATOM     84  C   UNL A   1      37.681  28.635  28.796  1.00  0.00     0.041 A 
ATOM     85  F   UNL A   1      38.686  27.645  30.687  1.00  0.00    -0.206 F 
ATOM     86  C   UNL A   1      36.876  29.632  28.227  1.00  0.00     0.025 A 
BRANCH  83  87
ATOM     87  S   UNL A   1      35.253  31.888  28.431  1.00  0.00     0.257 S 
ATOM     88  O   UNL A   1      34.409  32.332  29.512  1.00  0.00    -0.205 OA
ATOM     89  O   UNL A   1      36.143  32.792  27.729  1.00  0.00    -0.205 OA
BRANCH  87  90
ATOM     90  N   UNL A   1      34.239  31.204  27.252  1.00  0.00    -0.123 NA
ATOM     91  H   UNL A   1      34.842  30.702  26.600  1.00  0.00     0.167 HD
BRANCH  90  92
ATOM     92  N   UNL A   1      33.198  30.291  27.646  1.00  0.00    -0.275 N 
ATOM     93  C   UNL A   1      32.670  29.295  26.863  1.00  0.00     0.265 C 
ATOM     94  H   UNL A   1      32.833  30.389  28.555  1.00  0.00     0.186 HD
ATOM     95  O   UNL A   1      31.958  28.449  27.415  1.00  0.00    -0.271 OA
BRANCH  93  96
ATOM     96  C   UNL A   1      33.008  29.234  25.364  1.00  0.00     0.244 C 
ATOM     97  C   UNL A   1      33.928  28.099  25.099  1.00  0.00     0.042 C 
ATOM     98  N   UNL A   1      31.791  28.829  24.600  1.00  0.00    -0.171 NA
ATOM     99  C   UNL A   1      33.211  27.209  24.411  1.00  0.00     0.091 C 
ATOM    100  N   UNL A   1      31.963  27.682  24.093  1.00  0.00    -0.155 NA
BRANCH  99 101
ATOM    101  C   UNL A   1      33.654  25.848  24.099  1.00  0.00     0.002 A 
ATOM    102  C   UNL A   1      33.272  25.219  22.907  1.00  0.00     0.010 A 
ATOM    103  C   UNL A   1      34.448  25.141  25.014  1.00  0.00     0.010 A 
ATOM    104  C   UNL A   1      33.700  23.917  22.628  1.00  0.00     0.001 A 
ATOM    105  C   UNL A   1      34.866  23.837  24.739  1.00  0.00     0.001 A 
ATOM    106  C   UNL A   1      34.496  23.227  23.543  1.00  0.00     0.000 A 
ENDBRANCH  99 101
ENDBRANCH  93  96
ENDBRANCH  90  92
ENDBRANCH  87  90
ENDBRANCH  83  87
ENDBRANCH  78  80
ENDBRANCH  77  78
ENDBRANCH  76  77
ENDBRANCH  75  76
ENDBRANCH   1  75
TORSDOF 22
ENDMDL
MODEL 3
REMARK VINA RESULT:     -10.7      2.363      5.091
REMARK SMILES O=C(OCCOCCOCCOC(=O)c1cc(S(=O)(=O)NNC(=O)[C@H]2C=C(c3ccccc3)N=N2)ccc1F)c1ccc(-c2c3nc(c(-c4c(F)c(F)c(F)c(F)c4F)c4ccc([nH]4)c(-c4c(F)c(F)c(F)c(F)c4F)c4nc(c(-c5c(F)c(F)c(F)c(F)c5F)c5ccc2[nH]5)C=C4)C=C3)cc1
REMARK SMILES IDX 9 1 8 2 7 3 6 4 5 5 4 6 3 7 2 8 1 9 40 10 41 11 102 12 42 13
REMARK SMILES IDX 101 14 43 15 44 16 45 17 95 18 46 19 100 20 94 21 96 22
REMARK SMILES IDX 47 23 99 24 93 25 92 26 48 28 80 29 60 30 79 31 61 32 64 33
REMARK SMILES IDX 78 34 97 35 62 36 63 37 77 39 98 40 65 41 49 42 50 43 58 44
REMARK SMILES IDX 51 45 52 46 56 47 59 48 53 49 54 50 57 51 55 52 81 53 82 54
REMARK SMILES IDX 90 55 83 56 84 57 88 58 91 59 85 60 86 61 89 62 87 63 66 64
REMARK SMILES IDX 67 65 75 66 68 67 69 68 73 69 76 70 70 71 71 72 74 73 72 74
REMARK SMILES IDX 10 75 11 76 12 77 13 78 14 79 15 80 16 81 38 82 17 83 37 84
REMARK SMILES IDX 39 85 36 86 18 87 19 88 20 89 21 90 22 92 23 93 24 95 25 96
REMARK SMILES IDX 26 97 35 98 27 99 34 100 28 101 29 102 33 103 30 104 32 105
REMARK SMILES IDX 31 106
REMARK H PARENT 96 27 64 38 21 91 22 94
REMARK Flexibility Score: inf
ROOT
ATOM      1  O   UNL A   1      45.874  32.006  27.211  1.00  0.00    -0.376 OA
ENDROOT
BRANCH   1   2
ATOM      2  C   UNL A   1      47.216  31.887  27.655  1.00  0.00     0.188 C 
BRANCH   2   3
ATOM      3  C   UNL A   1      48.353  32.709  27.001  1.00  0.00     0.188 C 
BRANCH   3   4
ATOM      4  O   UNL A   1      48.040  33.387  25.809  1.00  0.00    -0.376 OA
BRANCH   4   5
ATOM      5  C   UNL A   1      47.593  34.727  25.788  1.00  0.00     0.202 C 
BRANCH   5   6
ATOM      6  C   UNL A   1      48.079  35.831  26.735  1.00  0.00     0.261 C 
BRANCH   6   7
ATOM      7  O   UNL A   1      47.309  36.062  27.910  1.00  0.00    -0.460 OA
BRANCH   7   8
ATOM      8  C   UNL A   1      46.064  36.558  28.042  1.00  0.00     0.338 C 
ATOM      9  O   UNL A   1      45.846  37.712  27.674  1.00  0.00    -0.246 OA
BRANCH   8  10
ATOM     10  C   UNL A   1      44.972  35.862  28.779  1.00  0.00     0.060 A 
ATOM     11  C   UNL A   1      44.903  35.657  30.158  1.00  0.00     0.016 A 
ATOM     12  C   UNL A   1      43.959  35.322  27.962  1.00  0.00     0.016 A 
ATOM     13  C   UNL A   1      43.974  34.768  30.677  1.00  0.00     0.010 A 
ATOM     14  C   UNL A   1      43.009  34.460  28.479  1.00  0.00     0.010 A 
ATOM     15  C   UNL A   1      43.096  34.107  29.818  1.00  0.00    -0.014 A 
BRANCH  15  16
ATOM     16  C   UNL A   1      42.327  33.004  30.371  1.00  0.00     0.031 A 
ATOM     17  C   UNL A   1      42.813  31.642  30.025  1.00  0.00     0.074 A 
ATOM     18  C   UNL A   1      41.257  33.232  31.159  1.00  0.00     0.049 A 
ATOM     19  N   UNL A   1      42.183  30.695  29.408  1.00  0.00    -0.248 NA
ATOM     20  C   UNL A   1      44.220  31.335  30.320  1.00  0.00     0.031 C 
ATOM     21  C   UNL A   1      40.821  34.496  31.762  1.00  0.00     0.029 A 
ATOM     22  N   UNL A   1      40.362  32.338  31.658  1.00  0.00    -0.354 N 
ATOM     23  C   UNL A   1      43.057  29.609  29.379  1.00  0.00     0.074 A 
ATOM     24  C   UNL A   1      44.330  30.095  29.843  1.00  0.00     0.031 C 
ATOM     25  C   UNL A   1      39.900  34.245  32.719  1.00  0.00     0.029 A 
ATOM     26  C   UNL A   1      39.580  32.829  32.693  1.00  0.00     0.049 A 
ATOM     27  H   UNL A   1      40.276  31.420  31.314  1.00  0.00     0.167 HD
ATOM     28  C   UNL A   1      42.611  28.340  29.168  1.00  0.00     0.037 A 
ATOM     29  C   UNL A   1      38.794  32.095  33.517  1.00  0.00     0.037 A 
ATOM     30  C   UNL A   1      41.358  28.335  28.461  1.00  0.00     0.049 A 
ATOM     31  C   UNL A   1      38.522  30.806  32.831  1.00  0.00     0.074 A 
ATOM     32  C   UNL A   1      40.953  28.777  27.216  1.00  0.00     0.029 A 
ATOM     33  N   UNL A   1      40.200  28.125  29.165  1.00  0.00    -0.354 N 
ATOM     34  N   UNL A   1      37.802  30.694  31.749  1.00  0.00    -0.248 NA
ATOM     35  C   UNL A   1      39.432  29.701  33.095  1.00  0.00     0.031 C 
ATOM     36  C   UNL A   1      39.639  29.290  27.416  1.00  0.00     0.029 A 
ATOM     37  C   UNL A   1      39.304  29.078  28.752  1.00  0.00     0.049 A 
ATOM     38  H   UNL A   1      40.042  27.424  29.839  1.00  0.00     0.167 HD
ATOM     39  C   UNL A   1      38.448  29.729  30.991  1.00  0.00     0.074 A 
ATOM     40  C   UNL A   1      39.401  29.101  31.902  1.00  0.00     0.031 C 
ATOM     41  C   UNL A   1      38.352  29.716  29.630  1.00  0.00     0.037 A 
BRANCH  28  42
ATOM     42  C   UNL A   1      43.141  27.132  29.902  1.00  0.00     0.064 A 
ATOM     43  C   UNL A   1      43.851  26.083  29.275  1.00  0.00     0.173 A 
ATOM     44  C   UNL A   1      43.217  27.153  31.310  1.00  0.00     0.173 A 
ATOM     45  F   UNL A   1      43.937  25.973  27.945  1.00  0.00    -0.203 F 
ATOM     46  C   UNL A   1      44.602  25.154  29.993  1.00  0.00     0.198 A 
ATOM     47  C   UNL A   1      44.012  26.250  32.022  1.00  0.00     0.198 A 
ATOM     48  F   UNL A   1      42.594  28.110  32.015  1.00  0.00    -0.203 F 
ATOM     49  F   UNL A   1      45.282  24.207  29.330  1.00  0.00    -0.200 F 
ATOM     50  C   UNL A   1      44.711  25.257  31.362  1.00  0.00     0.200 A 
ATOM     51  F   UNL A   1      44.152  26.388  33.347  1.00  0.00    -0.200 F 
ATOM     52  F   UNL A   1      45.522  24.430  32.034  1.00  0.00    -0.200 F 
ENDBRANCH  28  42
BRANCH  29  53
ATOM     53  C   UNL A   1      38.628  32.272  34.981  1.00  0.00     0.064 A 
ATOM     54  C   UNL A   1      37.440  32.796  35.530  1.00  0.00     0.173 A 
ATOM     55  C   UNL A   1      39.734  32.200  35.845  1.00  0.00     0.173 A 
ATOM     56  F   UNL A   1      36.353  32.985  34.770  1.00  0.00    -0.203 F 
ATOM     57  C   UNL A   1      37.367  33.238  36.851  1.00  0.00     0.198 A 
ATOM     58  C   UNL A   1      39.662  32.652  37.167  1.00  0.00     0.198 A 
ATOM     59  F   UNL A   1      40.915  31.758  35.389  1.00  0.00    -0.203 F 
ATOM     60  F   UNL A   1      36.231  33.782  37.308  1.00  0.00    -0.200 F 
ATOM     61  C   UNL A   1      38.483  33.180  37.665  1.00  0.00     0.200 A 
ATOM     62  F   UNL A   1      40.756  32.631  37.941  1.00  0.00    -0.200 F 
ATOM     63  F   UNL A   1      38.431  33.675  38.910  1.00  0.00    -0.200 F 
ENDBRANCH  29  53
BRANCH  41  64
ATOM     64  C   UNL A   1      37.357  30.636  28.981  1.00  0.00     0.064 A 
ATOM     65  C   UNL A   1      37.652  32.004  28.923  1.00  0.00     0.173 A 
ATOM     66  C   UNL A   1      36.064  30.237  28.599  1.00  0.00     0.173 A 
ATOM     67  F   UNL A   1      38.851  32.450  29.331  1.00  0.00    -0.203 F 
ATOM     68  C   UNL A   1      36.700  32.931  28.510  1.00  0.00     0.198 A 
ATOM     69  C   UNL A   1      35.124  31.164  28.152  1.00  0.00     0.198 A 
ATOM     70  F   UNL A   1      35.673  28.963  28.722  1.00  0.00    -0.203 F 
ATOM     71  F   UNL A   1      36.993  34.239  28.530  1.00  0.00    -0.200 F 
ATOM     72  C   UNL A   1      35.439  32.511  28.119  1.00  0.00     0.200 A 
ATOM     73  F   UNL A   1      33.895  30.758  27.800  1.00  0.00    -0.200 F 
ATOM     74  F   UNL A   1      34.516  33.409  27.745  1.00  0.00    -0.200 F 
ENDBRANCH  41  64
ENDBRANCH  15  16
ENDBRANCH   8  10
ENDBRANCH   7   8
ENDBRANCH   6   7
ENDBRANCH   5   6
ENDBRANCH   4   5
ENDBRANCH   3   4
ENDBRANCH   2   3
ENDBRANCH   1   2
BRANCH   1  75
ATOM     75  C   UNL A   1      45.275  30.951  26.482  1.00  0.00     0.202 C 
BRANCH  75  76
ATOM     76  C   UNL A   1      45.899  29.549  26.548  1.00  0.00     0.261 C 
BRANCH  76  77
ATOM     77  O   UNL A   1      45.209  28.520  25.816  1.00  0.00    -0.460 OA
BRANCH  77  78
ATOM     78  C   UNL A   1      45.948  27.813  24.926  1.00  0.00     0.341 C 
ATOM     79  O   UNL A   1      46.571  28.233  23.969  1.00  0.00    -0.246 OA
BRANCH  78  80
ATOM     80  C   UNL A   1      46.007  26.408  25.358  1.00  0.00     0.097 A 
ATOM     81  C   UNL A   1      45.001  25.512  24.979  1.00  0.00     0.040 A 
ATOM     82  C   UNL A   1      47.051  25.974  26.165  1.00  0.00     0.137 A 
ATOM     83  C   UNL A   1      45.093  24.161  25.349  1.00  0.00     0.085 A 
ATOM     84  C   UNL A   1      47.109  24.642  26.583  1.00  0.00     0.041 A 
ATOM     85  F   UNL A   1      48.006  26.824  26.566  1.00  0.00    -0.206 F 
ATOM     86  C   UNL A   1      46.138  23.722  26.164  1.00  0.00     0.025 A 
BRANCH  83  87
ATOM     87  S   UNL A   1      43.833  23.063  24.744  1.00  0.00     0.257 S 
ATOM     88  O   UNL A   1      42.563  23.713  24.955  1.00  0.00    -0.205 OA
ATOM     89  O   UNL A   1      44.263  22.627  23.430  1.00  0.00    -0.205 OA
BRANCH  87  90
ATOM     90  N   UNL A   1      43.864  21.687  25.739  1.00  0.00    -0.123 NA
ATOM     91  H   UNL A   1      42.950  21.629  26.188  1.00  0.00     0.167 HD
BRANCH  90  92
ATOM     92  N   UNL A   1      44.130  20.394  25.164  1.00  0.00    -0.275 N 
ATOM     93  C   UNL A   1      43.431  19.243  25.428  1.00  0.00     0.265 C 
ATOM     94  H   UNL A   1      44.879  20.330  24.527  1.00  0.00     0.186 HD
ATOM     95  O   UNL A   1      43.624  18.273  24.686  1.00  0.00    -0.271 OA
BRANCH  93  96
ATOM     96  C   UNL A   1      42.417  19.207  26.583  1.00  0.00     0.244 C 
ATOM     97  C   UNL A   1      42.274  20.561  27.175  1.00  0.00     0.042 C 
ATOM     98  N   UNL A   1      41.050  18.965  26.032  1.00  0.00    -0.171 NA
ATOM     99  C   UNL A   1      41.049  20.971  26.841  1.00  0.00     0.091 C 
ATOM    100  N   UNL A   1      40.331  19.993  26.201  1.00  0.00    -0.155 NA
BRANCH  99 101
ATOM    101  C   UNL A   1      40.543  22.329  27.047  1.00  0.00     0.002 A 
ATOM    102  C   UNL A   1      39.372  22.768  26.418  1.00  0.00     0.010 A 
ATOM    103  C   UNL A   1      41.251  23.227  27.862  1.00  0.00     0.010 A 
ATOM    104  C   UNL A   1      38.906  24.071  26.622  1.00  0.00     0.001 A 
ATOM    105  C   UNL A   1      40.791  24.530  28.056  1.00  0.00     0.001 A 
ATOM    106  C   UNL A   1      39.615  24.951  27.440  1.00  0.00     0.000 A 
ENDBRANCH  99 101
ENDBRANCH  93  96
ENDBRANCH  90  92
ENDBRANCH  87  90
ENDBRANCH  83  87
ENDBRANCH  78  80
ENDBRANCH  77  78
ENDBRANCH  76  77
ENDBRANCH  75  76
ENDBRANCH   1  75
TORSDOF 22
ENDMDL
