MODEL 1
REMARK VINA RESULT:     -11.8      0.000      0.000
REMARK SMILES O=C(OCCOCCOCCOC(=O)[C@@H]1[C@H](C(=O)NCc2ccccc2Cl)[C@@H]2C=C[C@H]1C2)c1ccc(-c2c3nc(c(-c4c(F)c(F)c(F)c(F)c4F)c4ccc([nH]4)c(-c4c(F)c(F)c(F)c(F)c4F)c4nc(c(-c5c(F)c(F)c(F)c(F)c5F)c5ccc2[nH]5)C=C4)C=C3)cc1
REMARK SMILES IDX 8 1 7 2 6 3 5 4 4 5 3 6 2 7 1 8 33 9 34 10 95 11 35 12 94 13
REMARK SMILES IDX 36 14 37 15 38 16 88 17 39 18 93 19 87 20 89 21 40 22 92 23
REMARK SMILES IDX 86 24 85 25 41 27 73 28 53 29 72 30 54 31 57 32 71 33 90 34
REMARK SMILES IDX 55 35 56 36 70 38 91 39 58 40 42 41 43 42 51 43 44 44 45 45
REMARK SMILES IDX 49 46 52 47 46 48 47 49 50 50 48 51 74 52 75 53 83 54 76 55
REMARK SMILES IDX 77 56 81 57 84 58 78 59 79 60 82 61 80 62 59 63 60 64 68 65
REMARK SMILES IDX 61 66 62 67 66 68 69 69 63 70 64 71 67 72 65 73 9 74 10 75
REMARK SMILES IDX 11 76 12 77 13 78 14 79 15 80 16 81 31 82 28 83 30 84 32 85
REMARK SMILES IDX 29 86 17 87 18 88 19 89 20 91 21 92 22 93 26 94 23 95 25 96
REMARK SMILES IDX 27 97 24 98
REMARK H PARENT 89 26 57 37 19 90
REMARK Flexibility Score: inf
ROOT
ATOM      1  C   UNL A   1      40.008  21.708  26.126  1.00  0.00     0.188 C 
ENDROOT
BRANCH   1   2
ATOM      2  C   UNL A   1      40.644  21.466  27.484  1.00  0.00     0.188 C 
BRANCH   2   3
ATOM      3  O   UNL A   1      42.062  21.345  27.380  1.00  0.00    -0.376 OA
BRANCH   3   4
ATOM      4  C   UNL A   1      42.538  21.015  26.075  1.00  0.00     0.202 C 
BRANCH   4   5
ATOM      5  C   UNL A   1      43.587  21.971  25.509  1.00  0.00     0.261 C 
BRANCH   5   6
ATOM      6  O   UNL A   1      43.073  23.217  25.006  1.00  0.00    -0.460 OA
BRANCH   6   7
ATOM      7  C   UNL A   1      43.432  24.500  25.239  1.00  0.00     0.338 C 
ATOM      8  O   UNL A   1      44.401  24.946  24.623  1.00  0.00    -0.246 OA
BRANCH   7   9
ATOM      9  C   UNL A   1      42.755  25.424  26.199  1.00  0.00     0.060 A 
ATOM     10  C   UNL A   1      43.087  26.759  26.407  1.00  0.00     0.016 A 
ATOM     11  C   UNL A   1      41.651  24.912  26.908  1.00  0.00     0.016 A 
ATOM     12  C   UNL A   1      42.395  27.559  27.295  1.00  0.00     0.010 A 
ATOM     13  C   UNL A   1      40.954  25.699  27.832  1.00  0.00     0.010 A 
ATOM     14  C   UNL A   1      41.360  27.017  28.046  1.00  0.00    -0.014 A 
BRANCH  14  15
ATOM     15  C   UNL A   1      40.950  27.798  29.221  1.00  0.00     0.031 A 
ATOM     16  C   UNL A   1      41.863  27.767  30.403  1.00  0.00     0.074 A 
ATOM     17  C   UNL A   1      39.947  28.684  29.115  1.00  0.00     0.049 A 
ATOM     18  N   UNL A   1      41.748  28.370  31.551  1.00  0.00    -0.248 NA
ATOM     19  C   UNL A   1      43.094  26.966  30.261  1.00  0.00     0.031 C 
ATOM     20  C   UNL A   1      39.154  28.894  27.906  1.00  0.00     0.029 A 
ATOM     21  N   UNL A   1      39.463  29.606  29.998  1.00  0.00    -0.354 N 
ATOM     22  C   UNL A   1      42.863  27.985  32.282  1.00  0.00     0.074 A 
ATOM     23  C   UNL A   1      43.655  27.116  31.447  1.00  0.00     0.031 C 
ATOM     24  C   UNL A   1      38.305  29.911  28.114  1.00  0.00     0.029 A 
ATOM     25  C   UNL A   1      38.425  30.351  29.494  1.00  0.00     0.049 A 
ATOM     26  H   UNL A   1      39.823  29.725  30.907  1.00  0.00     0.167 HD
ATOM     27  C   UNL A   1      43.164  28.321  33.555  1.00  0.00     0.037 A 
ATOM     28  C   UNL A   1      37.633  31.247  30.108  1.00  0.00     0.037 A 
ATOM     29  C   UNL A   1      42.328  29.184  34.342  1.00  0.00     0.049 A 
ATOM     30  C   UNL A   1      37.915  31.510  31.561  1.00  0.00     0.074 A 
ATOM     31  C   UNL A   1      42.441  29.527  35.673  1.00  0.00     0.029 A 
ATOM     32  N   UNL A   1      41.205  29.839  33.846  1.00  0.00    -0.354 N 
ATOM     33  N   UNL A   1      38.897  31.053  32.303  1.00  0.00    -0.248 NA
ATOM     34  C   UNL A   1      36.977  32.383  32.272  1.00  0.00     0.031 C 
ATOM     35  C   UNL A   1      41.351  30.344  35.997  1.00  0.00     0.029 A 
ATOM     36  C   UNL A   1      40.599  30.569  34.851  1.00  0.00     0.049 A 
ATOM     37  H   UNL A   1      40.888  29.791  32.916  1.00  0.00     0.167 HD
ATOM     38  C   UNL A   1      38.706  31.586  33.566  1.00  0.00     0.074 A 
ATOM     39  C   UNL A   1      37.525  32.427  33.479  1.00  0.00     0.031 C 
ATOM     40  C   UNL A   1      39.425  31.395  34.701  1.00  0.00     0.037 A 
BRANCH  27  41
ATOM     41  C   UNL A   1      44.354  27.646  34.169  1.00  0.00     0.064 A 
ATOM     42  C   UNL A   1      45.640  28.207  34.135  1.00  0.00     0.173 A 
ATOM     43  C   UNL A   1      44.211  26.369  34.733  1.00  0.00     0.173 A 
ATOM     44  F   UNL A   1      45.840  29.405  33.565  1.00  0.00    -0.203 F 
ATOM     45  C   UNL A   1      46.742  27.499  34.613  1.00  0.00     0.198 A 
ATOM     46  C   UNL A   1      45.310  25.678  35.238  1.00  0.00     0.198 A 
ATOM     47  F   UNL A   1      43.009  25.777  34.770  1.00  0.00    -0.203 F 
ATOM     48  F   UNL A   1      47.972  28.022  34.502  1.00  0.00    -0.200 F 
ATOM     49  C   UNL A   1      46.576  26.239  35.167  1.00  0.00     0.200 A 
ATOM     50  F   UNL A   1      45.146  24.459  35.769  1.00  0.00    -0.200 F 
ATOM     51  F   UNL A   1      47.638  25.555  35.614  1.00  0.00    -0.200 F 
ENDBRANCH  27  41
BRANCH  28  52
ATOM     52  C   UNL A   1      36.481  31.867  29.392  1.00  0.00     0.064 A 
ATOM     53  C   UNL A   1      35.375  31.111  28.982  1.00  0.00     0.173 A 
ATOM     54  C   UNL A   1      36.469  33.240  29.087  1.00  0.00     0.173 A 
ATOM     55  F   UNL A   1      35.336  29.793  29.230  1.00  0.00    -0.203 F 
ATOM     56  C   UNL A   1      34.318  31.695  28.281  1.00  0.00     0.198 A 
ATOM     57  C   UNL A   1      35.396  33.830  28.421  1.00  0.00     0.198 A 
ATOM     58  F   UNL A   1      37.499  34.020  29.450  1.00  0.00    -0.203 F 
ATOM     59  F   UNL A   1      33.300  30.935  27.855  1.00  0.00    -0.200 F 
ATOM     60  C   UNL A   1      34.327  33.054  28.006  1.00  0.00     0.200 A 
ATOM     61  F   UNL A   1      35.404  35.148  28.178  1.00  0.00    -0.200 F 
ATOM     62  F   UNL A   1      33.311  33.613  27.335  1.00  0.00    -0.200 F 
ENDBRANCH  28  52
BRANCH  40  63
ATOM     63  C   UNL A   1      38.968  32.146  35.912  1.00  0.00     0.064 A 
ATOM     64  C   UNL A   1      38.155  31.550  36.884  1.00  0.00     0.173 A 
ATOM     65  C   UNL A   1      39.395  33.466  36.118  1.00  0.00     0.173 A 
ATOM     66  F   UNL A   1      37.710  30.295  36.718  1.00  0.00    -0.203 F 
ATOM     67  C   UNL A   1      37.759  32.262  38.012  1.00  0.00     0.198 A 
ATOM     68  C   UNL A   1      39.030  34.161  37.264  1.00  0.00     0.198 A 
ATOM     69  F   UNL A   1      40.181  34.072  35.215  1.00  0.00    -0.203 F 
ATOM     70  F   UNL A   1      36.936  31.695  38.904  1.00  0.00    -0.200 F 
ATOM     71  C   UNL A   1      38.205  33.562  38.205  1.00  0.00     0.200 A 
ATOM     72  F   UNL A   1      39.476  35.409  37.458  1.00  0.00    -0.200 F 
ATOM     73  F   UNL A   1      37.834  34.242  39.298  1.00  0.00    -0.200 F 
ENDBRANCH  40  63
ENDBRANCH  14  15
ENDBRANCH   7   9
ENDBRANCH   6   7
ENDBRANCH   5   6
ENDBRANCH   4   5
ENDBRANCH   3   4
ENDBRANCH   2   3
ENDBRANCH   1   2
BRANCH   1  74
ATOM     74  O   UNL A   1      38.639  22.100  26.124  1.00  0.00    -0.376 OA
BRANCH  74  75
ATOM     75  C   UNL A   1      37.743  21.487  25.210  1.00  0.00     0.202 C 
BRANCH  75  76
ATOM     76  C   UNL A   1      36.504  22.197  24.591  1.00  0.00     0.261 C 
BRANCH  76  77
ATOM     77  O   UNL A   1      36.187  23.573  24.867  1.00  0.00    -0.463 OA
BRANCH  77  78
ATOM     78  C   UNL A   1      35.233  23.688  25.820  1.00  0.00     0.310 C 
ATOM     79  O   UNL A   1      35.275  23.060  26.852  1.00  0.00    -0.252 OA
BRANCH  78  80
ATOM     80  C   UNL A   1      34.213  24.755  25.582  1.00  0.00     0.119 C 
ATOM     81  C   UNL A   1      32.739  24.344  25.927  1.00  0.00     0.100 C 
ATOM     82  C   UNL A   1      34.066  25.351  24.164  1.00  0.00     0.027 C 
ATOM     83  C   UNL A   1      31.938  24.868  24.708  1.00  0.00     0.025 C 
ATOM     84  C   UNL A   1      33.548  24.358  23.154  1.00  0.00    -0.027 C 
ATOM     85  C   UNL A   1      32.748  26.131  24.353  1.00  0.00     0.017 C 
ATOM     86  C   UNL A   1      32.270  24.089  23.467  1.00  0.00    -0.027 C 
BRANCH  81  87
ATOM     87  C   UNL A   1      32.350  22.961  26.507  1.00  0.00     0.224 C 
ATOM     88  O   UNL A   1      31.808  22.954  27.625  1.00  0.00    -0.275 OA
ATOM     89  N   UNL A   1      32.507  21.735  25.935  1.00  0.00    -0.352 N 
ATOM     90  H   UNL A   1      32.203  20.995  26.508  1.00  0.00     0.163 HD
BRANCH  89  91
ATOM     91  C   UNL A   1      33.033  21.291  24.653  1.00  0.00     0.153 C 
BRANCH  91  92
ATOM     92  C   UNL A   1      32.931  19.823  24.259  1.00  0.00    -0.010 A 
ATOM     93  C   UNL A   1      33.429  18.771  25.046  1.00  0.00     0.007 A 
ATOM     94  C   UNL A   1      32.446  19.493  22.974  1.00  0.00     0.046 A 
ATOM     95  C   UNL A   1      33.499  17.463  24.544  1.00  0.00     0.000 A 
ATOM     96  C   UNL A   1      32.527  18.188  22.472  1.00  0.00     0.021 A 
ATOM     97  Cl  UNL A   1      31.779  20.696  21.919  1.00  0.00    -0.084 Cl
ATOM     98  C   UNL A   1      33.073  17.175  23.250  1.00  0.00     0.002 A 
ENDBRANCH  91  92
ENDBRANCH  89  91
ENDBRANCH  81  87
ENDBRANCH  78  80
ENDBRANCH  77  78
ENDBRANCH  76  77
ENDBRANCH  75  76
ENDBRANCH  74  75
ENDBRANCH   1  74
TORSDOF 20
ENDMDL
MODEL 2
REMARK VINA RESULT:     -11.5      0.738      7.176
REMARK SMILES O=C(OCCOCCOCCOC(=O)[C@@H]1[C@H](C(=O)NCc2ccccc2Cl)[C@@H]2C=C[C@H]1C2)c1ccc(-c2c3nc(c(-c4c(F)c(F)c(F)c(F)c4F)c4ccc([nH]4)c(-c4c(F)c(F)c(F)c(F)c4F)c4nc(c(-c5c(F)c(F)c(F)c(F)c5F)c5ccc2[nH]5)C=C4)C=C3)cc1
REMARK SMILES IDX 8 1 7 2 6 3 5 4 4 5 3 6 2 7 1 8 33 9 34 10 95 11 35 12 94 13
REMARK SMILES IDX 36 14 37 15 38 16 88 17 39 18 93 19 87 20 89 21 40 22 92 23
REMARK SMILES IDX 86 24 85 25 41 27 73 28 53 29 72 30 54 31 57 32 71 33 90 34
REMARK SMILES IDX 55 35 56 36 70 38 91 39 58 40 42 41 43 42 51 43 44 44 45 45
REMARK SMILES IDX 49 46 52 47 46 48 47 49 50 50 48 51 74 52 75 53 83 54 76 55
REMARK SMILES IDX 77 56 81 57 84 58 78 59 79 60 82 61 80 62 59 63 60 64 68 65
REMARK SMILES IDX 61 66 62 67 66 68 69 69 63 70 64 71 67 72 65 73 9 74 10 75
REMARK SMILES IDX 11 76 12 77 13 78 14 79 15 80 16 81 31 82 28 83 30 84 32 85
REMARK SMILES IDX 29 86 17 87 18 88 19 89 20 91 21 92 22 93 26 94 23 95 25 96
REMARK SMILES IDX 27 97 24 98
REMARK H PARENT 89 26 57 37 19 90
REMARK Flexibility Score: inf
ROOT
ATOM      1  C   UNL A   1      40.593  21.679  26.908  1.00  0.00     0.188 C 
ENDROOT
BRANCH   1   2
ATOM      2  C   UNL A   1      42.110  21.624  26.852  1.00  0.00     0.188 C 
BRANCH   2   3
ATOM      3  O   UNL A   1      42.572  21.317  25.538  1.00  0.00    -0.376 OA
BRANCH   3   4
ATOM      4  C   UNL A   1      43.963  21.556  25.324  1.00  0.00     0.202 C 
BRANCH   4   5
ATOM      5  C   UNL A   1      44.282  22.623  24.278  1.00  0.00     0.261 C 
BRANCH   5   6
ATOM      6  O   UNL A   1      43.724  23.924  24.539  1.00  0.00    -0.460 OA
BRANCH   6   7
ATOM      7  C   UNL A   1      44.245  25.026  25.125  1.00  0.00     0.338 C 
ATOM      8  O   UNL A   1      45.387  25.359  24.809  1.00  0.00    -0.246 OA
BRANCH   7   9
ATOM      9  C   UNL A   1      43.548  25.872  26.142  1.00  0.00     0.060 A 
ATOM     10  C   UNL A   1      43.741  27.238  26.327  1.00  0.00     0.016 A 
ATOM     11  C   UNL A   1      42.573  25.241  26.939  1.00  0.00     0.016 A 
ATOM     12  C   UNL A   1      43.039  27.958  27.273  1.00  0.00     0.010 A 
ATOM     13  C   UNL A   1      41.871  25.948  27.920  1.00  0.00     0.010 A 
ATOM     14  C   UNL A   1      42.139  27.306  28.105  1.00  0.00    -0.014 A 
BRANCH  14  15
ATOM     15  C   UNL A   1      41.742  28.041  29.313  1.00  0.00     0.031 A 
ATOM     16  C   UNL A   1      40.451  28.791  29.253  1.00  0.00     0.074 A 
ATOM     17  C   UNL A   1      42.385  27.818  30.470  1.00  0.00     0.049 A 
ATOM     18  N   UNL A   1      39.866  29.503  30.172  1.00  0.00    -0.248 NA
ATOM     19  C   UNL A   1      39.699  28.702  27.987  1.00  0.00     0.031 C 
ATOM     20  C   UNL A   1      43.534  26.927  30.618  1.00  0.00     0.029 A 
ATOM     21  N   UNL A   1      42.139  28.262  31.738  1.00  0.00    -0.354 N 
ATOM     22  C   UNL A   1      38.706  29.985  29.582  1.00  0.00     0.074 A 
ATOM     23  C   UNL A   1      38.653  29.469  28.236  1.00  0.00     0.031 C 
ATOM     24  C   UNL A   1      43.871  26.863  31.915  1.00  0.00     0.029 A 
ATOM     25  C   UNL A   1      43.030  27.782  32.666  1.00  0.00     0.049 A 
ATOM     26  H   UNL A   1      41.396  28.868  31.964  1.00  0.00     0.167 HD
ATOM     27  C   UNL A   1      37.789  30.811  30.131  1.00  0.00     0.037 A 
ATOM     28  C   UNL A   1      43.174  28.099  33.964  1.00  0.00     0.037 A 
ATOM     29  C   UNL A   1      37.902  31.300  31.477  1.00  0.00     0.049 A 
ATOM     30  C   UNL A   1      42.214  29.115  34.519  1.00  0.00     0.074 A 
ATOM     31  C   UNL A   1      37.118  32.225  32.134  1.00  0.00     0.029 A 
ATOM     32  N   UNL A   1      38.888  30.892  32.371  1.00  0.00    -0.354 N 
ATOM     33  N   UNL A   1      41.182  29.676  33.931  1.00  0.00    -0.248 NA
ATOM     34  C   UNL A   1      42.444  29.566  35.894  1.00  0.00     0.031 C 
ATOM     35  C   UNL A   1      37.664  32.419  33.409  1.00  0.00     0.029 A 
ATOM     36  C   UNL A   1      38.747  31.563  33.571  1.00  0.00     0.049 A 
ATOM     37  H   UNL A   1      39.583  30.224  32.178  1.00  0.00     0.167 HD
ATOM     38  C   UNL A   1      40.632  30.539  34.863  1.00  0.00     0.074 A 
ATOM     39  C   UNL A   1      41.431  30.403  36.067  1.00  0.00     0.031 C 
ATOM     40  C   UNL A   1      39.573  31.379  34.740  1.00  0.00     0.037 A 
BRANCH  27  41
ATOM     41  C   UNL A   1      36.701  31.308  29.229  1.00  0.00     0.064 A 
ATOM     42  C   UNL A   1      36.647  32.635  28.773  1.00  0.00     0.173 A 
ATOM     43  C   UNL A   1      35.644  30.453  28.880  1.00  0.00     0.173 A 
ATOM     44  F   UNL A   1      37.606  33.507  29.116  1.00  0.00    -0.203 F 
ATOM     45  C   UNL A   1      35.559  33.093  28.030  1.00  0.00     0.198 A 
ATOM     46  C   UNL A   1      34.575  30.906  28.111  1.00  0.00     0.198 A 
ATOM     47  F   UNL A   1      35.634  29.183  29.308  1.00  0.00    -0.203 F 
ATOM     48  F   UNL A   1      35.491  34.382  27.669  1.00  0.00    -0.200 F 
ATOM     49  C   UNL A   1      34.528  32.228  27.696  1.00  0.00     0.200 A 
ATOM     50  F   UNL A   1      33.578  30.068  27.794  1.00  0.00    -0.200 F 
ATOM     51  F   UNL A   1      33.477  32.673  26.993  1.00  0.00    -0.200 F 
ENDBRANCH  27  41
BRANCH  28  52
ATOM     52  C   UNL A   1      44.291  27.531  34.773  1.00  0.00     0.064 A 
ATOM     53  C   UNL A   1      44.136  26.355  35.518  1.00  0.00     0.173 A 
ATOM     54  C   UNL A   1      45.544  28.166  34.828  1.00  0.00     0.173 A 
ATOM     55  F   UNL A   1      42.960  25.711  35.518  1.00  0.00    -0.203 F 
ATOM     56  C   UNL A   1      45.178  25.851  36.300  1.00  0.00     0.198 A 
ATOM     57  C   UNL A   1      46.595  27.643  35.578  1.00  0.00     0.198 A 
ATOM     58  F   UNL A   1      45.757  29.298  34.138  1.00  0.00    -0.203 F 
ATOM     59  F   UNL A   1      44.983  24.754  37.044  1.00  0.00    -0.200 F 
ATOM     60  C   UNL A   1      46.408  26.491  36.325  1.00  0.00     0.200 A 
ATOM     61  F   UNL A   1      47.786  28.258  35.579  1.00  0.00    -0.200 F 
ATOM     62  F   UNL A   1      47.406  26.006  37.074  1.00  0.00    -0.200 F 
ENDBRANCH  28  52
BRANCH  40  63
ATOM     63  C   UNL A   1      39.207  32.171  35.956  1.00  0.00     0.064 A 
ATOM     64  C   UNL A   1      39.691  33.470  36.161  1.00  0.00     0.173 A 
ATOM     65  C   UNL A   1      38.323  31.632  36.901  1.00  0.00     0.173 A 
ATOM     66  F   UNL A   1      40.553  34.017  35.290  1.00  0.00    -0.203 F 
ATOM     67  C   UNL A   1      39.321  34.194  37.289  1.00  0.00     0.198 A 
ATOM     68  C   UNL A   1      37.925  32.373  38.007  1.00  0.00     0.198 A 
ATOM     69  F   UNL A   1      37.831  30.394  36.739  1.00  0.00    -0.203 F 
ATOM     70  F   UNL A   1      39.837  35.413  37.498  1.00  0.00    -0.200 F 
ATOM     71  C   UNL A   1      38.432  33.649  38.205  1.00  0.00     0.200 A 
ATOM     72  F   UNL A   1      37.053  31.853  38.880  1.00  0.00    -0.200 F 
ATOM     73  F   UNL A   1      38.067  34.353  39.285  1.00  0.00    -0.200 F 
ENDBRANCH  40  63
ENDBRANCH  14  15
ENDBRANCH   7   9
ENDBRANCH   6   7
ENDBRANCH   5   6
ENDBRANCH   4   5
ENDBRANCH   3   4
ENDBRANCH   2   3
ENDBRANCH   1   2
BRANCH   1  74
ATOM     74  O   UNL A   1      39.896  21.213  25.758  1.00  0.00    -0.376 OA
BRANCH  74  75
ATOM     75  C   UNL A   1      38.480  21.304  25.721  1.00  0.00     0.202 C 
BRANCH  75  76
ATOM     76  C   UNL A   1      37.689  22.645  25.719  1.00  0.00     0.261 C 
BRANCH  76  77
ATOM     77  O   UNL A   1      36.429  22.795  25.041  1.00  0.00    -0.463 OA
BRANCH  77  78
ATOM     78  C   UNL A   1      35.397  22.892  25.911  1.00  0.00     0.310 C 
ATOM     79  O   UNL A   1      35.162  22.033  26.729  1.00  0.00    -0.252 OA
BRANCH  78  80
ATOM     80  C   UNL A   1      34.668  24.197  25.900  1.00  0.00     0.119 C 
ATOM     81  C   UNL A   1      33.173  24.118  26.368  1.00  0.00     0.100 C 
ATOM     82  C   UNL A   1      34.558  24.985  24.575  1.00  0.00     0.027 C 
ATOM     83  C   UNL A   1      32.432  24.973  25.307  1.00  0.00     0.025 C 
ATOM     84  C   UNL A   1      33.719  24.284  23.536  1.00  0.00    -0.027 C 
ATOM     85  C   UNL A   1      33.505  26.033  24.991  1.00  0.00     0.017 C 
ATOM     86  C   UNL A   1      32.446  24.299  23.964  1.00  0.00    -0.027 C 
BRANCH  81  87
ATOM     87  C   UNL A   1      32.493  22.811  26.846  1.00  0.00     0.224 C 
ATOM     88  O   UNL A   1      32.124  22.772  28.032  1.00  0.00    -0.275 OA
ATOM     89  N   UNL A   1      32.226  21.689  26.122  1.00  0.00    -0.352 N 
ATOM     90  H   UNL A   1      31.805  20.974  26.652  1.00  0.00     0.163 HD
BRANCH  89  91
ATOM     91  C   UNL A   1      32.433  21.327  24.728  1.00  0.00     0.153 C 
BRANCH  91  92
ATOM     92  C   UNL A   1      32.491  19.859  24.326  1.00  0.00    -0.010 A 
ATOM     93  C   UNL A   1      32.874  18.829  25.200  1.00  0.00     0.007 A 
ATOM     94  C   UNL A   1      32.292  19.513  22.971  1.00  0.00     0.046 A 
ATOM     95  C   UNL A   1      33.114  17.530  24.728  1.00  0.00     0.000 A 
ATOM     96  C   UNL A   1      32.543  18.219  22.499  1.00  0.00     0.021 A 
ATOM     97  Cl  UNL A   1      31.790  20.687  21.799  1.00  0.00    -0.084 Cl
ATOM     98  C   UNL A   1      32.973  17.229  23.375  1.00  0.00     0.002 A 
ENDBRANCH  91  92
ENDBRANCH  89  91
ENDBRANCH  81  87
ENDBRANCH  78  80
ENDBRANCH  77  78
ENDBRANCH  76  77
ENDBRANCH  75  76
ENDBRANCH  74  75
ENDBRANCH   1  74
TORSDOF 20
ENDMDL
MODEL 3
REMARK VINA RESULT:     -11.5      1.594      7.847
REMARK SMILES O=C(OCCOCCOCCOC(=O)[C@@H]1[C@H](C(=O)NCc2ccccc2Cl)[C@@H]2C=C[C@H]1C2)c1ccc(-c2c3nc(c(-c4c(F)c(F)c(F)c(F)c4F)c4ccc([nH]4)c(-c4c(F)c(F)c(F)c(F)c4F)c4nc(c(-c5c(F)c(F)c(F)c(F)c5F)c5ccc2[nH]5)C=C4)C=C3)cc1
REMARK SMILES IDX 8 1 7 2 6 3 5 4 4 5 3 6 2 7 1 8 33 9 34 10 95 11 35 12 94 13
REMARK SMILES IDX 36 14 37 15 38 16 88 17 39 18 93 19 87 20 89 21 40 22 92 23
REMARK SMILES IDX 86 24 85 25 41 27 73 28 53 29 72 30 54 31 57 32 71 33 90 34
REMARK SMILES IDX 55 35 56 36 70 38 91 39 58 40 42 41 43 42 51 43 44 44 45 45
REMARK SMILES IDX 49 46 52 47 46 48 47 49 50 50 48 51 74 52 75 53 83 54 76 55
REMARK SMILES IDX 77 56 81 57 84 58 78 59 79 60 82 61 80 62 59 63 60 64 68 65
REMARK SMILES IDX 61 66 62 67 66 68 69 69 63 70 64 71 67 72 65 73 9 74 10 75
REMARK SMILES IDX 11 76 12 77 13 78 14 79 15 80 16 81 31 82 28 83 30 84 32 85
REMARK SMILES IDX 29 86 17 87 18 88 19 89 20 91 21 92 22 93 26 94 23 95 25 96
REMARK SMILES IDX 27 97 24 98
REMARK H PARENT 89 26 57 37 19 90
REMARK Flexibility Score: inf
ROOT
ATOM      1  C   UNL A   1      41.225  21.933  26.134  1.00  0.00     0.188 C 
ENDROOT
BRANCH   1   2
ATOM      2  C   UNL A   1      42.384  20.951  26.117  1.00  0.00     0.188 C 
BRANCH   2   3
ATOM      3  O   UNL A   1      43.639  21.626  26.182  1.00  0.00    -0.376 OA
BRANCH   3   4
ATOM      4  C   UNL A   1      44.446  21.497  25.010  1.00  0.00     0.202 C 
BRANCH   4   5
ATOM      5  C   UNL A   1      44.483  22.733  24.112  1.00  0.00     0.261 C 
BRANCH   5   6
ATOM      6  O   UNL A   1      43.816  23.894  24.639  1.00  0.00    -0.460 OA
BRANCH   6   7
ATOM      7  C   UNL A   1      44.291  25.059  25.133  1.00  0.00     0.338 C 
ATOM      8  O   UNL A   1      45.385  25.453  24.725  1.00  0.00    -0.246 OA
BRANCH   7   9
ATOM      9  C   UNL A   1      43.602  25.910  26.151  1.00  0.00     0.060 A 
ATOM     10  C   UNL A   1      43.870  27.253  26.399  1.00  0.00     0.016 A 
ATOM     11  C   UNL A   1      42.552  25.313  26.877  1.00  0.00     0.016 A 
ATOM     12  C   UNL A   1      43.170  27.981  27.341  1.00  0.00     0.010 A 
ATOM     13  C   UNL A   1      41.850  26.027  27.854  1.00  0.00     0.010 A 
ATOM     14  C   UNL A   1      42.193  27.356  28.104  1.00  0.00    -0.014 A 
BRANCH  14  15
ATOM     15  C   UNL A   1      41.785  28.070  29.322  1.00  0.00     0.031 A 
ATOM     16  C   UNL A   1      40.494  28.819  29.265  1.00  0.00     0.074 A 
ATOM     17  C   UNL A   1      42.420  27.828  30.480  1.00  0.00     0.049 A 
ATOM     18  N   UNL A   1      39.901  29.514  30.192  1.00  0.00    -0.248 NA
ATOM     19  C   UNL A   1      39.751  28.751  27.993  1.00  0.00     0.031 C 
ATOM     20  C   UNL A   1      43.570  26.937  30.621  1.00  0.00     0.029 A 
ATOM     21  N   UNL A   1      42.165  28.250  31.753  1.00  0.00    -0.354 N 
ATOM     22  C   UNL A   1      38.745  30.004  29.602  1.00  0.00     0.074 A 
ATOM     23  C   UNL A   1      38.702  29.512  28.247  1.00  0.00     0.031 C 
ATOM     24  C   UNL A   1      43.897  26.852  31.919  1.00  0.00     0.029 A 
ATOM     25  C   UNL A   1      43.049  27.755  32.679  1.00  0.00     0.049 A 
ATOM     26  H   UNL A   1      41.419  28.851  31.984  1.00  0.00     0.167 HD
ATOM     27  C   UNL A   1      37.822  30.818  30.159  1.00  0.00     0.037 A 
ATOM     28  C   UNL A   1      43.183  28.050  33.984  1.00  0.00     0.037 A 
ATOM     29  C   UNL A   1      37.924  31.285  31.513  1.00  0.00     0.049 A 
ATOM     30  C   UNL A   1      42.217  29.055  34.549  1.00  0.00     0.074 A 
ATOM     31  C   UNL A   1      37.133  32.197  32.180  1.00  0.00     0.029 A 
ATOM     32  N   UNL A   1      38.904  30.863  32.407  1.00  0.00    -0.354 N 
ATOM     33  N   UNL A   1      41.189  29.624  33.963  1.00  0.00    -0.248 NA
ATOM     34  C   UNL A   1      42.436  29.482  35.933  1.00  0.00     0.031 C 
ATOM     35  C   UNL A   1      37.669  32.370  33.462  1.00  0.00     0.029 A 
ATOM     36  C   UNL A   1      38.752  31.513  33.618  1.00  0.00     0.049 A 
ATOM     37  H   UNL A   1      39.602  30.199  32.208  1.00  0.00     0.167 HD
ATOM     38  C   UNL A   1      40.630  30.471  34.905  1.00  0.00     0.074 A 
ATOM     39  C   UNL A   1      41.420  30.315  36.113  1.00  0.00     0.031 C 
ATOM     40  C   UNL A   1      39.570  31.310  34.789  1.00  0.00     0.037 A 
BRANCH  27  41
ATOM     41  C   UNL A   1      36.739  31.330  29.256  1.00  0.00     0.064 A 
ATOM     42  C   UNL A   1      36.695  32.660  28.810  1.00  0.00     0.173 A 
ATOM     43  C   UNL A   1      35.678  30.484  28.899  1.00  0.00     0.173 A 
ATOM     44  F   UNL A   1      37.660  33.523  29.161  1.00  0.00    -0.203 F 
ATOM     45  C   UNL A   1      35.613  33.130  28.067  1.00  0.00     0.198 A 
ATOM     46  C   UNL A   1      34.613  30.950  28.131  1.00  0.00     0.198 A 
ATOM     47  F   UNL A   1      35.658  29.211  29.319  1.00  0.00    -0.203 F 
ATOM     48  F   UNL A   1      35.555  34.422  27.715  1.00  0.00    -0.200 F 
ATOM     49  C   UNL A   1      34.576  32.275  27.725  1.00  0.00     0.200 A 
ATOM     50  F   UNL A   1      33.611  30.121  27.806  1.00  0.00    -0.200 F 
ATOM     51  F   UNL A   1      33.531  32.732  27.023  1.00  0.00    -0.200 F 
ENDBRANCH  27  41
BRANCH  28  52
ATOM     52  C   UNL A   1      44.295  27.470  34.791  1.00  0.00     0.064 A 
ATOM     53  C   UNL A   1      45.536  28.110  34.900  1.00  0.00     0.173 A 
ATOM     54  C   UNL A   1      44.143  26.244  35.463  1.00  0.00     0.173 A 
ATOM     55  F   UNL A   1      45.748  29.275  34.269  1.00  0.00    -0.203 F 
ATOM     56  C   UNL A   1      46.583  27.541  35.629  1.00  0.00     0.198 A 
ATOM     57  C   UNL A   1      45.174  25.695  36.221  1.00  0.00     0.198 A 
ATOM     58  F   UNL A   1      42.979  25.579  35.396  1.00  0.00    -0.203 F 
ATOM     59  F   UNL A   1      47.775  28.150  35.672  1.00  0.00    -0.200 F 
ATOM     60  C   UNL A   1      46.399  26.337  36.293  1.00  0.00     0.200 A 
ATOM     61  F   UNL A   1      44.981  24.542  36.876  1.00  0.00    -0.200 F 
ATOM     62  F   UNL A   1      47.404  25.792  36.993  1.00  0.00    -0.200 F 
ENDBRANCH  28  52
BRANCH  40  63
ATOM     63  C   UNL A   1      39.194  32.081  36.016  1.00  0.00     0.064 A 
ATOM     64  C   UNL A   1      39.671  33.378  36.246  1.00  0.00     0.173 A 
ATOM     65  C   UNL A   1      38.306  31.523  36.947  1.00  0.00     0.173 A 
ATOM     66  F   UNL A   1      40.536  33.942  35.389  1.00  0.00    -0.203 F 
ATOM     67  C   UNL A   1      39.292  34.082  37.384  1.00  0.00     0.198 A 
ATOM     68  C   UNL A   1      37.899  32.244  38.062  1.00  0.00     0.198 A 
ATOM     69  F   UNL A   1      37.820  30.286  36.761  1.00  0.00    -0.203 F 
ATOM     70  F   UNL A   1      39.802  35.299  37.616  1.00  0.00    -0.200 F 
ATOM     71  C   UNL A   1      38.400  33.518  38.285  1.00  0.00     0.200 A 
ATOM     72  F   UNL A   1      37.024  31.706  38.921  1.00  0.00    -0.200 F 
ATOM     73  F   UNL A   1      38.026  34.203  39.374  1.00  0.00    -0.200 F 
ENDBRANCH  40  63
ENDBRANCH  14  15
ENDBRANCH   7   9
ENDBRANCH   6   7
ENDBRANCH   5   6
ENDBRANCH   4   5
ENDBRANCH   3   4
ENDBRANCH   2   3
ENDBRANCH   1   2
BRANCH   1  74
ATOM     74  O   UNL A   1      39.917  21.373  26.169  1.00  0.00    -0.376 OA
BRANCH  74  75
ATOM     75  C   UNL A   1      38.793  22.228  26.024  1.00  0.00     0.202 C 
BRANCH  75  76
ATOM     76  C   UNL A   1      37.557  21.905  25.134  1.00  0.00     0.261 C 
BRANCH  76  77
ATOM     77  O   UNL A   1      36.326  22.643  25.229  1.00  0.00    -0.463 OA
BRANCH  77  78
ATOM     78  C   UNL A   1      35.680  22.699  24.041  1.00  0.00     0.310 C 
ATOM     79  O   UNL A   1      36.178  23.199  23.060  1.00  0.00    -0.252 OA
BRANCH  78  80
ATOM     80  C   UNL A   1      34.379  21.964  23.983  1.00  0.00     0.119 C 
ATOM     81  C   UNL A   1      33.236  22.711  23.211  1.00  0.00     0.100 C 
ATOM     82  C   UNL A   1      33.681  21.566  25.303  1.00  0.00     0.027 C 
ATOM     83  C   UNL A   1      32.012  22.534  24.146  1.00  0.00     0.025 C 
ATOM     84  C   UNL A   1      33.198  22.753  26.098  1.00  0.00    -0.027 C 
ATOM     85  C   UNL A   1      32.306  21.144  24.744  1.00  0.00     0.017 C 
ATOM     86  C   UNL A   1      32.186  23.315  25.418  1.00  0.00    -0.027 C 
BRANCH  81  87
ATOM     87  C   UNL A   1      33.426  24.085  22.521  1.00  0.00     0.224 C 
ATOM     88  O   UNL A   1      33.231  24.129  21.294  1.00  0.00    -0.275 OA
ATOM     89  N   UNL A   1      33.764  25.274  23.093  1.00  0.00    -0.352 N 
ATOM     90  H   UNL A   1      33.848  26.009  22.445  1.00  0.00     0.163 HD
BRANCH  89  91
ATOM     91  C   UNL A   1      34.028  25.683  24.465  1.00  0.00     0.153 C 
BRANCH  91  92
ATOM     92  C   UNL A   1      33.256  26.847  25.071  1.00  0.00    -0.010 A 
ATOM     93  C   UNL A   1      32.480  26.742  26.237  1.00  0.00     0.007 A 
ATOM     94  C   UNL A   1      33.187  28.065  24.359  1.00  0.00     0.046 A 
ATOM     95  C   UNL A   1      31.624  27.780  26.634  1.00  0.00     0.000 A 
ATOM     96  C   UNL A   1      32.324  29.096  24.751  1.00  0.00     0.021 A 
ATOM     97  Cl  UNL A   1      34.118  28.330  22.922  1.00  0.00    -0.084 Cl
ATOM     98  C   UNL A   1      31.526  28.947  25.879  1.00  0.00     0.002 A 
ENDBRANCH  91  92
ENDBRANCH  89  91
ENDBRANCH  81  87
ENDBRANCH  78  80
ENDBRANCH  77  78
ENDBRANCH  76  77
ENDBRANCH  75  76
ENDBRANCH  74  75
ENDBRANCH   1  74
TORSDOF 20
ENDMDL
