MODEL 1
REMARK VINA RESULT:     -11.4      0.000      0.000
REMARK SMILES O=C(OCCOCCOCCOC(=O)c1ccc(-c2ccc(F)c(C(F)(F)F)c2)cc1[N+](=O)[O-])c1ccc(-c2c3nc(c(-c4c(F)c(F)c(F)c(F)c4F)c4ccc([nH]4)c(-c4c(F)c(F)c(F)c(F)c4F)c4nc(c(-c5c(F)c(F)c(F)c(F)c5F)c5ccc2[nH]5)C=C4)C=C3)cc1
REMARK SMILES IDX 7 1 6 2 5 3 4 4 3 5 2 6 1 7 35 8 36 9 97 10 37 11 96 12
REMARK SMILES IDX 38 13 39 14 40 15 90 16 41 17 95 18 89 19 91 20 42 21 94 22
REMARK SMILES IDX 88 23 87 24 43 26 75 27 55 28 74 29 56 30 59 31 73 32 92 33
REMARK SMILES IDX 57 34 58 35 72 37 93 38 60 39 44 40 45 41 53 42 46 43 47 44
REMARK SMILES IDX 51 45 54 46 48 47 49 48 52 49 50 50 76 51 77 52 85 53 78 54
REMARK SMILES IDX 79 55 83 56 86 57 80 58 81 59 84 60 82 61 61 62 62 63 70 64
REMARK SMILES IDX 63 65 64 66 68 67 71 68 65 69 66 70 69 71 67 72 8 73 9 74
REMARK SMILES IDX 10 75 11 76 12 77 13 78 14 79 15 80 16 81 31 82 17 83 30 84
REMARK SMILES IDX 18 85 32 86 33 87 34 88 19 89 20 90 29 91 21 92 24 93 22 94
REMARK SMILES IDX 23 95 25 96 26 97 27 98 28 99
REMARK H PARENT 91 25 59 36
REMARK Flexibility Score: inf
ROOT
ATOM      1  C   UNL A   1      30.171  29.831  23.852  1.00  0.00     0.188 C 
ENDROOT
BRANCH   1   2
ATOM      2  O   UNL A   1      31.515  29.704  24.339  1.00  0.00    -0.376 OA
BRANCH   2   3
ATOM      3  C   UNL A   1      31.599  29.062  25.617  1.00  0.00     0.202 C 
BRANCH   3   4
ATOM      4  C   UNL A   1      31.833  30.031  26.780  1.00  0.00     0.261 C 
BRANCH   4   5
ATOM      5  O   UNL A   1      32.825  31.018  26.459  1.00  0.00    -0.460 OA
BRANCH   5   6
ATOM      6  C   UNL A   1      33.606  31.725  27.312  1.00  0.00     0.338 C 
ATOM      7  O   UNL A   1      33.225  32.840  27.668  1.00  0.00    -0.246 OA
BRANCH   6   8
ATOM      8  C   UNL A   1      34.880  31.211  27.911  1.00  0.00     0.060 A 
ATOM      9  C   UNL A   1      35.116  29.906  28.353  1.00  0.00     0.016 A 
ATOM     10  C   UNL A   1      35.939  32.132  27.999  1.00  0.00     0.016 A 
ATOM     11  C   UNL A   1      36.307  29.560  28.991  1.00  0.00     0.010 A 
ATOM     12  C   UNL A   1      37.158  31.779  28.587  1.00  0.00     0.010 A 
ATOM     13  C   UNL A   1      37.323  30.503  29.137  1.00  0.00    -0.014 A 
BRANCH  13  14
ATOM     14  C   UNL A   1      38.483  30.212  30.003  1.00  0.00     0.031 A 
ATOM     15  C   UNL A   1      39.572  29.337  29.461  1.00  0.00     0.074 A 
ATOM     16  C   UNL A   1      38.599  30.767  31.221  1.00  0.00     0.049 A 
ATOM     17  N   UNL A   1      40.618  28.842  30.065  1.00  0.00    -0.248 NA
ATOM     18  C   UNL A   1      39.475  28.991  28.033  1.00  0.00     0.031 C 
ATOM     19  C   UNL A   1      37.680  31.750  31.784  1.00  0.00     0.029 A 
ATOM     20  N   UNL A   1      39.537  30.581  32.202  1.00  0.00    -0.354 N 
ATOM     21  C   UNL A   1      41.300  28.122  29.095  1.00  0.00     0.074 A 
ATOM     22  C   UNL A   1      40.538  28.219  27.871  1.00  0.00     0.031 C 
ATOM     23  C   UNL A   1      38.083  32.059  33.028  1.00  0.00     0.029 A 
ATOM     24  C   UNL A   1      39.250  31.253  33.363  1.00  0.00     0.049 A 
ATOM     25  H   UNL A   1      40.338  30.020  32.086  1.00  0.00     0.167 HD
ATOM     26  C   UNL A   1      42.466  27.446  29.219  1.00  0.00     0.037 A 
ATOM     27  C   UNL A   1      39.834  31.190  34.574  1.00  0.00     0.037 A 
ATOM     28  C   UNL A   1      43.204  27.354  30.448  1.00  0.00     0.049 A 
ATOM     29  C   UNL A   1      41.036  30.307  34.741  1.00  0.00     0.074 A 
ATOM     30  C   UNL A   1      44.370  26.658  30.710  1.00  0.00     0.029 A 
ATOM     31  N   UNL A   1      42.837  27.984  31.629  1.00  0.00    -0.354 N 
ATOM     32  N   UNL A   1      41.645  29.573  33.839  1.00  0.00    -0.248 NA
ATOM     33  C   UNL A   1      41.633  30.239  36.079  1.00  0.00     0.031 C 
ATOM     34  C   UNL A   1      44.687  26.839  32.061  1.00  0.00     0.029 A 
ATOM     35  C   UNL A   1      43.742  27.680  32.630  1.00  0.00     0.049 A 
ATOM     36  H   UNL A   1      42.048  28.564  31.738  1.00  0.00     0.167 HD
ATOM     37  C   UNL A   1      42.721  28.987  34.488  1.00  0.00     0.074 A 
ATOM     38  C   UNL A   1      42.671  29.439  35.866  1.00  0.00     0.031 C 
ATOM     39  C   UNL A   1      43.670  28.162  33.987  1.00  0.00     0.037 A 
BRANCH  26  40
ATOM     40  C   UNL A   1      42.956  26.722  28.003  1.00  0.00     0.064 A 
ATOM     41  C   UNL A   1      42.773  25.340  27.843  1.00  0.00     0.173 A 
ATOM     42  C   UNL A   1      43.673  27.410  27.013  1.00  0.00     0.173 A 
ATOM     43  F   UNL A   1      42.122  24.632  28.778  1.00  0.00    -0.203 F 
ATOM     44  C   UNL A   1      43.323  24.667  26.754  1.00  0.00     0.198 A 
ATOM     45  C   UNL A   1      44.200  26.738  25.914  1.00  0.00     0.198 A 
ATOM     46  F   UNL A   1      43.884  28.729  27.125  1.00  0.00    -0.203 F 
ATOM     47  F   UNL A   1      43.195  23.336  26.657  1.00  0.00    -0.200 F 
ATOM     48  C   UNL A   1      44.036  25.366  25.791  1.00  0.00     0.200 A 
ATOM     49  F   UNL A   1      44.890  27.415  24.985  1.00  0.00    -0.200 F 
ATOM     50  F   UNL A   1      44.581  24.715  24.756  1.00  0.00    -0.200 F 
ENDBRANCH  26  40
BRANCH  27  51
ATOM     51  C   UNL A   1      39.250  31.945  35.713  1.00  0.00     0.064 A 
ATOM     52  C   UNL A   1      38.364  31.348  36.616  1.00  0.00     0.173 A 
ATOM     53  C   UNL A   1      39.608  33.282  35.941  1.00  0.00     0.173 A 
ATOM     54  F   UNL A   1      37.976  30.078  36.431  1.00  0.00    -0.203 F 
ATOM     55  C   UNL A   1      37.860  32.059  37.705  1.00  0.00     0.198 A 
ATOM     56  C   UNL A   1      39.130  33.983  37.046  1.00  0.00     0.198 A 
ATOM     57  F   UNL A   1      40.448  33.900  35.099  1.00  0.00    -0.203 F 
ATOM     58  F   UNL A   1      36.994  31.471  38.543  1.00  0.00    -0.200 F 
ATOM     59  C   UNL A   1      38.250  33.372  37.925  1.00  0.00     0.200 A 
ATOM     60  F   UNL A   1      39.536  35.240  37.264  1.00  0.00    -0.200 F 
ATOM     61  F   UNL A   1      37.780  34.049  38.980  1.00  0.00    -0.200 F 
ENDBRANCH  27  51
BRANCH  39  62
ATOM     62  C   UNL A   1      44.766  27.742  34.916  1.00  0.00     0.064 A 
ATOM     63  C   UNL A   1      44.683  26.559  35.660  1.00  0.00     0.173 A 
ATOM     64  C   UNL A   1      45.939  28.506  35.008  1.00  0.00     0.173 A 
ATOM     65  F   UNL A   1      43.572  25.807  35.614  1.00  0.00    -0.203 F 
ATOM     66  C   UNL A   1      45.738  26.157  36.475  1.00  0.00     0.198 A 
ATOM     67  C   UNL A   1      46.998  28.091  35.806  1.00  0.00     0.198 A 
ATOM     68  F   UNL A   1      46.059  29.645  34.309  1.00  0.00    -0.203 F 
ATOM     69  F   UNL A   1      45.633  25.035  37.199  1.00  0.00    -0.200 F 
ATOM     70  C   UNL A   1      46.898  26.918  36.540  1.00  0.00     0.200 A 
ATOM     71  F   UNL A   1      48.120  28.822  35.860  1.00  0.00    -0.200 F 
ATOM     72  F   UNL A   1      47.917  26.523  37.314  1.00  0.00    -0.200 F 
ENDBRANCH  39  62
ENDBRANCH  13  14
ENDBRANCH   6   8
ENDBRANCH   5   6
ENDBRANCH   4   5
ENDBRANCH   3   4
ENDBRANCH   2   3
ENDBRANCH   1   2
BRANCH   1  73
ATOM     73  C   UNL A   1      30.086  29.460  22.369  1.00  0.00     0.188 C 
BRANCH  73  74
ATOM     74  O   UNL A   1      30.298  28.078  22.086  1.00  0.00    -0.376 OA
BRANCH  74  75
ATOM     75  C   UNL A   1      29.813  27.140  23.046  1.00  0.00     0.202 C 
BRANCH  75  76
ATOM     76  C   UNL A   1      30.730  25.947  23.329  1.00  0.00     0.261 C 
BRANCH  76  77
ATOM     77  O   UNL A   1      30.239  25.071  24.362  1.00  0.00    -0.459 OA
BRANCH  77  78
ATOM     78  C   UNL A   1      30.653  25.387  25.604  1.00  0.00     0.345 C 
ATOM     79  O   UNL A   1      30.081  26.084  26.442  1.00  0.00    -0.246 OA
BRANCH  78  80
ATOM     80  C   UNL A   1      31.987  24.854  25.891  1.00  0.00     0.137 A 
ATOM     81  C   UNL A   1      33.123  25.638  25.656  1.00  0.00     0.023 A 
ATOM     82  C   UNL A   1      32.143  23.493  26.153  1.00  0.00     0.284 A 
ATOM     83  C   UNL A   1      34.397  25.047  25.662  1.00  0.00     0.010 A 
ATOM     84  C   UNL A   1      33.412  22.896  26.117  1.00  0.00     0.095 A 
ATOM     85  C   UNL A   1      34.560  23.666  25.867  1.00  0.00    -0.011 A 
BRANCH  82  86
ATOM     86  N   UNL A   1      31.005  22.673  26.555  1.00  0.00     0.063 N 
ATOM     87  O   UNL A   1      30.451  22.960  27.626  1.00  0.00    -0.258 OA
ATOM     88  O   UNL A   1      30.599  21.822  25.753  1.00  0.00    -0.258 OA
ENDBRANCH  82  86
BRANCH  85  89
ATOM     89  C   UNL A   1      35.886  23.025  25.846  1.00  0.00    -0.017 A 
ATOM     90  C   UNL A   1      36.087  21.789  25.211  1.00  0.00     0.012 A 
ATOM     91  C   UNL A   1      37.003  23.665  26.418  1.00  0.00     0.025 A 
ATOM     92  C   UNL A   1      37.360  21.219  25.140  1.00  0.00     0.040 A 
ATOM     93  C   UNL A   1      38.289  23.100  26.349  1.00  0.00     0.092 A 
ATOM     94  C   UNL A   1      38.446  21.879  25.705  1.00  0.00     0.135 A 
ATOM     95  F   UNL A   1      39.661  21.323  25.611  1.00  0.00    -0.206 F 
BRANCH  93  96
ATOM     96  C   UNL A   1      39.490  23.781  26.933  1.00  0.00     0.419 C 
ATOM     97  F   UNL A   1      39.200  24.998  27.469  1.00  0.00    -0.166 F 
ATOM     98  F   UNL A   1      40.086  23.060  27.922  1.00  0.00    -0.166 F 
ATOM     99  F   UNL A   1      40.468  24.016  26.010  1.00  0.00    -0.166 F 
ENDBRANCH  93  96
ENDBRANCH  85  89
ENDBRANCH  78  80
ENDBRANCH  77  78
ENDBRANCH  76  77
ENDBRANCH  75  76
ENDBRANCH  74  75
ENDBRANCH  73  74
ENDBRANCH   1  73
TORSDOF 20
ENDMDL
MODEL 2
REMARK VINA RESULT:     -11.2      4.447      9.457
REMARK SMILES O=C(OCCOCCOCCOC(=O)c1ccc(-c2ccc(F)c(C(F)(F)F)c2)cc1[N+](=O)[O-])c1ccc(-c2c3nc(c(-c4c(F)c(F)c(F)c(F)c4F)c4ccc([nH]4)c(-c4c(F)c(F)c(F)c(F)c4F)c4nc(c(-c5c(F)c(F)c(F)c(F)c5F)c5ccc2[nH]5)C=C4)C=C3)cc1
REMARK SMILES IDX 7 1 6 2 5 3 4 4 3 5 2 6 1 7 35 8 36 9 97 10 37 11 96 12
REMARK SMILES IDX 38 13 39 14 40 15 90 16 41 17 95 18 89 19 91 20 42 21 94 22
REMARK SMILES IDX 88 23 87 24 43 26 75 27 55 28 74 29 56 30 59 31 73 32 92 33
REMARK SMILES IDX 57 34 58 35 72 37 93 38 60 39 44 40 45 41 53 42 46 43 47 44
REMARK SMILES IDX 51 45 54 46 48 47 49 48 52 49 50 50 76 51 77 52 85 53 78 54
REMARK SMILES IDX 79 55 83 56 86 57 80 58 81 59 84 60 82 61 61 62 62 63 70 64
REMARK SMILES IDX 63 65 64 66 68 67 71 68 65 69 66 70 69 71 67 72 8 73 9 74
REMARK SMILES IDX 10 75 11 76 12 77 13 78 14 79 15 80 16 81 31 82 17 83 30 84
REMARK SMILES IDX 18 85 32 86 33 87 34 88 19 89 20 90 29 91 21 92 24 93 22 94
REMARK SMILES IDX 23 95 25 96 26 97 27 98 28 99
REMARK H PARENT 91 25 59 36
REMARK Flexibility Score: inf
ROOT
ATOM      1  C   UNL A   1      33.972  24.259  26.181  1.00  0.00     0.188 C 
ENDROOT
BRANCH   1   2
ATOM      2  O   UNL A   1      34.794  23.138  26.542  1.00  0.00    -0.376 OA
BRANCH   2   3
ATOM      3  C   UNL A   1      35.743  22.779  25.531  1.00  0.00     0.202 C 
BRANCH   3   4
ATOM      4  C   UNL A   1      36.434  21.435  25.782  1.00  0.00     0.261 C 
BRANCH   4   5
ATOM      5  O   UNL A   1      37.777  21.424  25.276  1.00  0.00    -0.460 OA
BRANCH   5   6
ATOM      6  C   UNL A   1      38.932  21.585  25.968  1.00  0.00     0.338 C 
ATOM      7  O   UNL A   1      39.671  20.611  26.109  1.00  0.00    -0.246 OA
BRANCH   6   8
ATOM      8  C   UNL A   1      39.408  22.894  26.519  1.00  0.00     0.060 A 
ATOM      9  C   UNL A   1      38.956  24.161  26.141  1.00  0.00     0.016 A 
ATOM     10  C   UNL A   1      40.377  22.823  27.536  1.00  0.00     0.016 A 
ATOM     11  C   UNL A   1      39.542  25.322  26.647  1.00  0.00     0.010 A 
ATOM     12  C   UNL A   1      40.932  23.980  28.089  1.00  0.00     0.010 A 
ATOM     13  C   UNL A   1      40.553  25.237  27.601  1.00  0.00    -0.014 A 
BRANCH  13  14
ATOM     14  C   UNL A   1      41.328  26.440  27.969  1.00  0.00     0.031 A 
ATOM     15  C   UNL A   1      40.637  27.519  28.744  1.00  0.00     0.074 A 
ATOM     16  C   UNL A   1      42.635  26.542  27.676  1.00  0.00     0.049 A 
ATOM     17  N   UNL A   1      41.062  28.710  29.071  1.00  0.00    -0.248 NA
ATOM     18  C   UNL A   1      39.286  27.201  29.235  1.00  0.00     0.031 C 
ATOM     19  C   UNL A   1      43.441  25.491  27.065  1.00  0.00     0.029 A 
ATOM     20  N   UNL A   1      43.512  27.579  27.854  1.00  0.00    -0.354 N 
ATOM     21  C   UNL A   1      40.031  29.284  29.800  1.00  0.00     0.074 A 
ATOM     22  C   UNL A   1      38.949  28.327  29.844  1.00  0.00     0.031 C 
ATOM     23  C   UNL A   1      44.692  25.949  26.888  1.00  0.00     0.029 A 
ATOM     24  C   UNL A   1      44.753  27.339  27.321  1.00  0.00     0.049 A 
ATOM     25  H   UNL A   1      43.275  28.415  28.318  1.00  0.00     0.167 HD
ATOM     26  C   UNL A   1      39.999  30.503  30.386  1.00  0.00     0.037 A 
ATOM     27  C   UNL A   1      45.806  28.163  27.158  1.00  0.00     0.037 A 
ATOM     28  C   UNL A   1      41.082  31.445  30.323  1.00  0.00     0.049 A 
ATOM     29  C   UNL A   1      45.697  29.569  27.670  1.00  0.00     0.074 A 
ATOM     30  C   UNL A   1      41.148  32.728  30.833  1.00  0.00     0.029 A 
ATOM     31  N   UNL A   1      42.298  31.195  29.701  1.00  0.00    -0.354 N 
ATOM     32  N   UNL A   1      44.697  30.135  28.303  1.00  0.00    -0.248 NA
ATOM     33  C   UNL A   1      46.851  30.449  27.453  1.00  0.00     0.031 C 
ATOM     34  C   UNL A   1      42.393  33.267  30.487  1.00  0.00     0.029 A 
ATOM     35  C   UNL A   1      43.117  32.306  29.797  1.00  0.00     0.049 A 
ATOM     36  H   UNL A   1      42.543  30.351  29.258  1.00  0.00     0.167 HD
ATOM     37  C   UNL A   1      45.113  31.425  28.596  1.00  0.00     0.074 A 
ATOM     38  C   UNL A   1      46.452  31.562  28.057  1.00  0.00     0.031 C 
ATOM     39  C   UNL A   1      44.452  32.402  29.263  1.00  0.00     0.037 A 
BRANCH  26  40
ATOM     40  C   UNL A   1      38.728  30.880  31.084  1.00  0.00     0.064 A 
ATOM     41  C   UNL A   1      37.628  31.400  30.385  1.00  0.00     0.173 A 
ATOM     42  C   UNL A   1      38.633  30.778  32.479  1.00  0.00     0.173 A 
ATOM     43  F   UNL A   1      37.683  31.549  29.053  1.00  0.00    -0.203 F 
ATOM     44  C   UNL A   1      36.492  31.839  31.063  1.00  0.00     0.198 A 
ATOM     45  C   UNL A   1      37.487  31.194  33.151  1.00  0.00     0.198 A 
ATOM     46  F   UNL A   1      39.661  30.297  33.194  1.00  0.00    -0.203 F 
ATOM     47  F   UNL A   1      35.481  32.396  30.382  1.00  0.00    -0.200 F 
ATOM     48  C   UNL A   1      36.423  31.735  32.444  1.00  0.00     0.200 A 
ATOM     49  F   UNL A   1      37.421  31.095  34.486  1.00  0.00    -0.200 F 
ATOM     50  F   UNL A   1      35.339  32.176  33.096  1.00  0.00    -0.200 F 
ENDBRANCH  26  40
BRANCH  27  51
ATOM     51  C   UNL A   1      47.012  27.681  26.436  1.00  0.00     0.064 A 
ATOM     52  C   UNL A   1      48.121  27.168  27.116  1.00  0.00     0.173 A 
ATOM     53  C   UNL A   1      47.055  27.689  25.034  1.00  0.00     0.173 A 
ATOM     54  F   UNL A   1      48.137  27.156  28.456  1.00  0.00    -0.203 F 
ATOM     55  C   UNL A   1      49.227  26.678  26.421  1.00  0.00     0.198 A 
ATOM     56  C   UNL A   1      48.145  27.172  24.338  1.00  0.00     0.198 A 
ATOM     57  F   UNL A   1      46.020  28.178  24.338  1.00  0.00    -0.203 F 
ATOM     58  F   UNL A   1      50.288  26.213  27.096  1.00  0.00    -0.200 F 
ATOM     59  C   UNL A   1      49.235  26.672  25.033  1.00  0.00     0.200 A 
ATOM     60  F   UNL A   1      48.129  27.145  22.999  1.00  0.00    -0.200 F 
ATOM     61  F   UNL A   1      50.289  26.186  24.365  1.00  0.00    -0.200 F 
ENDBRANCH  27  51
BRANCH  39  62
ATOM     62  C   UNL A   1      45.189  33.683  29.498  1.00  0.00     0.064 A 
ATOM     63  C   UNL A   1      45.096  34.757  28.606  1.00  0.00     0.173 A 
ATOM     64  C   UNL A   1      45.945  33.852  30.668  1.00  0.00     0.173 A 
ATOM     65  F   UNL A   1      44.396  34.631  27.467  1.00  0.00    -0.203 F 
ATOM     66  C   UNL A   1      45.742  35.960  28.872  1.00  0.00     0.198 A 
ATOM     67  C   UNL A   1      46.572  35.062  30.941  1.00  0.00     0.198 A 
ATOM     68  F   UNL A   1      46.057  32.848  31.551  1.00  0.00    -0.203 F 
ATOM     69  F   UNL A   1      45.663  36.971  27.996  1.00  0.00    -0.200 F 
ATOM     70  C   UNL A   1      46.472  36.115  30.043  1.00  0.00     0.200 A 
ATOM     71  F   UNL A   1      47.268  35.212  32.076  1.00  0.00    -0.200 F 
ATOM     72  F   UNL A   1      47.083  37.278  30.305  1.00  0.00    -0.200 F 
ENDBRANCH  39  62
ENDBRANCH  13  14
ENDBRANCH   6   8
ENDBRANCH   5   6
ENDBRANCH   4   5
ENDBRANCH   3   4
ENDBRANCH   2   3
ENDBRANCH   1   2
BRANCH   1  73
ATOM     73  C   UNL A   1      34.779  25.302  25.402  1.00  0.00     0.188 C 
BRANCH  73  74
ATOM     74  O   UNL A   1      34.002  26.360  24.841  1.00  0.00    -0.376 OA
BRANCH  74  75
ATOM     75  C   UNL A   1      33.020  26.959  25.686  1.00  0.00     0.202 C 
BRANCH  75  76
ATOM     76  C   UNL A   1      31.867  27.663  24.967  1.00  0.00     0.261 C 
BRANCH  76  77
ATOM     77  O   UNL A   1      32.074  27.814  23.549  1.00  0.00    -0.459 OA
BRANCH  77  78
ATOM     78  C   UNL A   1      31.159  27.191  22.783  1.00  0.00     0.345 C 
ATOM     79  O   UNL A   1      30.268  27.697  22.100  1.00  0.00    -0.246 OA
BRANCH  78  80
ATOM     80  C   UNL A   1      31.260  25.733  22.881  1.00  0.00     0.137 A 
ATOM     81  C   UNL A   1      30.436  25.029  23.767  1.00  0.00     0.023 A 
ATOM     82  C   UNL A   1      32.338  25.076  22.288  1.00  0.00     0.284 A 
ATOM     83  C   UNL A   1      30.713  23.686  24.067  1.00  0.00     0.010 A 
ATOM     84  C   UNL A   1      32.640  23.747  22.621  1.00  0.00     0.095 A 
ATOM     85  C   UNL A   1      31.833  23.032  23.521  1.00  0.00    -0.011 A 
BRANCH  82  86
ATOM     86  N   UNL A   1      33.127  25.723  21.245  1.00  0.00     0.063 N 
ATOM     87  O   UNL A   1      34.096  26.405  21.609  1.00  0.00    -0.258 OA
ATOM     88  O   UNL A   1      32.847  25.461  20.068  1.00  0.00    -0.258 OA
ENDBRANCH  82  86
BRANCH  85  89
ATOM     89  C   UNL A   1      32.157  21.634  23.850  1.00  0.00    -0.017 A 
ATOM     90  C   UNL A   1      32.373  21.230  25.177  1.00  0.00     0.012 A 
ATOM     91  C   UNL A   1      32.205  20.651  22.842  1.00  0.00     0.025 A 
ATOM     92  C   UNL A   1      32.616  19.890  25.487  1.00  0.00     0.040 A 
ATOM     93  C   UNL A   1      32.446  19.299  23.145  1.00  0.00     0.092 A 
ATOM     94  C   UNL A   1      32.649  18.939  24.472  1.00  0.00     0.135 A 
ATOM     95  F   UNL A   1      32.867  17.658  24.792  1.00  0.00    -0.206 F 
BRANCH  93  96
ATOM     96  C   UNL A   1      32.478  18.238  22.085  1.00  0.00     0.419 C 
ATOM     97  F   UNL A   1      31.460  17.343  22.204  1.00  0.00    -0.166 F 
ATOM     98  F   UNL A   1      32.399  18.741  20.823  1.00  0.00    -0.166 F 
ATOM     99  F   UNL A   1      33.621  17.493  22.114  1.00  0.00    -0.166 F 
ENDBRANCH  93  96
ENDBRANCH  85  89
ENDBRANCH  78  80
ENDBRANCH  77  78
ENDBRANCH  76  77
ENDBRANCH  75  76
ENDBRANCH  74  75
ENDBRANCH  73  74
ENDBRANCH   1  73
TORSDOF 20
ENDMDL
MODEL 3
REMARK VINA RESULT:     -11.2      3.032      7.514
REMARK SMILES O=C(OCCOCCOCCOC(=O)c1ccc(-c2ccc(F)c(C(F)(F)F)c2)cc1[N+](=O)[O-])c1ccc(-c2c3nc(c(-c4c(F)c(F)c(F)c(F)c4F)c4ccc([nH]4)c(-c4c(F)c(F)c(F)c(F)c4F)c4nc(c(-c5c(F)c(F)c(F)c(F)c5F)c5ccc2[nH]5)C=C4)C=C3)cc1
REMARK SMILES IDX 7 1 6 2 5 3 4 4 3 5 2 6 1 7 35 8 36 9 97 10 37 11 96 12
REMARK SMILES IDX 38 13 39 14 40 15 90 16 41 17 95 18 89 19 91 20 42 21 94 22
REMARK SMILES IDX 88 23 87 24 43 26 75 27 55 28 74 29 56 30 59 31 73 32 92 33
REMARK SMILES IDX 57 34 58 35 72 37 93 38 60 39 44 40 45 41 53 42 46 43 47 44
REMARK SMILES IDX 51 45 54 46 48 47 49 48 52 49 50 50 76 51 77 52 85 53 78 54
REMARK SMILES IDX 79 55 83 56 86 57 80 58 81 59 84 60 82 61 61 62 62 63 70 64
REMARK SMILES IDX 63 65 64 66 68 67 71 68 65 69 66 70 69 71 67 72 8 73 9 74
REMARK SMILES IDX 10 75 11 76 12 77 13 78 14 79 15 80 16 81 31 82 17 83 30 84
REMARK SMILES IDX 18 85 32 86 33 87 34 88 19 89 20 90 29 91 21 92 24 93 22 94
REMARK SMILES IDX 23 95 25 96 26 97 27 98 28 99
REMARK H PARENT 91 25 59 36
REMARK Flexibility Score: inf
ROOT
ATOM      1  C   UNL A   1      30.312  29.829  24.000  1.00  0.00     0.188 C 
ENDROOT
BRANCH   1   2
ATOM      2  O   UNL A   1      31.658  29.718  24.488  1.00  0.00    -0.376 OA
BRANCH   2   3
ATOM      3  C   UNL A   1      31.733  29.337  25.867  1.00  0.00     0.202 C 
BRANCH   3   4
ATOM      4  C   UNL A   1      32.287  30.435  26.781  1.00  0.00     0.261 C 
BRANCH   4   5
ATOM      5  O   UNL A   1      33.720  30.394  26.854  1.00  0.00    -0.460 OA
BRANCH   5   6
ATOM      6  C   UNL A   1      34.516  30.806  27.872  1.00  0.00     0.338 C 
ATOM      7  O   UNL A   1      34.121  31.723  28.591  1.00  0.00    -0.246 OA
BRANCH   6   8
ATOM      8  C   UNL A   1      35.826  30.170  28.226  1.00  0.00     0.060 A 
ATOM      9  C   UNL A   1      36.174  29.638  29.471  1.00  0.00     0.016 A 
ATOM     10  C   UNL A   1      36.771  30.078  27.189  1.00  0.00     0.016 A 
ATOM     11  C   UNL A   1      37.461  29.161  29.722  1.00  0.00     0.010 A 
ATOM     12  C   UNL A   1      38.046  29.551  27.417  1.00  0.00     0.010 A 
ATOM     13  C   UNL A   1      38.411  29.142  28.704  1.00  0.00    -0.014 A 
BRANCH  13  14
ATOM     14  C   UNL A   1      39.827  28.856  29.018  1.00  0.00     0.031 A 
ATOM     15  C   UNL A   1      40.617  29.898  29.747  1.00  0.00     0.074 A 
ATOM     16  C   UNL A   1      40.379  27.668  28.720  1.00  0.00     0.049 A 
ATOM     17  N   UNL A   1      41.893  29.933  30.021  1.00  0.00    -0.248 NA
ATOM     18  C   UNL A   1      39.856  31.053  30.253  1.00  0.00     0.031 C 
ATOM     19  C   UNL A   1      39.663  26.530  28.153  1.00  0.00     0.029 A 
ATOM     20  N   UNL A   1      41.668  27.224  28.851  1.00  0.00    -0.354 N 
ATOM     21  C   UNL A   1      42.089  31.112  30.725  1.00  0.00     0.074 A 
ATOM     22  C   UNL A   1      40.810  31.780  30.813  1.00  0.00     0.031 C 
ATOM     23  C   UNL A   1      40.531  25.524  27.955  1.00  0.00     0.029 A 
ATOM     24  C   UNL A   1      41.867  25.972  28.327  1.00  0.00     0.049 A 
ATOM     25  H   UNL A   1      42.382  27.751  29.278  1.00  0.00     0.167 HD
ATOM     26  C   UNL A   1      43.239  31.587  31.257  1.00  0.00     0.037 A 
ATOM     27  C   UNL A   1      43.006  25.282  28.126  1.00  0.00     0.037 A 
ATOM     28  C   UNL A   1      44.503  30.913  31.153  1.00  0.00     0.049 A 
ATOM     29  C   UNL A   1      44.300  25.895  28.578  1.00  0.00     0.074 A 
ATOM     30  C   UNL A   1      45.744  31.318  31.606  1.00  0.00     0.029 A 
ATOM     31  N   UNL A   1      44.680  29.679  30.540  1.00  0.00    -0.354 N 
ATOM     32  N   UNL A   1      44.495  27.040  29.187  1.00  0.00    -0.248 NA
ATOM     33  C   UNL A   1      45.525  25.130  28.321  1.00  0.00     0.031 C 
ATOM     34  C   UNL A   1      46.679  30.345  31.236  1.00  0.00     0.029 A 
ATOM     35  C   UNL A   1      46.014  29.315  30.587  1.00  0.00     0.049 A 
ATOM     36  H   UNL A   1      43.963  29.142  30.134  1.00  0.00     0.167 HD
ATOM     37  C   UNL A   1      45.859  27.118  29.423  1.00  0.00     0.074 A 
ATOM     38  C   UNL A   1      46.445  25.910  28.876  1.00  0.00     0.031 C 
ATOM     39  C   UNL A   1      46.560  28.095  30.047  1.00  0.00     0.037 A 
BRANCH  26  40
ATOM     40  C   UNL A   1      43.163  32.919  31.941  1.00  0.00     0.064 A 
ATOM     41  C   UNL A   1      42.846  33.031  33.303  1.00  0.00     0.173 A 
ATOM     42  C   UNL A   1      43.349  34.100  31.209  1.00  0.00     0.173 A 
ATOM     43  F   UNL A   1      42.626  31.931  34.039  1.00  0.00    -0.203 F 
ATOM     44  C   UNL A   1      42.681  34.280  33.898  1.00  0.00     0.198 A 
ATOM     45  C   UNL A   1      43.208  35.346  31.812  1.00  0.00     0.198 A 
ATOM     46  F   UNL A   1      43.644  34.045  29.902  1.00  0.00    -0.203 F 
ATOM     47  F   UNL A   1      42.310  34.365  35.183  1.00  0.00    -0.200 F 
ATOM     48  C   UNL A   1      42.862  35.436  33.153  1.00  0.00     0.200 A 
ATOM     49  F   UNL A   1      43.381  36.461  31.090  1.00  0.00    -0.200 F 
ATOM     50  F   UNL A   1      42.683  36.636  33.721  1.00  0.00    -0.200 F 
ENDBRANCH  26  40
BRANCH  27  51
ATOM     51  C   UNL A   1      42.960  23.973  27.425  1.00  0.00     0.064 A 
ATOM     52  C   UNL A   1      42.579  22.798  28.081  1.00  0.00     0.173 A 
ATOM     53  C   UNL A   1      43.260  23.886  26.057  1.00  0.00     0.173 A 
ATOM     54  F   UNL A   1      42.300  22.825  29.393  1.00  0.00    -0.203 F 
ATOM     55  C   UNL A   1      42.498  21.586  27.396  1.00  0.00     0.198 A 
ATOM     56  C   UNL A   1      43.150  22.682  25.365  1.00  0.00     0.198 A 
ATOM     57  F   UNL A   1      43.638  24.982  25.386  1.00  0.00    -0.203 F 
ATOM     58  F   UNL A   1      42.153  20.469  28.053  1.00  0.00    -0.200 F 
ATOM     59  C   UNL A   1      42.774  21.530  26.037  1.00  0.00     0.200 A 
ATOM     60  F   UNL A   1      43.390  22.646  24.048  1.00  0.00    -0.200 F 
ATOM     61  F   UNL A   1      42.679  20.369  25.376  1.00  0.00    -0.200 F 
ENDBRANCH  27  51
BRANCH  39  62
ATOM     62  C   UNL A   1      48.029  27.869  30.225  1.00  0.00     0.064 A 
ATOM     63  C   UNL A   1      48.963  28.353  29.301  1.00  0.00     0.173 A 
ATOM     64  C   UNL A   1      48.504  27.216  31.372  1.00  0.00     0.173 A 
ATOM     65  F   UNL A   1      48.550  28.970  28.183  1.00  0.00    -0.203 F 
ATOM     66  C   UNL A   1      50.327  28.183  29.515  1.00  0.00     0.198 A 
ATOM     67  C   UNL A   1      49.868  27.067  31.593  1.00  0.00     0.198 A 
ATOM     68  F   UNL A   1      47.642  26.741  32.284  1.00  0.00    -0.203 F 
ATOM     69  F   UNL A   1      51.207  28.630  28.609  1.00  0.00    -0.200 F 
ATOM     70  C   UNL A   1      50.779  27.549  30.665  1.00  0.00     0.200 A 
ATOM     71  F   UNL A   1      50.302  26.462  32.707  1.00  0.00    -0.200 F 
ATOM     72  F   UNL A   1      52.093  27.398  30.875  1.00  0.00    -0.200 F 
ENDBRANCH  39  62
ENDBRANCH  13  14
ENDBRANCH   6   8
ENDBRANCH   5   6
ENDBRANCH   4   5
ENDBRANCH   3   4
ENDBRANCH   2   3
ENDBRANCH   1   2
BRANCH   1  73
ATOM     73  C   UNL A   1      30.251  29.570  22.492  1.00  0.00     0.188 C 
BRANCH  73  74
ATOM     74  O   UNL A   1      30.118  28.197  22.126  1.00  0.00    -0.376 OA
BRANCH  74  75
ATOM     75  C   UNL A   1      29.736  27.288  23.158  1.00  0.00     0.202 C 
BRANCH  75  76
ATOM     76  C   UNL A   1      30.678  26.100  23.377  1.00  0.00     0.261 C 
BRANCH  76  77
ATOM     77  O   UNL A   1      30.252  25.210  24.427  1.00  0.00    -0.459 OA
BRANCH  77  78
ATOM     78  C   UNL A   1      30.714  25.530  25.650  1.00  0.00     0.345 C 
ATOM     79  O   UNL A   1      30.181  26.242  26.502  1.00  0.00    -0.246 OA
BRANCH  78  80
ATOM     80  C   UNL A   1      32.050  24.982  25.895  1.00  0.00     0.137 A 
ATOM     81  C   UNL A   1      33.186  25.764  25.657  1.00  0.00     0.023 A 
ATOM     82  C   UNL A   1      32.202  23.613  26.118  1.00  0.00     0.284 A 
ATOM     83  C   UNL A   1      34.456  25.166  25.621  1.00  0.00     0.010 A 
ATOM     84  C   UNL A   1      33.466  23.009  26.040  1.00  0.00     0.095 A 
ATOM     85  C   UNL A   1      34.614  23.778  25.785  1.00  0.00    -0.011 A 
BRANCH  82  86
ATOM     86  N   UNL A   1      31.067  22.790  26.523  1.00  0.00     0.063 N 
ATOM     87  O   UNL A   1      30.560  23.029  27.628  1.00  0.00    -0.258 OA
ATOM     88  O   UNL A   1      30.617  21.987  25.695  1.00  0.00    -0.258 OA
ENDBRANCH  82  86
BRANCH  85  89
ATOM     89  C   UNL A   1      35.934  23.130  25.719  1.00  0.00    -0.017 A 
ATOM     90  C   UNL A   1      37.096  23.800  26.133  1.00  0.00     0.012 A 
ATOM     91  C   UNL A   1      36.059  21.794  25.286  1.00  0.00     0.025 A 
ATOM     92  C   UNL A   1      38.335  23.156  26.128  1.00  0.00     0.040 A 
ATOM     93  C   UNL A   1      37.302  21.137  25.280  1.00  0.00     0.092 A 
ATOM     94  C   UNL A   1      38.427  21.834  25.705  1.00  0.00     0.135 A 
ATOM     95  F   UNL A   1      39.622  21.231  25.722  1.00  0.00    -0.206 F 
BRANCH  93  96
ATOM     96  C   UNL A   1      37.447  19.710  24.844  1.00  0.00     0.419 C 
ATOM     97  F   UNL A   1      38.115  18.946  25.751  1.00  0.00    -0.166 F 
ATOM     98  F   UNL A   1      36.252  19.092  24.630  1.00  0.00    -0.166 F 
ATOM     99  F   UNL A   1      38.142  19.579  23.677  1.00  0.00    -0.166 F 
ENDBRANCH  93  96
ENDBRANCH  85  89
ENDBRANCH  78  80
ENDBRANCH  77  78
ENDBRANCH  76  77
ENDBRANCH  75  76
ENDBRANCH  74  75
ENDBRANCH  73  74
ENDBRANCH   1  73
TORSDOF 20
ENDMDL
