MODEL 1
REMARK VINA RESULT:      -8.2      0.000      0.000
REMARK SMILES O=C(OCCOCCOCCOC(=O)c1cc(SCc2csc(-c3ccsc3)n2)ccn1)c1ccc(-c2c3nc(c(-c4c(F)c(F)c(F)c(F)c4F)c4ccc([nH]4)c(-c4c(F)c(F)c(F)c(F)c4F)c4nc(c(-c5c(F)c(F)c(F)c(F)c5F)c5ccc2[nH]5)C=C4)C=C3)cc1
REMARK SMILES IDX 8 1 7 2 6 3 5 4 4 5 3 6 2 7 1 8 33 9 34 10 95 11 35 12 94 13
REMARK SMILES IDX 36 14 37 15 38 16 88 17 39 18 93 19 87 20 89 21 40 22 92 23
REMARK SMILES IDX 86 24 85 25 41 27 73 28 53 29 72 30 54 31 57 32 71 33 90 34
REMARK SMILES IDX 55 35 56 36 70 38 91 39 58 40 42 41 43 42 51 43 44 44 45 45
REMARK SMILES IDX 49 46 52 47 46 48 47 49 50 50 48 51 74 52 75 53 83 54 76 55
REMARK SMILES IDX 77 56 81 57 84 58 78 59 79 60 82 61 80 62 59 63 60 64 68 65
REMARK SMILES IDX 61 66 62 67 66 68 69 69 63 70 64 71 67 72 65 73 9 74 10 75
REMARK SMILES IDX 11 76 12 77 13 78 14 79 15 80 16 81 32 82 17 83 31 84 30 85
REMARK SMILES IDX 18 86 19 87 20 88 21 89 29 90 22 91 23 92 24 93 25 94 28 95
REMARK SMILES IDX 26 96 27 97
REMARK H PARENT 89 26 57 37
REMARK Flexibility Score: inf
ROOT
ATOM      1  C   UNL A   1      32.903  36.837  31.436  1.00  0.00     0.188 C 
ENDROOT
BRANCH   1   2
ATOM      2  C   UNL A   1      33.990  36.883  32.513  1.00  0.00     0.188 C 
BRANCH   2   3
ATOM      3  O   UNL A   1      33.986  35.706  33.335  1.00  0.00    -0.376 OA
BRANCH   3   4
ATOM      4  C   UNL A   1      35.276  35.100  33.469  1.00  0.00     0.202 C 
BRANCH   4   5
ATOM      5  C   UNL A   1      35.321  33.858  34.373  1.00  0.00     0.261 C 
BRANCH   5   6
ATOM      6  O   UNL A   1      36.414  32.981  34.060  1.00  0.00    -0.460 OA
BRANCH   6   7
ATOM      7  C   UNL A   1      37.302  32.416  34.916  1.00  0.00     0.338 C 
ATOM      8  O   UNL A   1      37.029  32.392  36.115  1.00  0.00    -0.246 OA
BRANCH   7   9
ATOM      9  C   UNL A   1      38.578  31.765  34.480  1.00  0.00     0.060 A 
ATOM     10  C   UNL A   1      39.838  32.008  35.029  1.00  0.00     0.016 A 
ATOM     11  C   UNL A   1      38.481  30.793  33.468  1.00  0.00     0.016 A 
ATOM     12  C   UNL A   1      40.984  31.416  34.501  1.00  0.00     0.010 A 
ATOM     13  C   UNL A   1      39.619  30.146  32.976  1.00  0.00     0.010 A 
ATOM     14  C   UNL A   1      40.886  30.494  33.461  1.00  0.00    -0.014 A 
BRANCH  14  15
ATOM     15  C   UNL A   1      42.123  29.979  32.834  1.00  0.00     0.031 A 
ATOM     16  C   UNL A   1      42.758  30.770  31.732  1.00  0.00     0.074 A 
ATOM     17  C   UNL A   1      42.702  28.856  33.294  1.00  0.00     0.049 A 
ATOM     18  N   UNL A   1      43.827  30.497  31.032  1.00  0.00    -0.248 NA
ATOM     19  C   UNL A   1      42.110  32.042  31.375  1.00  0.00     0.031 C 
ATOM     20  C   UNL A   1      42.189  28.052  34.398  1.00  0.00     0.029 A 
ATOM     21  N   UNL A   1      43.844  28.200  32.907  1.00  0.00    -0.354 N 
ATOM     22  C   UNL A   1      43.958  31.542  30.130  1.00  0.00     0.074 A 
ATOM     23  C   UNL A   1      42.865  32.457  30.369  1.00  0.00     0.031 C 
ATOM     24  C   UNL A   1      43.010  27.008  34.593  1.00  0.00     0.029 A 
ATOM     25  C   UNL A   1      44.095  27.057  33.628  1.00  0.00     0.049 A 
ATOM     26  H   UNL A   1      44.428  28.518  32.181  1.00  0.00     0.167 HD
ATOM     27  C   UNL A   1      44.908  31.710  29.181  1.00  0.00     0.037 A 
ATOM     28  C   UNL A   1      45.083  26.148  33.520  1.00  0.00     0.037 A 
ATOM     29  C   UNL A   1      45.993  30.792  28.962  1.00  0.00     0.049 A 
ATOM     30  C   UNL A   1      46.129  26.376  32.466  1.00  0.00     0.074 A 
ATOM     31  C   UNL A   1      46.988  30.841  28.004  1.00  0.00     0.029 A 
ATOM     32  N   UNL A   1      46.223  29.655  29.724  1.00  0.00    -0.354 N 
ATOM     33  N   UNL A   1      46.238  27.366  31.614  1.00  0.00    -0.248 NA
ATOM     34  C   UNL A   1      47.188  25.365  32.356  1.00  0.00     0.031 C 
ATOM     35  C   UNL A   1      47.799  29.713  28.162  1.00  0.00     0.029 A 
ATOM     36  C   UNL A   1      47.336  28.985  29.246  1.00  0.00     0.049 A 
ATOM     37  H   UNL A   1      45.676  29.367  30.491  1.00  0.00     0.167 HD
ATOM     38  C   UNL A   1      47.368  27.095  30.862  1.00  0.00     0.074 A 
ATOM     39  C   UNL A   1      47.944  25.877  31.396  1.00  0.00     0.031 C 
ATOM     40  C   UNL A   1      47.873  27.772  29.803  1.00  0.00     0.037 A 
BRANCH  27  41
ATOM     41  C   UNL A   1      44.765  32.895  28.276  1.00  0.00     0.064 A 
ATOM     42  C   UNL A   1      45.216  34.170  28.646  1.00  0.00     0.173 A 
ATOM     43  C   UNL A   1      44.156  32.749  27.021  1.00  0.00     0.173 A 
ATOM     44  F   UNL A   1      45.779  34.365  29.848  1.00  0.00    -0.203 F 
ATOM     45  C   UNL A   1      45.042  35.262  27.798  1.00  0.00     0.198 A 
ATOM     46  C   UNL A   1      44.005  33.837  26.167  1.00  0.00     0.198 A 
ATOM     47  F   UNL A   1      43.700  31.551  26.627  1.00  0.00    -0.203 F 
ATOM     48  F   UNL A   1      45.436  36.481  28.191  1.00  0.00    -0.200 F 
ATOM     49  C   UNL A   1      44.443  35.094  26.558  1.00  0.00     0.200 A 
ATOM     50  F   UNL A   1      43.427  33.672  24.969  1.00  0.00    -0.200 F 
ATOM     51  F   UNL A   1      44.274  36.145  25.746  1.00  0.00    -0.200 F 
ENDBRANCH  27  41
BRANCH  28  52
ATOM     52  C   UNL A   1      45.147  24.954  34.410  1.00  0.00     0.064 A 
ATOM     53  C   UNL A   1      44.620  23.719  34.003  1.00  0.00     0.173 A 
ATOM     54  C   UNL A   1      45.709  25.018  35.694  1.00  0.00     0.173 A 
ATOM     55  F   UNL A   1      44.068  23.598  32.786  1.00  0.00    -0.203 F 
ATOM     56  C   UNL A   1      44.662  22.598  34.830  1.00  0.00     0.198 A 
ATOM     57  C   UNL A   1      45.754  23.895  36.521  1.00  0.00     0.198 A 
ATOM     58  F   UNL A   1      46.226  26.171  36.143  1.00  0.00    -0.203 F 
ATOM     59  F   UNL A   1      44.154  21.435  34.400  1.00  0.00    -0.200 F 
ATOM     60  C   UNL A   1      45.231  22.686  36.089  1.00  0.00     0.200 A 
ATOM     61  F   UNL A   1      46.314  23.984  37.736  1.00  0.00    -0.200 F 
ATOM     62  F   UNL A   1      45.278  21.606  36.881  1.00  0.00    -0.200 F 
ENDBRANCH  28  52
BRANCH  40  63
ATOM     63  C   UNL A   1      49.095  27.189  29.165  1.00  0.00     0.064 A 
ATOM     64  C   UNL A   1      48.993  26.299  28.086  1.00  0.00     0.173 A 
ATOM     65  C   UNL A   1      50.372  27.531  29.627  1.00  0.00     0.173 A 
ATOM     66  F   UNL A   1      47.788  25.926  27.628  1.00  0.00    -0.203 F 
ATOM     67  C   UNL A   1      50.132  25.747  27.509  1.00  0.00     0.198 A 
ATOM     68  C   UNL A   1      51.510  26.999  29.029  1.00  0.00     0.198 A 
ATOM     69  F   UNL A   1      50.515  28.377  30.657  1.00  0.00    -0.203 F 
ATOM     70  F   UNL A   1      50.012  24.856  26.515  1.00  0.00    -0.200 F 
ATOM     71  C   UNL A   1      51.388  26.103  27.976  1.00  0.00     0.200 A 
ATOM     72  F   UNL A   1      52.723  27.347  29.476  1.00  0.00    -0.200 F 
ATOM     73  F   UNL A   1      52.485  25.571  27.420  1.00  0.00    -0.200 F 
ENDBRANCH  40  63
ENDBRANCH  14  15
ENDBRANCH   7   9
ENDBRANCH   6   7
ENDBRANCH   5   6
ENDBRANCH   4   5
ENDBRANCH   3   4
ENDBRANCH   2   3
ENDBRANCH   1   2
BRANCH   1  74
ATOM     74  O   UNL A   1      33.376  36.825  30.087  1.00  0.00    -0.376 OA
BRANCH  74  75
ATOM     75  C   UNL A   1      32.847  35.821  29.230  1.00  0.00     0.202 C 
BRANCH  75  76
ATOM     76  C   UNL A   1      33.757  34.629  28.933  1.00  0.00     0.261 C 
BRANCH  76  77
ATOM     77  O   UNL A   1      34.890  34.505  29.799  1.00  0.00    -0.459 OA
BRANCH  77  78
ATOM     78  C   UNL A   1      34.999  33.295  30.400  1.00  0.00     0.357 C 
ATOM     79  O   UNL A   1      34.161  32.731  31.095  1.00  0.00    -0.244 OA
BRANCH  78  80
ATOM     80  C   UNL A   1      36.383  32.809  30.301  1.00  0.00     0.149 A 
ATOM     81  C   UNL A   1      36.569  31.696  29.501  1.00  0.00     0.051 A 
ATOM     82  N   UNL A   1      37.380  33.506  30.901  1.00  0.00    -0.249 NA
ATOM     83  C   UNL A   1      37.855  31.221  29.314  1.00  0.00     0.012 A 
ATOM     84  C   UNL A   1      38.630  33.067  30.644  1.00  0.00     0.113 A 
ATOM     85  C   UNL A   1      38.914  31.952  29.860  1.00  0.00     0.035 A 
BRANCH  83  86
ATOM     86  S   UNL A   1      38.184  29.726  28.390  1.00  0.00    -0.120 SA
BRANCH  86  87
ATOM     87  C   UNL A   1      39.515  28.901  29.367  1.00  0.00     0.132 C 
BRANCH  87  88
ATOM     88  C   UNL A   1      40.273  27.873  28.580  1.00  0.00     0.062 A 
ATOM     89  C   UNL A   1      40.106  27.575  27.243  1.00  0.00     0.091 A 
ATOM     90  N   UNL A   1      41.212  27.065  29.215  1.00  0.00    -0.240 NA
ATOM     91  S   UNL A   1      41.297  26.478  26.710  1.00  0.00    -0.122 S 
ATOM     92  C   UNL A   1      41.822  26.292  28.335  1.00  0.00     0.124 A 
BRANCH  92  93
ATOM     93  C   UNL A   1      42.846  25.273  28.735  1.00  0.00     0.021 A 
ATOM     94  C   UNL A   1      44.159  25.598  29.185  1.00  0.00     0.023 A 
ATOM     95  C   UNL A   1      42.621  23.912  28.754  1.00  0.00     0.076 A 
ATOM     96  C   UNL A   1      44.873  24.479  29.557  1.00  0.00     0.065 A 
ATOM     97  S   UNL A   1      43.990  23.037  29.295  1.00  0.00    -0.152 S 
ENDBRANCH  92  93
ENDBRANCH  87  88
ENDBRANCH  86  87
ENDBRANCH  83  86
ENDBRANCH  78  80
ENDBRANCH  77  78
ENDBRANCH  76  77
ENDBRANCH  75  76
ENDBRANCH  74  75
ENDBRANCH   1  74
TORSDOF 21
ENDMDL
MODEL 2
REMARK VINA RESULT:      -8.1      4.562      7.500
REMARK SMILES O=C(OCCOCCOCCOC(=O)c1cc(SCc2csc(-c3ccsc3)n2)ccn1)c1ccc(-c2c3nc(c(-c4c(F)c(F)c(F)c(F)c4F)c4ccc([nH]4)c(-c4c(F)c(F)c(F)c(F)c4F)c4nc(c(-c5c(F)c(F)c(F)c(F)c5F)c5ccc2[nH]5)C=C4)C=C3)cc1
REMARK SMILES IDX 8 1 7 2 6 3 5 4 4 5 3 6 2 7 1 8 33 9 34 10 95 11 35 12 94 13
REMARK SMILES IDX 36 14 37 15 38 16 88 17 39 18 93 19 87 20 89 21 40 22 92 23
REMARK SMILES IDX 86 24 85 25 41 27 73 28 53 29 72 30 54 31 57 32 71 33 90 34
REMARK SMILES IDX 55 35 56 36 70 38 91 39 58 40 42 41 43 42 51 43 44 44 45 45
REMARK SMILES IDX 49 46 52 47 46 48 47 49 50 50 48 51 74 52 75 53 83 54 76 55
REMARK SMILES IDX 77 56 81 57 84 58 78 59 79 60 82 61 80 62 59 63 60 64 68 65
REMARK SMILES IDX 61 66 62 67 66 68 69 69 63 70 64 71 67 72 65 73 9 74 10 75
REMARK SMILES IDX 11 76 12 77 13 78 14 79 15 80 16 81 32 82 17 83 31 84 30 85
REMARK SMILES IDX 18 86 19 87 20 88 21 89 29 90 22 91 23 92 24 93 25 94 28 95
REMARK SMILES IDX 26 96 27 97
REMARK H PARENT 89 26 57 37
REMARK Flexibility Score: inf
ROOT
ATOM      1  C   UNL A   1      32.967  36.659  31.832  1.00  0.00     0.188 C 
ENDROOT
BRANCH   1   2
ATOM      2  C   UNL A   1      34.215  36.554  32.710  1.00  0.00     0.188 C 
BRANCH   2   3
ATOM      3  O   UNL A   1      34.410  35.225  33.216  1.00  0.00    -0.376 OA
BRANCH   3   4
ATOM      4  C   UNL A   1      35.738  34.728  33.018  1.00  0.00     0.202 C 
BRANCH   4   5
ATOM      5  C   UNL A   1      35.987  33.307  33.547  1.00  0.00     0.261 C 
BRANCH   5   6
ATOM      6  O   UNL A   1      35.898  32.307  32.520  1.00  0.00    -0.460 OA
BRANCH   6   7
ATOM      7  C   UNL A   1      36.711  31.240  32.321  1.00  0.00     0.338 C 
ATOM      8  O   UNL A   1      36.267  30.113  32.543  1.00  0.00    -0.246 OA
BRANCH   7   9
ATOM      9  C   UNL A   1      38.107  31.345  31.790  1.00  0.00     0.060 A 
ATOM     10  C   UNL A   1      39.271  31.121  32.527  1.00  0.00     0.016 A 
ATOM     11  C   UNL A   1      38.245  31.645  30.424  1.00  0.00     0.016 A 
ATOM     12  C   UNL A   1      40.531  31.326  31.970  1.00  0.00     0.010 A 
ATOM     13  C   UNL A   1      39.508  31.788  29.839  1.00  0.00     0.010 A 
ATOM     14  C   UNL A   1      40.660  31.676  30.627  1.00  0.00    -0.014 A 
BRANCH  14  15
ATOM     15  C   UNL A   1      41.998  32.012  30.094  1.00  0.00     0.031 A 
ATOM     16  C   UNL A   1      42.448  33.441  30.116  1.00  0.00     0.074 A 
ATOM     17  C   UNL A   1      42.821  31.040  29.660  1.00  0.00     0.049 A 
ATOM     18  N   UNL A   1      43.566  33.959  29.684  1.00  0.00    -0.248 NA
ATOM     19  C   UNL A   1      41.520  34.415  30.713  1.00  0.00     0.031 C 
ATOM     20  C   UNL A   1      42.494  29.619  29.653  1.00  0.00     0.029 A 
ATOM     21  N   UNL A   1      44.096  31.091  29.154  1.00  0.00    -0.354 N 
ATOM     22  C   UNL A   1      43.461  35.322  29.922  1.00  0.00     0.074 A 
ATOM     23  C   UNL A   1      42.173  35.553  30.539  1.00  0.00     0.031 C 
ATOM     24  C   UNL A   1      43.538  28.935  29.160  1.00  0.00     0.029 A 
ATOM     25  C   UNL A   1      44.599  29.861  28.804  1.00  0.00     0.049 A 
ATOM     26  H   UNL A   1      44.602  31.929  29.050  1.00  0.00     0.167 HD
ATOM     27  C   UNL A   1      44.362  36.290  29.639  1.00  0.00     0.037 A 
ATOM     28  C   UNL A   1      45.780  29.518  28.255  1.00  0.00     0.037 A 
ATOM     29  C   UNL A   1      45.641  36.040  29.031  1.00  0.00     0.049 A 
ATOM     30  C   UNL A   1      46.763  30.617  27.969  1.00  0.00     0.074 A 
ATOM     31  C   UNL A   1      46.616  36.948  28.662  1.00  0.00     0.029 A 
ATOM     32  N   UNL A   1      46.123  34.779  28.708  1.00  0.00    -0.354 N 
ATOM     33  N   UNL A   1      46.648  31.903  28.193  1.00  0.00    -0.248 NA
ATOM     34  C   UNL A   1      48.037  30.222  27.355  1.00  0.00     0.031 C 
ATOM     35  C   UNL A   1      47.672  36.240  28.081  1.00  0.00     0.029 A 
ATOM     36  C   UNL A   1      47.375  34.887  28.128  1.00  0.00     0.049 A 
ATOM     37  H   UNL A   1      45.645  33.933  28.868  1.00  0.00     0.167 HD
ATOM     38  C   UNL A   1      47.827  32.473  27.741  1.00  0.00     0.074 A 
ATOM     39  C   UNL A   1      48.668  31.385  27.284  1.00  0.00     0.031 C 
ATOM     40  C   UNL A   1      48.176  33.779  27.680  1.00  0.00     0.037 A 
BRANCH  27  41
ATOM     41  C   UNL A   1      43.957  37.703  29.925  1.00  0.00     0.064 A 
ATOM     42  C   UNL A   1      44.250  38.326  31.146  1.00  0.00     0.173 A 
ATOM     43  C   UNL A   1      43.255  38.440  28.960  1.00  0.00     0.173 A 
ATOM     44  F   UNL A   1      44.894  37.653  32.112  1.00  0.00    -0.203 F 
ATOM     45  C   UNL A   1      43.834  39.632  31.399  1.00  0.00     0.198 A 
ATOM     46  C   UNL A   1      42.861  39.752  29.206  1.00  0.00     0.198 A 
ATOM     47  F   UNL A   1      42.944  37.884  27.780  1.00  0.00    -0.203 F 
ATOM     48  F   UNL A   1      44.081  40.193  32.591  1.00  0.00    -0.200 F 
ATOM     49  C   UNL A   1      43.146  40.345  30.428  1.00  0.00     0.200 A 
ATOM     50  F   UNL A   1      42.198  40.439  28.267  1.00  0.00    -0.200 F 
ATOM     51  F   UNL A   1      42.744  41.599  30.674  1.00  0.00    -0.200 F 
ENDBRANCH  27  41
BRANCH  28  52
ATOM     52  C   UNL A   1      46.111  28.099  27.936  1.00  0.00     0.064 A 
ATOM     53  C   UNL A   1      45.766  27.536  26.699  1.00  0.00     0.173 A 
ATOM     54  C   UNL A   1      46.754  27.265  28.863  1.00  0.00     0.173 A 
ATOM     55  F   UNL A   1      45.147  28.286  25.773  1.00  0.00    -0.203 F 
ATOM     56  C   UNL A   1      46.058  26.208  26.393  1.00  0.00     0.198 A 
ATOM     57  C   UNL A   1      47.050  25.936  28.556  1.00  0.00     0.198 A 
ATOM     58  F   UNL A   1      47.106  27.743  30.065  1.00  0.00    -0.203 F 
ATOM     59  F   UNL A   1      45.718  25.710  25.196  1.00  0.00    -0.200 F 
ATOM     60  C   UNL A   1      46.702  25.408  27.321  1.00  0.00     0.200 A 
ATOM     61  F   UNL A   1      47.681  25.168  29.455  1.00  0.00    -0.200 F 
ATOM     62  F   UNL A   1      46.990  24.134  27.024  1.00  0.00    -0.200 F 
ENDBRANCH  28  52
BRANCH  40  63
ATOM     63  C   UNL A   1      49.516  34.081  27.086  1.00  0.00     0.064 A 
ATOM     64  C   UNL A   1      50.689  33.962  27.846  1.00  0.00     0.173 A 
ATOM     65  C   UNL A   1      49.629  34.482  25.748  1.00  0.00     0.173 A 
ATOM     66  F   UNL A   1      50.623  33.605  29.138  1.00  0.00    -0.203 F 
ATOM     67  C   UNL A   1      51.929  34.261  27.293  1.00  0.00     0.198 A 
ATOM     68  C   UNL A   1      50.874  34.752  25.190  1.00  0.00     0.198 A 
ATOM     69  F   UNL A   1      48.533  34.610  24.986  1.00  0.00    -0.203 F 
ATOM     70  F   UNL A   1      53.032  34.194  28.051  1.00  0.00    -0.200 F 
ATOM     71  C   UNL A   1      52.021  34.649  25.964  1.00  0.00     0.200 A 
ATOM     72  F   UNL A   1      50.964  35.122  23.906  1.00  0.00    -0.200 F 
ATOM     73  F   UNL A   1      53.216  34.938  25.432  1.00  0.00    -0.200 F 
ENDBRANCH  40  63
ENDBRANCH  14  15
ENDBRANCH   7   9
ENDBRANCH   6   7
ENDBRANCH   5   6
ENDBRANCH   4   5
ENDBRANCH   3   4
ENDBRANCH   2   3
ENDBRANCH   1   2
BRANCH   1  74
ATOM     74  O   UNL A   1      33.204  37.010  30.467  1.00  0.00    -0.376 OA
BRANCH  74  75
ATOM     75  C   UNL A   1      33.031  35.982  29.500  1.00  0.00     0.202 C 
BRANCH  75  76
ATOM     76  C   UNL A   1      33.656  34.626  29.826  1.00  0.00     0.261 C 
BRANCH  76  77
ATOM     77  O   UNL A   1      33.441  33.611  28.840  1.00  0.00    -0.459 OA
BRANCH  77  78
ATOM     78  C   UNL A   1      34.487  33.424  28.000  1.00  0.00     0.357 C 
ATOM     79  O   UNL A   1      35.028  34.262  27.286  1.00  0.00    -0.244 OA
BRANCH  78  80
ATOM     80  C   UNL A   1      34.773  31.987  27.867  1.00  0.00     0.149 A 
ATOM     81  C   UNL A   1      33.680  31.183  27.598  1.00  0.00     0.051 A 
ATOM     82  N   UNL A   1      36.058  31.554  27.922  1.00  0.00    -0.249 NA
ATOM     83  C   UNL A   1      33.885  29.830  27.401  1.00  0.00     0.012 A 
ATOM     84  C   UNL A   1      36.240  30.244  27.653  1.00  0.00     0.113 A 
ATOM     85  C   UNL A   1      35.202  29.357  27.382  1.00  0.00     0.035 A 
BRANCH  83  86
ATOM     86  S   UNL A   1      32.526  28.694  27.158  1.00  0.00    -0.120 SA
BRANCH  86  87
ATOM     87  C   UNL A   1      32.755  28.113  25.422  1.00  0.00     0.132 C 
BRANCH  87  88
ATOM     88  C   UNL A   1      31.501  28.192  24.603  1.00  0.00     0.062 A 
ATOM     89  C   UNL A   1      30.723  27.132  24.187  1.00  0.00     0.091 A 
ATOM     90  N   UNL A   1      31.054  29.426  24.134  1.00  0.00    -0.240 NA
ATOM     91  S   UNL A   1      29.293  27.681  23.440  1.00  0.00    -0.122 S 
ATOM     92  C   UNL A   1      29.898  29.287  23.511  1.00  0.00     0.124 A 
BRANCH  92  93
ATOM     93  C   UNL A   1      29.200  30.437  22.848  1.00  0.00     0.021 A 
ATOM     94  C   UNL A   1      28.721  31.585  23.545  1.00  0.00     0.023 A 
ATOM     95  C   UNL A   1      28.981  30.534  21.490  1.00  0.00     0.076 A 
ATOM     96  C   UNL A   1      28.184  32.525  22.691  1.00  0.00     0.065 A 
ATOM     97  S   UNL A   1      28.190  31.993  21.065  1.00  0.00    -0.152 S 
ENDBRANCH  92  93
ENDBRANCH  87  88
ENDBRANCH  86  87
ENDBRANCH  83  86
ENDBRANCH  78  80
ENDBRANCH  77  78
ENDBRANCH  76  77
ENDBRANCH  75  76
ENDBRANCH  74  75
ENDBRANCH   1  74
TORSDOF 21
ENDMDL
MODEL 3
REMARK VINA RESULT:      -7.8      4.883      6.426
REMARK SMILES O=C(OCCOCCOCCOC(=O)c1cc(SCc2csc(-c3ccsc3)n2)ccn1)c1ccc(-c2c3nc(c(-c4c(F)c(F)c(F)c(F)c4F)c4ccc([nH]4)c(-c4c(F)c(F)c(F)c(F)c4F)c4nc(c(-c5c(F)c(F)c(F)c(F)c5F)c5ccc2[nH]5)C=C4)C=C3)cc1
REMARK SMILES IDX 8 1 7 2 6 3 5 4 4 5 3 6 2 7 1 8 33 9 34 10 95 11 35 12 94 13
REMARK SMILES IDX 36 14 37 15 38 16 88 17 39 18 93 19 87 20 89 21 40 22 92 23
REMARK SMILES IDX 86 24 85 25 41 27 73 28 53 29 72 30 54 31 57 32 71 33 90 34
REMARK SMILES IDX 55 35 56 36 70 38 91 39 58 40 42 41 43 42 51 43 44 44 45 45
REMARK SMILES IDX 49 46 52 47 46 48 47 49 50 50 48 51 74 52 75 53 83 54 76 55
REMARK SMILES IDX 77 56 81 57 84 58 78 59 79 60 82 61 80 62 59 63 60 64 68 65
REMARK SMILES IDX 61 66 62 67 66 68 69 69 63 70 64 71 67 72 65 73 9 74 10 75
REMARK SMILES IDX 11 76 12 77 13 78 14 79 15 80 16 81 32 82 17 83 31 84 30 85
REMARK SMILES IDX 18 86 19 87 20 88 21 89 29 90 22 91 23 92 24 93 25 94 28 95
REMARK SMILES IDX 26 96 27 97
REMARK H PARENT 89 26 57 37
REMARK Flexibility Score: inf
ROOT
ATOM      1  C   UNL A   1      34.170  34.286  30.335  1.00  0.00     0.188 C 
ENDROOT
BRANCH   1   2
ATOM      2  C   UNL A   1      34.760  33.252  31.296  1.00  0.00     0.188 C 
BRANCH   2   3
ATOM      3  O   UNL A   1      33.943  33.070  32.462  1.00  0.00    -0.376 OA
BRANCH   3   4
ATOM      4  C   UNL A   1      34.685  33.077  33.686  1.00  0.00     0.202 C 
BRANCH   4   5
ATOM      5  C   UNL A   1      35.532  34.336  33.927  1.00  0.00     0.261 C 
BRANCH   5   6
ATOM      6  O   UNL A   1      36.943  34.082  33.841  1.00  0.00    -0.460 OA
BRANCH   6   7
ATOM      7  C   UNL A   1      37.616  32.970  34.227  1.00  0.00     0.338 C 
ATOM      8  O   UNL A   1      37.392  32.507  35.346  1.00  0.00    -0.246 OA
BRANCH   7   9
ATOM      9  C   UNL A   1      38.580  32.235  33.350  1.00  0.00     0.060 A 
ATOM     10  C   UNL A   1      39.431  31.209  33.766  1.00  0.00     0.016 A 
ATOM     11  C   UNL A   1      38.587  32.577  31.987  1.00  0.00     0.016 A 
ATOM     12  C   UNL A   1      40.357  30.638  32.895  1.00  0.00     0.010 A 
ATOM     13  C   UNL A   1      39.468  31.963  31.091  1.00  0.00     0.010 A 
ATOM     14  C   UNL A   1      40.394  31.021  31.556  1.00  0.00    -0.014 A 
BRANCH  14  15
ATOM     15  C   UNL A   1      41.468  30.496  30.685  1.00  0.00     0.031 A 
ATOM     16  C   UNL A   1      42.722  31.299  30.518  1.00  0.00     0.074 A 
ATOM     17  C   UNL A   1      41.346  29.287  30.109  1.00  0.00     0.049 A 
ATOM     18  N   UNL A   1      43.775  31.041  29.791  1.00  0.00    -0.248 NA
ATOM     19  C   UNL A   1      42.805  32.557  31.278  1.00  0.00     0.031 C 
ATOM     20  C   UNL A   1      40.191  28.410  30.259  1.00  0.00     0.029 A 
ATOM     21  N   UNL A   1      42.196  28.580  29.295  1.00  0.00    -0.354 N 
ATOM     22  C   UNL A   1      44.629  32.118  29.976  1.00  0.00     0.074 A 
ATOM     23  C   UNL A   1      43.977  33.034  30.885  1.00  0.00     0.031 C 
ATOM     24  C   UNL A   1      40.403  27.287  29.556  1.00  0.00     0.029 A 
ATOM     25  C   UNL A   1      41.694  27.366  28.894  1.00  0.00     0.049 A 
ATOM     26  H   UNL A   1      43.083  28.913  29.023  1.00  0.00     0.167 HD
ATOM     27  C   UNL A   1      45.847  32.321  29.423  1.00  0.00     0.037 A 
ATOM     28  C   UNL A   1      42.212  26.424  28.083  1.00  0.00     0.037 A 
ATOM     29  C   UNL A   1      46.484  31.396  28.526  1.00  0.00     0.049 A 
ATOM     30  C   UNL A   1      43.574  26.676  27.501  1.00  0.00     0.074 A 
ATOM     31  C   UNL A   1      47.698  31.517  27.876  1.00  0.00     0.029 A 
ATOM     32  N   UNL A   1      45.951  30.168  28.158  1.00  0.00    -0.354 N 
ATOM     33  N   UNL A   1      44.368  27.703  27.679  1.00  0.00    -0.248 NA
ATOM     34  C   UNL A   1      44.112  25.644  26.606  1.00  0.00     0.031 C 
ATOM     35  C   UNL A   1      47.882  30.379  27.084  1.00  0.00     0.029 A 
ATOM     36  C   UNL A   1      46.805  29.529  27.275  1.00  0.00     0.049 A 
ATOM     37  H   UNL A   1      45.094  29.805  28.478  1.00  0.00     0.167 HD
ATOM     38  C   UNL A   1      45.494  27.447  26.914  1.00  0.00     0.074 A 
ATOM     39  C   UNL A   1      45.305  26.141  26.317  1.00  0.00     0.031 C 
ATOM     40  C   UNL A   1      46.576  28.231  26.698  1.00  0.00     0.037 A 
BRANCH  27  41
ATOM     41  C   UNL A   1      46.526  33.621  29.728  1.00  0.00     0.064 A 
ATOM     42  C   UNL A   1      47.396  33.767  30.817  1.00  0.00     0.173 A 
ATOM     43  C   UNL A   1      46.289  34.742  28.918  1.00  0.00     0.173 A 
ATOM     44  F   UNL A   1      47.632  32.732  31.637  1.00  0.00    -0.203 F 
ATOM     45  C   UNL A   1      47.990  34.996  31.097  1.00  0.00     0.198 A 
ATOM     46  C   UNL A   1      46.902  35.962  29.186  1.00  0.00     0.198 A 
ATOM     47  F   UNL A   1      45.456  34.654  27.870  1.00  0.00    -0.203 F 
ATOM     48  F   UNL A   1      48.781  35.127  32.171  1.00  0.00    -0.200 F 
ATOM     49  C   UNL A   1      47.747  36.090  30.279  1.00  0.00     0.200 A 
ATOM     50  F   UNL A   1      46.667  37.017  28.395  1.00  0.00    -0.200 F 
ATOM     51  F   UNL A   1      48.316  37.272  30.551  1.00  0.00    -0.200 F 
ENDBRANCH  27  41
BRANCH  28  52
ATOM     52  C   UNL A   1      41.469  25.171  27.766  1.00  0.00     0.064 A 
ATOM     53  C   UNL A   1      40.357  25.185  26.911  1.00  0.00     0.173 A 
ATOM     54  C   UNL A   1      41.830  23.936  28.325  1.00  0.00     0.173 A 
ATOM     55  F   UNL A   1      39.963  26.338  26.348  1.00  0.00    -0.203 F 
ATOM     56  C   UNL A   1      39.646  24.023  26.616  1.00  0.00     0.198 A 
ATOM     57  C   UNL A   1      41.121  22.772  28.028  1.00  0.00     0.198 A 
ATOM     58  F   UNL A   1      42.882  23.857  29.154  1.00  0.00    -0.203 F 
ATOM     59  F   UNL A   1      38.594  24.079  25.788  1.00  0.00    -0.200 F 
ATOM     60  C   UNL A   1      40.030  22.816  27.173  1.00  0.00     0.200 A 
ATOM     61  F   UNL A   1      41.501  21.603  28.564  1.00  0.00    -0.200 F 
ATOM     62  F   UNL A   1      39.351  21.698  26.884  1.00  0.00    -0.200 F 
ENDBRANCH  28  52
BRANCH  40  63
ATOM     63  C   UNL A   1      47.616  27.686  25.770  1.00  0.00     0.064 A 
ATOM     64  C   UNL A   1      47.531  27.893  24.385  1.00  0.00     0.173 A 
ATOM     65  C   UNL A   1      48.707  26.961  26.267  1.00  0.00     0.173 A 
ATOM     66  F   UNL A   1      46.489  28.561  23.865  1.00  0.00    -0.203 F 
ATOM     67  C   UNL A   1      48.489  27.368  23.526  1.00  0.00     0.198 A 
ATOM     68  C   UNL A   1      49.680  26.462  25.407  1.00  0.00     0.198 A 
ATOM     69  F   UNL A   1      48.826  26.737  27.584  1.00  0.00    -0.203 F 
ATOM     70  F   UNL A   1      48.361  27.531  22.202  1.00  0.00    -0.200 F 
ATOM     71  C   UNL A   1      49.566  26.660  24.038  1.00  0.00     0.200 A 
ATOM     72  F   UNL A   1      50.722  25.782  25.901  1.00  0.00    -0.200 F 
ATOM     73  F   UNL A   1      50.490  26.154  23.210  1.00  0.00    -0.200 F 
ENDBRANCH  40  63
ENDBRANCH  14  15
ENDBRANCH   7   9
ENDBRANCH   6   7
ENDBRANCH   5   6
ENDBRANCH   4   5
ENDBRANCH   3   4
ENDBRANCH   2   3
ENDBRANCH   1   2
BRANCH   1  74
ATOM     74  O   UNL A   1      33.537  33.750  29.170  1.00  0.00    -0.376 OA
BRANCH  74  75
ATOM     75  C   UNL A   1      34.368  33.507  28.042  1.00  0.00     0.202 C 
BRANCH  75  76
ATOM     76  C   UNL A   1      34.456  32.059  27.560  1.00  0.00     0.261 C 
BRANCH  76  77
ATOM     77  O   UNL A   1      33.352  31.230  27.938  1.00  0.00    -0.459 OA
BRANCH  77  78
ATOM     78  C   UNL A   1      32.350  31.191  27.025  1.00  0.00     0.357 C 
ATOM     79  O   UNL A   1      31.651  32.125  26.648  1.00  0.00    -0.244 OA
BRANCH  78  80
ATOM     80  C   UNL A   1      32.036  29.796  26.685  1.00  0.00     0.149 A 
ATOM     81  C   UNL A   1      31.727  29.560  25.357  1.00  0.00     0.051 A 
ATOM     82  N   UNL A   1      32.151  28.834  27.635  1.00  0.00    -0.249 NA
ATOM     83  C   UNL A   1      31.481  28.260  24.954  1.00  0.00     0.012 A 
ATOM     84  C   UNL A   1      31.977  27.567  27.202  1.00  0.00     0.113 A 
ATOM     85  C   UNL A   1      31.656  27.235  25.889  1.00  0.00     0.035 A 
BRANCH  83  86
ATOM     86  S   UNL A   1      30.966  27.870  23.287  1.00  0.00    -0.120 SA
BRANCH  86  87
ATOM     87  C   UNL A   1      30.271  26.167  23.438  1.00  0.00     0.132 C 
BRANCH  87  88
ATOM     88  C   UNL A   1      31.253  25.095  23.068  1.00  0.00     0.062 A 
ATOM     89  C   UNL A   1      32.226  25.174  22.094  1.00  0.00     0.091 A 
ATOM     90  N   UNL A   1      31.192  23.851  23.692  1.00  0.00    -0.240 NA
ATOM     91  S   UNL A   1      33.239  23.803  22.132  1.00  0.00    -0.122 S 
ATOM     92  C   UNL A   1      32.189  23.086  23.286  1.00  0.00     0.124 A 
BRANCH  92  93
ATOM     93  C   UNL A   1      32.349  21.667  23.744  1.00  0.00     0.021 A 
ATOM     94  C   UNL A   1      32.585  21.290  25.099  1.00  0.00     0.023 A 
ATOM     95  C   UNL A   1      32.246  20.567  22.918  1.00  0.00     0.076 A 
ATOM     96  C   UNL A   1      32.622  19.921  25.259  1.00  0.00     0.065 A 
ATOM     97  S   UNL A   1      32.447  19.096  23.770  1.00  0.00    -0.152 S 
ENDBRANCH  92  93
ENDBRANCH  87  88
ENDBRANCH  86  87
ENDBRANCH  83  86
ENDBRANCH  78  80
ENDBRANCH  77  78
ENDBRANCH  76  77
ENDBRANCH  75  76
ENDBRANCH  74  75
ENDBRANCH   1  74
TORSDOF 21
ENDMDL
