MODEL 1
REMARK VINA RESULT:     -12.8      0.000      0.000
REMARK SMILES O=C(OCCOCCOCCOC(=O)c1ccc([C@@H]2CC(O)=Nc3c2ncn3-c2cccc(Cl)c2)cc1)c1ccc(-c2c3nc(c(-c4c(F)c(F)c(F)c(F)c4F)c4ccc([nH]4)c(-c4c(F)c(F)c(F)c(F)c4F)c4nc(c(-c5c(F)c(F)c(F)c(F)c5F)c5ccc2[nH]5)C=C4)C=C3)cc1
REMARK SMILES IDX 7 1 6 2 5 3 4 4 3 5 2 6 1 7 38 8 39 9 100 10 40 11 99 12
REMARK SMILES IDX 41 13 42 14 43 15 93 16 44 17 98 18 92 19 94 20 45 21 97 22
REMARK SMILES IDX 91 23 90 24 46 26 78 27 58 28 77 29 59 30 62 31 76 32 95 33
REMARK SMILES IDX 60 34 61 35 75 37 96 38 63 39 47 40 48 41 56 42 49 43 50 44
REMARK SMILES IDX 54 45 57 46 51 47 52 48 55 49 53 50 79 51 80 52 88 53 81 54
REMARK SMILES IDX 82 55 86 56 89 57 83 58 84 59 87 60 85 61 64 62 65 63 73 64
REMARK SMILES IDX 66 65 67 66 71 67 74 68 68 69 69 70 72 71 70 72 8 73 9 74
REMARK SMILES IDX 10 75 11 76 12 77 13 78 14 79 15 80 16 81 37 82 17 83 36 84
REMARK SMILES IDX 18 85 19 86 20 87 25 88 21 89 24 90 26 91 23 92 28 93 27 94
REMARK SMILES IDX 22 95 29 97 30 98 35 99 31 100 33 101 32 102 34 103
REMARK H PARENT 94 25 62 36 22 96
REMARK Flexibility Score: inf
ROOT
ATOM      1  C   UNL A   1      33.027  33.451  27.627  1.00  0.00     0.188 C 
ENDROOT
BRANCH   1   2
ATOM      2  O   UNL A   1      32.535  34.576  28.340  1.00  0.00    -0.376 OA
BRANCH   2   3
ATOM      3  C   UNL A   1      33.483  35.264  29.136  1.00  0.00     0.202 C 
BRANCH   3   4
ATOM      4  C   UNL A   1      32.868  36.064  30.283  1.00  0.00     0.261 C 
BRANCH   4   5
ATOM      5  O   UNL A   1      32.692  35.347  31.519  1.00  0.00    -0.460 OA
BRANCH   5   6
ATOM      6  C   UNL A   1      33.424  35.375  32.648  1.00  0.00     0.338 C 
ATOM      7  O   UNL A   1      33.359  36.338  33.408  1.00  0.00    -0.246 OA
BRANCH   6   8
ATOM      8  C   UNL A   1      34.493  34.381  32.892  1.00  0.00     0.060 A 
ATOM      9  C   UNL A   1      35.585  34.603  33.729  1.00  0.00     0.016 A 
ATOM     10  C   UNL A   1      34.442  33.210  32.110  1.00  0.00     0.016 A 
ATOM     11  C   UNL A   1      36.645  33.704  33.734  1.00  0.00     0.010 A 
ATOM     12  C   UNL A   1      35.507  32.318  32.100  1.00  0.00     0.010 A 
ATOM     13  C   UNL A   1      36.637  32.610  32.863  1.00  0.00    -0.014 A 
BRANCH  13  14
ATOM     14  C   UNL A   1      37.918  31.945  32.636  1.00  0.00     0.031 A 
ATOM     15  C   UNL A   1      38.859  31.777  33.774  1.00  0.00     0.074 A 
ATOM     16  C   UNL A   1      38.254  31.506  31.405  1.00  0.00     0.049 A 
ATOM     17  N   UNL A   1      40.075  32.215  33.876  1.00  0.00    -0.248 NA
ATOM     18  C   UNL A   1      38.391  31.024  34.943  1.00  0.00     0.031 C 
ATOM     19  C   UNL A   1      37.385  31.358  30.233  1.00  0.00     0.029 A 
ATOM     20  N   UNL A   1      39.451  31.015  30.972  1.00  0.00    -0.354 N 
ATOM     21  C   UNL A   1      40.587  31.668  35.051  1.00  0.00     0.074 A 
ATOM     22  C   UNL A   1      39.486  31.003  35.704  1.00  0.00     0.031 C 
ATOM     23  C   UNL A   1      38.025  30.628  29.295  1.00  0.00     0.029 A 
ATOM     24  C   UNL A   1      39.382  30.377  29.747  1.00  0.00     0.049 A 
ATOM     25  H   UNL A   1      40.287  31.106  31.485  1.00  0.00     0.167 HD
ATOM     26  C   UNL A   1      41.921  31.654  35.329  1.00  0.00     0.037 A 
ATOM     27  C   UNL A   1      40.346  29.627  29.165  1.00  0.00     0.037 A 
ATOM     28  C   UNL A   1      42.647  32.647  34.586  1.00  0.00     0.049 A 
ATOM     29  C   UNL A   1      41.650  30.003  29.759  1.00  0.00     0.074 A 
ATOM     30  C   UNL A   1      42.602  34.025  34.499  1.00  0.00     0.029 A 
ATOM     31  N   UNL A   1      43.462  32.250  33.558  1.00  0.00    -0.354 N 
ATOM     32  N   UNL A   1      42.253  31.141  29.553  1.00  0.00    -0.248 NA
ATOM     33  C   UNL A   1      42.132  29.237  30.897  1.00  0.00     0.031 C 
ATOM     34  C   UNL A   1      42.981  34.330  33.158  1.00  0.00     0.029 A 
ATOM     35  C   UNL A   1      43.232  33.116  32.522  1.00  0.00     0.049 A 
ATOM     36  H   UNL A   1      44.090  31.491  33.563  1.00  0.00     0.167 HD
ATOM     37  C   UNL A   1      42.898  31.419  30.749  1.00  0.00     0.074 A 
ATOM     38  C   UNL A   1      42.890  30.162  31.488  1.00  0.00     0.031 C 
ATOM     39  C   UNL A   1      43.129  32.705  31.144  1.00  0.00     0.037 A 
BRANCH  26  40
ATOM     40  C   UNL A   1      42.617  30.546  36.078  1.00  0.00     0.064 A 
ATOM     41  C   UNL A   1      43.477  30.853  37.152  1.00  0.00     0.173 A 
ATOM     42  C   UNL A   1      42.696  29.225  35.591  1.00  0.00     0.173 A 
ATOM     43  F   UNL A   1      43.510  32.091  37.668  1.00  0.00    -0.203 F 
ATOM     44  C   UNL A   1      44.387  29.921  37.660  1.00  0.00     0.198 A 
ATOM     45  C   UNL A   1      43.568  28.281  36.136  1.00  0.00     0.198 A 
ATOM     46  F   UNL A   1      42.014  28.831  34.508  1.00  0.00    -0.203 F 
ATOM     47  F   UNL A   1      45.264  30.293  38.603  1.00  0.00    -0.200 F 
ATOM     48  C   UNL A   1      44.433  28.636  37.151  1.00  0.00     0.200 A 
ATOM     49  F   UNL A   1      43.615  27.047  35.615  1.00  0.00    -0.200 F 
ATOM     50  F   UNL A   1      45.340  27.759  37.598  1.00  0.00    -0.200 F 
ENDBRANCH  26  40
BRANCH  27  51
ATOM     51  C   UNL A   1      40.147  28.423  28.332  1.00  0.00     0.064 A 
ATOM     52  C   UNL A   1      40.785  28.274  27.093  1.00  0.00     0.173 A 
ATOM     53  C   UNL A   1      39.507  27.278  28.852  1.00  0.00     0.173 A 
ATOM     54  F   UNL A   1      41.466  29.298  26.558  1.00  0.00    -0.203 F 
ATOM     55  C   UNL A   1      40.783  27.051  26.414  1.00  0.00     0.198 A 
ATOM     56  C   UNL A   1      39.492  26.066  28.168  1.00  0.00     0.198 A 
ATOM     57  F   UNL A   1      38.959  27.290  30.076  1.00  0.00    -0.203 F 
ATOM     58  F   UNL A   1      41.448  26.929  25.257  1.00  0.00    -0.200 F 
ATOM     59  C   UNL A   1      40.139  25.948  26.952  1.00  0.00     0.200 A 
ATOM     60  F   UNL A   1      38.896  24.999  28.719  1.00  0.00    -0.200 F 
ATOM     61  F   UNL A   1      40.176  24.766  26.324  1.00  0.00    -0.200 F 
ENDBRANCH  27  51
BRANCH  39  62
ATOM     62  C   UNL A   1      42.945  33.787  30.122  1.00  0.00     0.064 A 
ATOM     63  C   UNL A   1      43.968  34.209  29.257  1.00  0.00     0.173 A 
ATOM     64  C   UNL A   1      41.662  34.315  29.917  1.00  0.00     0.173 A 
ATOM     65  F   UNL A   1      45.190  33.663  29.322  1.00  0.00    -0.203 F 
ATOM     66  C   UNL A   1      43.729  35.159  28.267  1.00  0.00     0.198 A 
ATOM     67  C   UNL A   1      41.419  35.239  28.904  1.00  0.00     0.198 A 
ATOM     68  F   UNL A   1      40.633  33.895  30.670  1.00  0.00    -0.203 F 
ATOM     69  F   UNL A   1      44.725  35.554  27.460  1.00  0.00    -0.200 F 
ATOM     70  C   UNL A   1      42.453  35.670  28.088  1.00  0.00     0.200 A 
ATOM     71  F   UNL A   1      40.174  35.691  28.698  1.00  0.00    -0.200 F 
ATOM     72  F   UNL A   1      42.215  36.554  27.109  1.00  0.00    -0.200 F 
ENDBRANCH  39  62
ENDBRANCH  13  14
ENDBRANCH   6   8
ENDBRANCH   5   6
ENDBRANCH   4   5
ENDBRANCH   3   4
ENDBRANCH   2   3
ENDBRANCH   1   2
BRANCH   1  73
ATOM     73  C   UNL A   1      34.180  32.693  28.318  1.00  0.00     0.188 C 
BRANCH  73  74
ATOM     74  O   UNL A   1      34.190  31.276  28.410  1.00  0.00    -0.376 OA
BRANCH  74  75
ATOM     75  C   UNL A   1      34.110  30.484  27.238  1.00  0.00     0.202 C 
BRANCH  75  76
ATOM     76  C   UNL A   1      32.719  30.070  26.746  1.00  0.00     0.261 C 
BRANCH  76  77
ATOM     77  O   UNL A   1      32.549  30.076  25.318  1.00  0.00    -0.460 OA
BRANCH  77  78
ATOM     78  C   UNL A   1      31.682  29.158  24.838  1.00  0.00     0.338 C 
ATOM     79  O   UNL A   1      30.611  29.366  24.277  1.00  0.00    -0.246 OA
BRANCH  78  80
ATOM     80  C   UNL A   1      32.236  27.802  24.963  1.00  0.00     0.060 A 
ATOM     81  C   UNL A   1      31.687  26.953  25.927  1.00  0.00     0.016 A 
ATOM     82  C   UNL A   1      33.372  27.416  24.250  1.00  0.00     0.016 A 
ATOM     83  C   UNL A   1      32.286  25.727  26.199  1.00  0.00     0.005 A 
ATOM     84  C   UNL A   1      33.998  26.199  24.555  1.00  0.00     0.005 A 
ATOM     85  C   UNL A   1      33.473  25.347  25.548  1.00  0.00    -0.038 A 
BRANCH  85  86
ATOM     86  C   UNL A   1      34.211  24.136  26.101  1.00  0.00     0.081 C 
ATOM     87  C   UNL A   1      35.649  24.077  25.539  1.00  0.00     0.111 C 
ATOM     88  C   UNL A   1      33.455  22.905  25.780  1.00  0.00     0.093 A 
ATOM     89  C   UNL A   1      35.862  23.023  24.464  1.00  0.00     0.188 C 
ATOM     90  C   UNL A   1      33.982  21.937  24.952  1.00  0.00     0.164 A 
ATOM     91  N   UNL A   1      32.212  22.566  26.233  1.00  0.00    -0.238 NA
ATOM     92  N   UNL A   1      35.126  21.984  24.228  1.00  0.00    -0.198 NA
ATOM     93  N   UNL A   1      33.027  20.941  24.901  1.00  0.00    -0.283 N 
ATOM     94  C   UNL A   1      31.964  21.408  25.653  1.00  0.00     0.206 A 
BRANCH  89  95
ATOM     95  O   UNL A   1      36.984  23.189  23.738  1.00  0.00    -0.496 OA
ATOM     96  H   UNL A   1      37.419  22.444  23.372  1.00  0.00     0.294 HD
ENDBRANCH  89  95
BRANCH  93  97
ATOM     97  C   UNL A   1      33.107  19.692  24.236  1.00  0.00     0.050 A 
ATOM     98  C   UNL A   1      32.360  19.466  23.073  1.00  0.00     0.027 A 
ATOM     99  C   UNL A   1      33.926  18.679  24.753  1.00  0.00     0.047 A 
ATOM    100  C   UNL A   1      32.462  18.240  22.412  1.00  0.00     0.004 A 
ATOM    101  C   UNL A   1      33.983  17.445  24.109  1.00  0.00     0.043 A 
ATOM    102  C   UNL A   1      33.266  17.225  22.934  1.00  0.00     0.020 A 
ATOM    103  Cl  UNL A   1      34.930  16.173  24.779  1.00  0.00    -0.084 Cl
ENDBRANCH  93  97
ENDBRANCH  85  86
ENDBRANCH  78  80
ENDBRANCH  77  78
ENDBRANCH  76  77
ENDBRANCH  75  76
ENDBRANCH  74  75
ENDBRANCH  73  74
ENDBRANCH   1  73
TORSDOF 20
ENDMDL
MODEL 2
REMARK VINA RESULT:     -12.8      2.797      4.451
REMARK SMILES O=C(OCCOCCOCCOC(=O)c1ccc([C@@H]2CC(O)=Nc3c2ncn3-c2cccc(Cl)c2)cc1)c1ccc(-c2c3nc(c(-c4c(F)c(F)c(F)c(F)c4F)c4ccc([nH]4)c(-c4c(F)c(F)c(F)c(F)c4F)c4nc(c(-c5c(F)c(F)c(F)c(F)c5F)c5ccc2[nH]5)C=C4)C=C3)cc1
REMARK SMILES IDX 7 1 6 2 5 3 4 4 3 5 2 6 1 7 38 8 39 9 100 10 40 11 99 12
REMARK SMILES IDX 41 13 42 14 43 15 93 16 44 17 98 18 92 19 94 20 45 21 97 22
REMARK SMILES IDX 91 23 90 24 46 26 78 27 58 28 77 29 59 30 62 31 76 32 95 33
REMARK SMILES IDX 60 34 61 35 75 37 96 38 63 39 47 40 48 41 56 42 49 43 50 44
REMARK SMILES IDX 54 45 57 46 51 47 52 48 55 49 53 50 79 51 80 52 88 53 81 54
REMARK SMILES IDX 82 55 86 56 89 57 83 58 84 59 87 60 85 61 64 62 65 63 73 64
REMARK SMILES IDX 66 65 67 66 71 67 74 68 68 69 69 70 72 71 70 72 8 73 9 74
REMARK SMILES IDX 10 75 11 76 12 77 13 78 14 79 15 80 16 81 37 82 17 83 36 84
REMARK SMILES IDX 18 85 19 86 20 87 25 88 21 89 24 90 26 91 23 92 28 93 27 94
REMARK SMILES IDX 22 95 29 97 30 98 35 99 31 100 33 101 32 102 34 103
REMARK H PARENT 94 25 62 36 22 96
REMARK Flexibility Score: inf
ROOT
ATOM      1  C   UNL A   1      33.499  36.187  31.634  1.00  0.00     0.188 C 
ENDROOT
BRANCH   1   2
ATOM      2  O   UNL A   1      33.713  35.044  32.449  1.00  0.00    -0.376 OA
BRANCH   2   3
ATOM      3  C   UNL A   1      34.783  35.137  33.372  1.00  0.00     0.202 C 
BRANCH   3   4
ATOM      4  C   UNL A   1      36.006  34.303  32.994  1.00  0.00     0.261 C 
BRANCH   4   5
ATOM      5  O   UNL A   1      35.981  33.721  31.677  1.00  0.00    -0.460 OA
BRANCH   5   6
ATOM      6  C   UNL A   1      35.621  32.486  31.284  1.00  0.00     0.338 C 
ATOM      7  O   UNL A   1      34.486  32.070  31.502  1.00  0.00    -0.246 OA
BRANCH   6   8
ATOM      8  C   UNL A   1      36.626  31.513  30.800  1.00  0.00     0.060 A 
ATOM      9  C   UNL A   1      36.508  30.132  30.954  1.00  0.00     0.016 A 
ATOM     10  C   UNL A   1      37.817  32.057  30.282  1.00  0.00     0.016 A 
ATOM     11  C   UNL A   1      37.591  29.311  30.662  1.00  0.00     0.010 A 
ATOM     12  C   UNL A   1      38.907  31.240  30.005  1.00  0.00     0.010 A 
ATOM     13  C   UNL A   1      38.808  29.875  30.266  1.00  0.00    -0.014 A 
BRANCH  13  14
ATOM     14  C   UNL A   1      39.987  29.016  30.358  1.00  0.00     0.031 A 
ATOM     15  C   UNL A   1      40.682  28.877  31.664  1.00  0.00     0.074 A 
ATOM     16  C   UNL A   1      40.453  28.372  29.268  1.00  0.00     0.049 A 
ATOM     17  N   UNL A   1      41.917  29.153  31.946  1.00  0.00    -0.248 NA
ATOM     18  C   UNL A   1      39.908  28.361  32.799  1.00  0.00     0.031 C 
ATOM     19  C   UNL A   1      39.783  28.187  27.976  1.00  0.00     0.029 A 
ATOM     20  N   UNL A   1      41.613  27.667  29.125  1.00  0.00    -0.354 N 
ATOM     21  C   UNL A   1      42.128  28.706  33.248  1.00  0.00     0.074 A 
ATOM     22  C   UNL A   1      40.841  28.293  33.750  1.00  0.00     0.031 C 
ATOM     23  C   UNL A   1      40.450  27.256  27.261  1.00  0.00     0.029 A 
ATOM     24  C   UNL A   1      41.652  26.884  27.985  1.00  0.00     0.049 A 
ATOM     25  H   UNL A   1      42.353  27.711  29.772  1.00  0.00     0.167 HD
ATOM     26  C   UNL A   1      43.375  28.546  33.773  1.00  0.00     0.037 A 
ATOM     27  C   UNL A   1      42.568  25.937  27.680  1.00  0.00     0.037 A 
ATOM     28  C   UNL A   1      44.366  29.320  33.077  1.00  0.00     0.049 A 
ATOM     29  C   UNL A   1      43.795  26.207  28.464  1.00  0.00     0.074 A 
ATOM     30  C   UNL A   1      44.557  30.667  32.833  1.00  0.00     0.029 A 
ATOM     31  N   UNL A   1      45.270  28.680  32.270  1.00  0.00    -0.354 N 
ATOM     32  N   UNL A   1      44.598  27.213  28.254  1.00  0.00    -0.248 NA
ATOM     33  C   UNL A   1      43.949  25.544  29.750  1.00  0.00     0.031 C 
ATOM     34  C   UNL A   1      45.202  30.733  31.563  1.00  0.00     0.029 A 
ATOM     35  C   UNL A   1      45.361  29.420  31.121  1.00  0.00     0.049 A 
ATOM     36  H   UNL A   1      45.759  27.849  32.476  1.00  0.00     0.167 HD
ATOM     37  C   UNL A   1      45.067  27.560  29.512  1.00  0.00     0.074 A 
ATOM     38  C   UNL A   1      44.733  26.429  30.368  1.00  0.00     0.031 C 
ATOM     39  C   UNL A   1      45.429  28.844  29.801  1.00  0.00     0.037 A 
BRANCH  26  40
ATOM     40  C   UNL A   1      43.749  27.466  34.755  1.00  0.00     0.064 A 
ATOM     41  C   UNL A   1      44.199  27.811  36.046  1.00  0.00     0.173 A 
ATOM     42  C   UNL A   1      43.956  26.123  34.375  1.00  0.00     0.173 A 
ATOM     43  F   UNL A   1      44.084  29.070  36.496  1.00  0.00    -0.203 F 
ATOM     44  C   UNL A   1      44.858  26.893  36.869  1.00  0.00     0.198 A 
ATOM     45  C   UNL A   1      44.568  25.196  35.219  1.00  0.00     0.198 A 
ATOM     46  F   UNL A   1      43.675  25.690  33.139  1.00  0.00    -0.203 F 
ATOM     47  F   UNL A   1      45.372  27.297  38.039  1.00  0.00    -0.200 F 
ATOM     48  C   UNL A   1      45.045  25.587  36.454  1.00  0.00     0.200 A 
ATOM     49  F   UNL A   1      44.759  23.940  34.792  1.00  0.00    -0.200 F 
ATOM     50  F   UNL A   1      45.724  24.721  37.216  1.00  0.00    -0.200 F 
ENDBRANCH  26  40
BRANCH  27  51
ATOM     51  C   UNL A   1      42.325  24.670  26.960  1.00  0.00     0.064 A 
ATOM     52  C   UNL A   1      43.041  24.333  25.803  1.00  0.00     0.173 A 
ATOM     53  C   UNL A   1      41.542  23.647  27.536  1.00  0.00     0.173 A 
ATOM     54  F   UNL A   1      43.854  25.231  25.229  1.00  0.00    -0.203 F 
ATOM     55  C   UNL A   1      42.979  23.048  25.256  1.00  0.00     0.198 A 
ATOM     56  C   UNL A   1      41.468  22.372  26.981  1.00  0.00     0.198 A 
ATOM     57  F   UNL A   1      40.903  23.839  28.700  1.00  0.00    -0.203 F 
ATOM     58  F   UNL A   1      43.718  22.743  24.180  1.00  0.00    -0.200 F 
ATOM     59  C   UNL A   1      42.194  22.069  25.845  1.00  0.00     0.200 A 
ATOM     60  F   UNL A   1      40.734  21.427  27.584  1.00  0.00    -0.200 F 
ATOM     61  F   UNL A   1      42.171  20.826  25.347  1.00  0.00    -0.200 F 
ENDBRANCH  27  51
BRANCH  39  62
ATOM     62  C   UNL A   1      45.597  29.793  28.652  1.00  0.00     0.064 A 
ATOM     63  C   UNL A   1      44.521  30.462  28.046  1.00  0.00     0.173 A 
ATOM     64  C   UNL A   1      46.891  30.142  28.244  1.00  0.00     0.173 A 
ATOM     65  F   UNL A   1      43.264  30.262  28.464  1.00  0.00    -0.203 F 
ATOM     66  C   UNL A   1      44.731  31.399  27.036  1.00  0.00     0.198 A 
ATOM     67  C   UNL A   1      47.099  31.104  27.260  1.00  0.00     0.198 A 
ATOM     68  F   UNL A   1      47.958  29.584  28.839  1.00  0.00    -0.203 F 
ATOM     69  F   UNL A   1      43.687  32.017  26.465  1.00  0.00    -0.200 F 
ATOM     70  C   UNL A   1      46.021  31.722  26.647  1.00  0.00     0.200 A 
ATOM     71  F   UNL A   1      48.349  31.454  26.923  1.00  0.00    -0.200 F 
ATOM     72  F   UNL A   1      46.225  32.653  25.704  1.00  0.00    -0.200 F 
ENDBRANCH  39  62
ENDBRANCH  13  14
ENDBRANCH   6   8
ENDBRANCH   5   6
ENDBRANCH   4   5
ENDBRANCH   3   4
ENDBRANCH   2   3
ENDBRANCH   1   2
BRANCH   1  73
ATOM     73  C   UNL A   1      32.912  35.894  30.238  1.00  0.00     0.188 C 
BRANCH  73  74
ATOM     74  O   UNL A   1      32.922  34.585  29.686  1.00  0.00    -0.376 OA
BRANCH  74  75
ATOM     75  C   UNL A   1      33.425  34.365  28.380  1.00  0.00     0.202 C 
BRANCH  75  76
ATOM     76  C   UNL A   1      34.143  33.039  28.103  1.00  0.00     0.261 C 
BRANCH  76  77
ATOM     77  O   UNL A   1      33.290  31.960  27.685  1.00  0.00    -0.460 OA
BRANCH  77  78
ATOM     78  C   UNL A   1      33.917  30.782  27.469  1.00  0.00     0.338 C 
ATOM     79  O   UNL A   1      35.062  30.478  27.787  1.00  0.00    -0.246 OA
BRANCH  78  80
ATOM     80  C   UNL A   1      32.995  29.802  26.877  1.00  0.00     0.060 A 
ATOM     81  C   UNL A   1      33.103  28.469  27.282  1.00  0.00     0.016 A 
ATOM     82  C   UNL A   1      32.138  30.153  25.833  1.00  0.00     0.016 A 
ATOM     83  C   UNL A   1      32.372  27.481  26.629  1.00  0.00     0.005 A 
ATOM     84  C   UNL A   1      31.436  29.151  25.150  1.00  0.00     0.005 A 
ATOM     85  C   UNL A   1      31.559  27.799  25.526  1.00  0.00    -0.038 A 
BRANCH  85  86
ATOM     86  C   UNL A   1      31.025  26.637  24.700  1.00  0.00     0.081 C 
ATOM     87  C   UNL A   1      29.891  25.912  25.457  1.00  0.00     0.111 C 
ATOM     88  C   UNL A   1      32.133  25.712  24.371  1.00  0.00     0.093 A 
ATOM     89  C   UNL A   1      30.291  24.576  26.062  1.00  0.00     0.188 C 
ATOM     90  C   UNL A   1      32.148  24.418  24.845  1.00  0.00     0.164 A 
ATOM     91  N   UNL A   1      33.224  25.982  23.596  1.00  0.00    -0.238 NA
ATOM     92  N   UNL A   1      31.304  23.839  25.735  1.00  0.00    -0.198 NA
ATOM     93  N   UNL A   1      33.296  23.852  24.326  1.00  0.00    -0.283 N 
ATOM     94  C   UNL A   1      33.925  24.865  23.626  1.00  0.00     0.206 A 
BRANCH  89  95
ATOM     95  O   UNL A   1      29.439  24.111  26.994  1.00  0.00    -0.496 OA
ATOM     96  H   UNL A   1      28.582  23.823  26.744  1.00  0.00     0.294 HD
ENDBRANCH  89  95
BRANCH  93  97
ATOM     97  C   UNL A   1      33.744  22.514  24.460  1.00  0.00     0.050 A 
ATOM     98  C   UNL A   1      32.826  21.458  24.405  1.00  0.00     0.027 A 
ATOM     99  C   UNL A   1      35.106  22.252  24.659  1.00  0.00     0.047 A 
ATOM    100  C   UNL A   1      33.278  20.141  24.515  1.00  0.00     0.004 A 
ATOM    101  C   UNL A   1      35.538  20.936  24.813  1.00  0.00     0.043 A 
ATOM    102  C   UNL A   1      34.634  19.879  24.728  1.00  0.00     0.020 A 
ATOM    103  Cl  UNL A   1      37.199  20.612  25.131  1.00  0.00    -0.084 Cl
ENDBRANCH  93  97
ENDBRANCH  85  86
ENDBRANCH  78  80
ENDBRANCH  77  78
ENDBRANCH  76  77
ENDBRANCH  75  76
ENDBRANCH  74  75
ENDBRANCH  73  74
ENDBRANCH   1  73
TORSDOF 20
ENDMDL
MODEL 3
REMARK VINA RESULT:     -12.7      3.839      9.345
REMARK SMILES O=C(OCCOCCOCCOC(=O)c1ccc([C@@H]2CC(O)=Nc3c2ncn3-c2cccc(Cl)c2)cc1)c1ccc(-c2c3nc(c(-c4c(F)c(F)c(F)c(F)c4F)c4ccc([nH]4)c(-c4c(F)c(F)c(F)c(F)c4F)c4nc(c(-c5c(F)c(F)c(F)c(F)c5F)c5ccc2[nH]5)C=C4)C=C3)cc1
REMARK SMILES IDX 7 1 6 2 5 3 4 4 3 5 2 6 1 7 38 8 39 9 100 10 40 11 99 12
REMARK SMILES IDX 41 13 42 14 43 15 93 16 44 17 98 18 92 19 94 20 45 21 97 22
REMARK SMILES IDX 91 23 90 24 46 26 78 27 58 28 77 29 59 30 62 31 76 32 95 33
REMARK SMILES IDX 60 34 61 35 75 37 96 38 63 39 47 40 48 41 56 42 49 43 50 44
REMARK SMILES IDX 54 45 57 46 51 47 52 48 55 49 53 50 79 51 80 52 88 53 81 54
REMARK SMILES IDX 82 55 86 56 89 57 83 58 84 59 87 60 85 61 64 62 65 63 73 64
REMARK SMILES IDX 66 65 67 66 71 67 74 68 68 69 69 70 72 71 70 72 8 73 9 74
REMARK SMILES IDX 10 75 11 76 12 77 13 78 14 79 15 80 16 81 37 82 17 83 36 84
REMARK SMILES IDX 18 85 19 86 20 87 25 88 21 89 24 90 26 91 23 92 28 93 27 94
REMARK SMILES IDX 22 95 29 97 30 98 35 99 31 100 33 101 32 102 34 103
REMARK H PARENT 94 25 62 36 22 96
REMARK Flexibility Score: inf
ROOT
ATOM      1  C   UNL A   1      38.666  21.478  26.006  1.00  0.00     0.188 C 
ENDROOT
BRANCH   1   2
ATOM      2  O   UNL A   1      39.968  21.577  26.563  1.00  0.00    -0.376 OA
BRANCH   2   3
ATOM      3  C   UNL A   1      40.968  20.796  25.933  1.00  0.00     0.202 C 
BRANCH   3   4
ATOM      4  C   UNL A   1      42.337  20.875  26.609  1.00  0.00     0.261 C 
BRANCH   4   5
ATOM      5  O   UNL A   1      42.978  22.164  26.569  1.00  0.00    -0.460 OA
BRANCH   5   6
ATOM      6  C   UNL A   1      42.671  23.261  25.855  1.00  0.00     0.338 C 
ATOM      7  O   UNL A   1      43.067  23.382  24.698  1.00  0.00    -0.246 OA
BRANCH   6   8
ATOM      8  C   UNL A   1      42.062  24.448  26.497  1.00  0.00     0.060 A 
ATOM      9  C   UNL A   1      41.500  25.511  25.793  1.00  0.00     0.016 A 
ATOM     10  C   UNL A   1      42.201  24.535  27.896  1.00  0.00     0.016 A 
ATOM     11  C   UNL A   1      41.145  26.674  26.467  1.00  0.00     0.010 A 
ATOM     12  C   UNL A   1      41.863  25.703  28.570  1.00  0.00     0.010 A 
ATOM     13  C   UNL A   1      41.402  26.794  27.837  1.00  0.00    -0.014 A 
BRANCH  13  14
ATOM     14  C   UNL A   1      41.377  28.146  28.391  1.00  0.00     0.031 A 
ATOM     15  C   UNL A   1      42.530  29.051  28.146  1.00  0.00     0.074 A 
ATOM     16  C   UNL A   1      40.330  28.563  29.132  1.00  0.00     0.049 A 
ATOM     17  N   UNL A   1      43.293  29.627  29.022  1.00  0.00    -0.248 NA
ATOM     18  C   UNL A   1      42.875  29.358  26.753  1.00  0.00     0.031 C 
ATOM     19  C   UNL A   1      39.018  27.924  29.278  1.00  0.00     0.029 A 
ATOM     20  N   UNL A   1      40.201  29.714  29.854  1.00  0.00    -0.354 N 
ATOM     21  C   UNL A   1      44.119  30.492  28.307  1.00  0.00     0.074 A 
ATOM     22  C   UNL A   1      43.869  30.234  26.911  1.00  0.00     0.031 C 
ATOM     23  C   UNL A   1      38.166  28.791  29.866  1.00  0.00     0.029 A 
ATOM     24  C   UNL A   1      38.904  29.980  30.253  1.00  0.00     0.049 A 
ATOM     25  H   UNL A   1      40.962  30.300  30.072  1.00  0.00     0.167 HD
ATOM     26  C   UNL A   1      44.834  31.483  28.910  1.00  0.00     0.037 A 
ATOM     27  C   UNL A   1      38.440  31.127  30.798  1.00  0.00     0.037 A 
ATOM     28  C   UNL A   1      45.039  31.237  30.310  1.00  0.00     0.049 A 
ATOM     29  C   UNL A   1      39.585  31.860  31.386  1.00  0.00     0.074 A 
ATOM     30  C   UNL A   1      45.653  30.242  31.047  1.00  0.00     0.029 A 
ATOM     31  N   UNL A   1      44.353  31.989  31.229  1.00  0.00    -0.354 N 
ATOM     32  N   UNL A   1      40.232  31.481  32.453  1.00  0.00    -0.248 NA
ATOM     33  C   UNL A   1      40.261  32.852  30.565  1.00  0.00     0.031 C 
ATOM     34  C   UNL A   1      44.915  30.163  32.264  1.00  0.00     0.029 A 
ATOM     35  C   UNL A   1      43.902  31.118  32.187  1.00  0.00     0.049 A 
ATOM     36  H   UNL A   1      44.211  32.963  31.205  1.00  0.00     0.167 HD
ATOM     37  C   UNL A   1      41.543  31.872  32.228  1.00  0.00     0.074 A 
ATOM     38  C   UNL A   1      41.475  32.813  31.116  1.00  0.00     0.031 C 
ATOM     39  C   UNL A   1      42.589  31.187  32.776  1.00  0.00     0.037 A 
BRANCH  26  40
ATOM     40  C   UNL A   1      45.117  32.824  28.282  1.00  0.00     0.064 A 
ATOM     41  C   UNL A   1      44.058  33.718  28.020  1.00  0.00     0.173 A 
ATOM     42  C   UNL A   1      46.347  33.138  27.667  1.00  0.00     0.173 A 
ATOM     43  F   UNL A   1      42.836  33.495  28.526  1.00  0.00    -0.203 F 
ATOM     44  C   UNL A   1      44.208  34.809  27.160  1.00  0.00     0.198 A 
ATOM     45  C   UNL A   1      46.507  34.258  26.850  1.00  0.00     0.198 A 
ATOM     46  F   UNL A   1      47.403  32.317  27.745  1.00  0.00    -0.203 F 
ATOM     47  F   UNL A   1      43.145  35.563  26.848  1.00  0.00    -0.200 F 
ATOM     48  C   UNL A   1      45.432  35.078  26.574  1.00  0.00     0.200 A 
ATOM     49  F   UNL A   1      47.695  34.490  26.275  1.00  0.00    -0.200 F 
ATOM     50  F   UNL A   1      45.565  36.089  25.707  1.00  0.00    -0.200 F 
ENDBRANCH  26  40
BRANCH  27  51
ATOM     51  C   UNL A   1      37.109  31.734  30.584  1.00  0.00     0.064 A 
ATOM     52  C   UNL A   1      36.153  31.787  31.608  1.00  0.00     0.173 A 
ATOM     53  C   UNL A   1      36.836  32.493  29.427  1.00  0.00     0.173 A 
ATOM     54  F   UNL A   1      36.366  31.140  32.763  1.00  0.00    -0.203 F 
ATOM     55  C   UNL A   1      34.992  32.555  31.481  1.00  0.00     0.198 A 
ATOM     56  C   UNL A   1      35.671  33.246  29.296  1.00  0.00     0.198 A 
ATOM     57  F   UNL A   1      37.735  32.591  28.437  1.00  0.00    -0.203 F 
ATOM     58  F   UNL A   1      34.124  32.627  32.501  1.00  0.00    -0.200 F 
ATOM     59  C   UNL A   1      34.753  33.285  30.328  1.00  0.00     0.200 A 
ATOM     60  F   UNL A   1      35.473  33.976  28.189  1.00  0.00    -0.200 F 
ATOM     61  F   UNL A   1      33.663  34.058  30.226  1.00  0.00    -0.200 F 
ENDBRANCH  27  51
BRANCH  39  62
ATOM     62  C   UNL A   1      42.278  30.201  33.863  1.00  0.00     0.064 A 
ATOM     63  C   UNL A   1      41.801  28.904  33.609  1.00  0.00     0.173 A 
ATOM     64  C   UNL A   1      42.603  30.526  35.187  1.00  0.00     0.173 A 
ATOM     65  F   UNL A   1      41.578  28.488  32.356  1.00  0.00    -0.203 F 
ATOM     66  C   UNL A   1      41.605  27.993  34.645  1.00  0.00     0.198 A 
ATOM     67  C   UNL A   1      42.439  29.601  36.214  1.00  0.00     0.198 A 
ATOM     68  F   UNL A   1      43.127  31.727  35.476  1.00  0.00    -0.203 F 
ATOM     69  F   UNL A   1      41.139  26.764  34.378  1.00  0.00    -0.200 F 
ATOM     70  C   UNL A   1      41.929  28.341  35.946  1.00  0.00     0.200 A 
ATOM     71  F   UNL A   1      42.803  29.921  37.464  1.00  0.00    -0.200 F 
ATOM     72  F   UNL A   1      41.778  27.450  36.936  1.00  0.00    -0.200 F 
ENDBRANCH  39  62
ENDBRANCH  13  14
ENDBRANCH   6   8
ENDBRANCH   5   6
ENDBRANCH   4   5
ENDBRANCH   3   4
ENDBRANCH   2   3
ENDBRANCH   1   2
BRANCH   1  73
ATOM     73  C   UNL A   1      37.950  22.825  25.776  1.00  0.00     0.188 C 
BRANCH  73  74
ATOM     74  O   UNL A   1      36.689  22.896  25.126  1.00  0.00    -0.376 OA
BRANCH  74  75
ATOM     75  C   UNL A   1      36.114  21.735  24.554  1.00  0.00     0.202 C 
BRANCH  75  76
ATOM     76  C   UNL A   1      35.057  20.982  25.370  1.00  0.00     0.261 C 
BRANCH  76  77
ATOM     77  O   UNL A   1      34.362  19.944  24.657  1.00  0.00    -0.460 OA
BRANCH  77  78
ATOM     78  C   UNL A   1      33.056  19.806  24.972  1.00  0.00     0.338 C 
ATOM     79  O   UNL A   1      32.531  18.885  25.590  1.00  0.00    -0.246 OA
BRANCH  78  80
ATOM     80  C   UNL A   1      32.293  20.997  24.571  1.00  0.00     0.060 A 
ATOM     81  C   UNL A   1      32.403  21.435  23.249  1.00  0.00     0.016 A 
ATOM     82  C   UNL A   1      31.599  21.761  25.510  1.00  0.00     0.016 A 
ATOM     83  C   UNL A   1      31.840  22.649  22.868  1.00  0.00     0.005 A 
ATOM     84  C   UNL A   1      31.068  23.003  25.133  1.00  0.00     0.005 A 
ATOM     85  C   UNL A   1      31.200  23.472  23.811  1.00  0.00    -0.038 A 
BRANCH  85  86
ATOM     86  C   UNL A   1      30.867  24.893  23.380  1.00  0.00     0.081 C 
ATOM     87  C   UNL A   1      31.786  25.335  22.219  1.00  0.00     0.111 C 
ATOM     88  C   UNL A   1      30.986  25.805  24.540  1.00  0.00     0.093 A 
ATOM     89  C   UNL A   1      32.886  26.304  22.621  1.00  0.00     0.188 C 
ATOM     90  C   UNL A   1      31.929  26.810  24.566  1.00  0.00     0.164 A 
ATOM     91  N   UNL A   1      30.226  25.791  25.675  1.00  0.00    -0.238 NA
ATOM     92  N   UNL A   1      32.928  27.048  23.681  1.00  0.00    -0.198 NA
ATOM     93  N   UNL A   1      31.735  27.462  25.768  1.00  0.00    -0.283 N 
ATOM     94  C   UNL A   1      30.728  26.764  26.410  1.00  0.00     0.206 A 
BRANCH  89  95
ATOM     95  O   UNL A   1      33.879  26.422  21.720  1.00  0.00    -0.496 OA
ATOM     96  H   UNL A   1      34.677  25.943  21.837  1.00  0.00     0.294 HD
ENDBRANCH  89  95
BRANCH  93  97
ATOM     97  C   UNL A   1      32.405  28.613  26.252  1.00  0.00     0.050 A 
ATOM     98  C   UNL A   1      31.727  29.836  26.338  1.00  0.00     0.027 A 
ATOM     99  C   UNL A   1      33.751  28.528  26.631  1.00  0.00     0.047 A 
ATOM    100  C   UNL A   1      32.388  30.960  26.837  1.00  0.00     0.004 A 
ATOM    101  C   UNL A   1      34.412  29.668  27.084  1.00  0.00     0.043 A 
ATOM    102  C   UNL A   1      33.734  30.880  27.201  1.00  0.00     0.020 A 
ATOM    103  Cl  UNL A   1      36.085  29.586  27.482  1.00  0.00    -0.084 Cl
ENDBRANCH  93  97
ENDBRANCH  85  86
ENDBRANCH  78  80
ENDBRANCH  77  78
ENDBRANCH  76  77
ENDBRANCH  75  76
ENDBRANCH  74  75
ENDBRANCH  73  74
ENDBRANCH   1  73
TORSDOF 20
ENDMDL
