MODEL 1
REMARK VINA RESULT:      -9.8      0.000      0.000
REMARK SMILES O=C(CCSc1ccccc1F)N[C@H](CO)C(=O)OCCOCCOCCOC(=O)c1ccc(-c2c3nc(c(-c4c(F)c(F)c(F)c(F)c4F)c4ccc([nH]4)c(-c4c(F)c(F)c(F)c(F)c4F)c4nc(c(-c5c(F)c(F)c(F)c(F)c5F)c5ccc2[nH]5)C=C4)C=C3)cc1
REMARK SMILES IDX 22 1 21 2 20 3 19 4 17 5 18 6 14 7 13 8 1 9 2 10 3 12 4 13
REMARK SMILES IDX 5 14 6 15 7 16 11 17 8 18 10 19 12 20 9 21 15 22 16 23 23 25
REMARK SMILES IDX 24 26 25 27 26 28 27 29 28 30 29 31 30 32 31 33 32 34 93 35
REMARK SMILES IDX 33 36 92 37 34 38 35 39 36 40 86 41 37 42 91 43 85 44 87 45
REMARK SMILES IDX 38 46 90 47 84 48 83 49 39 51 71 52 51 53 70 54 52 55 55 56
REMARK SMILES IDX 69 57 88 58 53 59 54 60 68 62 89 63 56 64 40 65 41 66 49 67
REMARK SMILES IDX 42 68 43 69 47 70 50 71 44 72 45 73 48 74 46 75 72 76 73 77
REMARK SMILES IDX 81 78 74 79 75 80 79 81 82 82 76 83 77 84 80 85 78 86 57 87
REMARK SMILES IDX 58 88 66 89 59 90 60 91 64 92 67 93 61 94 62 95 65 96 63 97
REMARK H PARENT 13 11 16 24 87 50 55 61
REMARK Flexibility Score: inf
ROOT
ATOM      1  O   UNL A   1      31.282  27.644  26.372  1.00  0.00    -0.376 OA
ENDROOT
BRANCH   1   2
ATOM      2  C   UNL A   1      31.475  26.237  26.275  1.00  0.00     0.202 C 
BRANCH   2   3
ATOM      3  C   UNL A   1      30.318  25.454  25.654  1.00  0.00     0.261 C 
BRANCH   3   4
ATOM      4  O   UNL A   1      30.685  24.678  24.493  1.00  0.00    -0.462 OA
BRANCH   4   5
ATOM      5  C   UNL A   1      30.964  25.340  23.337  1.00  0.00     0.331 C 
ATOM      6  O   UNL A   1      30.271  26.236  22.868  1.00  0.00    -0.250 OA
BRANCH   5   7
ATOM      7  C   UNL A   1      32.276  24.891  22.678  1.00  0.00     0.218 C 
BRANCH   7   8
ATOM      8  N   UNL A   1      33.253  24.508  23.689  1.00  0.00    -0.341 N 
ATOM      9  O   UNL A   1      34.692  23.324  22.357  1.00  0.00    -0.275 OA
ATOM     10  C   UNL A   1      34.449  23.902  23.408  1.00  0.00     0.221 C 
ATOM     11  H   UNL A   1      33.040  24.696  24.632  1.00  0.00     0.164 HD
BRANCH  10  12
ATOM     12  C   UNL A   1      35.468  24.060  24.513  1.00  0.00     0.111 C 
BRANCH  12  13
ATOM     13  C   UNL A   1      35.300  22.958  25.566  1.00  0.00     0.085 C 
BRANCH  13  14
ATOM     14  S   UNL A   1      36.094  21.382  25.025  1.00  0.00    -0.123 SA
BRANCH  14  15
ATOM     15  C   UNL A   1      34.721  20.250  24.826  1.00  0.00     0.043 A 
ATOM     16  C   UNL A   1      33.430  20.803  24.800  1.00  0.00     0.018 A 
ATOM     17  C   UNL A   1      34.852  18.872  24.637  1.00  0.00     0.136 A 
ATOM     18  C   UNL A   1      32.304  19.990  24.628  1.00  0.00     0.001 A 
ATOM     19  C   UNL A   1      33.733  18.058  24.448  1.00  0.00     0.040 A 
ATOM     20  F   UNL A   1      36.060  18.290  24.651  1.00  0.00    -0.206 F 
ATOM     21  C   UNL A   1      32.456  18.616  24.453  1.00  0.00     0.003 A 
ENDBRANCH  14  15
ENDBRANCH  13  14
ENDBRANCH  12  13
ENDBRANCH  10  12
ENDBRANCH   7   8
BRANCH   7  22
ATOM     22  C   UNL A   1      32.763  25.880  21.617  1.00  0.00     0.193 C 
BRANCH  22  23
ATOM     23  O   UNL A   1      31.808  25.975  20.551  1.00  0.00    -0.394 OA
ATOM     24  H   UNL A   1      32.272  25.952  19.700  1.00  0.00     0.210 HD
ENDBRANCH  22  23
ENDBRANCH   7  22
ENDBRANCH   5   7
ENDBRANCH   4   5
ENDBRANCH   3   4
ENDBRANCH   2   3
ENDBRANCH   1   2
BRANCH   1  25
ATOM     25  C   UNL A   1      31.789  28.325  27.515  1.00  0.00     0.188 C 
BRANCH  25  26
ATOM     26  C   UNL A   1      32.801  29.458  27.293  1.00  0.00     0.188 C 
BRANCH  26  27
ATOM     27  O   UNL A   1      32.634  30.324  26.180  1.00  0.00    -0.376 OA
BRANCH  27  28
ATOM     28  C   UNL A   1      31.494  31.167  26.175  1.00  0.00     0.202 C 
BRANCH  28  29
ATOM     29  C   UNL A   1      31.632  32.446  27.003  1.00  0.00     0.261 C 
BRANCH  29  30
ATOM     30  O   UNL A   1      33.007  32.742  27.319  1.00  0.00    -0.460 OA
BRANCH  30  31
ATOM     31  C   UNL A   1      33.206  33.835  28.098  1.00  0.00     0.338 C 
ATOM     32  O   UNL A   1      32.533  34.849  28.140  1.00  0.00    -0.246 OA
BRANCH  31  33
ATOM     33  C   UNL A   1      34.311  33.580  29.046  1.00  0.00     0.060 A 
ATOM     34  C   UNL A   1      35.558  34.172  28.789  1.00  0.00     0.016 A 
ATOM     35  C   UNL A   1      34.159  32.693  30.110  1.00  0.00     0.016 A 
ATOM     36  C   UNL A   1      36.666  33.840  29.569  1.00  0.00     0.010 A 
ATOM     37  C   UNL A   1      35.277  32.342  30.876  1.00  0.00     0.010 A 
ATOM     38  C   UNL A   1      36.542  32.884  30.584  1.00  0.00    -0.014 A 
BRANCH  38  39
ATOM     39  C   UNL A   1      37.757  32.289  31.198  1.00  0.00     0.031 A 
ATOM     40  C   UNL A   1      38.497  31.226  30.430  1.00  0.00     0.074 A 
ATOM     41  C   UNL A   1      38.205  32.676  32.405  1.00  0.00     0.049 A 
ATOM     42  N   UNL A   1      39.497  30.471  30.808  1.00  0.00    -0.248 NA
ATOM     43  C   UNL A   1      38.047  30.983  29.049  1.00  0.00     0.031 C 
ATOM     44  C   UNL A   1      37.625  33.736  33.224  1.00  0.00     0.029 A 
ATOM     45  N   UNL A   1      39.252  32.199  33.159  1.00  0.00    -0.354 N 
ATOM     46  C   UNL A   1      39.783  29.656  29.721  1.00  0.00     0.074 A 
ATOM     47  C   UNL A   1      38.850  29.999  28.671  1.00  0.00     0.031 C 
ATOM     48  C   UNL A   1      38.307  33.813  34.381  1.00  0.00     0.029 A 
ATOM     49  C   UNL A   1      39.346  32.781  34.400  1.00  0.00     0.049 A 
ATOM     50  H   UNL A   1      39.874  31.505  32.842  1.00  0.00     0.167 HD
ATOM     51  C   UNL A   1      40.742  28.708  29.607  1.00  0.00     0.037 A 
ATOM     52  C   UNL A   1      40.151  32.490  35.441  1.00  0.00     0.037 A 
ATOM     53  C   UNL A   1      41.683  28.374  30.642  1.00  0.00     0.049 A 
ATOM     54  C   UNL A   1      41.162  31.376  35.318  1.00  0.00     0.074 A 
ATOM     55  C   UNL A   1      42.696  27.431  30.610  1.00  0.00     0.029 A 
ATOM     56  N   UNL A   1      41.727  28.969  31.892  1.00  0.00    -0.354 N 
ATOM     57  N   UNL A   1      41.423  30.604  34.291  1.00  0.00    -0.248 NA
ATOM     58  C   UNL A   1      41.988  31.088  36.502  1.00  0.00     0.031 C 
ATOM     59  C   UNL A   1      43.325  27.425  31.856  1.00  0.00     0.029 A 
ATOM     60  C   UNL A   1      42.738  28.399  32.647  1.00  0.00     0.049 A 
ATOM     61  H   UNL A   1      41.129  29.689  32.198  1.00  0.00     0.167 HD
ATOM     62  C   UNL A   1      42.452  29.761  34.694  1.00  0.00     0.074 A 
ATOM     63  C   UNL A   1      42.779  30.120  36.056  1.00  0.00     0.031 C 
ATOM     64  C   UNL A   1      43.069  28.777  33.996  1.00  0.00     0.037 A 
BRANCH  51  65
ATOM     65  C   UNL A   1      40.825  27.941  28.323  1.00  0.00     0.064 A 
ATOM     66  C   UNL A   1      40.168  26.709  28.195  1.00  0.00     0.173 A 
ATOM     67  C   UNL A   1      41.632  28.374  27.263  1.00  0.00     0.173 A 
ATOM     68  F   UNL A   1      39.388  26.251  29.186  1.00  0.00    -0.203 F 
ATOM     69  C   UNL A   1      40.336  25.925  27.057  1.00  0.00     0.198 A 
ATOM     70  C   UNL A   1      41.779  27.598  26.117  1.00  0.00     0.198 A 
ATOM     71  F   UNL A   1      42.270  29.552  27.338  1.00  0.00    -0.203 F 
ATOM     72  F   UNL A   1      39.731  24.732  26.972  1.00  0.00    -0.200 F 
ATOM     73  C   UNL A   1      41.141  26.370  26.020  1.00  0.00     0.200 A 
ATOM     74  F   UNL A   1      42.544  28.036  25.107  1.00  0.00    -0.200 F 
ATOM     75  F   UNL A   1      41.307  25.612  24.928  1.00  0.00    -0.200 F 
ENDBRANCH  51  65
BRANCH  52  76
ATOM     76  C   UNL A   1      40.018  33.244  36.716  1.00  0.00     0.064 A 
ATOM     77  C   UNL A   1      40.801  34.379  36.974  1.00  0.00     0.173 A 
ATOM     78  C   UNL A   1      39.089  32.858  37.692  1.00  0.00     0.173 A 
ATOM     79  F   UNL A   1      41.699  34.795  36.068  1.00  0.00    -0.203 F 
ATOM     80  C   UNL A   1      40.669  35.090  38.164  1.00  0.00     0.198 A 
ATOM     81  C   UNL A   1      38.938  33.587  38.870  1.00  0.00     0.198 A 
ATOM     82  F   UNL A   1      38.296  31.797  37.479  1.00  0.00    -0.203 F 
ATOM     83  F   UNL A   1      41.446  36.158  38.394  1.00  0.00    -0.200 F 
ATOM     84  C   UNL A   1      39.733  34.698  39.108  1.00  0.00     0.200 A 
ATOM     85  F   UNL A   1      38.012  33.222  39.767  1.00  0.00    -0.200 F 
ATOM     86  F   UNL A   1      39.590  35.396  40.243  1.00  0.00    -0.200 F 
ENDBRANCH  52  76
BRANCH  64  87
ATOM     87  C   UNL A   1      44.185  28.029  34.663  1.00  0.00     0.064 A 
ATOM     88  C   UNL A   1      43.930  26.818  35.327  1.00  0.00     0.173 A 
ATOM     89  C   UNL A   1      45.482  28.557  34.734  1.00  0.00     0.173 A 
ATOM     90  F   UNL A   1      42.703  26.277  35.299  1.00  0.00    -0.203 F 
ATOM     91  C   UNL A   1      44.928  26.175  36.053  1.00  0.00     0.198 A 
ATOM     92  C   UNL A   1      46.485  27.896  35.439  1.00  0.00     0.198 A 
ATOM     93  F   UNL A   1      45.778  29.705  34.109  1.00  0.00    -0.203 F 
ATOM     94  F   UNL A   1      44.651  25.042  36.712  1.00  0.00    -0.200 F 
ATOM     95  C   UNL A   1      46.204  26.713  36.108  1.00  0.00     0.200 A 
ATOM     96  F   UNL A   1      47.724  28.407  35.475  1.00  0.00    -0.200 F 
ATOM     97  F   UNL A   1      47.166  26.091  36.804  1.00  0.00    -0.200 F 
ENDBRANCH  64  87
ENDBRANCH  38  39
ENDBRANCH  31  33
ENDBRANCH  30  31
ENDBRANCH  29  30
ENDBRANCH  28  29
ENDBRANCH  27  28
ENDBRANCH  26  27
ENDBRANCH  25  26
ENDBRANCH   1  25
TORSDOF 24
ENDMDL
MODEL 2
REMARK VINA RESULT:      -9.7      2.168      7.736
REMARK SMILES O=C(CCSc1ccccc1F)N[C@H](CO)C(=O)OCCOCCOCCOC(=O)c1ccc(-c2c3nc(c(-c4c(F)c(F)c(F)c(F)c4F)c4ccc([nH]4)c(-c4c(F)c(F)c(F)c(F)c4F)c4nc(c(-c5c(F)c(F)c(F)c(F)c5F)c5ccc2[nH]5)C=C4)C=C3)cc1
REMARK SMILES IDX 22 1 21 2 20 3 19 4 17 5 18 6 14 7 13 8 1 9 2 10 3 12 4 13
REMARK SMILES IDX 5 14 6 15 7 16 11 17 8 18 10 19 12 20 9 21 15 22 16 23 23 25
REMARK SMILES IDX 24 26 25 27 26 28 27 29 28 30 29 31 30 32 31 33 32 34 93 35
REMARK SMILES IDX 33 36 92 37 34 38 35 39 36 40 86 41 37 42 91 43 85 44 87 45
REMARK SMILES IDX 38 46 90 47 84 48 83 49 39 51 71 52 51 53 70 54 52 55 55 56
REMARK SMILES IDX 69 57 88 58 53 59 54 60 68 62 89 63 56 64 40 65 41 66 49 67
REMARK SMILES IDX 42 68 43 69 47 70 50 71 44 72 45 73 48 74 46 75 72 76 73 77
REMARK SMILES IDX 81 78 74 79 75 80 79 81 82 82 76 83 77 84 80 85 78 86 57 87
REMARK SMILES IDX 58 88 66 89 59 90 60 91 64 92 67 93 61 94 62 95 65 96 63 97
REMARK H PARENT 13 11 16 24 87 50 55 61
REMARK Flexibility Score: inf
ROOT
ATOM      1  O   UNL A   1      33.266  27.448  22.639  1.00  0.00    -0.376 OA
ENDROOT
BRANCH   1   2
ATOM      2  C   UNL A   1      33.057  26.177  22.033  1.00  0.00     0.202 C 
BRANCH   2   3
ATOM      3  C   UNL A   1      33.476  24.969  22.870  1.00  0.00     0.261 C 
BRANCH   3   4
ATOM      4  O   UNL A   1      32.370  24.194  23.383  1.00  0.00    -0.462 OA
BRANCH   4   5
ATOM      5  C   UNL A   1      31.748  24.628  24.513  1.00  0.00     0.331 C 
ATOM      6  O   UNL A   1      31.048  25.633  24.576  1.00  0.00    -0.250 OA
BRANCH   5   7
ATOM      7  C   UNL A   1      31.963  23.706  25.722  1.00  0.00     0.218 C 
BRANCH   7   8
ATOM      8  N   UNL A   1      33.156  22.888  25.537  1.00  0.00    -0.341 N 
ATOM      9  O   UNL A   1      33.510  22.285  27.718  1.00  0.00    -0.275 OA
ATOM     10  C   UNL A   1      33.720  22.124  26.523  1.00  0.00     0.221 C 
ATOM     11  H   UNL A   1      33.580  22.885  24.648  1.00  0.00     0.164 HD
BRANCH  10  12
ATOM     12  C   UNL A   1      34.601  21.019  25.986  1.00  0.00     0.111 C 
BRANCH  12  13
ATOM     13  C   UNL A   1      35.415  21.511  24.783  1.00  0.00     0.085 C 
BRANCH  13  14
ATOM     14  S   UNL A   1      37.110  20.782  24.771  1.00  0.00    -0.123 SA
BRANCH  14  15
ATOM     15  C   UNL A   1      38.100  21.970  25.673  1.00  0.00     0.043 A 
ATOM     16  C   UNL A   1      37.567  23.258  25.838  1.00  0.00     0.018 A 
ATOM     17  C   UNL A   1      39.332  21.684  26.268  1.00  0.00     0.136 A 
ATOM     18  C   UNL A   1      38.268  24.240  26.548  1.00  0.00     0.001 A 
ATOM     19  C   UNL A   1      40.028  22.655  26.991  1.00  0.00     0.040 A 
ATOM     20  F   UNL A   1      39.888  20.470  26.144  1.00  0.00    -0.206 F 
ATOM     21  C   UNL A   1      39.500  23.938  27.124  1.00  0.00     0.003 A 
ENDBRANCH  14  15
ENDBRANCH  13  14
ENDBRANCH  12  13
ENDBRANCH  10  12
ENDBRANCH   7   8
BRANCH   7  22
ATOM     22  C   UNL A   1      30.690  22.954  26.115  1.00  0.00     0.193 C 
BRANCH  22  23
ATOM     23  O   UNL A   1      30.546  22.936  27.543  1.00  0.00    -0.394 OA
ATOM     24  H   UNL A   1      30.018  22.165  27.804  1.00  0.00     0.210 HD
ENDBRANCH  22  23
ENDBRANCH   7  22
ENDBRANCH   5   7
ENDBRANCH   4   5
ENDBRANCH   3   4
ENDBRANCH   2   3
ENDBRANCH   1   2
BRANCH   1  25
ATOM     25  C   UNL A   1      33.995  27.510  23.860  1.00  0.00     0.188 C 
BRANCH  25  26
ATOM     26  C   UNL A   1      33.388  28.302  25.027  1.00  0.00     0.188 C 
BRANCH  26  27
ATOM     27  O   UNL A   1      32.624  29.465  24.748  1.00  0.00    -0.376 OA
BRANCH  27  28
ATOM     28  C   UNL A   1      31.646  29.848  25.700  1.00  0.00     0.202 C 
BRANCH  28  29
ATOM     29  C   UNL A   1      32.180  30.649  26.890  1.00  0.00     0.261 C 
BRANCH  29  30
ATOM     30  O   UNL A   1      33.490  31.193  26.632  1.00  0.00    -0.460 OA
BRANCH  30  31
ATOM     31  C   UNL A   1      34.034  31.911  27.646  1.00  0.00     0.338 C 
ATOM     32  O   UNL A   1      33.513  32.808  28.284  1.00  0.00    -0.246 OA
BRANCH  31  33
ATOM     33  C   UNL A   1      35.356  31.353  28.003  1.00  0.00     0.060 A 
ATOM     34  C   UNL A   1      35.462  29.967  28.198  1.00  0.00     0.016 A 
ATOM     35  C   UNL A   1      36.449  32.184  28.245  1.00  0.00     0.016 A 
ATOM     36  C   UNL A   1      36.650  29.415  28.681  1.00  0.00     0.010 A 
ATOM     37  C   UNL A   1      37.630  31.632  28.753  1.00  0.00     0.010 A 
ATOM     38  C   UNL A   1      37.722  30.251  29.011  1.00  0.00    -0.014 A 
BRANCH  38  39
ATOM     39  C   UNL A   1      38.854  29.727  29.818  1.00  0.00     0.031 A 
ATOM     40  C   UNL A   1      39.052  30.271  31.207  1.00  0.00     0.074 A 
ATOM     41  C   UNL A   1      39.690  28.787  29.342  1.00  0.00     0.049 A 
ATOM     42  N   UNL A   1      40.036  30.069  32.047  1.00  0.00    -0.248 NA
ATOM     43  C   UNL A   1      37.998  31.163  31.718  1.00  0.00     0.031 C 
ATOM     44  C   UNL A   1      39.574  28.129  28.044  1.00  0.00     0.029 A 
ATOM     45  N   UNL A   1      40.821  28.239  29.901  1.00  0.00    -0.354 N 
ATOM     46  C   UNL A   1      39.727  30.820  33.174  1.00  0.00     0.074 A 
ATOM     47  C   UNL A   1      38.472  31.489  32.912  1.00  0.00     0.031 C 
ATOM     48  C   UNL A   1      40.609  27.282  27.893  1.00  0.00     0.029 A 
ATOM     49  C   UNL A   1      41.480  27.369  29.067  1.00  0.00     0.049 A 
ATOM     50  H   UNL A   1      41.129  28.449  30.812  1.00  0.00     0.167 HD
ATOM     51  C   UNL A   1      40.426  30.938  34.326  1.00  0.00     0.037 A 
ATOM     52  C   UNL A   1      42.666  26.746  29.218  1.00  0.00     0.037 A 
ATOM     53  C   UNL A   1      41.667  30.264  34.598  1.00  0.00     0.049 A 
ATOM     54  C   UNL A   1      43.466  26.954  30.481  1.00  0.00     0.074 A 
ATOM     55  C   UNL A   1      42.441  30.319  35.744  1.00  0.00     0.029 A 
ATOM     56  N   UNL A   1      42.313  29.413  33.717  1.00  0.00    -0.354 N 
ATOM     57  N   UNL A   1      43.173  27.670  31.539  1.00  0.00    -0.248 NA
ATOM     58  C   UNL A   1      44.767  26.270  30.569  1.00  0.00     0.031 C 
ATOM     59  C   UNL A   1      43.578  29.535  35.540  1.00  0.00     0.029 A 
ATOM     60  C   UNL A   1      43.488  28.953  34.287  1.00  0.00     0.049 A 
ATOM     61  H   UNL A   1      41.986  29.172  32.819  1.00  0.00     0.167 HD
ATOM     62  C   UNL A   1      44.233  27.505  32.422  1.00  0.00     0.074 A 
ATOM     63  C   UNL A   1      45.175  26.612  31.784  1.00  0.00     0.031 C 
ATOM     64  C   UNL A   1      44.410  28.048  33.651  1.00  0.00     0.037 A 
BRANCH  51  65
ATOM     65  C   UNL A   1      39.884  31.844  35.389  1.00  0.00     0.064 A 
ATOM     66  C   UNL A   1      38.867  31.396  36.245  1.00  0.00     0.173 A 
ATOM     67  C   UNL A   1      40.297  33.178  35.494  1.00  0.00     0.173 A 
ATOM     68  F   UNL A   1      38.436  30.127  36.179  1.00  0.00    -0.203 F 
ATOM     69  C   UNL A   1      38.266  32.261  37.154  1.00  0.00     0.198 A 
ATOM     70  C   UNL A   1      39.709  34.035  36.420  1.00  0.00     0.198 A 
ATOM     71  F   UNL A   1      41.274  33.646  34.703  1.00  0.00    -0.203 F 
ATOM     72  F   UNL A   1      37.269  31.824  37.935  1.00  0.00    -0.200 F 
ATOM     73  C   UNL A   1      38.687  33.580  37.240  1.00  0.00     0.200 A 
ATOM     74  F   UNL A   1      40.127  35.305  36.515  1.00  0.00    -0.200 F 
ATOM     75  F   UNL A   1      38.104  34.414  38.111  1.00  0.00    -0.200 F 
ENDBRANCH  51  65
BRANCH  52  76
ATOM     76  C   UNL A   1      43.196  25.884  28.128  1.00  0.00     0.064 A 
ATOM     77  C   UNL A   1      43.917  26.430  27.056  1.00  0.00     0.173 A 
ATOM     78  C   UNL A   1      43.013  24.495  28.149  1.00  0.00     0.173 A 
ATOM     79  F   UNL A   1      44.128  27.754  26.994  1.00  0.00    -0.203 F 
ATOM     80  C   UNL A   1      44.422  25.622  26.040  1.00  0.00     0.198 A 
ATOM     81  C   UNL A   1      43.542  23.684  27.147  1.00  0.00     0.198 A 
ATOM     82  F   UNL A   1      42.356  23.922  29.169  1.00  0.00    -0.203 F 
ATOM     83  F   UNL A   1      45.088  26.173  25.016  1.00  0.00    -0.200 F 
ATOM     84  C   UNL A   1      44.241  24.249  26.090  1.00  0.00     0.200 A 
ATOM     85  F   UNL A   1      43.391  22.354  27.215  1.00  0.00    -0.200 F 
ATOM     86  F   UNL A   1      44.746  23.468  25.125  1.00  0.00    -0.200 F 
ENDBRANCH  52  76
BRANCH  64  87
ATOM     87  C   UNL A   1      45.645  27.677  34.418  1.00  0.00     0.064 A 
ATOM     88  C   UNL A   1      46.833  28.404  34.243  1.00  0.00     0.173 A 
ATOM     89  C   UNL A   1      45.681  26.546  35.245  1.00  0.00     0.173 A 
ATOM     90  F   UNL A   1      46.852  29.487  33.452  1.00  0.00    -0.203 F 
ATOM     91  C   UNL A   1      48.017  27.999  34.853  1.00  0.00     0.198 A 
ATOM     92  C   UNL A   1      46.862  26.160  35.875  1.00  0.00     0.198 A 
ATOM     93  F   UNL A   1      44.571  25.824  35.452  1.00  0.00    -0.203 F 
ATOM     94  F   UNL A   1      49.148  28.685  34.638  1.00  0.00    -0.200 F 
ATOM     95  C   UNL A   1      48.031  26.879  35.669  1.00  0.00     0.200 A 
ATOM     96  F   UNL A   1      46.871  25.088  36.681  1.00  0.00    -0.200 F 
ATOM     97  F   UNL A   1      49.170  26.492  36.259  1.00  0.00    -0.200 F 
ENDBRANCH  64  87
ENDBRANCH  38  39
ENDBRANCH  31  33
ENDBRANCH  30  31
ENDBRANCH  29  30
ENDBRANCH  28  29
ENDBRANCH  27  28
ENDBRANCH  26  27
ENDBRANCH  25  26
ENDBRANCH   1  25
TORSDOF 24
ENDMDL
MODEL 3
REMARK VINA RESULT:      -9.7      1.637      7.523
REMARK SMILES O=C(CCSc1ccccc1F)N[C@H](CO)C(=O)OCCOCCOCCOC(=O)c1ccc(-c2c3nc(c(-c4c(F)c(F)c(F)c(F)c4F)c4ccc([nH]4)c(-c4c(F)c(F)c(F)c(F)c4F)c4nc(c(-c5c(F)c(F)c(F)c(F)c5F)c5ccc2[nH]5)C=C4)C=C3)cc1
REMARK SMILES IDX 22 1 21 2 20 3 19 4 17 5 18 6 14 7 13 8 1 9 2 10 3 12 4 13
REMARK SMILES IDX 5 14 6 15 7 16 11 17 8 18 10 19 12 20 9 21 15 22 16 23 23 25
REMARK SMILES IDX 24 26 25 27 26 28 27 29 28 30 29 31 30 32 31 33 32 34 93 35
REMARK SMILES IDX 33 36 92 37 34 38 35 39 36 40 86 41 37 42 91 43 85 44 87 45
REMARK SMILES IDX 38 46 90 47 84 48 83 49 39 51 71 52 51 53 70 54 52 55 55 56
REMARK SMILES IDX 69 57 88 58 53 59 54 60 68 62 89 63 56 64 40 65 41 66 49 67
REMARK SMILES IDX 42 68 43 69 47 70 50 71 44 72 45 73 48 74 46 75 72 76 73 77
REMARK SMILES IDX 81 78 74 79 75 80 79 81 82 82 76 83 77 84 80 85 78 86 57 87
REMARK SMILES IDX 58 88 66 89 59 90 60 91 64 92 67 93 61 94 62 95 65 96 63 97
REMARK H PARENT 13 11 16 24 87 50 55 61
REMARK Flexibility Score: inf
ROOT
ATOM      1  O   UNL A   1      31.048  27.632  26.193  1.00  0.00    -0.376 OA
ENDROOT
BRANCH   1   2
ATOM      2  C   UNL A   1      30.827  26.297  25.750  1.00  0.00     0.202 C 
BRANCH   2   3
ATOM      3  C   UNL A   1      29.539  26.070  24.958  1.00  0.00     0.261 C 
BRANCH   3   4
ATOM      4  O   UNL A   1      29.745  25.834  23.548  1.00  0.00    -0.462 OA
BRANCH   4   5
ATOM      5  C   UNL A   1      30.326  26.817  22.809  1.00  0.00     0.331 C 
ATOM      6  O   UNL A   1      29.876  27.950  22.687  1.00  0.00    -0.250 OA
BRANCH   5   7
ATOM      7  C   UNL A   1      31.652  26.391  22.161  1.00  0.00     0.218 C 
BRANCH   7   8
ATOM      8  N   UNL A   1      31.901  24.973  22.388  1.00  0.00    -0.341 N 
ATOM      9  O   UNL A   1      33.285  24.570  20.607  1.00  0.00    -0.275 OA
ATOM     10  C   UNL A   1      32.820  24.236  21.689  1.00  0.00     0.221 C 
ATOM     11  H   UNL A   1      31.377  24.518  23.086  1.00  0.00     0.164 HD
BRANCH  10  12
ATOM     12  C   UNL A   1      33.245  22.978  22.412  1.00  0.00     0.111 C 
BRANCH  12  13
ATOM     13  C   UNL A   1      32.248  22.628  23.523  1.00  0.00     0.085 C 
BRANCH  13  14
ATOM     14  S   UNL A   1      32.937  23.006  25.193  1.00  0.00    -0.123 SA
BRANCH  14  15
ATOM     15  C   UNL A   1      34.654  22.510  25.075  1.00  0.00     0.043 A 
ATOM     16  C   UNL A   1      35.619  23.529  25.069  1.00  0.00     0.018 A 
ATOM     17  C   UNL A   1      35.094  21.183  25.049  1.00  0.00     0.136 A 
ATOM     18  C   UNL A   1      36.984  23.225  25.000  1.00  0.00     0.001 A 
ATOM     19  C   UNL A   1      36.455  20.874  24.998  1.00  0.00     0.040 A 
ATOM     20  F   UNL A   1      34.216  20.169  25.055  1.00  0.00    -0.206 F 
ATOM     21  C   UNL A   1      37.402  21.896  24.964  1.00  0.00     0.003 A 
ENDBRANCH  14  15
ENDBRANCH  13  14
ENDBRANCH  12  13
ENDBRANCH  10  12
ENDBRANCH   7   8
BRANCH   7  22
ATOM     22  C   UNL A   1      32.803  27.337  22.510  1.00  0.00     0.193 C 
BRANCH  22  23
ATOM     23  O   UNL A   1      33.654  27.525  21.371  1.00  0.00    -0.394 OA
ATOM     24  H   UNL A   1      34.570  27.639  21.668  1.00  0.00     0.210 HD
ENDBRANCH  22  23
ENDBRANCH   7  22
ENDBRANCH   5   7
ENDBRANCH   4   5
ENDBRANCH   3   4
ENDBRANCH   2   3
ENDBRANCH   1   2
BRANCH   1  25
ATOM     25  C   UNL A   1      32.321  27.969  26.733  1.00  0.00     0.188 C 
BRANCH  25  26
ATOM     26  C   UNL A   1      33.213  28.933  25.937  1.00  0.00     0.188 C 
BRANCH  26  27
ATOM     27  O   UNL A   1      32.629  30.083  25.344  1.00  0.00    -0.376 OA
BRANCH  27  28
ATOM     28  C   UNL A   1      31.474  30.622  25.966  1.00  0.00     0.202 C 
BRANCH  28  29
ATOM     29  C   UNL A   1      31.742  31.761  26.952  1.00  0.00     0.261 C 
BRANCH  29  30
ATOM     30  O   UNL A   1      32.937  32.496  26.619  1.00  0.00    -0.460 OA
BRANCH  30  31
ATOM     31  C   UNL A   1      33.543  33.126  27.656  1.00  0.00     0.338 C 
ATOM     32  O   UNL A   1      33.109  34.051  28.318  1.00  0.00    -0.246 OA
BRANCH  31  33
ATOM     33  C   UNL A   1      34.800  32.429  28.001  1.00  0.00     0.060 A 
ATOM     34  C   UNL A   1      34.768  31.033  28.149  1.00  0.00     0.016 A 
ATOM     35  C   UNL A   1      35.968  33.139  28.276  1.00  0.00     0.016 A 
ATOM     36  C   UNL A   1      35.891  30.351  28.620  1.00  0.00     0.010 A 
ATOM     37  C   UNL A   1      37.085  32.457  28.772  1.00  0.00     0.010 A 
ATOM     38  C   UNL A   1      37.039  31.066  28.983  1.00  0.00    -0.014 A 
BRANCH  38  39
ATOM     39  C   UNL A   1      38.106  30.407  29.777  1.00  0.00     0.031 A 
ATOM     40  C   UNL A   1      38.269  30.802  31.221  1.00  0.00     0.074 A 
ATOM     41  C   UNL A   1      38.916  29.474  29.244  1.00  0.00     0.049 A 
ATOM     42  N   UNL A   1      39.204  30.468  32.074  1.00  0.00    -0.248 NA
ATOM     43  C   UNL A   1      37.239  31.695  31.775  1.00  0.00     0.031 C 
ATOM     44  C   UNL A   1      38.824  28.953  27.884  1.00  0.00     0.029 A 
ATOM     45  N   UNL A   1      39.992  28.814  29.789  1.00  0.00    -0.354 N 
ATOM     46  C   UNL A   1      38.883  31.121  33.257  1.00  0.00     0.074 A 
ATOM     47  C   UNL A   1      37.675  31.878  33.013  1.00  0.00     0.031 C 
ATOM     48  C   UNL A   1      39.822  28.070  27.690  1.00  0.00     0.029 A 
ATOM     49  C   UNL A   1      40.643  27.996  28.899  1.00  0.00     0.049 A 
ATOM     50  H   UNL A   1      40.269  28.918  30.728  1.00  0.00     0.167 HD
ATOM     51  C   UNL A   1      39.535  31.089  34.441  1.00  0.00     0.037 A 
ATOM     52  C   UNL A   1      41.790  27.299  29.034  1.00  0.00     0.037 A 
ATOM     53  C   UNL A   1      40.728  30.326  34.693  1.00  0.00     0.049 A 
ATOM     54  C   UNL A   1      42.543  27.340  30.342  1.00  0.00     0.074 A 
ATOM     55  C   UNL A   1      41.453  30.228  35.869  1.00  0.00     0.029 A 
ATOM     56  N   UNL A   1      41.370  29.531  33.758  1.00  0.00    -0.354 N 
ATOM     57  N   UNL A   1      42.238  27.965  31.453  1.00  0.00    -0.248 NA
ATOM     58  C   UNL A   1      43.803  26.583  30.412  1.00  0.00     0.031 C 
ATOM     59  C   UNL A   1      42.558  29.409  35.632  1.00  0.00     0.029 A 
ATOM     60  C   UNL A   1      42.495  28.956  34.325  1.00  0.00     0.049 A 
ATOM     61  H   UNL A   1      41.072  29.397  32.829  1.00  0.00     0.167 HD
ATOM     62  C   UNL A   1      43.249  27.659  32.356  1.00  0.00     0.074 A 
ATOM     63  C   UNL A   1      44.173  26.783  31.670  1.00  0.00     0.031 C 
ATOM     64  C   UNL A   1      43.398  28.070  33.639  1.00  0.00     0.037 A 
BRANCH  51  65
ATOM     65  C   UNL A   1      38.992  31.914  35.567  1.00  0.00     0.064 A 
ATOM     66  C   UNL A   1      39.372  33.257  35.704  1.00  0.00     0.173 A 
ATOM     67  C   UNL A   1      38.180  31.352  36.561  1.00  0.00     0.173 A 
ATOM     68  F   UNL A   1      40.152  33.837  34.779  1.00  0.00    -0.203 F 
ATOM     69  C   UNL A   1      38.977  34.002  36.811  1.00  0.00     0.198 A 
ATOM     70  C   UNL A   1      37.768  32.108  37.655  1.00  0.00     0.198 A 
ATOM     71  F   UNL A   1      37.782  30.075  36.464  1.00  0.00    -0.203 F 
ATOM     72  F   UNL A   1      39.386  35.272  36.943  1.00  0.00    -0.200 F 
ATOM     73  C   UNL A   1      38.177  33.427  37.785  1.00  0.00     0.200 A 
ATOM     74  F   UNL A   1      36.979  31.556  38.588  1.00  0.00    -0.200 F 
ATOM     75  F   UNL A   1      37.802  34.143  38.854  1.00  0.00    -0.200 F 
ENDBRANCH  51  65
BRANCH  52  76
ATOM     76  C   UNL A   1      42.324  26.520  27.886  1.00  0.00     0.064 A 
ATOM     77  C   UNL A   1      41.984  25.172  27.702  1.00  0.00     0.173 A 
ATOM     78  C   UNL A   1      43.167  27.115  26.936  1.00  0.00     0.173 A 
ATOM     79  F   UNL A   1      41.174  24.558  28.577  1.00  0.00    -0.203 F 
ATOM     80  C   UNL A   1      42.477  24.445  26.620  1.00  0.00     0.198 A 
ATOM     81  C   UNL A   1      43.637  26.395  25.840  1.00  0.00     0.198 A 
ATOM     82  F   UNL A   1      43.496  28.410  27.052  1.00  0.00    -0.203 F 
ATOM     83  F   UNL A   1      42.154  23.152  26.481  1.00  0.00    -0.200 F 
ATOM     84  C   UNL A   1      43.297  25.058  25.686  1.00  0.00     0.200 A 
ATOM     85  F   UNL A   1      44.404  27.000  24.923  1.00  0.00    -0.200 F 
ATOM     86  F   UNL A   1      43.753  24.366  24.634  1.00  0.00    -0.200 F 
ENDBRANCH  52  76
BRANCH  64  87
ATOM     87  C   UNL A   1      44.578  27.560  34.413  1.00  0.00     0.064 A 
ATOM     88  C   UNL A   1      45.797  28.256  34.385  1.00  0.00     0.173 A 
ATOM     89  C   UNL A   1      44.534  26.337  35.097  1.00  0.00     0.173 A 
ATOM     90  F   UNL A   1      45.894  29.425  33.735  1.00  0.00    -0.203 F 
ATOM     91  C   UNL A   1      46.934  27.735  34.997  1.00  0.00     0.198 A 
ATOM     92  C   UNL A   1      45.667  25.832  35.731  1.00  0.00     0.198 A 
ATOM     93  F   UNL A   1      43.391  25.640  35.160  1.00  0.00    -0.203 F 
ATOM     94  F   UNL A   1      48.097  28.397  34.923  1.00  0.00    -0.200 F 
ATOM     95  C   UNL A   1      46.867  26.524  35.670  1.00  0.00     0.200 A 
ATOM     96  F   UNL A   1      45.597  24.671  36.398  1.00  0.00    -0.200 F 
ATOM     97  F   UNL A   1      47.961  26.025  36.262  1.00  0.00    -0.200 F 
ENDBRANCH  64  87
ENDBRANCH  38  39
ENDBRANCH  31  33
ENDBRANCH  30  31
ENDBRANCH  29  30
ENDBRANCH  28  29
ENDBRANCH  27  28
ENDBRANCH  26  27
ENDBRANCH  25  26
ENDBRANCH   1  25
TORSDOF 24
ENDMDL
