MODEL 1
REMARK VINA RESULT:     -10.4      0.000      0.000
REMARK SMILES COc1ccccc1S(=O)(=O)[C@@H](C)[C@H](C)C(=O)OCCOCCOCCOC(=O)c1ccc(-c2c3nc(c(-c4c(F)c(F)c(F)c(F)c4F)c4ccc([nH]4)c(-c4c(F)c(F)c(F)c(F)c4F)c4nc(c(-c5c(F)c(F)c(F)c(F)c5F)c5ccc2[nH]5)C=C4)C=C3)cc1
REMARK SMILES IDX 22 1 21 2 20 3 19 4 18 5 16 6 17 7 14 8 15 9 12 10 13 11
REMARK SMILES IDX 9 12 10 13 11 14 8 15 3 16 4 17 5 18 7 19 6 20 2 21 1 22
REMARK SMILES IDX 23 23 24 24 25 25 26 26 27 27 28 28 29 29 30 30 31 31 92 32
REMARK SMILES IDX 32 33 91 34 33 35 34 36 35 37 85 38 36 39 90 40 84 41 86 42
REMARK SMILES IDX 37 43 89 44 83 45 82 46 38 48 70 49 50 50 69 51 51 52 54 53
REMARK SMILES IDX 68 54 87 55 52 56 53 57 67 59 88 60 55 61 39 62 40 63 48 64
REMARK SMILES IDX 41 65 42 66 46 67 49 68 43 69 44 70 47 71 45 72 71 73 72 74
REMARK SMILES IDX 80 75 73 76 74 77 78 78 81 79 75 80 76 81 79 82 77 83 56 84
REMARK SMILES IDX 57 85 65 86 58 87 59 88 63 89 66 90 60 91 61 92 64 93 62 94
REMARK H PARENT 86 47 54 58
REMARK Flexibility Score: inf
ROOT
ATOM      1  C   UNL A   1      34.423  29.631  27.327  1.00  0.00     0.188 C 
ENDROOT
BRANCH   1   2
ATOM      2  O   UNL A   1      34.198  28.769  26.219  1.00  0.00    -0.376 OA
BRANCH   2   3
ATOM      3  C   UNL A   1      33.597  27.508  26.440  1.00  0.00     0.202 C 
BRANCH   3   4
ATOM      4  C   UNL A   1      32.187  27.503  27.041  1.00  0.00     0.261 C 
BRANCH   4   5
ATOM      5  O   UNL A   1      31.142  27.009  26.172  1.00  0.00    -0.463 OA
BRANCH   5   6
ATOM      6  C   UNL A   1      31.073  25.664  25.990  1.00  0.00     0.310 C 
ATOM      7  O   UNL A   1      31.232  24.836  26.878  1.00  0.00    -0.252 OA
BRANCH   6   8
ATOM      8  C   UNL A   1      30.876  25.263  24.526  1.00  0.00     0.114 C 
ATOM      9  C   UNL A   1      29.725  25.967  23.812  1.00  0.00     0.021 C 
BRANCH   8  10
ATOM     10  C   UNL A   1      32.227  25.088  23.783  1.00  0.00     0.124 C 
ATOM     11  C   UNL A   1      32.929  26.292  23.147  1.00  0.00     0.026 C 
BRANCH  10  12
ATOM     12  S   UNL A   1      32.500  23.559  22.918  1.00  0.00     0.185 S 
ATOM     13  O   UNL A   1      33.222  23.949  21.714  1.00  0.00    -0.223 OA
ATOM     14  O   UNL A   1      31.218  22.892  22.778  1.00  0.00    -0.223 OA
BRANCH  12  15
ATOM     15  C   UNL A   1      33.565  22.376  23.724  1.00  0.00     0.109 A 
ATOM     16  C   UNL A   1      34.892  22.592  24.097  1.00  0.00     0.137 A 
ATOM     17  C   UNL A   1      35.613  21.554  24.713  1.00  0.00     0.048 A 
ATOM     18  C   UNL A   1      35.004  20.328  25.001  1.00  0.00     0.004 A 
ATOM     19  C   UNL A   1      32.956  21.144  24.042  1.00  0.00     0.024 A 
ATOM     20  C   UNL A   1      33.665  20.133  24.690  1.00  0.00     0.002 A 
BRANCH  16  21
ATOM     21  O   UNL A   1      35.414  23.849  24.103  1.00  0.00    -0.495 OA
ATOM     22  C   UNL A   1      35.567  24.452  25.382  1.00  0.00     0.278 C 
ENDBRANCH  16  21
ENDBRANCH  12  15
ENDBRANCH  10  12
ENDBRANCH   8  10
ENDBRANCH   6   8
ENDBRANCH   5   6
ENDBRANCH   4   5
ENDBRANCH   3   4
ENDBRANCH   2   3
ENDBRANCH   1   2
BRANCH   1  23
ATOM     23  C   UNL A   1      33.764  31.025  27.395  1.00  0.00     0.188 C 
BRANCH  23  24
ATOM     24  O   UNL A   1      32.426  31.055  26.923  1.00  0.00    -0.376 OA
BRANCH  24  25
ATOM     25  C   UNL A   1      31.823  32.339  26.898  1.00  0.00     0.202 C 
BRANCH  25  26
ATOM     26  C   UNL A   1      32.770  33.431  27.408  1.00  0.00     0.261 C 
BRANCH  26  27
ATOM     27  O   UNL A   1      32.157  34.423  28.253  1.00  0.00    -0.460 OA
BRANCH  27  28
ATOM     28  C   UNL A   1      32.951  35.399  28.745  1.00  0.00     0.338 C 
ATOM     29  O   UNL A   1      32.720  36.597  28.755  1.00  0.00    -0.246 OA
BRANCH  28  30
ATOM     30  C   UNL A   1      34.079  34.761  29.463  1.00  0.00     0.060 A 
ATOM     31  C   UNL A   1      35.352  34.765  28.878  1.00  0.00     0.016 A 
ATOM     32  C   UNL A   1      33.886  34.175  30.716  1.00  0.00     0.016 A 
ATOM     33  C   UNL A   1      36.429  34.156  29.532  1.00  0.00     0.010 A 
ATOM     34  C   UNL A   1      34.959  33.554  31.362  1.00  0.00     0.010 A 
ATOM     35  C   UNL A   1      36.233  33.514  30.763  1.00  0.00    -0.014 A 
BRANCH  35  36
ATOM     36  C   UNL A   1      37.293  32.650  31.348  1.00  0.00     0.031 A 
ATOM     37  C   UNL A   1      37.808  32.975  32.723  1.00  0.00     0.074 A 
ATOM     38  C   UNL A   1      37.811  31.605  30.677  1.00  0.00     0.049 A 
ATOM     39  N   UNL A   1      38.787  32.430  33.402  1.00  0.00    -0.248 NA
ATOM     40  C   UNL A   1      37.128  34.074  33.425  1.00  0.00     0.031 C 
ATOM     41  C   UNL A   1      37.387  31.152  29.356  1.00  0.00     0.029 A 
ATOM     42  N   UNL A   1      38.829  30.744  31.020  1.00  0.00    -0.354 N 
ATOM     43  C   UNL A   1      38.845  33.125  34.604  1.00  0.00     0.074 A 
ATOM     44  C   UNL A   1      37.827  34.152  34.547  1.00  0.00     0.031 C 
ATOM     45  C   UNL A   1      38.150  30.106  28.990  1.00  0.00     0.029 A 
ATOM     46  C   UNL A   1      39.139  29.840  30.034  1.00  0.00     0.049 A 
ATOM     47  H   UNL A   1      39.289  30.775  31.888  1.00  0.00     0.167 HD
ATOM     48  C   UNL A   1      39.665  32.923  35.662  1.00  0.00     0.037 A 
ATOM     49  C   UNL A   1      40.127  28.923  29.970  1.00  0.00     0.037 A 
ATOM     50  C   UNL A   1      40.687  31.909  35.720  1.00  0.00     0.049 A 
ATOM     51  C   UNL A   1      41.085  28.769  31.127  1.00  0.00     0.074 A 
ATOM     52  C   UNL A   1      41.553  31.617  36.760  1.00  0.00     0.029 A 
ATOM     53  N   UNL A   1      40.989  31.031  34.690  1.00  0.00    -0.354 N 
ATOM     54  N   UNL A   1      41.118  29.410  32.270  1.00  0.00    -0.248 NA
ATOM     55  C   UNL A   1      42.145  27.758  30.981  1.00  0.00     0.031 C 
ATOM     56  C   UNL A   1      42.421  30.605  36.335  1.00  0.00     0.029 A 
ATOM     57  C   UNL A   1      42.050  30.217  35.058  1.00  0.00     0.049 A 
ATOM     58  H   UNL A   1      40.518  30.990  33.827  1.00  0.00     0.167 HD
ATOM     59  C   UNL A   1      42.174  28.862  32.988  1.00  0.00     0.074 A 
ATOM     60  C   UNL A   1      42.752  27.828  32.158  1.00  0.00     0.031 C 
ATOM     61  C   UNL A   1      42.621  29.186  34.228  1.00  0.00     0.037 A 
BRANCH  48  62
ATOM     62  C   UNL A   1      39.514  33.850  36.835  1.00  0.00     0.064 A 
ATOM     63  C   UNL A   1      40.122  35.114  36.864  1.00  0.00     0.173 A 
ATOM     64  C   UNL A   1      38.739  33.471  37.942  1.00  0.00     0.173 A 
ATOM     65  F   UNL A   1      40.885  35.520  35.837  1.00  0.00    -0.203 F 
ATOM     66  C   UNL A   1      39.992  35.948  37.972  1.00  0.00     0.198 A 
ATOM     67  C   UNL A   1      38.583  34.321  39.034  1.00  0.00     0.198 A 
ATOM     68  F   UNL A   1      38.131  32.276  37.966  1.00  0.00    -0.203 F 
ATOM     69  F   UNL A   1      40.635  37.123  38.003  1.00  0.00    -0.200 F 
ATOM     70  C   UNL A   1      39.218  35.553  39.053  1.00  0.00     0.200 A 
ATOM     71  F   UNL A   1      37.822  33.944  40.071  1.00  0.00    -0.200 F 
ATOM     72  F   UNL A   1      39.094  36.356  40.119  1.00  0.00    -0.200 F 
ENDBRANCH  48  62
BRANCH  49  73
ATOM     73  C   UNL A   1      40.276  28.080  28.753  1.00  0.00     0.064 A 
ATOM     74  C   UNL A   1      39.665  26.822  28.663  1.00  0.00     0.173 A 
ATOM     75  C   UNL A   1      41.049  28.508  27.662  1.00  0.00     0.173 A 
ATOM     76  F   UNL A   1      38.945  26.353  29.693  1.00  0.00    -0.203 F 
ATOM     77  C   UNL A   1      39.829  26.019  27.535  1.00  0.00     0.198 A 
ATOM     78  C   UNL A   1      41.189  27.717  26.523  1.00  0.00     0.198 A 
ATOM     79  F   UNL A   1      41.666  29.698  27.701  1.00  0.00    -0.203 F 
ATOM     80  F   UNL A   1      39.275  24.801  27.496  1.00  0.00    -0.200 F 
ATOM     81  C   UNL A   1      40.585  26.471  26.463  1.00  0.00     0.200 A 
ATOM     82  F   UNL A   1      41.914  28.161  25.487  1.00  0.00    -0.200 F 
ATOM     83  F   UNL A   1      40.739  25.701  25.377  1.00  0.00    -0.200 F 
ENDBRANCH  49  73
BRANCH  61  84
ATOM     84  C   UNL A   1      43.767  28.389  34.790  1.00  0.00     0.064 A 
ATOM     85  C   UNL A   1      43.565  27.189  35.489  1.00  0.00     0.173 A 
ATOM     86  C   UNL A   1      45.091  28.806  34.581  1.00  0.00     0.173 A 
ATOM     87  F   UNL A   1      42.320  26.748  35.727  1.00  0.00    -0.203 F 
ATOM     88  C   UNL A   1      44.643  26.454  35.980  1.00  0.00     0.198 A 
ATOM     89  C   UNL A   1      46.166  28.053  35.044  1.00  0.00     0.198 A 
ATOM     90  F   UNL A   1      45.344  29.941  33.910  1.00  0.00    -0.203 F 
ATOM     91  F   UNL A   1      44.423  25.337  36.687  1.00  0.00    -0.200 F 
ATOM     92  C   UNL A   1      45.941  26.882  35.750  1.00  0.00     0.200 A 
ATOM     93  F   UNL A   1      47.421  28.459  34.804  1.00  0.00    -0.200 F 
ATOM     94  F   UNL A   1      46.977  26.168  36.214  1.00  0.00    -0.200 F 
ENDBRANCH  61  84
ENDBRANCH  35  36
ENDBRANCH  28  30
ENDBRANCH  27  28
ENDBRANCH  26  27
ENDBRANCH  25  26
ENDBRANCH  24  25
ENDBRANCH  23  24
ENDBRANCH   1  23
TORSDOF 21
ENDMDL
MODEL 2
REMARK VINA RESULT:     -10.3      1.972      3.530
REMARK SMILES COc1ccccc1S(=O)(=O)[C@@H](C)[C@H](C)C(=O)OCCOCCOCCOC(=O)c1ccc(-c2c3nc(c(-c4c(F)c(F)c(F)c(F)c4F)c4ccc([nH]4)c(-c4c(F)c(F)c(F)c(F)c4F)c4nc(c(-c5c(F)c(F)c(F)c(F)c5F)c5ccc2[nH]5)C=C4)C=C3)cc1
REMARK SMILES IDX 22 1 21 2 20 3 19 4 18 5 16 6 17 7 14 8 15 9 12 10 13 11
REMARK SMILES IDX 9 12 10 13 11 14 8 15 3 16 4 17 5 18 7 19 6 20 2 21 1 22
REMARK SMILES IDX 23 23 24 24 25 25 26 26 27 27 28 28 29 29 30 30 31 31 92 32
REMARK SMILES IDX 32 33 91 34 33 35 34 36 35 37 85 38 36 39 90 40 84 41 86 42
REMARK SMILES IDX 37 43 89 44 83 45 82 46 38 48 70 49 50 50 69 51 51 52 54 53
REMARK SMILES IDX 68 54 87 55 52 56 53 57 67 59 88 60 55 61 39 62 40 63 48 64
REMARK SMILES IDX 41 65 42 66 46 67 49 68 43 69 44 70 47 71 45 72 71 73 72 74
REMARK SMILES IDX 80 75 73 76 74 77 78 78 81 79 75 80 76 81 79 82 77 83 56 84
REMARK SMILES IDX 57 85 65 86 58 87 59 88 63 89 66 90 60 91 61 92 64 93 62 94
REMARK H PARENT 86 47 54 58
REMARK Flexibility Score: inf
ROOT
ATOM      1  C   UNL A   1      33.753  32.391  27.633  1.00  0.00     0.188 C 
ENDROOT
BRANCH   1   2
ATOM      2  O   UNL A   1      33.214  31.116  27.310  1.00  0.00    -0.376 OA
BRANCH   2   3
ATOM      3  C   UNL A   1      34.056  29.981  27.358  1.00  0.00     0.202 C 
BRANCH   3   4
ATOM      4  C   UNL A   1      33.734  28.832  26.395  1.00  0.00     0.261 C 
BRANCH   4   5
ATOM      5  O   UNL A   1      33.221  27.629  27.011  1.00  0.00    -0.463 OA
BRANCH   5   6
ATOM      6  C   UNL A   1      32.327  26.899  26.292  1.00  0.00     0.310 C 
ATOM      7  O   UNL A   1      31.198  26.618  26.673  1.00  0.00    -0.252 OA
BRANCH   6   8
ATOM      8  C   UNL A   1      32.904  26.360  24.981  1.00  0.00     0.114 C 
ATOM      9  C   UNL A   1      34.083  25.403  25.139  1.00  0.00     0.021 C 
BRANCH   8  10
ATOM     10  C   UNL A   1      31.794  26.021  23.951  1.00  0.00     0.124 C 
ATOM     11  C   UNL A   1      31.759  24.653  23.264  1.00  0.00     0.026 C 
BRANCH  10  12
ATOM     12  S   UNL A   1      31.175  27.348  22.942  1.00  0.00     0.185 S 
ATOM     13  O   UNL A   1      31.289  26.847  21.578  1.00  0.00    -0.223 OA
ATOM     14  O   UNL A   1      31.894  28.556  23.305  1.00  0.00    -0.223 OA
BRANCH  12  15
ATOM     15  C   UNL A   1      29.447  27.747  23.137  1.00  0.00     0.109 A 
ATOM     16  C   UNL A   1      28.809  28.880  22.631  1.00  0.00     0.137 A 
ATOM     17  C   UNL A   1      27.438  29.068  22.880  1.00  0.00     0.048 A 
ATOM     18  C   UNL A   1      26.697  28.113  23.584  1.00  0.00     0.004 A 
ATOM     19  C   UNL A   1      28.684  26.780  23.823  1.00  0.00     0.024 A 
ATOM     20  C   UNL A   1      27.316  26.953  24.032  1.00  0.00     0.002 A 
BRANCH  16  21
ATOM     21  O   UNL A   1      29.422  29.666  21.704  1.00  0.00    -0.495 OA
ATOM     22  C   UNL A   1      28.956  31.007  21.620  1.00  0.00     0.278 C 
ENDBRANCH  16  21
ENDBRANCH  12  15
ENDBRANCH  10  12
ENDBRANCH   8  10
ENDBRANCH   6   8
ENDBRANCH   5   6
ENDBRANCH   4   5
ENDBRANCH   3   4
ENDBRANCH   2   3
ENDBRANCH   1   2
BRANCH   1  23
ATOM     23  C   UNL A   1      34.425  32.647  28.998  1.00  0.00     0.188 C 
BRANCH  23  24
ATOM     24  O   UNL A   1      34.676  34.017  29.271  1.00  0.00    -0.376 OA
BRANCH  24  25
ATOM     25  C   UNL A   1      33.837  34.934  28.584  1.00  0.00     0.202 C 
BRANCH  25  26
ATOM     26  C   UNL A   1      33.102  35.873  29.545  1.00  0.00     0.261 C 
BRANCH  26  27
ATOM     27  O   UNL A   1      32.418  35.220  30.631  1.00  0.00    -0.460 OA
BRANCH  27  28
ATOM     28  C   UNL A   1      32.651  35.678  31.881  1.00  0.00     0.338 C 
ATOM     29  O   UNL A   1      31.937  36.421  32.535  1.00  0.00    -0.246 OA
BRANCH  28  30
ATOM     30  C   UNL A   1      33.833  34.967  32.421  1.00  0.00     0.060 A 
ATOM     31  C   UNL A   1      35.085  35.597  32.388  1.00  0.00     0.016 A 
ATOM     32  C   UNL A   1      33.707  33.690  32.972  1.00  0.00     0.016 A 
ATOM     33  C   UNL A   1      36.217  34.938  32.881  1.00  0.00     0.010 A 
ATOM     34  C   UNL A   1      34.841  33.027  33.451  1.00  0.00     0.010 A 
ATOM     35  C   UNL A   1      36.110  33.634  33.383  1.00  0.00    -0.014 A 
BRANCH  35  36
ATOM     36  C   UNL A   1      37.326  32.828  33.672  1.00  0.00     0.031 A 
ATOM     37  C   UNL A   1      38.078  33.093  34.948  1.00  0.00     0.074 A 
ATOM     38  C   UNL A   1      37.778  31.889  32.821  1.00  0.00     0.049 A 
ATOM     39  N   UNL A   1      39.209  32.589  35.374  1.00  0.00    -0.248 NA
ATOM     40  C   UNL A   1      37.470  34.069  35.866  1.00  0.00     0.031 C 
ATOM     41  C   UNL A   1      37.136  31.502  31.569  1.00  0.00     0.029 A 
ATOM     42  N   UNL A   1      38.904  31.101  32.882  1.00  0.00    -0.354 N 
ATOM     43  C   UNL A   1      39.452  33.193  36.601  1.00  0.00     0.074 A 
ATOM     44  C   UNL A   1      38.369  34.124  36.836  1.00  0.00     0.031 C 
ATOM     45  C   UNL A   1      37.886  30.561  30.968  1.00  0.00     0.029 A 
ATOM     46  C   UNL A   1      39.080  30.307  31.775  1.00  0.00     0.049 A 
ATOM     47  H   UNL A   1      39.524  31.107  33.645  1.00  0.00     0.167 HD
ATOM     48  C   UNL A   1      40.479  32.987  37.461  1.00  0.00     0.037 A 
ATOM     49  C   UNL A   1      40.101  29.492  31.439  1.00  0.00     0.037 A 
ATOM     50  C   UNL A   1      41.564  32.068  37.229  1.00  0.00     0.049 A 
ATOM     51  C   UNL A   1      41.278  29.337  32.372  1.00  0.00     0.074 A 
ATOM     52  C   UNL A   1      42.638  31.778  38.052  1.00  0.00     0.029 A 
ATOM     53  N   UNL A   1      41.720  31.303  36.083  1.00  0.00    -0.354 N 
ATOM     54  N   UNL A   1      41.488  29.890  33.543  1.00  0.00    -0.248 NA
ATOM     55  C   UNL A   1      42.360  28.441  31.934  1.00  0.00     0.031 C 
ATOM     56  C   UNL A   1      43.478  30.885  37.377  1.00  0.00     0.029 A 
ATOM     57  C   UNL A   1      42.891  30.564  36.164  1.00  0.00     0.049 A 
ATOM     58  H   UNL A   1      41.093  31.285  35.325  1.00  0.00     0.167 HD
ATOM     59  C   UNL A   1      42.704  29.387  33.993  1.00  0.00     0.074 A 
ATOM     60  C   UNL A   1      43.182  28.477  32.975  1.00  0.00     0.031 C 
ATOM     61  C   UNL A   1      43.362  29.654  35.149  1.00  0.00     0.037 A 
BRANCH  48  62
ATOM     62  C   UNL A   1      40.494  33.804  38.722  1.00  0.00     0.064 A 
ATOM     63  C   UNL A   1      41.241  34.986  38.829  1.00  0.00     0.173 A 
ATOM     64  C   UNL A   1      39.739  33.403  39.835  1.00  0.00     0.173 A 
ATOM     65  F   UNL A   1      41.991  35.407  37.799  1.00  0.00    -0.203 F 
ATOM     66  C   UNL A   1      41.264  35.714  40.016  1.00  0.00     0.198 A 
ATOM     67  C   UNL A   1      39.736  34.152  41.008  1.00  0.00     0.198 A 
ATOM     68  F   UNL A   1      39.001  32.283  39.786  1.00  0.00    -0.203 F 
ATOM     69  F   UNL A   1      42.036  36.804  40.116  1.00  0.00    -0.200 F 
ATOM     70  C   UNL A   1      40.507  35.300  41.102  1.00  0.00     0.200 A 
ATOM     71  F   UNL A   1      38.992  33.758  42.051  1.00  0.00    -0.200 F 
ATOM     72  F   UNL A   1      40.530  36.003  42.243  1.00  0.00    -0.200 F 
ENDBRANCH  48  62
BRANCH  49  73
ATOM     73  C   UNL A   1      40.069  28.761  30.143  1.00  0.00     0.064 A 
ATOM     74  C   UNL A   1      39.466  27.500  30.037  1.00  0.00     0.173 A 
ATOM     75  C   UNL A   1      40.657  29.301  28.989  1.00  0.00     0.173 A 
ATOM     76  F   UNL A   1      38.922  26.925  31.119  1.00  0.00    -0.203 F 
ATOM     77  C   UNL A   1      39.463  26.802  28.830  1.00  0.00     0.198 A 
ATOM     78  C   UNL A   1      40.627  28.616  27.776  1.00  0.00     0.198 A 
ATOM     79  F   UNL A   1      41.257  30.499  29.039  1.00  0.00    -0.203 F 
ATOM     80  F   UNL A   1      38.924  25.577  28.768  1.00  0.00    -0.200 F 
ATOM     81  C   UNL A   1      40.036  27.364  27.699  1.00  0.00     0.200 A 
ATOM     82  F   UNL A   1      41.176  29.166  26.684  1.00  0.00    -0.200 F 
ATOM     83  F   UNL A   1      40.028  26.695  26.538  1.00  0.00    -0.200 F 
ENDBRANCH  49  73
BRANCH  61  84
ATOM     84  C   UNL A   1      44.652  28.925  35.405  1.00  0.00     0.064 A 
ATOM     85  C   UNL A   1      44.685  27.669  36.031  1.00  0.00     0.173 A 
ATOM     86  C   UNL A   1      45.872  29.468  34.972  1.00  0.00     0.173 A 
ATOM     87  F   UNL A   1      43.549  27.107  36.474  1.00  0.00    -0.203 F 
ATOM     88  C   UNL A   1      45.889  27.000  36.236  1.00  0.00     0.198 A 
ATOM     89  C   UNL A   1      47.071  28.783  35.150  1.00  0.00     0.198 A 
ATOM     90  F   UNL A   1      45.902  30.662  34.359  1.00  0.00    -0.203 F 
ATOM     91  F   UNL A   1      45.899  25.824  36.880  1.00  0.00    -0.200 F 
ATOM     92  C   UNL A   1      47.080  27.553  35.789  1.00  0.00     0.200 A 
ATOM     93  F   UNL A   1      48.218  29.310  34.699  1.00  0.00    -0.200 F 
ATOM     94  F   UNL A   1      48.236  26.902  35.979  1.00  0.00    -0.200 F 
ENDBRANCH  61  84
ENDBRANCH  35  36
ENDBRANCH  28  30
ENDBRANCH  27  28
ENDBRANCH  26  27
ENDBRANCH  25  26
ENDBRANCH  24  25
ENDBRANCH  23  24
ENDBRANCH   1  23
TORSDOF 21
ENDMDL
MODEL 3
REMARK VINA RESULT:     -10.1      1.588      2.915
REMARK SMILES COc1ccccc1S(=O)(=O)[C@@H](C)[C@H](C)C(=O)OCCOCCOCCOC(=O)c1ccc(-c2c3nc(c(-c4c(F)c(F)c(F)c(F)c4F)c4ccc([nH]4)c(-c4c(F)c(F)c(F)c(F)c4F)c4nc(c(-c5c(F)c(F)c(F)c(F)c5F)c5ccc2[nH]5)C=C4)C=C3)cc1
REMARK SMILES IDX 22 1 21 2 20 3 19 4 18 5 16 6 17 7 14 8 15 9 12 10 13 11
REMARK SMILES IDX 9 12 10 13 11 14 8 15 3 16 4 17 5 18 7 19 6 20 2 21 1 22
REMARK SMILES IDX 23 23 24 24 25 25 26 26 27 27 28 28 29 29 30 30 31 31 92 32
REMARK SMILES IDX 32 33 91 34 33 35 34 36 35 37 85 38 36 39 90 40 84 41 86 42
REMARK SMILES IDX 37 43 89 44 83 45 82 46 38 48 70 49 50 50 69 51 51 52 54 53
REMARK SMILES IDX 68 54 87 55 52 56 53 57 67 59 88 60 55 61 39 62 40 63 48 64
REMARK SMILES IDX 41 65 42 66 46 67 49 68 43 69 44 70 47 71 45 72 71 73 72 74
REMARK SMILES IDX 80 75 73 76 74 77 78 78 81 79 75 80 76 81 79 82 77 83 56 84
REMARK SMILES IDX 57 85 65 86 58 87 59 88 63 89 66 90 60 91 61 92 64 93 62 94
REMARK H PARENT 86 47 54 58
REMARK Flexibility Score: inf
ROOT
ATOM      1  C   UNL A   1      34.136  31.600  27.609  1.00  0.00     0.188 C 
ENDROOT
BRANCH   1   2
ATOM      2  O   UNL A   1      32.894  30.986  27.289  1.00  0.00    -0.376 OA
BRANCH   2   3
ATOM      3  C   UNL A   1      32.891  29.799  26.520  1.00  0.00     0.202 C 
BRANCH   3   4
ATOM      4  C   UNL A   1      33.250  28.497  27.245  1.00  0.00     0.261 C 
BRANCH   4   5
ATOM      5  O   UNL A   1      32.428  27.354  26.917  1.00  0.00    -0.463 OA
BRANCH   5   6
ATOM      6  C   UNL A   1      32.879  26.529  25.935  1.00  0.00     0.310 C 
ATOM      7  O   UNL A   1      34.039  26.484  25.548  1.00  0.00    -0.252 OA
BRANCH   6   8
ATOM      8  C   UNL A   1      31.764  25.718  25.270  1.00  0.00     0.114 C 
ATOM      9  C   UNL A   1      30.455  26.475  25.054  1.00  0.00     0.021 C 
BRANCH   8  10
ATOM     10  C   UNL A   1      32.302  24.809  24.134  1.00  0.00     0.124 C 
ATOM     11  C   UNL A   1      31.920  25.073  22.675  1.00  0.00     0.026 C 
BRANCH  10  12
ATOM     12  S   UNL A   1      32.561  23.090  24.509  1.00  0.00     0.185 S 
ATOM     13  O   UNL A   1      31.897  22.380  23.423  1.00  0.00    -0.223 OA
ATOM     14  O   UNL A   1      32.112  22.859  25.871  1.00  0.00    -0.223 OA
BRANCH  12  15
ATOM     15  C   UNL A   1      34.250  22.517  24.462  1.00  0.00     0.109 A 
ATOM     16  C   UNL A   1      34.715  21.303  24.970  1.00  0.00     0.137 A 
ATOM     17  C   UNL A   1      36.083  20.994  24.874  1.00  0.00     0.048 A 
ATOM     18  C   UNL A   1      36.973  21.864  24.233  1.00  0.00     0.004 A 
ATOM     19  C   UNL A   1      35.153  23.372  23.798  1.00  0.00     0.024 A 
ATOM     20  C   UNL A   1      36.501  23.042  23.670  1.00  0.00     0.002 A 
BRANCH  16  21
ATOM     21  O   UNL A   1      33.843  20.320  25.325  1.00  0.00    -0.495 OA
ATOM     22  C   UNL A   1      33.980  19.087  24.630  1.00  0.00     0.278 C 
ENDBRANCH  16  21
ENDBRANCH  12  15
ENDBRANCH  10  12
ENDBRANCH   8  10
ENDBRANCH   6   8
ENDBRANCH   5   6
ENDBRANCH   4   5
ENDBRANCH   3   4
ENDBRANCH   2   3
ENDBRANCH   1   2
BRANCH   1  23
ATOM     23  C   UNL A   1      34.486  31.974  29.064  1.00  0.00     0.188 C 
BRANCH  23  24
ATOM     24  O   UNL A   1      34.608  33.370  29.288  1.00  0.00    -0.376 OA
BRANCH  24  25
ATOM     25  C   UNL A   1      33.663  34.177  28.602  1.00  0.00     0.202 C 
BRANCH  25  26
ATOM     26  C   UNL A   1      33.230  35.390  29.431  1.00  0.00     0.261 C 
BRANCH  26  27
ATOM     27  O   UNL A   1      32.405  35.085  30.572  1.00  0.00    -0.460 OA
BRANCH  27  28
ATOM     28  C   UNL A   1      32.730  35.664  31.749  1.00  0.00     0.338 C 
ATOM     29  O   UNL A   1      32.090  36.513  32.349  1.00  0.00    -0.246 OA
BRANCH  28  30
ATOM     30  C   UNL A   1      33.903  34.953  32.307  1.00  0.00     0.060 A 
ATOM     31  C   UNL A   1      35.159  35.574  32.273  1.00  0.00     0.016 A 
ATOM     32  C   UNL A   1      33.763  33.686  32.877  1.00  0.00     0.016 A 
ATOM     33  C   UNL A   1      36.283  34.914  32.783  1.00  0.00     0.010 A 
ATOM     34  C   UNL A   1      34.890  33.022  33.373  1.00  0.00     0.010 A 
ATOM     35  C   UNL A   1      36.164  33.618  33.304  1.00  0.00    -0.014 A 
BRANCH  35  36
ATOM     36  C   UNL A   1      37.372  32.808  33.613  1.00  0.00     0.031 A 
ATOM     37  C   UNL A   1      38.111  33.079  34.896  1.00  0.00     0.074 A 
ATOM     38  C   UNL A   1      37.828  31.860  32.774  1.00  0.00     0.049 A 
ATOM     39  N   UNL A   1      39.235  32.573  35.338  1.00  0.00    -0.248 NA
ATOM     40  C   UNL A   1      37.498  34.065  35.799  1.00  0.00     0.031 C 
ATOM     41  C   UNL A   1      37.198  31.467  31.519  1.00  0.00     0.029 A 
ATOM     42  N   UNL A   1      38.949  31.067  32.854  1.00  0.00    -0.354 N 
ATOM     43  C   UNL A   1      39.466  33.184  36.564  1.00  0.00     0.074 A 
ATOM     44  C   UNL A   1      38.386  34.123  36.779  1.00  0.00     0.031 C 
ATOM     45  C   UNL A   1      37.950  30.516  30.934  1.00  0.00     0.029 A 
ATOM     46  C   UNL A   1      39.134  30.263  31.757  1.00  0.00     0.049 A 
ATOM     47  H   UNL A   1      39.561  31.075  33.625  1.00  0.00     0.167 HD
ATOM     48  C   UNL A   1      40.482  32.980  37.436  1.00  0.00     0.037 A 
ATOM     49  C   UNL A   1      40.154  29.440  31.438  1.00  0.00     0.037 A 
ATOM     50  C   UNL A   1      41.565  32.054  37.224  1.00  0.00     0.049 A 
ATOM     51  C   UNL A   1      41.319  29.286  32.386  1.00  0.00     0.074 A 
ATOM     52  C   UNL A   1      42.629  31.764  38.061  1.00  0.00     0.029 A 
ATOM     53  N   UNL A   1      41.730  31.278  36.086  1.00  0.00    -0.354 N 
ATOM     54  N   UNL A   1      41.519  29.847  33.554  1.00  0.00    -0.248 NA
ATOM     55  C   UNL A   1      42.401  28.381  31.967  1.00  0.00     0.031 C 
ATOM     56  C   UNL A   1      43.471  30.862  37.403  1.00  0.00     0.029 A 
ATOM     57  C   UNL A   1      42.896  30.534  36.186  1.00  0.00     0.049 A 
ATOM     58  H   UNL A   1      41.111  31.258  35.321  1.00  0.00     0.167 HD
ATOM     59  C   UNL A   1      42.727  29.341  34.022  1.00  0.00     0.074 A 
ATOM     60  C   UNL A   1      43.211  28.420  33.017  1.00  0.00     0.031 C 
ATOM     61  C   UNL A   1      43.374  29.614  35.184  1.00  0.00     0.037 A 
BRANCH  48  62
ATOM     62  C   UNL A   1      40.488  33.806  38.691  1.00  0.00     0.064 A 
ATOM     63  C   UNL A   1      39.744  33.441  39.823  1.00  0.00     0.173 A 
ATOM     64  C   UNL A   1      41.259  34.976  38.765  1.00  0.00     0.173 A 
ATOM     65  F   UNL A   1      38.978  32.339  39.799  1.00  0.00    -0.203 F 
ATOM     66  C   UNL A   1      39.740  34.235  40.966  1.00  0.00     0.198 A 
ATOM     67  C   UNL A   1      41.282  35.749  39.923  1.00  0.00     0.198 A 
ATOM     68  F   UNL A   1      41.996  35.371  37.715  1.00  0.00    -0.203 F 
ATOM     69  F   UNL A   1      38.971  33.899  42.010  1.00  0.00    -0.200 F 
ATOM     70  C   UNL A   1      40.514  35.385  41.017  1.00  0.00     0.200 A 
ATOM     71  F   UNL A   1      42.042  36.852  39.976  1.00  0.00    -0.200 F 
ATOM     72  F   UNL A   1      40.509  36.148  42.119  1.00  0.00    -0.200 F 
ENDBRANCH  48  62
BRANCH  49  73
ATOM     73  C   UNL A   1      40.132  28.699  30.148  1.00  0.00     0.064 A 
ATOM     74  C   UNL A   1      40.718  29.237  28.993  1.00  0.00     0.173 A 
ATOM     75  C   UNL A   1      39.509  27.446  30.039  1.00  0.00     0.173 A 
ATOM     76  F   UNL A   1      41.295  30.446  29.037  1.00  0.00    -0.203 F 
ATOM     77  C   UNL A   1      40.671  28.557  27.777  1.00  0.00     0.198 A 
ATOM     78  C   UNL A   1      39.488  26.754  28.829  1.00  0.00     0.198 A 
ATOM     79  F   UNL A   1      38.923  26.892  31.109  1.00  0.00    -0.203 F 
ATOM     80  F   UNL A   1      41.196  29.116  26.679  1.00  0.00    -0.200 F 
ATOM     81  C   UNL A   1      40.064  27.312  27.698  1.00  0.00     0.200 A 
ATOM     82  F   UNL A   1      38.906  25.549  28.759  1.00  0.00    -0.200 F 
ATOM     83  F   UNL A   1      40.023  26.657  26.530  1.00  0.00    -0.200 F 
ENDBRANCH  49  73
BRANCH  61  84
ATOM     84  C   UNL A   1      44.657  28.880  35.460  1.00  0.00     0.064 A 
ATOM     85  C   UNL A   1      45.907  29.406  35.099  1.00  0.00     0.173 A 
ATOM     86  C   UNL A   1      44.639  27.652  36.142  1.00  0.00     0.173 A 
ATOM     87  F   UNL A   1      45.982  30.570  34.436  1.00  0.00    -0.203 F 
ATOM     88  C   UNL A   1      47.085  28.719  35.386  1.00  0.00     0.198 A 
ATOM     89  C   UNL A   1      45.819  26.985  36.456  1.00  0.00     0.198 A 
ATOM     90  F   UNL A   1      43.473  27.106  36.520  1.00  0.00    -0.203 F 
ATOM     91  F   UNL A   1      48.263  29.219  34.988  1.00  0.00    -0.200 F 
ATOM     92  C   UNL A   1      47.041  27.514  36.071  1.00  0.00     0.200 A 
ATOM     93  F   UNL A   1      45.775  25.830  37.136  1.00  0.00    -0.200 F 
ATOM     94  F   UNL A   1      48.176  26.861  36.355  1.00  0.00    -0.200 F 
ENDBRANCH  61  84
ENDBRANCH  35  36
ENDBRANCH  28  30
ENDBRANCH  27  28
ENDBRANCH  26  27
ENDBRANCH  25  26
ENDBRANCH  24  25
ENDBRANCH  23  24
ENDBRANCH   1  23
TORSDOF 21
ENDMDL
