MODEL 1
REMARK VINA RESULT:     -11.4      0.000      0.000
REMARK SMILES Cc1ccc(C(=O)[C@@H]2CCC[C@H]2C(=O)OCCOCCOCCOC(=O)c2ccc(-c3c4nc(c(-c5c(F)c(F)c(F)c(F)c5F)c5ccc([nH]5)c(-c5c(F)c(F)c(F)c(F)c5F)c5nc(c(-c6c(F)c(F)c(F)c(F)c6F)c6ccc3[nH]6)C=C5)C=C4)cc2)c(C)c1
REMARK SMILES IDX 19 1 18 2 17 3 16 4 15 5 13 6 14 7 12 8 8 9 9 10 10 11 11 12
REMARK SMILES IDX 6 13 7 14 5 15 1 16 2 17 3 18 92 19 4 20 90 21 91 22 20 23
REMARK SMILES IDX 21 24 22 25 23 26 24 27 25 28 26 29 27 30 28 31 89 32 29 33
REMARK SMILES IDX 88 34 30 35 31 36 32 37 82 38 33 39 87 40 81 41 83 42 34 43
REMARK SMILES IDX 86 44 80 45 79 46 35 48 67 49 47 50 66 51 48 52 51 53 65 54
REMARK SMILES IDX 84 55 49 56 50 57 64 59 85 60 52 61 36 62 37 63 45 64 38 65
REMARK SMILES IDX 39 66 43 67 46 68 40 69 41 70 44 71 42 72 68 73 69 74 77 75
REMARK SMILES IDX 70 76 71 77 75 78 78 79 72 80 73 81 76 82 74 83 53 84 54 85
REMARK SMILES IDX 62 86 55 87 56 88 60 89 63 90 57 91 58 92 61 93 59 94
REMARK H PARENT 83 47 51 58
REMARK Flexibility Score: inf
ROOT
ATOM      1  C   UNL A   1      33.642  28.392  22.422  1.00  0.00     0.188 C 
ENDROOT
BRANCH   1   2
ATOM      2  O   UNL A   1      33.699  27.178  21.683  1.00  0.00    -0.376 OA
BRANCH   2   3
ATOM      3  C   UNL A   1      33.653  25.942  22.376  1.00  0.00     0.202 C 
BRANCH   3   4
ATOM      4  C   UNL A   1      32.306  25.216  22.367  1.00  0.00     0.261 C 
BRANCH   4   5
ATOM      5  O   UNL A   1      32.391  23.785  22.550  1.00  0.00    -0.463 OA
BRANCH   5   6
ATOM      6  C   UNL A   1      32.792  23.373  23.775  1.00  0.00     0.309 C 
ATOM      7  O   UNL A   1      32.700  24.049  24.797  1.00  0.00    -0.252 OA
BRANCH   6   8
ATOM      8  C   UNL A   1      33.477  22.013  23.816  1.00  0.00     0.110 C 
ATOM      9  C   UNL A   1      34.695  21.736  24.707  1.00  0.00     0.075 C 
ATOM     10  C   UNL A   1      34.579  20.265  25.132  1.00  0.00     0.013 C 
ATOM     11  C   UNL A   1      33.121  19.877  25.002  1.00  0.00     0.002 C 
ATOM     12  C   UNL A   1      32.409  21.029  24.317  1.00  0.00     0.016 C 
BRANCH   9  13
ATOM     13  C   UNL A   1      36.145  21.940  24.212  1.00  0.00     0.167 C 
ATOM     14  O   UNL A   1      36.289  22.625  23.194  1.00  0.00    -0.294 OA
BRANCH  13  15
ATOM     15  C   UNL A   1      37.395  21.451  24.928  1.00  0.00     0.021 A 
ATOM     16  C   UNL A   1      41.109  20.045  26.710  1.00  0.00     0.044 C 
ATOM     17  C   UNL A   1      39.792  20.507  26.157  1.00  0.00    -0.051 A 
ATOM     18  C   UNL A   1      39.012  19.663  25.376  1.00  0.00     0.004 A 
ATOM     19  C   UNL A   1      39.347  21.813  26.366  1.00  0.00     0.007 A 
ATOM     20  C   UNL A   1      37.815  20.117  24.809  1.00  0.00     0.012 A 
ATOM     21  C   UNL A   1      38.170  22.310  25.753  1.00  0.00    -0.040 A 
ATOM     22  C   UNL A   1      37.814  23.737  26.096  1.00  0.00     0.045 C 
ENDBRANCH  13  15
ENDBRANCH   9  13
ENDBRANCH   6   8
ENDBRANCH   5   6
ENDBRANCH   4   5
ENDBRANCH   3   4
ENDBRANCH   2   3
ENDBRANCH   1   2
BRANCH   1  23
ATOM     23  C   UNL A   1      32.294  28.899  22.965  1.00  0.00     0.188 C 
BRANCH  23  24
ATOM     24  O   UNL A   1      32.308  29.207  24.352  1.00  0.00    -0.376 OA
BRANCH  24  25
ATOM     25  C   UNL A   1      31.236  30.041  24.776  1.00  0.00     0.202 C 
BRANCH  25  26
ATOM     26  C   UNL A   1      31.477  30.510  26.207  1.00  0.00     0.261 C 
BRANCH  26  27
ATOM     27  O   UNL A   1      32.866  30.395  26.569  1.00  0.00    -0.460 OA
BRANCH  27  28
ATOM     28  C   UNL A   1      33.409  31.462  27.190  1.00  0.00     0.338 C 
ATOM     29  O   UNL A   1      32.919  32.563  27.344  1.00  0.00    -0.246 OA
BRANCH  28  30
ATOM     30  C   UNL A   1      34.747  31.083  27.682  1.00  0.00     0.060 A 
ATOM     31  C   UNL A   1      35.050  29.745  27.929  1.00  0.00     0.016 A 
ATOM     32  C   UNL A   1      35.669  32.078  28.001  1.00  0.00     0.016 A 
ATOM     33  C   UNL A   1      36.243  29.399  28.559  1.00  0.00     0.010 A 
ATOM     34  C   UNL A   1      36.884  31.726  28.602  1.00  0.00     0.010 A 
ATOM     35  C   UNL A   1      37.160  30.387  28.933  1.00  0.00    -0.014 A 
BRANCH  35  36
ATOM     36  C   UNL A   1      38.308  30.040  29.815  1.00  0.00     0.031 A 
ATOM     37  C   UNL A   1      39.441  29.225  29.251  1.00  0.00     0.074 A 
ATOM     38  C   UNL A   1      38.414  30.518  31.068  1.00  0.00     0.049 A 
ATOM     39  N   UNL A   1      40.443  28.650  29.866  1.00  0.00    -0.248 NA
ATOM     40  C   UNL A   1      39.450  29.043  27.790  1.00  0.00     0.031 C 
ATOM     41  C   UNL A   1      37.487  31.450  31.705  1.00  0.00     0.029 A 
ATOM     42  N   UNL A   1      39.380  30.304  32.022  1.00  0.00    -0.354 N 
ATOM     43  C   UNL A   1      41.154  27.977  28.880  1.00  0.00     0.074 A 
ATOM     44  C   UNL A   1      40.487  28.238  27.622  1.00  0.00     0.031 C 
ATOM     45  C   UNL A   1      37.956  31.769  32.923  1.00  0.00     0.029 A 
ATOM     46  C   UNL A   1      39.159  30.987  33.193  1.00  0.00     0.049 A 
ATOM     47  H   UNL A   1      40.158  29.716  31.880  1.00  0.00     0.167 HD
ATOM     48  C   UNL A   1      42.253  27.198  29.017  1.00  0.00     0.037 A 
ATOM     49  C   UNL A   1      39.824  30.950  34.364  1.00  0.00     0.037 A 
ATOM     50  C   UNL A   1      42.948  26.985  30.259  1.00  0.00     0.049 A 
ATOM     51  C   UNL A   1      40.980  29.999  34.526  1.00  0.00     0.074 A 
ATOM     52  C   UNL A   1      44.051  26.187  30.509  1.00  0.00     0.029 A 
ATOM     53  N   UNL A   1      42.615  27.593  31.459  1.00  0.00    -0.354 N 
ATOM     54  N   UNL A   1      41.566  29.245  33.629  1.00  0.00    -0.248 NA
ATOM     55  C   UNL A   1      41.537  29.863  35.880  1.00  0.00     0.031 C 
ATOM     56  C   UNL A   1      44.365  26.287  31.869  1.00  0.00     0.029 A 
ATOM     57  C   UNL A   1      43.483  27.178  32.457  1.00  0.00     0.049 A 
ATOM     58  H   UNL A   1      41.873  28.227  31.584  1.00  0.00     0.167 HD
ATOM     59  C   UNL A   1      42.559  28.547  34.305  1.00  0.00     0.074 A 
ATOM     60  C   UNL A   1      42.514  28.987  35.685  1.00  0.00     0.031 C 
ATOM     61  C   UNL A   1      43.424  27.618  33.827  1.00  0.00     0.037 A 
BRANCH  48  62
ATOM     62  C   UNL A   1      42.723  26.457  27.801  1.00  0.00     0.064 A 
ATOM     63  C   UNL A   1      43.661  26.996  26.910  1.00  0.00     0.173 A 
ATOM     64  C   UNL A   1      42.214  25.178  27.525  1.00  0.00     0.173 A 
ATOM     65  F   UNL A   1      44.159  28.225  27.118  1.00  0.00    -0.203 F 
ATOM     66  C   UNL A   1      44.051  26.293  25.772  1.00  0.00     0.198 A 
ATOM     67  C   UNL A   1      42.626  24.467  26.403  1.00  0.00     0.198 A 
ATOM     68  F   UNL A   1      41.313  24.617  28.348  1.00  0.00    -0.203 F 
ATOM     69  F   UNL A   1      44.910  26.849  24.906  1.00  0.00    -0.200 F 
ATOM     70  C   UNL A   1      43.539  25.028  25.523  1.00  0.00     0.200 A 
ATOM     71  F   UNL A   1      42.134  23.243  26.168  1.00  0.00    -0.200 F 
ATOM     72  F   UNL A   1      43.913  24.355  24.427  1.00  0.00    -0.200 F 
ENDBRANCH  48  62
BRANCH  49  73
ATOM     73  C   UNL A   1      39.384  31.804  35.497  1.00  0.00     0.064 A 
ATOM     74  C   UNL A   1      39.859  33.116  35.629  1.00  0.00     0.173 A 
ATOM     75  C   UNL A   1      38.490  31.333  36.469  1.00  0.00     0.173 A 
ATOM     76  F   UNL A   1      40.744  33.600  34.746  1.00  0.00    -0.203 F 
ATOM     77  C   UNL A   1      39.453  33.925  36.689  1.00  0.00     0.198 A 
ATOM     78  C   UNL A   1      38.062  32.152  37.511  1.00  0.00     0.198 A 
ATOM     79  F   UNL A   1      38.019  30.079  36.398  1.00  0.00    -0.203 F 
ATOM     80  F   UNL A   1      39.947  35.164  36.811  1.00  0.00    -0.200 F 
ATOM     81  C   UNL A   1      38.546  33.446  37.622  1.00  0.00     0.200 A 
ATOM     82  F   UNL A   1      37.179  31.687  38.406  1.00  0.00    -0.200 F 
ATOM     83  F   UNL A   1      38.146  34.229  38.634  1.00  0.00    -0.200 F 
ENDBRANCH  49  73
BRANCH  61  84
ATOM     84  C   UNL A   1      44.400  27.024  34.798  1.00  0.00     0.064 A 
ATOM     85  C   UNL A   1      44.128  25.820  35.464  1.00  0.00     0.173 A 
ATOM     86  C   UNL A   1      45.635  27.645  35.038  1.00  0.00     0.173 A 
ATOM     87  F   UNL A   1      42.954  25.197  35.280  1.00  0.00    -0.203 F 
ATOM     88  C   UNL A   1      45.049  25.269  36.351  1.00  0.00     0.198 A 
ATOM     89  C   UNL A   1      46.563  27.079  35.907  1.00  0.00     0.198 A 
ATOM     90  F   UNL A   1      45.944  28.795  34.422  1.00  0.00    -0.203 F 
ATOM     91  F   UNL A   1      44.752  24.139  37.008  1.00  0.00    -0.200 F 
ATOM     92  C   UNL A   1      46.268  25.895  36.568  1.00  0.00     0.200 A 
ATOM     93  F   UNL A   1      47.745  27.680  36.108  1.00  0.00    -0.200 F 
ATOM     94  F   UNL A   1      47.155  25.361  37.419  1.00  0.00    -0.200 F 
ENDBRANCH  61  84
ENDBRANCH  35  36
ENDBRANCH  28  30
ENDBRANCH  27  28
ENDBRANCH  26  27
ENDBRANCH  25  26
ENDBRANCH  24  25
ENDBRANCH  23  24
ENDBRANCH   1  23
TORSDOF 19
ENDMDL
MODEL 2
REMARK VINA RESULT:     -11.3      1.252      2.579
REMARK SMILES Cc1ccc(C(=O)[C@@H]2CCC[C@H]2C(=O)OCCOCCOCCOC(=O)c2ccc(-c3c4nc(c(-c5c(F)c(F)c(F)c(F)c5F)c5ccc([nH]5)c(-c5c(F)c(F)c(F)c(F)c5F)c5nc(c(-c6c(F)c(F)c(F)c(F)c6F)c6ccc3[nH]6)C=C5)C=C4)cc2)c(C)c1
REMARK SMILES IDX 19 1 18 2 17 3 16 4 15 5 13 6 14 7 12 8 8 9 9 10 10 11 11 12
REMARK SMILES IDX 6 13 7 14 5 15 1 16 2 17 3 18 92 19 4 20 90 21 91 22 20 23
REMARK SMILES IDX 21 24 22 25 23 26 24 27 25 28 26 29 27 30 28 31 89 32 29 33
REMARK SMILES IDX 88 34 30 35 31 36 32 37 82 38 33 39 87 40 81 41 83 42 34 43
REMARK SMILES IDX 86 44 80 45 79 46 35 48 67 49 47 50 66 51 48 52 51 53 65 54
REMARK SMILES IDX 84 55 49 56 50 57 64 59 85 60 52 61 36 62 37 63 45 64 38 65
REMARK SMILES IDX 39 66 43 67 46 68 40 69 41 70 44 71 42 72 68 73 69 74 77 75
REMARK SMILES IDX 70 76 71 77 75 78 78 79 72 80 73 81 76 82 74 83 53 84 54 85
REMARK SMILES IDX 62 86 55 87 56 88 60 89 63 90 57 91 58 92 61 93 59 94
REMARK H PARENT 83 47 51 58
REMARK Flexibility Score: inf
ROOT
ATOM      1  C   UNL A   1      30.539  27.515  23.992  1.00  0.00     0.188 C 
ENDROOT
BRANCH   1   2
ATOM      2  O   UNL A   1      30.375  26.699  25.145  1.00  0.00    -0.376 OA
BRANCH   2   3
ATOM      3  C   UNL A   1      29.869  25.382  24.997  1.00  0.00     0.202 C 
BRANCH   3   4
ATOM      4  C   UNL A   1      29.969  24.480  26.229  1.00  0.00     0.261 C 
BRANCH   4   5
ATOM      5  O   UNL A   1      30.779  23.298  26.047  1.00  0.00    -0.463 OA
BRANCH   5   6
ATOM      6  C   UNL A   1      31.950  23.278  26.725  1.00  0.00     0.309 C 
ATOM      7  O   UNL A   1      32.064  22.936  27.899  1.00  0.00    -0.252 OA
BRANCH   6   8
ATOM      8  C   UNL A   1      33.157  23.809  25.962  1.00  0.00     0.110 C 
ATOM      9  C   UNL A   1      33.176  23.917  24.431  1.00  0.00     0.075 C 
ATOM     10  C   UNL A   1      34.036  25.145  24.107  1.00  0.00     0.013 C 
ATOM     11  C   UNL A   1      34.030  26.032  25.335  1.00  0.00     0.002 C 
ATOM     12  C   UNL A   1      33.348  25.254  26.445  1.00  0.00     0.016 C 
BRANCH   9  13
ATOM     13  C   UNL A   1      33.685  22.769  23.528  1.00  0.00     0.167 C 
ATOM     14  O   UNL A   1      34.250  23.100  22.482  1.00  0.00    -0.294 OA
BRANCH  13  15
ATOM     15  C   UNL A   1      33.629  21.289  23.875  1.00  0.00     0.021 A 
ATOM     16  C   UNL A   1      33.528  16.995  24.578  1.00  0.00     0.044 C 
ATOM     17  C   UNL A   1      33.526  18.485  24.400  1.00  0.00    -0.051 A 
ATOM     18  C   UNL A   1      32.506  19.116  23.699  1.00  0.00     0.004 A 
ATOM     19  C   UNL A   1      34.576  19.265  24.884  1.00  0.00     0.007 A 
ATOM     20  C   UNL A   1      32.539  20.499  23.480  1.00  0.00     0.012 A 
ATOM     21  C   UNL A   1      34.659  20.655  24.621  1.00  0.00    -0.040 A 
ATOM     22  C   UNL A   1      35.847  21.361  25.233  1.00  0.00     0.045 C 
ENDBRANCH  13  15
ENDBRANCH   9  13
ENDBRANCH   6   8
ENDBRANCH   5   6
ENDBRANCH   4   5
ENDBRANCH   3   4
ENDBRANCH   2   3
ENDBRANCH   1   2
BRANCH   1  23
ATOM     23  C   UNL A   1      31.927  28.080  23.641  1.00  0.00     0.188 C 
BRANCH  23  24
ATOM     24  O   UNL A   1      32.085  29.458  23.945  1.00  0.00    -0.376 OA
BRANCH  24  25
ATOM     25  C   UNL A   1      31.145  29.961  24.887  1.00  0.00     0.202 C 
BRANCH  25  26
ATOM     26  C   UNL A   1      31.779  30.023  26.273  1.00  0.00     0.261 C 
BRANCH  26  27
ATOM     27  O   UNL A   1      33.133  30.507  26.207  1.00  0.00    -0.460 OA
BRANCH  27  28
ATOM     28  C   UNL A   1      33.498  31.385  27.164  1.00  0.00     0.338 C 
ATOM     29  O   UNL A   1      32.865  32.334  27.584  1.00  0.00    -0.246 OA
BRANCH  28  30
ATOM     30  C   UNL A   1      34.839  31.013  27.652  1.00  0.00     0.060 A 
ATOM     31  C   UNL A   1      35.157  29.673  27.871  1.00  0.00     0.016 A 
ATOM     32  C   UNL A   1      35.748  32.011  27.995  1.00  0.00     0.016 A 
ATOM     33  C   UNL A   1      36.353  29.328  28.496  1.00  0.00     0.010 A 
ATOM     34  C   UNL A   1      36.965  31.661  28.592  1.00  0.00     0.010 A 
ATOM     35  C   UNL A   1      37.256  30.318  28.896  1.00  0.00    -0.014 A 
BRANCH  35  36
ATOM     36  C   UNL A   1      38.405  29.966  29.774  1.00  0.00     0.031 A 
ATOM     37  C   UNL A   1      39.529  29.139  29.208  1.00  0.00     0.074 A 
ATOM     38  C   UNL A   1      38.522  30.450  31.024  1.00  0.00     0.049 A 
ATOM     39  N   UNL A   1      40.529  28.559  29.821  1.00  0.00    -0.248 NA
ATOM     40  C   UNL A   1      39.529  28.950  27.748  1.00  0.00     0.031 C 
ATOM     41  C   UNL A   1      37.607  31.393  31.660  1.00  0.00     0.029 A 
ATOM     42  N   UNL A   1      39.491  30.233  31.974  1.00  0.00    -0.354 N 
ATOM     43  C   UNL A   1      41.230  27.875  28.835  1.00  0.00     0.074 A 
ATOM     44  C   UNL A   1      40.559  28.135  27.579  1.00  0.00     0.031 C 
ATOM     45  C   UNL A   1      38.083  31.715  32.874  1.00  0.00     0.029 A 
ATOM     46  C   UNL A   1      39.282  30.923  33.142  1.00  0.00     0.049 A 
ATOM     47  H   UNL A   1      40.263  29.638  31.831  1.00  0.00     0.167 HD
ATOM     48  C   UNL A   1      42.323  27.087  28.971  1.00  0.00     0.037 A 
ATOM     49  C   UNL A   1      39.952  30.886  34.310  1.00  0.00     0.037 A 
ATOM     50  C   UNL A   1      43.022  26.874  30.210  1.00  0.00     0.049 A 
ATOM     51  C   UNL A   1      41.101  29.927  34.471  1.00  0.00     0.074 A 
ATOM     52  C   UNL A   1      44.120  26.068  30.459  1.00  0.00     0.029 A 
ATOM     53  N   UNL A   1      42.700  27.491  31.409  1.00  0.00    -0.354 N 
ATOM     54  N   UNL A   1      41.676  29.163  33.575  1.00  0.00    -0.248 NA
ATOM     55  C   UNL A   1      41.664  29.794  35.823  1.00  0.00     0.031 C 
ATOM     56  C   UNL A   1      44.441  26.173  31.817  1.00  0.00     0.029 A 
ATOM     57  C   UNL A   1      43.569  27.074  32.405  1.00  0.00     0.049 A 
ATOM     58  H   UNL A   1      41.964  28.132  31.534  1.00  0.00     0.167 HD
ATOM     59  C   UNL A   1      42.666  28.460  34.250  1.00  0.00     0.074 A 
ATOM     60  C   UNL A   1      42.632  28.908  35.627  1.00  0.00     0.031 C 
ATOM     61  C   UNL A   1      43.520  27.522  33.772  1.00  0.00     0.037 A 
BRANCH  48  62
ATOM     62  C   UNL A   1      42.780  26.336  27.756  1.00  0.00     0.064 A 
ATOM     63  C   UNL A   1      42.267  25.077  27.415  1.00  0.00     0.173 A 
ATOM     64  C   UNL A   1      43.758  26.895  26.919  1.00  0.00     0.173 A 
ATOM     65  F   UNL A   1      41.346  24.490  28.196  1.00  0.00    -0.203 F 
ATOM     66  C   UNL A   1      42.737  24.393  26.296  1.00  0.00     0.198 A 
ATOM     67  C   UNL A   1      44.207  26.222  25.787  1.00  0.00     0.198 A 
ATOM     68  F   UNL A   1      44.281  28.099  27.202  1.00  0.00    -0.203 F 
ATOM     69  F   UNL A   1      42.271  23.168  26.017  1.00  0.00    -0.200 F 
ATOM     70  C   UNL A   1      43.702  24.968  25.481  1.00  0.00     0.200 A 
ATOM     71  F   UNL A   1      45.133  26.783  24.999  1.00  0.00    -0.200 F 
ATOM     72  F   UNL A   1      44.155  24.307  24.407  1.00  0.00    -0.200 F 
ENDBRANCH  48  62
BRANCH  49  73
ATOM     73  C   UNL A   1      39.525  31.750  35.441  1.00  0.00     0.064 A 
ATOM     74  C   UNL A   1      40.082  33.025  35.616  1.00  0.00     0.173 A 
ATOM     75  C   UNL A   1      38.562  31.326  36.368  1.00  0.00     0.173 A 
ATOM     76  F   UNL A   1      41.032  33.462  34.778  1.00  0.00    -0.203 F 
ATOM     77  C   UNL A   1      39.688  33.842  36.674  1.00  0.00     0.198 A 
ATOM     78  C   UNL A   1      38.148  32.155  37.408  1.00  0.00     0.198 A 
ATOM     79  F   UNL A   1      38.011  30.108  36.254  1.00  0.00    -0.203 F 
ATOM     80  F   UNL A   1      40.259  35.043  36.839  1.00  0.00    -0.200 F 
ATOM     81  C   UNL A   1      38.714  33.411  37.562  1.00  0.00     0.200 A 
ATOM     82  F   UNL A   1      37.201  31.737  38.258  1.00  0.00    -0.200 F 
ATOM     83  F   UNL A   1      38.327  34.202  38.572  1.00  0.00    -0.200 F 
ENDBRANCH  49  73
BRANCH  61  84
ATOM     84  C   UNL A   1      44.496  26.924  34.742  1.00  0.00     0.064 A 
ATOM     85  C   UNL A   1      44.212  25.734  35.426  1.00  0.00     0.173 A 
ATOM     86  C   UNL A   1      45.744  27.528  34.962  1.00  0.00     0.173 A 
ATOM     87  F   UNL A   1      43.026  25.128  35.261  1.00  0.00    -0.203 F 
ATOM     88  C   UNL A   1      45.132  25.179  36.311  1.00  0.00     0.198 A 
ATOM     89  C   UNL A   1      46.671  26.958  35.829  1.00  0.00     0.198 A 
ATOM     90  F   UNL A   1      46.065  28.665  34.328  1.00  0.00    -0.203 F 
ATOM     91  F   UNL A   1      44.823  24.063  36.986  1.00  0.00    -0.200 F 
ATOM     92  C   UNL A   1      46.363  25.788  36.508  1.00  0.00     0.200 A 
ATOM     93  F   UNL A   1      47.864  27.542  36.011  1.00  0.00    -0.200 F 
ATOM     94  F   UNL A   1      47.250  25.251  37.357  1.00  0.00    -0.200 F 
ENDBRANCH  61  84
ENDBRANCH  35  36
ENDBRANCH  28  30
ENDBRANCH  27  28
ENDBRANCH  26  27
ENDBRANCH  25  26
ENDBRANCH  24  25
ENDBRANCH  23  24
ENDBRANCH   1  23
TORSDOF 19
ENDMDL
MODEL 3
REMARK VINA RESULT:     -11.2      4.028     10.310
REMARK SMILES Cc1ccc(C(=O)[C@@H]2CCC[C@H]2C(=O)OCCOCCOCCOC(=O)c2ccc(-c3c4nc(c(-c5c(F)c(F)c(F)c(F)c5F)c5ccc([nH]5)c(-c5c(F)c(F)c(F)c(F)c5F)c5nc(c(-c6c(F)c(F)c(F)c(F)c6F)c6ccc3[nH]6)C=C5)C=C4)cc2)c(C)c1
REMARK SMILES IDX 19 1 18 2 17 3 16 4 15 5 13 6 14 7 12 8 8 9 9 10 10 11 11 12
REMARK SMILES IDX 6 13 7 14 5 15 1 16 2 17 3 18 92 19 4 20 90 21 91 22 20 23
REMARK SMILES IDX 21 24 22 25 23 26 24 27 25 28 26 29 27 30 28 31 89 32 29 33
REMARK SMILES IDX 88 34 30 35 31 36 32 37 82 38 33 39 87 40 81 41 83 42 34 43
REMARK SMILES IDX 86 44 80 45 79 46 35 48 67 49 47 50 66 51 48 52 51 53 65 54
REMARK SMILES IDX 84 55 49 56 50 57 64 59 85 60 52 61 36 62 37 63 45 64 38 65
REMARK SMILES IDX 39 66 43 67 46 68 40 69 41 70 44 71 42 72 68 73 69 74 77 75
REMARK SMILES IDX 70 76 71 77 75 78 78 79 72 80 73 81 76 82 74 83 53 84 54 85
REMARK SMILES IDX 62 86 55 87 56 88 60 89 63 90 57 91 58 92 61 93 59 94
REMARK H PARENT 83 47 51 58
REMARK Flexibility Score: inf
ROOT
ATOM      1  C   UNL A   1      32.654  21.615  24.653  1.00  0.00     0.188 C 
ENDROOT
BRANCH   1   2
ATOM      2  O   UNL A   1      31.563  21.871  25.529  1.00  0.00    -0.376 OA
BRANCH   2   3
ATOM      3  C   UNL A   1      31.736  22.778  26.605  1.00  0.00     0.202 C 
BRANCH   3   4
ATOM      4  C   UNL A   1      31.448  24.250  26.299  1.00  0.00     0.261 C 
BRANCH   4   5
ATOM      5  O   UNL A   1      32.617  25.097  26.259  1.00  0.00    -0.463 OA
BRANCH   5   6
ATOM      6  C   UNL A   1      33.098  25.375  25.025  1.00  0.00     0.309 C 
ATOM      7  O   UNL A   1      33.841  24.632  24.388  1.00  0.00    -0.252 OA
BRANCH   6   8
ATOM      8  C   UNL A   1      32.736  26.748  24.475  1.00  0.00     0.110 C 
ATOM      9  C   UNL A   1      33.224  28.047  25.129  1.00  0.00     0.075 C 
ATOM     10  C   UNL A   1      33.415  29.049  23.982  1.00  0.00     0.013 C 
ATOM     11  C   UNL A   1      33.602  28.245  22.712  1.00  0.00     0.002 C 
ATOM     12  C   UNL A   1      33.325  26.793  23.057  1.00  0.00     0.016 C 
BRANCH   9  13
ATOM     13  C   UNL A   1      32.412  28.777  26.224  1.00  0.00     0.167 C 
ATOM     14  O   UNL A   1      31.554  28.111  26.810  1.00  0.00    -0.294 OA
BRANCH  13  15
ATOM     15  C   UNL A   1      32.655  30.203  26.693  1.00  0.00     0.021 A 
ATOM     16  C   UNL A   1      33.153  34.235  28.257  1.00  0.00     0.044 C 
ATOM     17  C   UNL A   1      33.011  32.868  27.653  1.00  0.00    -0.051 A 
ATOM     18  C   UNL A   1      31.840  32.496  27.004  1.00  0.00     0.004 A 
ATOM     19  C   UNL A   1      34.027  31.921  27.779  1.00  0.00     0.007 A 
ATOM     20  C   UNL A   1      31.686  31.199  26.496  1.00  0.00     0.012 A 
ATOM     21  C   UNL A   1      33.868  30.588  27.327  1.00  0.00    -0.040 A 
ATOM     22  C   UNL A   1      35.069  29.690  27.518  1.00  0.00     0.045 C 
ENDBRANCH  13  15
ENDBRANCH   9  13
ENDBRANCH   6   8
ENDBRANCH   5   6
ENDBRANCH   4   5
ENDBRANCH   3   4
ENDBRANCH   2   3
ENDBRANCH   1   2
BRANCH   1  23
ATOM     23  C   UNL A   1      33.763  20.635  25.074  1.00  0.00     0.188 C 
BRANCH  23  24
ATOM     24  O   UNL A   1      34.435  21.000  26.271  1.00  0.00    -0.376 OA
BRANCH  24  25
ATOM     25  C   UNL A   1      35.602  21.787  26.069  1.00  0.00     0.202 C 
BRANCH  25  26
ATOM     26  C   UNL A   1      36.617  21.008  25.238  1.00  0.00     0.261 C 
BRANCH  26  27
ATOM     27  O   UNL A   1      37.835  21.756  25.064  1.00  0.00    -0.460 OA
BRANCH  27  28
ATOM     28  C   UNL A   1      38.861  21.418  25.872  1.00  0.00     0.338 C 
ATOM     29  O   UNL A   1      39.314  20.309  26.076  1.00  0.00    -0.246 OA
BRANCH  28  30
ATOM     30  C   UNL A   1      39.383  22.645  26.501  1.00  0.00     0.060 A 
ATOM     31  C   UNL A   1      38.828  23.885  26.186  1.00  0.00     0.016 A 
ATOM     32  C   UNL A   1      40.501  22.572  27.329  1.00  0.00     0.016 A 
ATOM     33  C   UNL A   1      39.428  25.058  26.637  1.00  0.00     0.010 A 
ATOM     34  C   UNL A   1      41.082  23.751  27.812  1.00  0.00     0.010 A 
ATOM     35  C   UNL A   1      40.581  25.008  27.427  1.00  0.00    -0.014 A 
BRANCH  35  36
ATOM     36  C   UNL A   1      41.350  26.252  27.700  1.00  0.00     0.031 A 
ATOM     37  C   UNL A   1      40.743  27.305  28.588  1.00  0.00     0.074 A 
ATOM     38  C   UNL A   1      42.612  26.421  27.264  1.00  0.00     0.049 A 
ATOM     39  N   UNL A   1      41.135  28.533  28.816  1.00  0.00    -0.248 NA
ATOM     40  C   UNL A   1      39.531  26.915  29.329  1.00  0.00     0.031 C 
ATOM     41  C   UNL A   1      43.399  25.431  26.534  1.00  0.00     0.029 A 
ATOM     42  N   UNL A   1      43.466  27.489  27.405  1.00  0.00    -0.354 N 
ATOM     43  C   UNL A   1      40.180  29.083  29.662  1.00  0.00     0.074 A 
ATOM     44  C   UNL A   1      39.204  28.048  29.931  1.00  0.00     0.031 C 
ATOM     45  C   UNL A   1      44.637  25.915  26.338  1.00  0.00     0.029 A 
ATOM     46  C   UNL A   1      44.699  27.287  26.836  1.00  0.00     0.049 A 
ATOM     47  H   UNL A   1      43.217  28.320  27.871  1.00  0.00     0.167 HD
ATOM     48  C   UNL A   1      40.115  30.343  30.154  1.00  0.00     0.037 A 
ATOM     49  C   UNL A   1      45.741  28.127  26.690  1.00  0.00     0.037 A 
ATOM     50  C   UNL A   1      41.114  31.354  29.932  1.00  0.00     0.049 A 
ATOM     51  C   UNL A   1      45.609  29.554  27.152  1.00  0.00     0.074 A 
ATOM     52  C   UNL A   1      41.125  32.671  30.358  1.00  0.00     0.029 A 
ATOM     53  N   UNL A   1      42.295  31.151  29.235  1.00  0.00    -0.354 N 
ATOM     54  N   UNL A   1      44.638  30.121  27.826  1.00  0.00    -0.248 NA
ATOM     55  C   UNL A   1      46.702  30.468  26.791  1.00  0.00     0.031 C 
ATOM     56  C   UNL A   1      42.298  33.274  29.890  1.00  0.00     0.029 A 
ATOM     57  C   UNL A   1      43.036  32.322  29.207  1.00  0.00     0.049 A 
ATOM     58  H   UNL A   1      42.568  30.300  28.821  1.00  0.00     0.167 HD
ATOM     59  C   UNL A   1      45.001  31.454  27.971  1.00  0.00     0.074 A 
ATOM     60  C   UNL A   1      46.295  31.607  27.337  1.00  0.00     0.031 C 
ATOM     61  C   UNL A   1      44.319  32.463  28.567  1.00  0.00     0.037 A 
BRANCH  48  62
ATOM     62  C   UNL A   1      38.880  30.717  30.917  1.00  0.00     0.064 A 
ATOM     63  C   UNL A   1      37.729  31.212  30.288  1.00  0.00     0.173 A 
ATOM     64  C   UNL A   1      38.856  30.576  32.314  1.00  0.00     0.173 A 
ATOM     65  F   UNL A   1      37.711  31.386  28.958  1.00  0.00    -0.203 F 
ATOM     66  C   UNL A   1      36.610  31.579  31.032  1.00  0.00     0.198 A 
ATOM     67  C   UNL A   1      37.727  30.918  33.052  1.00  0.00     0.198 A 
ATOM     68  F   UNL A   1      39.932  30.107  32.964  1.00  0.00    -0.203 F 
ATOM     69  F   UNL A   1      35.540  32.099  30.416  1.00  0.00    -0.200 F 
ATOM     70  C   UNL A   1      36.608  31.427  32.411  1.00  0.00     0.200 A 
ATOM     71  F   UNL A   1      37.726  30.764  34.383  1.00  0.00    -0.200 F 
ATOM     72  F   UNL A   1      35.532  31.784  33.125  1.00  0.00    -0.200 F 
ENDBRANCH  48  62
BRANCH  49  73
ATOM     73  C   UNL A   1      46.990  27.659  26.034  1.00  0.00     0.064 A 
ATOM     74  C   UNL A   1      48.072  27.203  26.799  1.00  0.00     0.173 A 
ATOM     75  C   UNL A   1      47.131  27.659  24.638  1.00  0.00     0.173 A 
ATOM     76  F   UNL A   1      47.998  27.217  28.138  1.00  0.00    -0.203 F 
ATOM     77  C   UNL A   1      49.246  26.762  26.193  1.00  0.00     0.198 A 
ATOM     78  C   UNL A   1      48.295  27.191  24.033  1.00  0.00     0.198 A 
ATOM     79  F   UNL A   1      46.131  28.101  23.862  1.00  0.00    -0.203 F 
ATOM     80  F   UNL A   1      50.278  26.362  26.948  1.00  0.00    -0.200 F 
ATOM     81  C   UNL A   1      49.353  26.746  24.810  1.00  0.00     0.200 A 
ATOM     82  F   UNL A   1      48.389  27.170  22.697  1.00  0.00    -0.200 F 
ATOM     83  F   UNL A   1      50.478  26.310  24.228  1.00  0.00    -0.200 F 
ENDBRANCH  49  73
BRANCH  61  84
ATOM     84  C   UNL A   1      44.962  33.817  28.575  1.00  0.00     0.064 A 
ATOM     85  C   UNL A   1      44.705  34.754  27.563  1.00  0.00     0.173 A 
ATOM     86  C   UNL A   1      45.815  34.196  29.622  1.00  0.00     0.173 A 
ATOM     87  F   UNL A   1      43.909  34.433  26.532  1.00  0.00    -0.203 F 
ATOM     88  C   UNL A   1      45.295  36.015  27.589  1.00  0.00     0.198 A 
ATOM     89  C   UNL A   1      46.384  35.466  29.657  1.00  0.00     0.198 A 
ATOM     90  F   UNL A   1      46.089  33.338  30.615  1.00  0.00    -0.203 F 
ATOM     91  F   UNL A   1      45.068  36.881  26.591  1.00  0.00    -0.200 F 
ATOM     92  C   UNL A   1      46.129  36.373  28.638  1.00  0.00     0.200 A 
ATOM     93  F   UNL A   1      47.183  35.814  30.677  1.00  0.00    -0.200 F 
ATOM     94  F   UNL A   1      46.693  37.588  28.664  1.00  0.00    -0.200 F 
ENDBRANCH  61  84
ENDBRANCH  35  36
ENDBRANCH  28  30
ENDBRANCH  27  28
ENDBRANCH  26  27
ENDBRANCH  25  26
ENDBRANCH  24  25
ENDBRANCH  23  24
ENDBRANCH   1  23
TORSDOF 19
ENDMDL
