MODEL 1
REMARK VINA RESULT:     -11.5      0.000      0.000
REMARK SMILES C[C@H](NC1=[NH+]S(=O)(=O)c2ccccc21)C(=O)OCCOCCOCCOC(=O)c1ccc(-c2c3nc(c(-c4c(F)c(F)c(F)c(F)c4F)c4ccc([nH]4)c(-c4c(F)c(F)c(F)c(F)c4F)c4nc(c(-c5c(F)c(F)c(F)c(F)c5F)c5ccc2[nH]5)C=C4)C=C3)cc1
REMARK SMILES IDX 22 1 21 2 20 3 19 4 18 5 17 6 15 7 16 8 2 9 1 10 3 11 4 12
REMARK SMILES IDX 5 14 14 15 6 16 9 18 13 19 7 20 8 21 10 22 12 23 11 24 23 25
REMARK SMILES IDX 24 26 25 27 26 28 27 29 28 30 29 31 30 32 91 33 31 34 90 35
REMARK SMILES IDX 32 36 33 37 34 38 84 39 35 40 89 41 83 42 85 43 36 44 88 45
REMARK SMILES IDX 82 46 81 47 37 49 69 50 49 51 68 52 50 53 53 54 67 55 86 56
REMARK SMILES IDX 51 57 52 58 66 60 87 61 54 62 38 63 39 64 47 65 40 66 41 67
REMARK SMILES IDX 45 68 48 69 42 70 43 71 46 72 44 73 70 74 71 75 79 76 72 77
REMARK SMILES IDX 73 78 77 79 80 80 74 81 75 82 78 83 76 84 55 85 56 86 64 87
REMARK SMILES IDX 57 88 58 89 62 90 65 91 59 92 60 93 63 94 61 95
REMARK H PARENT 3 13 5 17 85 48 53 59
REMARK Flexibility Score: inf
ROOT
ATOM      1  C   UNL A   1      43.416  18.851  25.683  1.00  0.00     0.188 C 
ENDROOT
BRANCH   1   2
ATOM      2  C   UNL A   1      42.280  19.147  26.670  1.00  0.00     0.188 C 
BRANCH   2   3
ATOM      3  O   UNL A   1      41.636  20.412  26.645  1.00  0.00    -0.376 OA
BRANCH   3   4
ATOM      4  C   UNL A   1      40.272  20.502  26.256  1.00  0.00     0.202 C 
BRANCH   4   5
ATOM      5  C   UNL A   1      39.573  21.864  26.380  1.00  0.00     0.261 C 
BRANCH   5   6
ATOM      6  O   UNL A   1      38.348  22.009  25.626  1.00  0.00    -0.460 OA
BRANCH   6   7
ATOM      7  C   UNL A   1      37.651  23.164  25.828  1.00  0.00     0.350 C 
ATOM      8  O   UNL A   1      38.070  24.098  26.507  1.00  0.00    -0.247 OA
BRANCH   7   9
ATOM      9  C   UNL A   1      36.304  23.254  25.067  1.00  0.00     0.279 C 
ATOM     10  C   UNL A   1      36.601  23.253  23.576  1.00  0.00     0.071 C 
BRANCH   9  11
ATOM     11  N   UNL A   1      35.409  24.335  25.510  1.00  0.00    -0.260 N 
ATOM     12  C   UNL A   1      34.063  24.326  25.762  1.00  0.00     0.292 C 
ATOM     13  H   UNL A   1      35.849  25.205  25.647  1.00  0.00     0.306 HD
ATOM     14  N   UNL A   1      33.333  23.269  25.952  1.00  0.00    -0.162 N 
ATOM     15  C   UNL A   1      33.326  25.618  25.839  1.00  0.00     0.087 A 
ATOM     16  S   UNL A   1      31.774  23.667  26.270  1.00  0.00     0.329 S 
ATOM     17  H   UNL A   1      33.672  22.347  25.910  1.00  0.00     0.327 HD
ATOM     18  C   UNL A   1      31.988  25.379  26.074  1.00  0.00     0.124 A 
ATOM     19  C   UNL A   1      33.774  26.914  25.637  1.00  0.00     0.018 A 
ATOM     20  O   UNL A   1      31.473  23.438  27.663  1.00  0.00    -0.179 OA
ATOM     21  O   UNL A   1      30.912  23.216  25.195  1.00  0.00    -0.179 OA
ATOM     22  C   UNL A   1      31.026  26.370  26.088  1.00  0.00     0.025 A 
ATOM     23  C   UNL A   1      32.829  27.950  25.662  1.00  0.00     0.001 A 
ATOM     24  C   UNL A   1      31.464  27.678  25.875  1.00  0.00     0.002 A 
ENDBRANCH   9  11
ENDBRANCH   7   9
ENDBRANCH   6   7
ENDBRANCH   5   6
ENDBRANCH   4   5
ENDBRANCH   3   4
ENDBRANCH   2   3
ENDBRANCH   1   2
BRANCH   1  25
ATOM     25  O   UNL A   1      43.592  19.802  24.655  1.00  0.00    -0.376 OA
BRANCH  25  26
ATOM     26  C   UNL A   1      44.848  20.456  24.591  1.00  0.00     0.202 C 
BRANCH  26  27
ATOM     27  C   UNL A   1      44.979  21.632  25.564  1.00  0.00     0.261 C 
BRANCH  27  28
ATOM     28  O   UNL A   1      43.949  22.632  25.446  1.00  0.00    -0.460 OA
BRANCH  28  29
ATOM     29  C   UNL A   1      44.352  23.900  25.196  1.00  0.00     0.338 C 
ATOM     30  O   UNL A   1      44.989  24.289  24.233  1.00  0.00    -0.246 OA
BRANCH  29  31
ATOM     31  C   UNL A   1      43.671  24.792  26.161  1.00  0.00     0.060 A 
ATOM     32  C   UNL A   1      44.040  26.144  26.205  1.00  0.00     0.016 A 
ATOM     33  C   UNL A   1      42.663  24.310  27.000  1.00  0.00     0.016 A 
ATOM     34  C   UNL A   1      43.418  27.010  27.107  1.00  0.00     0.010 A 
ATOM     35  C   UNL A   1      42.055  25.176  27.915  1.00  0.00     0.010 A 
ATOM     36  C   UNL A   1      42.445  26.524  27.992  1.00  0.00    -0.014 A 
BRANCH  36  37
ATOM     37  C   UNL A   1      41.962  27.382  29.102  1.00  0.00     0.031 A 
ATOM     38  C   UNL A   1      42.690  27.338  30.418  1.00  0.00     0.074 A 
ATOM     39  C   UNL A   1      40.912  28.210  28.944  1.00  0.00     0.049 A 
ATOM     40  N   UNL A   1      42.433  27.972  31.535  1.00  0.00    -0.248 NA
ATOM     41  C   UNL A   1      43.867  26.457  30.484  1.00  0.00     0.031 C 
ATOM     42  C   UNL A   1      40.141  28.374  27.714  1.00  0.00     0.029 A 
ATOM     43  N   UNL A   1      40.312  29.065  29.836  1.00  0.00    -0.354 N 
ATOM     44  C   UNL A   1      43.418  27.573  32.430  1.00  0.00     0.074 A 
ATOM     45  C   UNL A   1      44.254  26.615  31.741  1.00  0.00     0.031 C 
ATOM     46  C   UNL A   1      39.159  29.267  27.933  1.00  0.00     0.029 A 
ATOM     47  C   UNL A   1      39.215  29.714  29.324  1.00  0.00     0.049 A 
ATOM     48  H   UNL A   1      40.636  29.200  30.755  1.00  0.00     0.167 HD
ATOM     49  C   UNL A   1      43.616  27.979  33.705  1.00  0.00     0.037 A 
ATOM     50  C   UNL A   1      38.345  30.556  29.919  1.00  0.00     0.037 A 
ATOM     51  C   UNL A   1      42.783  28.925  34.399  1.00  0.00     0.049 A 
ATOM     52  C   UNL A   1      38.544  30.930  31.368  1.00  0.00     0.074 A 
ATOM     53  C   UNL A   1      42.907  29.398  35.694  1.00  0.00     0.029 A 
ATOM     54  N   UNL A   1      41.664  29.539  33.857  1.00  0.00    -0.354 N 
ATOM     55  N   UNL A   1      39.494  30.569  32.197  1.00  0.00    -0.248 NA
ATOM     56  C   UNL A   1      37.550  31.837  31.961  1.00  0.00     0.031 C 
ATOM     57  C   UNL A   1      41.837  30.260  35.952  1.00  0.00     0.029 A 
ATOM     58  C   UNL A   1      41.077  30.369  34.800  1.00  0.00     0.049 A 
ATOM     59  H   UNL A   1      41.335  29.405  32.939  1.00  0.00     0.167 HD
ATOM     60  C   UNL A   1      39.227  31.225  33.394  1.00  0.00     0.074 A 
ATOM     61  C   UNL A   1      38.042  32.025  33.177  1.00  0.00     0.031 C 
ATOM     62  C   UNL A   1      39.901  31.167  34.569  1.00  0.00     0.037 A 
BRANCH  49  63
ATOM     63  C   UNL A   1      44.779  27.390  34.448  1.00  0.00     0.064 A 
ATOM     64  C   UNL A   1      46.034  28.018  34.461  1.00  0.00     0.173 A 
ATOM     65  C   UNL A   1      44.623  26.217  35.199  1.00  0.00     0.173 A 
ATOM     66  F   UNL A   1      46.238  29.133  33.744  1.00  0.00    -0.203 F 
ATOM     67  C   UNL A   1      47.093  27.484  35.189  1.00  0.00     0.198 A 
ATOM     68  C   UNL A   1      45.677  25.701  35.949  1.00  0.00     0.198 A 
ATOM     69  F   UNL A   1      43.444  25.579  35.221  1.00  0.00    -0.203 F 
ATOM     70  F   UNL A   1      48.294  28.079  35.158  1.00  0.00    -0.200 F 
ATOM     71  C   UNL A   1      46.911  26.331  35.940  1.00  0.00     0.200 A 
ATOM     72  F   UNL A   1      45.496  24.594  36.683  1.00  0.00    -0.200 F 
ATOM     73  F   UNL A   1      47.929  25.826  36.651  1.00  0.00    -0.200 F 
ENDBRANCH  49  63
BRANCH  50  74
ATOM     74  C   UNL A   1      37.180  31.093  29.164  1.00  0.00     0.064 A 
ATOM     75  C   UNL A   1      37.126  32.438  28.770  1.00  0.00     0.173 A 
ATOM     76  C   UNL A   1      36.068  30.288  28.877  1.00  0.00     0.173 A 
ATOM     77  F   UNL A   1      38.150  33.258  29.049  1.00  0.00    -0.203 F 
ATOM     78  C   UNL A   1      35.994  32.963  28.150  1.00  0.00     0.198 A 
ATOM     79  C   UNL A   1      34.950  30.805  28.226  1.00  0.00     0.198 A 
ATOM     80  F   UNL A   1      36.064  28.996  29.237  1.00  0.00    -0.203 F 
ATOM     81  F   UNL A   1      35.942  34.268  27.849  1.00  0.00    -0.200 F 
ATOM     82  C   UNL A   1      34.908  32.146  27.876  1.00  0.00     0.200 A 
ATOM     83  F   UNL A   1      33.907  30.009  27.957  1.00  0.00    -0.200 F 
ATOM     84  F   UNL A   1      33.815  32.653  27.289  1.00  0.00    -0.200 F 
ENDBRANCH  50  74
BRANCH  62  85
ATOM     85  C   UNL A   1      39.395  32.021  35.699  1.00  0.00     0.064 A 
ATOM     86  C   UNL A   1      39.831  33.343  35.879  1.00  0.00     0.173 A 
ATOM     87  C   UNL A   1      38.445  31.517  36.601  1.00  0.00     0.173 A 
ATOM     88  F   UNL A   1      40.747  33.870  35.052  1.00  0.00    -0.203 F 
ATOM     89  C   UNL A   1      39.365  34.114  36.941  1.00  0.00     0.198 A 
ATOM     90  C   UNL A   1      37.956  32.302  37.641  1.00  0.00     0.198 A 
ATOM     91  F   UNL A   1      37.986  30.264  36.470  1.00  0.00    -0.203 F 
ATOM     92  F   UNL A   1      39.843  35.352  37.127  1.00  0.00    -0.200 F 
ATOM     93  C   UNL A   1      38.424  33.595  37.817  1.00  0.00     0.200 A 
ATOM     94  F   UNL A   1      37.035  31.805  38.478  1.00  0.00    -0.200 F 
ATOM     95  F   UNL A   1      37.976  34.339  38.839  1.00  0.00    -0.200 F 
ENDBRANCH  62  85
ENDBRANCH  36  37
ENDBRANCH  29  31
ENDBRANCH  28  29
ENDBRANCH  27  28
ENDBRANCH  26  27
ENDBRANCH  25  26
ENDBRANCH   1  25
TORSDOF 18
ENDMDL
MODEL 2
REMARK VINA RESULT:     -11.0      1.222      2.199
REMARK SMILES C[C@H](NC1=[NH+]S(=O)(=O)c2ccccc21)C(=O)OCCOCCOCCOC(=O)c1ccc(-c2c3nc(c(-c4c(F)c(F)c(F)c(F)c4F)c4ccc([nH]4)c(-c4c(F)c(F)c(F)c(F)c4F)c4nc(c(-c5c(F)c(F)c(F)c(F)c5F)c5ccc2[nH]5)C=C4)C=C3)cc1
REMARK SMILES IDX 22 1 21 2 20 3 19 4 18 5 17 6 15 7 16 8 2 9 1 10 3 11 4 12
REMARK SMILES IDX 5 14 14 15 6 16 9 18 13 19 7 20 8 21 10 22 12 23 11 24 23 25
REMARK SMILES IDX 24 26 25 27 26 28 27 29 28 30 29 31 30 32 91 33 31 34 90 35
REMARK SMILES IDX 32 36 33 37 34 38 84 39 35 40 89 41 83 42 85 43 36 44 88 45
REMARK SMILES IDX 82 46 81 47 37 49 69 50 49 51 68 52 50 53 53 54 67 55 86 56
REMARK SMILES IDX 51 57 52 58 66 60 87 61 54 62 38 63 39 64 47 65 40 66 41 67
REMARK SMILES IDX 45 68 48 69 42 70 43 71 46 72 44 73 70 74 71 75 79 76 72 77
REMARK SMILES IDX 73 78 77 79 80 80 74 81 75 82 78 83 76 84 55 85 56 86 64 87
REMARK SMILES IDX 57 88 58 89 62 90 65 91 59 92 60 93 63 94 61 95
REMARK H PARENT 3 13 5 17 85 48 53 59
REMARK Flexibility Score: inf
ROOT
ATOM      1  C   UNL A   1      44.227  18.954  25.421  1.00  0.00     0.188 C 
ENDROOT
BRANCH   1   2
ATOM      2  C   UNL A   1      42.873  18.463  25.949  1.00  0.00     0.188 C 
BRANCH   2   3
ATOM      3  O   UNL A   1      42.263  19.122  27.048  1.00  0.00    -0.376 OA
BRANCH   3   4
ATOM      4  C   UNL A   1      42.027  20.523  26.989  1.00  0.00     0.202 C 
BRANCH   4   5
ATOM      5  C   UNL A   1      40.653  21.043  27.436  1.00  0.00     0.261 C 
BRANCH   5   6
ATOM      6  O   UNL A   1      40.171  22.215  26.738  1.00  0.00    -0.460 OA
BRANCH   6   7
ATOM      7  C   UNL A   1      38.982  22.079  26.085  1.00  0.00     0.350 C 
ATOM      8  O   UNL A   1      38.626  21.039  25.535  1.00  0.00    -0.247 OA
BRANCH   7   9
ATOM      9  C   UNL A   1      38.057  23.321  26.148  1.00  0.00     0.279 C 
ATOM     10  C   UNL A   1      38.587  24.252  27.226  1.00  0.00     0.071 C 
BRANCH   9  11
ATOM     11  N   UNL A   1      36.620  23.023  26.251  1.00  0.00    -0.260 N 
ATOM     12  C   UNL A   1      35.551  23.560  25.582  1.00  0.00     0.292 C 
ATOM     13  H   UNL A   1      36.389  22.326  26.906  1.00  0.00     0.306 HD
ATOM     14  N   UNL A   1      35.611  24.248  24.484  1.00  0.00    -0.162 N 
ATOM     15  C   UNL A   1      34.177  23.359  26.122  1.00  0.00     0.087 A 
ATOM     16  S   UNL A   1      34.117  24.681  23.966  1.00  0.00     0.329 S 
ATOM     17  H   UNL A   1      36.447  24.482  24.021  1.00  0.00     0.327 HD
ATOM     18  C   UNL A   1      33.261  24.000  25.314  1.00  0.00     0.124 A 
ATOM     19  C   UNL A   1      33.758  22.730  27.283  1.00  0.00     0.018 A 
ATOM     20  O   UNL A   1      33.748  23.911  22.802  1.00  0.00    -0.179 OA
ATOM     21  O   UNL A   1      33.958  26.121  24.039  1.00  0.00    -0.179 OA
ATOM     22  C   UNL A   1      31.915  24.091  25.610  1.00  0.00     0.025 A 
ATOM     23  C   UNL A   1      32.395  22.785  27.608  1.00  0.00     0.001 A 
ATOM     24  C   UNL A   1      31.483  23.470  26.783  1.00  0.00     0.002 A 
ENDBRANCH   9  11
ENDBRANCH   7   9
ENDBRANCH   6   7
ENDBRANCH   5   6
ENDBRANCH   4   5
ENDBRANCH   3   4
ENDBRANCH   2   3
ENDBRANCH   1   2
BRANCH   1  25
ATOM     25  O   UNL A   1      44.176  19.723  24.239  1.00  0.00    -0.376 OA
BRANCH  25  26
ATOM     26  C   UNL A   1      45.039  20.845  24.163  1.00  0.00     0.202 C 
BRANCH  26  27
ATOM     27  C   UNL A   1      45.086  21.673  25.451  1.00  0.00     0.261 C 
BRANCH  27  28
ATOM     28  O   UNL A   1      44.106  22.727  25.529  1.00  0.00    -0.460 OA
BRANCH  28  29
ATOM     29  C   UNL A   1      44.548  23.990  25.327  1.00  0.00     0.338 C 
ATOM     30  O   UNL A   1      45.234  24.387  24.402  1.00  0.00    -0.246 OA
BRANCH  29  31
ATOM     31  C   UNL A   1      43.846  24.875  26.284  1.00  0.00     0.060 A 
ATOM     32  C   UNL A   1      44.241  26.217  26.374  1.00  0.00     0.016 A 
ATOM     33  C   UNL A   1      42.794  24.396  27.069  1.00  0.00     0.016 A 
ATOM     34  C   UNL A   1      43.599  27.077  27.269  1.00  0.00     0.010 A 
ATOM     35  C   UNL A   1      42.167  25.254  27.978  1.00  0.00     0.010 A 
ATOM     36  C   UNL A   1      42.582  26.592  28.102  1.00  0.00    -0.014 A 
BRANCH  36  37
ATOM     37  C   UNL A   1      42.070  27.436  29.211  1.00  0.00     0.031 A 
ATOM     38  C   UNL A   1      42.772  27.383  30.541  1.00  0.00     0.074 A 
ATOM     39  C   UNL A   1      41.018  28.257  29.041  1.00  0.00     0.049 A 
ATOM     40  N   UNL A   1      42.489  28.004  31.658  1.00  0.00    -0.248 NA
ATOM     41  C   UNL A   1      43.954  26.509  30.621  1.00  0.00     0.031 C 
ATOM     42  C   UNL A   1      40.270  28.429  27.798  1.00  0.00     0.029 A 
ATOM     43  N   UNL A   1      40.394  29.100  29.930  1.00  0.00    -0.354 N 
ATOM     44  C   UNL A   1      43.459  27.603  32.569  1.00  0.00     0.074 A 
ATOM     45  C   UNL A   1      44.316  26.657  31.887  1.00  0.00     0.031 C 
ATOM     46  C   UNL A   1      39.278  29.313  28.006  1.00  0.00     0.029 A 
ATOM     47  C   UNL A   1      39.303  29.747  29.402  1.00  0.00     0.049 A 
ATOM     48  H   UNL A   1      40.700  29.228  30.856  1.00  0.00     0.167 HD
ATOM     49  C   UNL A   1      43.629  27.997  33.852  1.00  0.00     0.037 A 
ATOM     50  C   UNL A   1      38.416  30.577  29.988  1.00  0.00     0.037 A 
ATOM     51  C   UNL A   1      42.776  28.930  34.539  1.00  0.00     0.049 A 
ATOM     52  C   UNL A   1      38.584  30.936  31.445  1.00  0.00     0.074 A 
ATOM     53  C   UNL A   1      42.872  29.390  35.841  1.00  0.00     0.029 A 
ATOM     54  N   UNL A   1      41.664  29.542  33.980  1.00  0.00    -0.354 N 
ATOM     55  N   UNL A   1      39.520  30.574  32.289  1.00  0.00    -0.248 NA
ATOM     56  C   UNL A   1      37.572  31.831  32.027  1.00  0.00     0.031 C 
ATOM     57  C   UNL A   1      41.790  30.243  36.086  1.00  0.00     0.029 A 
ATOM     58  C   UNL A   1      41.053  30.358  34.920  1.00  0.00     0.049 A 
ATOM     59  H   UNL A   1      41.354  29.415  33.055  1.00  0.00     0.167 HD
ATOM     60  C   UNL A   1      39.225  31.216  33.487  1.00  0.00     0.074 A 
ATOM     61  C   UNL A   1      38.039  32.010  33.254  1.00  0.00     0.031 C 
ATOM     62  C   UNL A   1      39.876  31.151  34.674  1.00  0.00     0.037 A 
BRANCH  49  63
ATOM     63  C   UNL A   1      44.782  27.409  34.612  1.00  0.00     0.064 A 
ATOM     64  C   UNL A   1      44.656  26.201  35.314  1.00  0.00     0.173 A 
ATOM     65  C   UNL A   1      46.038  28.031  34.592  1.00  0.00     0.173 A 
ATOM     66  F   UNL A   1      43.470  25.577  35.378  1.00  0.00    -0.203 F 
ATOM     67  C   UNL A   1      45.745  25.644  35.979  1.00  0.00     0.198 A 
ATOM     68  C   UNL A   1      47.132  27.457  35.235  1.00  0.00     0.198 A 
ATOM     69  F   UNL A   1      46.211  29.187  33.935  1.00  0.00    -0.203 F 
ATOM     70  F   UNL A   1      45.594  24.508  36.675  1.00  0.00    -0.200 F 
ATOM     71  C   UNL A   1      46.984  26.267  35.931  1.00  0.00     0.200 A 
ATOM     72  F   UNL A   1      48.330  28.054  35.179  1.00  0.00    -0.200 F 
ATOM     73  F   UNL A   1      48.034  25.722  36.561  1.00  0.00    -0.200 F 
ENDBRANCH  49  63
BRANCH  50  74
ATOM     74  C   UNL A   1      37.262  31.113  29.216  1.00  0.00     0.064 A 
ATOM     75  C   UNL A   1      37.212  32.459  28.825  1.00  0.00     0.173 A 
ATOM     76  C   UNL A   1      36.157  30.306  28.908  1.00  0.00     0.173 A 
ATOM     77  F   UNL A   1      38.229  33.281  29.124  1.00  0.00    -0.203 F 
ATOM     78  C   UNL A   1      36.088  32.984  28.188  1.00  0.00     0.198 A 
ATOM     79  C   UNL A   1      35.049  30.823  28.241  1.00  0.00     0.198 A 
ATOM     80  F   UNL A   1      36.150  29.013  29.264  1.00  0.00    -0.203 F 
ATOM     81  F   UNL A   1      36.039  34.289  27.890  1.00  0.00    -0.200 F 
ATOM     82  C   UNL A   1      35.009  32.165  27.894  1.00  0.00     0.200 A 
ATOM     83  F   UNL A   1      34.012  30.025  27.951  1.00  0.00    -0.200 F 
ATOM     84  F   UNL A   1      33.925  32.671  27.290  1.00  0.00    -0.200 F 
ENDBRANCH  50  74
BRANCH  62  85
ATOM     85  C   UNL A   1      39.342  31.990  35.802  1.00  0.00     0.064 A 
ATOM     86  C   UNL A   1      38.405  31.487  36.718  1.00  0.00     0.173 A 
ATOM     87  C   UNL A   1      39.789  33.309  35.981  1.00  0.00     0.173 A 
ATOM     88  F   UNL A   1      37.936  30.237  36.585  1.00  0.00    -0.203 F 
ATOM     89  C   UNL A   1      37.907  32.284  37.746  1.00  0.00     0.198 A 
ATOM     90  C   UNL A   1      39.314  34.091  37.031  1.00  0.00     0.198 A 
ATOM     91  F   UNL A   1      40.691  33.837  35.142  1.00  0.00    -0.203 F 
ATOM     92  F   UNL A   1      36.968  31.800  38.570  1.00  0.00    -0.200 F 
ATOM     93  C   UNL A   1      38.366  33.582  37.904  1.00  0.00     0.200 A 
ATOM     94  F   UNL A   1      39.771  35.341  37.192  1.00  0.00    -0.200 F 
ATOM     95  F   UNL A   1      37.886  34.347  38.895  1.00  0.00    -0.200 F 
ENDBRANCH  62  85
ENDBRANCH  36  37
ENDBRANCH  29  31
ENDBRANCH  28  29
ENDBRANCH  27  28
ENDBRANCH  26  27
ENDBRANCH  25  26
ENDBRANCH   1  25
TORSDOF 18
ENDMDL
MODEL 3
REMARK VINA RESULT:     -10.7      4.358      7.125
REMARK SMILES C[C@H](NC1=[NH+]S(=O)(=O)c2ccccc21)C(=O)OCCOCCOCCOC(=O)c1ccc(-c2c3nc(c(-c4c(F)c(F)c(F)c(F)c4F)c4ccc([nH]4)c(-c4c(F)c(F)c(F)c(F)c4F)c4nc(c(-c5c(F)c(F)c(F)c(F)c5F)c5ccc2[nH]5)C=C4)C=C3)cc1
REMARK SMILES IDX 22 1 21 2 20 3 19 4 18 5 17 6 15 7 16 8 2 9 1 10 3 11 4 12
REMARK SMILES IDX 5 14 14 15 6 16 9 18 13 19 7 20 8 21 10 22 12 23 11 24 23 25
REMARK SMILES IDX 24 26 25 27 26 28 27 29 28 30 29 31 30 32 91 33 31 34 90 35
REMARK SMILES IDX 32 36 33 37 34 38 84 39 35 40 89 41 83 42 85 43 36 44 88 45
REMARK SMILES IDX 82 46 81 47 37 49 69 50 49 51 68 52 50 53 53 54 67 55 86 56
REMARK SMILES IDX 51 57 52 58 66 60 87 61 54 62 38 63 39 64 47 65 40 66 41 67
REMARK SMILES IDX 45 68 48 69 42 70 43 71 46 72 44 73 70 74 71 75 79 76 72 77
REMARK SMILES IDX 73 78 77 79 80 80 74 81 75 82 78 83 76 84 55 85 56 86 64 87
REMARK SMILES IDX 57 88 58 89 62 90 65 91 59 92 60 93 63 94 61 95
REMARK H PARENT 3 13 5 17 85 48 53 59
REMARK Flexibility Score: inf
ROOT
ATOM      1  C   UNL A   1      35.229  22.836  26.040  1.00  0.00     0.188 C 
ENDROOT
BRANCH   1   2
ATOM      2  C   UNL A   1      34.733  24.258  25.751  1.00  0.00     0.188 C 
BRANCH   2   3
ATOM      3  O   UNL A   1      34.238  24.584  24.462  1.00  0.00    -0.376 OA
BRANCH   3   4
ATOM      4  C   UNL A   1      33.995  25.944  24.121  1.00  0.00     0.202 C 
BRANCH   4   5
ATOM      5  C   UNL A   1      33.326  26.843  25.172  1.00  0.00     0.261 C 
BRANCH   5   6
ATOM      6  O   UNL A   1      31.882  26.893  25.123  1.00  0.00    -0.460 OA
BRANCH   6   7
ATOM      7  C   UNL A   1      31.337  27.418  23.988  1.00  0.00     0.350 C 
ATOM      8  O   UNL A   1      31.700  28.482  23.492  1.00  0.00    -0.247 OA
BRANCH   7   9
ATOM      9  C   UNL A   1      30.262  26.531  23.310  1.00  0.00     0.279 C 
ATOM     10  C   UNL A   1      28.903  26.925  23.865  1.00  0.00     0.071 C 
BRANCH   9  11
ATOM     11  N   UNL A   1      30.538  25.086  23.339  1.00  0.00    -0.260 N 
ATOM     12  C   UNL A   1      30.689  24.232  24.399  1.00  0.00     0.292 C 
ATOM     13  H   UNL A   1      30.628  24.665  22.454  1.00  0.00     0.306 HD
ATOM     14  N   UNL A   1      30.319  24.466  25.621  1.00  0.00    -0.162 N 
ATOM     15  C   UNL A   1      31.324  22.902  24.180  1.00  0.00     0.087 A 
ATOM     16  S   UNL A   1      30.629  23.185  26.597  1.00  0.00     0.329 S 
ATOM     17  H   UNL A   1      29.907  25.306  25.925  1.00  0.00     0.327 HD
ATOM     18  C   UNL A   1      31.399  22.219  25.377  1.00  0.00     0.124 A 
ATOM     19  C   UNL A   1      31.874  22.354  23.033  1.00  0.00     0.018 A 
ATOM     20  O   UNL A   1      29.399  22.515  26.948  1.00  0.00    -0.179 OA
ATOM     21  O   UNL A   1      31.643  23.531  27.574  1.00  0.00    -0.179 OA
ATOM     22  C   UNL A   1      32.037  21.002  25.522  1.00  0.00     0.025 A 
ATOM     23  C   UNL A   1      32.514  21.111  23.137  1.00  0.00     0.001 A 
ATOM     24  C   UNL A   1      32.604  20.446  24.374  1.00  0.00     0.002 A 
ENDBRANCH   9  11
ENDBRANCH   7   9
ENDBRANCH   6   7
ENDBRANCH   5   6
ENDBRANCH   4   5
ENDBRANCH   3   4
ENDBRANCH   2   3
ENDBRANCH   1   2
BRANCH   1  25
ATOM     25  O   UNL A   1      35.791  22.152  24.940  1.00  0.00    -0.376 OA
BRANCH  25  26
ATOM     26  C   UNL A   1      35.986  20.755  25.081  1.00  0.00     0.202 C 
BRANCH  26  27
ATOM     27  C   UNL A   1      37.454  20.327  24.990  1.00  0.00     0.261 C 
BRANCH  27  28
ATOM     28  O   UNL A   1      38.407  21.385  25.213  1.00  0.00    -0.460 OA
BRANCH  28  29
ATOM     29  C   UNL A   1      39.386  21.146  26.117  1.00  0.00     0.338 C 
ATOM     30  O   UNL A   1      39.951  20.086  26.320  1.00  0.00    -0.246 OA
BRANCH  29  31
ATOM     31  C   UNL A   1      39.843  22.450  26.648  1.00  0.00     0.060 A 
ATOM     32  C   UNL A   1      39.229  23.620  26.179  1.00  0.00     0.016 A 
ATOM     33  C   UNL A   1      40.849  22.522  27.613  1.00  0.00     0.016 A 
ATOM     34  C   UNL A   1      39.639  24.866  26.658  1.00  0.00     0.010 A 
ATOM     35  C   UNL A   1      41.272  23.772  28.077  1.00  0.00     0.010 A 
ATOM     36  C   UNL A   1      40.687  24.952  27.585  1.00  0.00    -0.014 A 
BRANCH  36  37
ATOM     37  C   UNL A   1      41.279  26.274  27.909  1.00  0.00     0.031 A 
ATOM     38  C   UNL A   1      42.691  26.559  27.473  1.00  0.00     0.074 A 
ATOM     39  C   UNL A   1      40.574  27.221  28.555  1.00  0.00     0.049 A 
ATOM     40  N   UNL A   1      43.425  27.625  27.668  1.00  0.00    -0.248 NA
ATOM     41  C   UNL A   1      43.367  25.494  26.713  1.00  0.00     0.031 C 
ATOM     42  C   UNL A   1      39.190  27.087  29.003  1.00  0.00     0.029 A 
ATOM     43  N   UNL A   1      40.937  28.485  28.952  1.00  0.00    -0.354 N 
ATOM     44  C   UNL A   1      44.642  27.364  27.052  1.00  0.00     0.074 A 
ATOM     45  C   UNL A   1      44.564  26.025  26.508  1.00  0.00     0.031 C 
ATOM     46  C   UNL A   1      38.823  28.221  29.626  1.00  0.00     0.029 A 
ATOM     47  C   UNL A   1      39.954  29.148  29.646  1.00  0.00     0.049 A 
ATOM     48  H   UNL A   1      41.817  28.879  28.757  1.00  0.00     0.167 HD
ATOM     49  C   UNL A   1      45.723  28.170  26.937  1.00  0.00     0.037 A 
ATOM     50  C   UNL A   1      39.975  30.356  30.246  1.00  0.00     0.037 A 
ATOM     51  C   UNL A   1      45.811  29.498  27.482  1.00  0.00     0.049 A 
ATOM     52  C   UNL A   1      41.223  31.201  30.170  1.00  0.00     0.074 A 
ATOM     53  C   UNL A   1      46.867  30.391  27.415  1.00  0.00     0.029 A 
ATOM     54  N   UNL A   1      44.806  30.124  28.205  1.00  0.00    -0.354 N 
ATOM     55  N   UNL A   1      42.359  30.956  29.561  1.00  0.00    -0.248 NA
ATOM     56  C   UNL A   1      41.187  32.500  30.861  1.00  0.00     0.031 C 
ATOM     57  C   UNL A   1      46.520  31.538  28.136  1.00  0.00     0.029 A 
ATOM     58  C   UNL A   1      45.227  31.383  28.606  1.00  0.00     0.049 A 
ATOM     59  H   UNL A   1      43.926  29.732  28.402  1.00  0.00     0.167 HD
ATOM     60  C   UNL A   1      43.156  32.077  29.772  1.00  0.00     0.074 A 
ATOM     61  C   UNL A   1      42.366  33.012  30.543  1.00  0.00     0.031 C 
ATOM     62  C   UNL A   1      44.429  32.309  29.366  1.00  0.00     0.037 A 
BRANCH  49  63
ATOM     63  C   UNL A   1      46.914  27.633  26.198  1.00  0.00     0.064 A 
ATOM     64  C   UNL A   1      47.022  27.744  24.804  1.00  0.00     0.173 A 
ATOM     65  C   UNL A   1      47.982  27.053  26.897  1.00  0.00     0.173 A 
ATOM     66  F   UNL A   1      46.019  28.276  24.089  1.00  0.00    -0.203 F 
ATOM     67  C   UNL A   1      48.152  27.281  24.135  1.00  0.00     0.198 A 
ATOM     68  C   UNL A   1      49.122  26.616  26.228  1.00  0.00     0.198 A 
ATOM     69  F   UNL A   1      47.928  26.924  28.231  1.00  0.00    -0.203 F 
ATOM     70  F   UNL A   1      48.218  27.363  22.799  1.00  0.00    -0.200 F 
ATOM     71  C   UNL A   1      49.205  26.725  24.849  1.00  0.00     0.200 A 
ATOM     72  F   UNL A   1      50.143  26.091  26.919  1.00  0.00    -0.200 F 
ATOM     73  F   UNL A   1      50.297  26.292  24.204  1.00  0.00    -0.200 F 
ENDBRANCH  49  63
BRANCH  50  74
ATOM     74  C   UNL A   1      38.790  30.842  31.003  1.00  0.00     0.064 A 
ATOM     75  C   UNL A   1      37.762  31.552  30.365  1.00  0.00     0.173 A 
ATOM     76  C   UNL A   1      38.691  30.663  32.390  1.00  0.00     0.173 A 
ATOM     77  F   UNL A   1      37.824  31.778  29.044  1.00  0.00    -0.203 F 
ATOM     78  C   UNL A   1      36.701  32.092  31.090  1.00  0.00     0.198 A 
ATOM     79  C   UNL A   1      37.612  31.173  33.110  1.00  0.00     0.198 A 
ATOM     80  F   UNL A   1      39.649  29.997  33.051  1.00  0.00    -0.203 F 
ATOM     81  F   UNL A   1      35.770  32.826  30.465  1.00  0.00    -0.200 F 
ATOM     82  C   UNL A   1      36.625  31.899  32.461  1.00  0.00     0.200 A 
ATOM     83  F   UNL A   1      37.540  30.977  34.433  1.00  0.00    -0.200 F 
ATOM     84  F   UNL A   1      35.610  32.427  33.159  1.00  0.00    -0.200 F 
ENDBRANCH  50  74
BRANCH  62  85
ATOM     85  C   UNL A   1      45.034  33.641  29.716  1.00  0.00     0.064 A 
ATOM     86  C   UNL A   1      45.769  33.831  30.896  1.00  0.00     0.173 A 
ATOM     87  C   UNL A   1      44.893  34.735  28.849  1.00  0.00     0.173 A 
ATOM     88  F   UNL A   1      45.924  32.821  31.765  1.00  0.00    -0.203 F 
ATOM     89  C   UNL A   1      46.307  35.076  31.213  1.00  0.00     0.198 A 
ATOM     90  C   UNL A   1      45.461  35.970  29.153  1.00  0.00     0.198 A 
ATOM     91  F   UNL A   1      44.209  34.607  27.703  1.00  0.00    -0.203 F 
ATOM     92  F   UNL A   1      46.953  35.248  32.375  1.00  0.00    -0.200 F 
ATOM     93  C   UNL A   1      46.157  36.142  30.339  1.00  0.00     0.200 A 
ATOM     94  F   UNL A   1      45.329  36.994  28.300  1.00  0.00    -0.200 F 
ATOM     95  F   UNL A   1      46.677  37.339  30.646  1.00  0.00    -0.200 F 
ENDBRANCH  62  85
ENDBRANCH  36  37
ENDBRANCH  29  31
ENDBRANCH  28  29
ENDBRANCH  27  28
ENDBRANCH  26  27
ENDBRANCH  25  26
ENDBRANCH   1  25
TORSDOF 18
ENDMDL
