MODEL 1
REMARK VINA RESULT:     -11.2      0.000      0.000
REMARK SMILES C[C@@H](C(=O)OCCOCCOCCOC(=O)c1ccc(-c2c3nc(c(-c4c(F)c(F)c(F)c(F)c4F)c4ccc([nH]4)c(-c4c(F)c(F)c(F)c(F)c4F)c4nc(c(-c5c(F)c(F)c(F)c(F)c5F)c5ccc2[nH]5)C=C4)C=C3)cc1)c1ccc(C[C@H]2CCC[C@H]2O)cc1
REMARK SMILES IDX 9 1 8 2 7 3 6 4 5 5 3 6 4 7 2 8 1 9 80 10 81 11 92 12 82 13
REMARK SMILES IDX 91 14 83 15 84 16 85 17 86 18 89 19 87 20 88 21 90 22 10 24
REMARK SMILES IDX 11 25 12 26 13 27 14 28 15 29 16 30 17 31 18 32 79 33 19 34
REMARK SMILES IDX 78 35 20 36 21 37 22 38 72 39 23 40 77 41 71 42 73 43 24 44
REMARK SMILES IDX 76 45 70 46 69 47 25 49 57 50 37 51 56 52 38 53 41 54 55 55
REMARK SMILES IDX 74 56 39 57 40 58 54 60 75 61 42 62 26 63 27 64 35 65 28 66
REMARK SMILES IDX 29 67 33 68 36 69 30 70 31 71 34 72 32 73 58 74 59 75 67 76
REMARK SMILES IDX 60 77 61 78 65 79 68 80 62 81 63 82 66 83 64 84 43 85 44 86
REMARK SMILES IDX 52 87 45 88 46 89 50 90 53 91 47 92 48 93 51 94 49 95
REMARK H PARENT 90 23 73 48 41 59
REMARK Flexibility Score: inf
ROOT
ATOM      1  C   UNL A   1      30.805  27.276  22.389  1.00  0.00     0.188 C 
ENDROOT
BRANCH   1   2
ATOM      2  O   UNL A   1      31.551  26.065  22.348  1.00  0.00    -0.376 OA
BRANCH   2   3
ATOM      3  C   UNL A   1      31.035  24.930  23.043  1.00  0.00     0.202 C 
BRANCH   3   4
ATOM      4  C   UNL A   1      30.418  25.157  24.431  1.00  0.00     0.261 C 
BRANCH   4   5
ATOM      5  O   UNL A   1      31.265  24.724  25.516  1.00  0.00    -0.463 OA
BRANCH   5   6
ATOM      6  C   UNL A   1      32.009  25.693  26.118  1.00  0.00     0.313 C 
ATOM      7  O   UNL A   1      31.541  26.547  26.864  1.00  0.00    -0.252 OA
BRANCH   6   8
ATOM      8  C   UNL A   1      33.510  25.594  25.819  1.00  0.00     0.126 C 
ATOM      9  C   UNL A   1      34.011  26.609  24.777  1.00  0.00     0.025 C 
BRANCH   8  10
ATOM     10  C   UNL A   1      34.048  24.175  25.581  1.00  0.00    -0.034 A 
ATOM     11  C   UNL A   1      34.166  23.299  26.671  1.00  0.00     0.005 A 
ATOM     12  C   UNL A   1      34.333  23.648  24.311  1.00  0.00     0.005 A 
ATOM     13  C   UNL A   1      34.525  21.956  26.498  1.00  0.00     0.004 A 
ATOM     14  C   UNL A   1      34.736  22.308  24.145  1.00  0.00     0.004 A 
ATOM     15  C   UNL A   1      34.833  21.437  25.239  1.00  0.00    -0.048 A 
BRANCH  15  16
ATOM     16  C   UNL A   1      35.084  19.952  25.056  1.00  0.00     0.041 C 
BRANCH  16  17
ATOM     17  C   UNL A   1      33.994  19.005  24.513  1.00  0.00     0.022 C 
ATOM     18  C   UNL A   1      34.511  17.657  24.003  1.00  0.00     0.007 C 
ATOM     19  C   UNL A   1      32.747  18.679  25.360  1.00  0.00     0.117 C 
ATOM     20  C   UNL A   1      33.664  16.594  24.690  1.00  0.00     0.003 C 
ATOM     21  C   UNL A   1      32.329  17.282  24.907  1.00  0.00     0.032 C 
BRANCH  19  22
ATOM     22  O   UNL A   1      32.976  18.652  26.755  1.00  0.00    -0.393 OA
ATOM     23  H   UNL A   1      33.640  19.319  26.987  1.00  0.00     0.210 HD
ENDBRANCH  19  22
ENDBRANCH  16  17
ENDBRANCH  15  16
ENDBRANCH   8  10
ENDBRANCH   6   8
ENDBRANCH   5   6
ENDBRANCH   4   5
ENDBRANCH   3   4
ENDBRANCH   2   3
ENDBRANCH   1   2
BRANCH   1  24
ATOM     24  C   UNL A   1      31.411  28.494  23.112  1.00  0.00     0.188 C 
BRANCH  24  25
ATOM     25  O   UNL A   1      30.537  29.089  24.040  1.00  0.00    -0.376 OA
BRANCH  25  26
ATOM     26  C   UNL A   1      31.047  30.064  24.932  1.00  0.00     0.202 C 
BRANCH  26  27
ATOM     27  C   UNL A   1      32.459  29.964  25.545  1.00  0.00     0.261 C 
BRANCH  27  28
ATOM     28  O   UNL A   1      32.591  30.257  26.943  1.00  0.00    -0.460 OA
BRANCH  28  29
ATOM     29  C   UNL A   1      33.243  31.395  27.276  1.00  0.00     0.338 C 
ATOM     30  O   UNL A   1      32.822  32.535  27.240  1.00  0.00    -0.246 OA
BRANCH  29  31
ATOM     31  C   UNL A   1      34.557  31.020  27.831  1.00  0.00     0.060 A 
ATOM     32  C   UNL A   1      34.820  29.673  28.062  1.00  0.00     0.016 A 
ATOM     33  C   UNL A   1      35.507  31.986  28.172  1.00  0.00     0.016 A 
ATOM     34  C   UNL A   1      36.033  29.294  28.621  1.00  0.00     0.010 A 
ATOM     35  C   UNL A   1      36.713  31.596  28.781  1.00  0.00     0.010 A 
ATOM     36  C   UNL A   1      36.972  30.240  29.045  1.00  0.00    -0.014 A 
BRANCH  36  37
ATOM     37  C   UNL A   1      38.068  29.791  29.955  1.00  0.00     0.031 A 
ATOM     38  C   UNL A   1      39.212  28.995  29.370  1.00  0.00     0.074 A 
ATOM     39  C   UNL A   1      38.194  30.266  31.212  1.00  0.00     0.049 A 
ATOM     40  N   UNL A   1      40.312  28.567  29.942  1.00  0.00    -0.248 NA
ATOM     41  C   UNL A   1      39.133  28.692  27.932  1.00  0.00     0.031 C 
ATOM     42  C   UNL A   1      37.282  31.210  31.853  1.00  0.00     0.029 A 
ATOM     43  N   UNL A   1      39.197  30.088  32.141  1.00  0.00    -0.354 N 
ATOM     44  C   UNL A   1      41.032  27.920  28.945  1.00  0.00     0.074 A 
ATOM     45  C   UNL A   1      40.259  28.027  27.727  1.00  0.00     0.031 C 
ATOM     46  C   UNL A   1      37.807  31.593  33.031  1.00  0.00     0.029 A 
ATOM     47  C   UNL A   1      39.055  30.864  33.267  1.00  0.00     0.049 A 
ATOM     48  H   UNL A   1      39.946  29.462  32.011  1.00  0.00     0.167 HD
ATOM     49  C   UNL A   1      42.224  27.284  29.028  1.00  0.00     0.037 A 
ATOM     50  C   UNL A   1      39.835  30.975  34.364  1.00  0.00     0.037 A 
ATOM     51  C   UNL A   1      43.026  27.185  30.217  1.00  0.00     0.049 A 
ATOM     52  C   UNL A   1      41.079  30.128  34.485  1.00  0.00     0.074 A 
ATOM     53  C   UNL A   1      44.203  26.480  30.406  1.00  0.00     0.029 A 
ATOM     54  N   UNL A   1      42.742  27.818  31.414  1.00  0.00    -0.354 N 
ATOM     55  N   UNL A   1      41.693  29.413  33.576  1.00  0.00    -0.248 NA
ATOM     56  C   UNL A   1      41.721  30.082  35.811  1.00  0.00     0.031 C 
ATOM     57  C   UNL A   1      44.603  26.645  31.736  1.00  0.00     0.029 A 
ATOM     58  C   UNL A   1      43.704  27.493  32.358  1.00  0.00     0.049 A 
ATOM     59  H   UNL A   1      41.972  28.411  31.572  1.00  0.00     0.167 HD
ATOM     60  C   UNL A   1      42.787  28.838  34.214  1.00  0.00     0.074 A 
ATOM     61  C   UNL A   1      42.780  29.320  35.578  1.00  0.00     0.031 C 
ATOM     62  C   UNL A   1      43.702  27.970  33.716  1.00  0.00     0.037 A 
BRANCH  49  63
ATOM     63  C   UNL A   1      42.700  26.557  27.808  1.00  0.00     0.064 A 
ATOM     64  C   UNL A   1      43.584  27.137  26.890  1.00  0.00     0.173 A 
ATOM     65  C   UNL A   1      42.280  25.237  27.582  1.00  0.00     0.173 A 
ATOM     66  F   UNL A   1      43.993  28.404  27.054  1.00  0.00    -0.203 F 
ATOM     67  C   UNL A   1      44.025  26.422  25.779  1.00  0.00     0.198 A 
ATOM     68  C   UNL A   1      42.740  24.518  26.484  1.00  0.00     0.198 A 
ATOM     69  F   UNL A   1      41.433  24.642  28.435  1.00  0.00    -0.203 F 
ATOM     70  F   UNL A   1      44.844  27.002  24.891  1.00  0.00    -0.200 F 
ATOM     71  C   UNL A   1      43.608  25.112  25.582  1.00  0.00     0.200 A 
ATOM     72  F   UNL A   1      42.342  23.252  26.302  1.00  0.00    -0.200 F 
ATOM     73  F   UNL A   1      44.040  24.423  24.516  1.00  0.00    -0.200 F 
ENDBRANCH  49  63
BRANCH  50  74
ATOM     74  C   UNL A   1      39.464  31.893  35.478  1.00  0.00     0.064 A 
ATOM     75  C   UNL A   1      38.551  31.496  36.468  1.00  0.00     0.173 A 
ATOM     76  C   UNL A   1      39.948  33.208  35.536  1.00  0.00     0.173 A 
ATOM     77  F   UNL A   1      38.026  30.262  36.438  1.00  0.00    -0.203 F 
ATOM     78  C   UNL A   1      38.127  32.381  37.458  1.00  0.00     0.198 A 
ATOM     79  C   UNL A   1      39.553  34.081  36.547  1.00  0.00     0.198 A 
ATOM     80  F   UNL A   1      40.802  33.651  34.603  1.00  0.00    -0.203 F 
ATOM     81  F   UNL A   1      37.206  31.995  38.351  1.00  0.00    -0.200 F 
ATOM     82  C   UNL A   1      38.634  33.671  37.501  1.00  0.00     0.200 A 
ATOM     83  F   UNL A   1      40.050  35.325  36.586  1.00  0.00    -0.200 F 
ATOM     84  F   UNL A   1      38.223  34.524  38.449  1.00  0.00    -0.200 F 
ENDBRANCH  50  74
BRANCH  62  85
ATOM     85  C   UNL A   1      44.775  27.467  34.641  1.00  0.00     0.064 A 
ATOM     86  C   UNL A   1      45.973  28.175  34.820  1.00  0.00     0.173 A 
ATOM     87  C   UNL A   1      44.582  26.306  35.404  1.00  0.00     0.173 A 
ATOM     88  F   UNL A   1      46.212  29.287  34.109  1.00  0.00    -0.203 F 
ATOM     89  C   UNL A   1      46.945  27.729  35.712  1.00  0.00     0.198 A 
ATOM     90  C   UNL A   1      45.544  25.878  36.317  1.00  0.00     0.198 A 
ATOM     91  F   UNL A   1      43.450  25.595  35.281  1.00  0.00    -0.203 F 
ATOM     92  F   UNL A   1      48.097  28.402  35.836  1.00  0.00    -0.200 F 
ATOM     93  C   UNL A   1      46.727  26.586  36.466  1.00  0.00     0.200 A 
ATOM     94  F   UNL A   1      45.323  24.782  37.057  1.00  0.00    -0.200 F 
ATOM     95  F   UNL A   1      47.657  26.166  37.334  1.00  0.00    -0.200 F 
ENDBRANCH  62  85
ENDBRANCH  36  37
ENDBRANCH  29  31
ENDBRANCH  28  29
ENDBRANCH  27  28
ENDBRANCH  26  27
ENDBRANCH  25  26
ENDBRANCH  24  25
ENDBRANCH   1  24
TORSDOF 21
ENDMDL
MODEL 2
REMARK VINA RESULT:     -11.0      4.203      9.320
REMARK SMILES C[C@@H](C(=O)OCCOCCOCCOC(=O)c1ccc(-c2c3nc(c(-c4c(F)c(F)c(F)c(F)c4F)c4ccc([nH]4)c(-c4c(F)c(F)c(F)c(F)c4F)c4nc(c(-c5c(F)c(F)c(F)c(F)c5F)c5ccc2[nH]5)C=C4)C=C3)cc1)c1ccc(C[C@H]2CCC[C@H]2O)cc1
REMARK SMILES IDX 9 1 8 2 7 3 6 4 5 5 3 6 4 7 2 8 1 9 80 10 81 11 92 12 82 13
REMARK SMILES IDX 91 14 83 15 84 16 85 17 86 18 89 19 87 20 88 21 90 22 10 24
REMARK SMILES IDX 11 25 12 26 13 27 14 28 15 29 16 30 17 31 18 32 79 33 19 34
REMARK SMILES IDX 78 35 20 36 21 37 22 38 72 39 23 40 77 41 71 42 73 43 24 44
REMARK SMILES IDX 76 45 70 46 69 47 25 49 57 50 37 51 56 52 38 53 41 54 55 55
REMARK SMILES IDX 74 56 39 57 40 58 54 60 75 61 42 62 26 63 27 64 35 65 28 66
REMARK SMILES IDX 29 67 33 68 36 69 30 70 31 71 34 72 32 73 58 74 59 75 67 76
REMARK SMILES IDX 60 77 61 78 65 79 68 80 62 81 63 82 66 83 64 84 43 85 44 86
REMARK SMILES IDX 52 87 45 88 46 89 50 90 53 91 47 92 48 93 51 94 49 95
REMARK H PARENT 90 23 73 48 41 59
REMARK Flexibility Score: inf
ROOT
ATOM      1  C   UNL A   1      35.080  24.047  25.659  1.00  0.00     0.188 C 
ENDROOT
BRANCH   1   2
ATOM      2  O   UNL A   1      34.092  24.823  26.329  1.00  0.00    -0.376 OA
BRANCH   2   3
ATOM      3  C   UNL A   1      33.842  26.148  25.860  1.00  0.00     0.202 C 
BRANCH   3   4
ATOM      4  C   UNL A   1      32.384  26.626  25.798  1.00  0.00     0.261 C 
BRANCH   4   5
ATOM      5  O   UNL A   1      31.506  25.914  26.694  1.00  0.00    -0.463 OA
BRANCH   5   6
ATOM      6  C   UNL A   1      30.630  25.049  26.112  1.00  0.00     0.313 C 
ATOM      7  O   UNL A   1      29.632  24.609  26.674  1.00  0.00    -0.252 OA
BRANCH   6   8
ATOM      8  C   UNL A   1      30.974  24.706  24.658  1.00  0.00     0.126 C 
ATOM      9  C   UNL A   1      29.981  25.271  23.627  1.00  0.00     0.025 C 
BRANCH   8  10
ATOM     10  C   UNL A   1      31.345  23.240  24.391  1.00  0.00    -0.034 A 
ATOM     11  C   UNL A   1      31.478  22.801  23.064  1.00  0.00     0.005 A 
ATOM     12  C   UNL A   1      31.675  22.318  25.398  1.00  0.00     0.005 A 
ATOM     13  C   UNL A   1      31.941  21.515  22.758  1.00  0.00     0.004 A 
ATOM     14  C   UNL A   1      32.099  21.010  25.088  1.00  0.00     0.004 A 
ATOM     15  C   UNL A   1      32.244  20.589  23.758  1.00  0.00    -0.048 A 
BRANCH  15  16
ATOM     16  C   UNL A   1      32.874  19.253  23.410  1.00  0.00     0.041 C 
BRANCH  16  17
ATOM     17  C   UNL A   1      33.504  18.348  24.488  1.00  0.00     0.022 C 
ATOM     18  C   UNL A   1      32.504  17.712  25.457  1.00  0.00     0.007 C 
ATOM     19  C   UNL A   1      34.474  17.216  24.091  1.00  0.00     0.117 C 
ATOM     20  C   UNL A   1      32.815  16.221  25.466  1.00  0.00     0.003 C 
ATOM     21  C   UNL A   1      34.304  16.162  25.182  1.00  0.00     0.032 C 
BRANCH  19  22
ATOM     22  O   UNL A   1      34.198  16.619  22.839  1.00  0.00    -0.393 OA
ATOM     23  H   UNL A   1      34.813  16.962  22.173  1.00  0.00     0.210 HD
ENDBRANCH  19  22
ENDBRANCH  16  17
ENDBRANCH  15  16
ENDBRANCH   8  10
ENDBRANCH   6   8
ENDBRANCH   5   6
ENDBRANCH   4   5
ENDBRANCH   3   4
ENDBRANCH   2   3
ENDBRANCH   1   2
BRANCH   1  24
ATOM     24  C   UNL A   1      34.904  23.767  24.154  1.00  0.00     0.188 C 
BRANCH  24  25
ATOM     25  O   UNL A   1      35.310  22.475  23.772  1.00  0.00    -0.376 OA
BRANCH  25  26
ATOM     26  C   UNL A   1      36.694  22.172  23.748  1.00  0.00     0.202 C 
BRANCH  26  27
ATOM     27  C   UNL A   1      37.317  21.089  24.653  1.00  0.00     0.261 C 
BRANCH  27  28
ATOM     28  O   UNL A   1      37.781  21.500  25.947  1.00  0.00    -0.460 OA
BRANCH  28  29
ATOM     29  C   UNL A   1      39.100  21.344  26.207  1.00  0.00     0.338 C 
ATOM     30  O   UNL A   1      39.794  20.370  25.989  1.00  0.00    -0.246 OA
BRANCH  29  31
ATOM     31  C   UNL A   1      39.619  22.631  26.705  1.00  0.00     0.060 A 
ATOM     32  C   UNL A   1      39.032  23.806  26.245  1.00  0.00     0.016 A 
ATOM     33  C   UNL A   1      40.710  22.690  27.577  1.00  0.00     0.016 A 
ATOM     34  C   UNL A   1      39.526  25.034  26.666  1.00  0.00     0.010 A 
ATOM     35  C   UNL A   1      41.233  23.938  27.959  1.00  0.00     0.010 A 
ATOM     36  C   UNL A   1      40.663  25.127  27.475  1.00  0.00    -0.014 A 
BRANCH  36  37
ATOM     37  C   UNL A   1      41.347  26.452  27.584  1.00  0.00     0.031 A 
ATOM     38  C   UNL A   1      40.744  27.505  28.485  1.00  0.00     0.074 A 
ATOM     39  C   UNL A   1      42.592  26.655  27.104  1.00  0.00     0.049 A 
ATOM     40  N   UNL A   1      41.197  28.693  28.803  1.00  0.00    -0.248 NA
ATOM     41  C   UNL A   1      39.489  27.144  29.165  1.00  0.00     0.031 C 
ATOM     42  C   UNL A   1      43.394  25.665  26.391  1.00  0.00     0.029 A 
ATOM     43  N   UNL A   1      43.434  27.740  27.229  1.00  0.00    -0.354 N 
ATOM     44  C   UNL A   1      40.269  29.229  29.688  1.00  0.00     0.074 A 
ATOM     45  C   UNL A   1      39.238  28.233  29.877  1.00  0.00     0.031 C 
ATOM     46  C   UNL A   1      44.636  26.152  26.217  1.00  0.00     0.029 A 
ATOM     47  C   UNL A   1      44.699  27.520  26.735  1.00  0.00     0.049 A 
ATOM     48  H   UNL A   1      43.156  28.593  27.634  1.00  0.00     0.167 HD
ATOM     49  C   UNL A   1      40.264  30.443  30.288  1.00  0.00     0.037 A 
ATOM     50  C   UNL A   1      45.782  28.326  26.699  1.00  0.00     0.037 A 
ATOM     51  C   UNL A   1      41.287  31.441  30.141  1.00  0.00     0.049 A 
ATOM     52  C   UNL A   1      45.685  29.733  27.241  1.00  0.00     0.074 A 
ATOM     53  C   UNL A   1      41.311  32.732  30.643  1.00  0.00     0.029 A 
ATOM     54  N   UNL A   1      42.474  31.259  29.452  1.00  0.00    -0.354 N 
ATOM     55  N   UNL A   1      44.749  30.282  27.973  1.00  0.00    -0.248 NA
ATOM     56  C   UNL A   1      46.796  30.644  26.915  1.00  0.00     0.031 C 
ATOM     57  C   UNL A   1      42.490  33.348  30.213  1.00  0.00     0.029 A 
ATOM     58  C   UNL A   1      43.222  32.425  29.486  1.00  0.00     0.049 A 
ATOM     59  H   UNL A   1      42.746  30.425  29.004  1.00  0.00     0.167 HD
ATOM     60  C   UNL A   1      45.156  31.593  28.196  1.00  0.00     0.074 A 
ATOM     61  C   UNL A   1      46.445  31.748  27.560  1.00  0.00     0.031 C 
ATOM     62  C   UNL A   1      44.506  32.584  28.854  1.00  0.00     0.037 A 
BRANCH  49  63
ATOM     63  C   UNL A   1      39.056  30.802  31.098  1.00  0.00     0.064 A 
ATOM     64  C   UNL A   1      39.021  30.656  32.490  1.00  0.00     0.173 A 
ATOM     65  C   UNL A   1      37.927  31.336  30.457  1.00  0.00     0.173 A 
ATOM     66  F   UNL A   1      40.067  30.129  33.142  1.00  0.00    -0.203 F 
ATOM     67  C   UNL A   1      37.888  31.023  33.214  1.00  0.00     0.198 A 
ATOM     68  C   UNL A   1      36.808  31.722  31.185  1.00  0.00     0.198 A 
ATOM     69  F   UNL A   1      37.919  31.492  29.125  1.00  0.00    -0.203 F 
ATOM     70  F   UNL A   1      37.856  30.846  34.542  1.00  0.00    -0.200 F 
ATOM     71  C   UNL A   1      36.788  31.562  32.562  1.00  0.00     0.200 A 
ATOM     72  F   UNL A   1      35.751  32.250  30.553  1.00  0.00    -0.200 F 
ATOM     73  F   UNL A   1      35.702  31.923  33.261  1.00  0.00    -0.200 F 
ENDBRANCH  49  63
BRANCH  50  74
ATOM     74  C   UNL A   1      47.063  27.862  26.095  1.00  0.00     0.064 A 
ATOM     75  C   UNL A   1      47.234  27.829  24.701  1.00  0.00     0.173 A 
ATOM     76  C   UNL A   1      48.110  27.368  26.886  1.00  0.00     0.173 A 
ATOM     77  F   UNL A   1      46.249  28.252  23.896  1.00  0.00    -0.203 F 
ATOM     78  C   UNL A   1      48.392  27.307  24.128  1.00  0.00     0.198 A 
ATOM     79  C   UNL A   1      49.282  26.880  26.313  1.00  0.00     0.198 A 
ATOM     80  F   UNL A   1      47.991  27.350  28.222  1.00  0.00    -0.203 F 
ATOM     81  F   UNL A   1      48.501  27.229  22.795  1.00  0.00    -0.200 F 
ATOM     82  C   UNL A   1      49.418  26.839  24.934  1.00  0.00     0.200 A 
ATOM     83  F   UNL A   1      50.273  26.434  27.099  1.00  0.00    -0.200 F 
ATOM     84  F   UNL A   1      50.530  26.333  24.384  1.00  0.00    -0.200 F 
ENDBRANCH  50  74
BRANCH  62  85
ATOM     85  C   UNL A   1      45.160  33.936  28.919  1.00  0.00     0.064 A 
ATOM     86  C   UNL A   1      46.050  34.266  29.953  1.00  0.00     0.173 A 
ATOM     87  C   UNL A   1      44.950  34.887  27.909  1.00  0.00     0.173 A 
ATOM     88  F   UNL A   1      46.280  33.396  30.948  1.00  0.00    -0.203 F 
ATOM     89  C   UNL A   1      46.688  35.503  29.984  1.00  0.00     0.198 A 
ATOM     90  C   UNL A   1      45.612  36.113  27.928  1.00  0.00     0.198 A 
ATOM     91  F   UNL A   1      44.117  34.621  26.891  1.00  0.00    -0.203 F 
ATOM     92  F   UNL A   1      47.504  35.809  31.002  1.00  0.00    -0.200 F 
ATOM     93  C   UNL A   1      46.476  36.422  28.968  1.00  0.00     0.200 A 
ATOM     94  F   UNL A   1      45.418  36.993  26.936  1.00  0.00    -0.200 F 
ATOM     95  F   UNL A   1      47.101  37.607  28.992  1.00  0.00    -0.200 F 
ENDBRANCH  62  85
ENDBRANCH  36  37
ENDBRANCH  29  31
ENDBRANCH  28  29
ENDBRANCH  27  28
ENDBRANCH  26  27
ENDBRANCH  25  26
ENDBRANCH  24  25
ENDBRANCH   1  24
TORSDOF 21
ENDMDL
MODEL 3
REMARK VINA RESULT:     -10.7      3.791      9.051
REMARK SMILES C[C@@H](C(=O)OCCOCCOCCOC(=O)c1ccc(-c2c3nc(c(-c4c(F)c(F)c(F)c(F)c4F)c4ccc([nH]4)c(-c4c(F)c(F)c(F)c(F)c4F)c4nc(c(-c5c(F)c(F)c(F)c(F)c5F)c5ccc2[nH]5)C=C4)C=C3)cc1)c1ccc(C[C@H]2CCC[C@H]2O)cc1
REMARK SMILES IDX 9 1 8 2 7 3 6 4 5 5 3 6 4 7 2 8 1 9 80 10 81 11 92 12 82 13
REMARK SMILES IDX 91 14 83 15 84 16 85 17 86 18 89 19 87 20 88 21 90 22 10 24
REMARK SMILES IDX 11 25 12 26 13 27 14 28 15 29 16 30 17 31 18 32 79 33 19 34
REMARK SMILES IDX 78 35 20 36 21 37 22 38 72 39 23 40 77 41 71 42 73 43 24 44
REMARK SMILES IDX 76 45 70 46 69 47 25 49 57 50 37 51 56 52 38 53 41 54 55 55
REMARK SMILES IDX 74 56 39 57 40 58 54 60 75 61 42 62 26 63 27 64 35 65 28 66
REMARK SMILES IDX 29 67 33 68 36 69 30 70 31 71 34 72 32 73 58 74 59 75 67 76
REMARK SMILES IDX 60 77 61 78 65 79 68 80 62 81 63 82 66 83 64 84 43 85 44 86
REMARK SMILES IDX 52 87 45 88 46 89 50 90 53 91 47 92 48 93 51 94 49 95
REMARK H PARENT 90 23 73 48 41 59
REMARK Flexibility Score: inf
ROOT
ATOM      1  C   UNL A   1      43.851  18.721  25.298  1.00  0.00     0.188 C 
ENDROOT
BRANCH   1   2
ATOM      2  O   UNL A   1      42.563  19.301  25.122  1.00  0.00    -0.376 OA
BRANCH   2   3
ATOM      3  C   UNL A   1      41.896  19.826  26.271  1.00  0.00     0.202 C 
BRANCH   3   4
ATOM      4  C   UNL A   1      41.234  21.207  26.150  1.00  0.00     0.261 C 
BRANCH   4   5
ATOM      5  O   UNL A   1      39.924  21.272  26.750  1.00  0.00    -0.463 OA
BRANCH   5   6
ATOM      6  C   UNL A   1      38.884  21.487  25.897  1.00  0.00     0.313 C 
ATOM      7  O   UNL A   1      38.233  20.588  25.375  1.00  0.00    -0.252 OA
BRANCH   6   8
ATOM      8  C   UNL A   1      38.561  22.970  25.679  1.00  0.00     0.126 C 
ATOM      9  C   UNL A   1      38.912  23.872  26.876  1.00  0.00     0.025 C 
BRANCH   8  10
ATOM     10  C   UNL A   1      37.174  23.269  25.091  1.00  0.00    -0.034 A 
ATOM     11  C   UNL A   1      36.264  24.029  25.842  1.00  0.00     0.005 A 
ATOM     12  C   UNL A   1      36.785  22.923  23.787  1.00  0.00     0.005 A 
ATOM     13  C   UNL A   1      35.038  24.444  25.308  1.00  0.00     0.004 A 
ATOM     14  C   UNL A   1      35.532  23.305  23.268  1.00  0.00     0.004 A 
ATOM     15  C   UNL A   1      34.638  24.079  24.021  1.00  0.00    -0.048 A 
BRANCH  15  16
ATOM     16  C   UNL A   1      33.372  24.652  23.413  1.00  0.00     0.041 C 
BRANCH  16  17
ATOM     17  C   UNL A   1      32.224  25.196  24.289  1.00  0.00     0.022 C 
ATOM     18  C   UNL A   1      32.127  26.723  24.343  1.00  0.00     0.007 C 
ATOM     19  C   UNL A   1      30.780  24.694  24.088  1.00  0.00     0.117 C 
ATOM     20  C   UNL A   1      30.680  27.064  24.013  1.00  0.00     0.003 C 
ATOM     21  C   UNL A   1      29.902  25.865  24.521  1.00  0.00     0.032 C 
BRANCH  19  22
ATOM     22  O   UNL A   1      30.457  24.355  22.754  1.00  0.00    -0.393 OA
ATOM     23  H   UNL A   1      29.623  23.861  22.738  1.00  0.00     0.210 HD
ENDBRANCH  19  22
ENDBRANCH  16  17
ENDBRANCH  15  16
ENDBRANCH   8  10
ENDBRANCH   6   8
ENDBRANCH   5   6
ENDBRANCH   4   5
ENDBRANCH   3   4
ENDBRANCH   2   3
ENDBRANCH   1   2
BRANCH   1  24
ATOM     24  C   UNL A   1      45.029  19.274  24.474  1.00  0.00     0.188 C 
BRANCH  24  25
ATOM     25  O   UNL A   1      45.859  20.150  25.198  1.00  0.00    -0.376 OA
BRANCH  25  26
ATOM     26  C   UNL A   1      45.839  21.530  24.883  1.00  0.00     0.202 C 
BRANCH  26  27
ATOM     27  C   UNL A   1      44.540  22.363  24.907  1.00  0.00     0.261 C 
BRANCH  27  28
ATOM     28  O   UNL A   1      44.411  23.348  25.943  1.00  0.00    -0.460 OA
BRANCH  28  29
ATOM     29  C   UNL A   1      44.592  24.642  25.589  1.00  0.00     0.338 C 
ATOM     30  O   UNL A   1      45.188  25.076  24.623  1.00  0.00    -0.246 OA
BRANCH  29  31
ATOM     31  C   UNL A   1      43.820  25.480  26.526  1.00  0.00     0.060 A 
ATOM     32  C   UNL A   1      44.174  26.818  26.666  1.00  0.00     0.016 A 
ATOM     33  C   UNL A   1      42.790  24.944  27.304  1.00  0.00     0.016 A 
ATOM     34  C   UNL A   1      43.492  27.621  27.570  1.00  0.00     0.010 A 
ATOM     35  C   UNL A   1      42.137  25.753  28.251  1.00  0.00     0.010 A 
ATOM     36  C   UNL A   1      42.509  27.098  28.418  1.00  0.00    -0.014 A 
BRANCH  36  37
ATOM     37  C   UNL A   1      42.085  27.912  29.597  1.00  0.00     0.031 A 
ATOM     38  C   UNL A   1      40.775  28.663  29.523  1.00  0.00     0.074 A 
ATOM     39  C   UNL A   1      42.700  27.811  30.794  1.00  0.00     0.049 A 
ATOM     40  N   UNL A   1      40.161  29.366  30.443  1.00  0.00    -0.248 NA
ATOM     41  C   UNL A   1      40.029  28.557  28.258  1.00  0.00     0.031 C 
ATOM     42  C   UNL A   1      43.855  26.964  31.081  1.00  0.00     0.029 A 
ATOM     43  N   UNL A   1      42.376  28.359  32.017  1.00  0.00    -0.354 N 
ATOM     44  C   UNL A   1      38.981  29.810  29.858  1.00  0.00     0.074 A 
ATOM     45  C   UNL A   1      38.950  29.282  28.512  1.00  0.00     0.031 C 
ATOM     46  C   UNL A   1      44.090  26.981  32.406  1.00  0.00     0.029 A 
ATOM     47  C   UNL A   1      43.154  27.901  33.054  1.00  0.00     0.049 A 
ATOM     48  H   UNL A   1      41.654  29.018  32.136  1.00  0.00     0.167 HD
ATOM     49  C   UNL A   1      38.010  30.592  30.384  1.00  0.00     0.037 A 
ATOM     50  C   UNL A   1      43.120  28.189  34.373  1.00  0.00     0.037 A 
ATOM     51  C   UNL A   1      38.000  31.109  31.725  1.00  0.00     0.049 A 
ATOM     52  C   UNL A   1      42.117  29.191  34.894  1.00  0.00     0.074 A 
ATOM     53  C   UNL A   1      37.097  31.984  32.305  1.00  0.00     0.029 A 
ATOM     54  N   UNL A   1      38.929  30.788  32.700  1.00  0.00    -0.354 N 
ATOM     55  N   UNL A   1      41.071  29.709  34.301  1.00  0.00    -0.248 NA
ATOM     56  C   UNL A   1      42.319  29.673  36.272  1.00  0.00     0.031 C 
ATOM     57  C   UNL A   1      37.510  32.234  33.618  1.00  0.00     0.029 A 
ATOM     58  C   UNL A   1      38.641  31.476  33.869  1.00  0.00     0.049 A 
ATOM     59  H   UNL A   1      39.682  30.165  32.581  1.00  0.00     0.167 HD
ATOM     60  C   UNL A   1      40.492  30.570  35.228  1.00  0.00     0.074 A 
ATOM     61  C   UNL A   1      41.276  30.474  36.439  1.00  0.00     0.031 C 
ATOM     62  C   UNL A   1      39.417  31.383  35.077  1.00  0.00     0.037 A 
BRANCH  49  63
ATOM     63  C   UNL A   1      36.905  31.021  29.467  1.00  0.00     0.064 A 
ATOM     64  C   UNL A   1      36.849  32.307  28.916  1.00  0.00     0.173 A 
ATOM     65  C   UNL A   1      35.904  30.103  29.114  1.00  0.00     0.173 A 
ATOM     66  F   UNL A   1      37.771  33.224  29.243  1.00  0.00    -0.203 F 
ATOM     67  C   UNL A   1      35.819  32.663  28.048  1.00  0.00     0.198 A 
ATOM     68  C   UNL A   1      34.891  30.455  28.229  1.00  0.00     0.198 A 
ATOM     69  F   UNL A   1      35.919  28.861  29.620  1.00  0.00    -0.203 F 
ATOM     70  F   UNL A   1      35.760  33.908  27.554  1.00  0.00    -0.200 F 
ATOM     71  C   UNL A   1      34.847  31.735  27.700  1.00  0.00     0.200 A 
ATOM     72  F   UNL A   1      33.959  29.554  27.890  1.00  0.00    -0.200 F 
ATOM     73  F   UNL A   1      33.862  32.078  26.858  1.00  0.00    -0.200 F 
ENDBRANCH  49  63
BRANCH  50  74
ATOM     74  C   UNL A   1      44.087  27.563  35.319  1.00  0.00     0.064 A 
ATOM     75  C   UNL A   1      45.372  28.101  35.499  1.00  0.00     0.173 A 
ATOM     76  C   UNL A   1      43.782  26.377  36.001  1.00  0.00     0.173 A 
ATOM     77  F   UNL A   1      45.731  29.213  34.840  1.00  0.00    -0.203 F 
ATOM     78  C   UNL A   1      46.314  27.467  36.308  1.00  0.00     0.198 A 
ATOM     79  C   UNL A   1      44.711  25.764  36.838  1.00  0.00     0.198 A 
ATOM     80  F   UNL A   1      42.579  25.804  35.847  1.00  0.00    -0.203 F 
ATOM     81  F   UNL A   1      47.553  27.967  36.410  1.00  0.00    -0.200 F 
ATOM     82  C   UNL A   1      45.980  26.302  36.983  1.00  0.00     0.200 A 
ATOM     83  F   UNL A   1      44.380  24.641  37.492  1.00  0.00    -0.200 F 
ATOM     84  F   UNL A   1      46.886  25.690  37.757  1.00  0.00    -0.200 F 
ENDBRANCH  50  74
BRANCH  62  85
ATOM     85  C   UNL A   1      39.019  32.249  36.239  1.00  0.00     0.064 A 
ATOM     86  C   UNL A   1      38.153  31.776  37.237  1.00  0.00     0.173 A 
ATOM     87  C   UNL A   1      39.554  33.537  36.395  1.00  0.00     0.173 A 
ATOM     88  F   UNL A   1      37.607  30.555  37.132  1.00  0.00    -0.203 F 
ATOM     89  C   UNL A   1      37.822  32.566  38.335  1.00  0.00     0.198 A 
ATOM     90  C   UNL A   1      39.243  34.314  37.509  1.00  0.00     0.198 A 
ATOM     91  F   UNL A   1      40.395  34.036  35.476  1.00  0.00    -0.203 F 
ATOM     92  F   UNL A   1      36.962  32.106  39.254  1.00  0.00    -0.200 F 
ATOM     93  C   UNL A   1      38.373  33.830  38.475  1.00  0.00     0.200 A 
ATOM     94  F   UNL A   1      39.791  35.529  37.651  1.00  0.00    -0.200 F 
ATOM     95  F   UNL A   1      38.064  34.584  39.539  1.00  0.00    -0.200 F 
ENDBRANCH  62  85
ENDBRANCH  36  37
ENDBRANCH  29  31
ENDBRANCH  28  29
ENDBRANCH  27  28
ENDBRANCH  26  27
ENDBRANCH  25  26
ENDBRANCH  24  25
ENDBRANCH   1  24
TORSDOF 21
ENDMDL
