MODEL 1
REMARK VINA RESULT:      -9.6      0.000      0.000
REMARK SMILES C=CCSc1ccccc1C(=O)OCCOCCOCCOC(=O)c1ccc(-c2c3nc(c(-c4c(F)c(F)c(F)c(F)c4F)c4ccc([nH]4)c(-c4c(F)c(F)c(F)c(F)c4F)c4nc(c(-c5c(F)c(F)c(F)c(F)c5F)c5ccc2[nH]5)C=C4)C=C3)cc1
REMARK SMILES IDX 17 1 16 2 15 3 14 4 13 5 11 6 12 7 10 8 5 9 6 10 7 11 9 12
REMARK SMILES IDX 8 13 4 14 3 15 2 16 1 17 18 18 19 19 20 20 21 21 22 22 23 23
REMARK SMILES IDX 24 24 25 25 26 26 87 27 27 28 86 29 28 30 29 31 30 32 80 33
REMARK SMILES IDX 31 34 85 35 79 36 81 37 32 38 84 39 78 40 77 41 33 43 65 44
REMARK SMILES IDX 45 45 64 46 46 47 49 48 63 49 82 50 47 51 48 52 62 54 83 55
REMARK SMILES IDX 50 56 34 57 35 58 43 59 36 60 37 61 41 62 44 63 38 64 39 65
REMARK SMILES IDX 42 66 40 67 66 68 67 69 75 70 68 71 69 72 73 73 76 74 70 75
REMARK SMILES IDX 71 76 74 77 72 78 51 79 52 80 60 81 53 82 54 83 58 84 61 85
REMARK SMILES IDX 55 86 56 87 59 88 57 89
REMARK H PARENT 81 42 49 53
REMARK Flexibility Score: inf
ROOT
ATOM      1  C   UNL A   1      34.569  22.240  24.489  1.00  0.00     0.188 C 
ENDROOT
BRANCH   1   2
ATOM      2  O   UNL A   1      33.338  22.573  25.117  1.00  0.00    -0.376 OA
BRANCH   2   3
ATOM      3  C   UNL A   1      32.169  22.824  24.341  1.00  0.00     0.202 C 
BRANCH   3   4
ATOM      4  C   UNL A   1      32.333  23.464  22.962  1.00  0.00     0.261 C 
BRANCH   4   5
ATOM      5  O   UNL A   1      32.138  24.884  23.045  1.00  0.00    -0.460 OA
BRANCH   5   6
ATOM      6  C   UNL A   1      33.250  25.632  22.842  1.00  0.00     0.339 C 
ATOM      7  O   UNL A   1      33.927  25.671  21.828  1.00  0.00    -0.246 OA
BRANCH   6   8
ATOM      8  C   UNL A   1      33.332  26.646  23.909  1.00  0.00     0.073 A 
ATOM      9  C   UNL A   1      32.997  28.003  23.758  1.00  0.00     0.022 A 
ATOM     10  C   UNL A   1      33.140  28.834  24.885  1.00  0.00     0.016 A 
ATOM     11  C   UNL A   1      33.575  28.334  26.120  1.00  0.00     0.001 A 
ATOM     12  C   UNL A   1      33.764  26.147  25.158  1.00  0.00     0.017 A 
ATOM     13  C   UNL A   1      33.874  26.985  26.261  1.00  0.00     0.001 A 
BRANCH   9  14
ATOM     14  S   UNL A   1      31.963  28.671  22.456  1.00  0.00    -0.121 SA
BRANCH  14  15
ATOM     15  C   UNL A   1      30.372  27.804  22.441  1.00  0.00     0.101 C 
BRANCH  15  16
ATOM     16  C   UNL A   1      29.588  27.702  23.701  1.00  0.00    -0.024 C 
ATOM     17  C   UNL A   1      29.613  26.591  24.448  1.00  0.00     0.005 C 
ENDBRANCH  15  16
ENDBRANCH  14  15
ENDBRANCH   9  14
ENDBRANCH   6   8
ENDBRANCH   5   6
ENDBRANCH   4   5
ENDBRANCH   3   4
ENDBRANCH   2   3
ENDBRANCH   1   2
BRANCH   1  18
ATOM     18  C   UNL A   1      35.386  21.015  24.943  1.00  0.00     0.188 C 
BRANCH  18  19
ATOM     19  O   UNL A   1      36.634  21.122  25.622  1.00  0.00    -0.376 OA
BRANCH  19  20
ATOM     20  C   UNL A   1      37.820  20.665  24.998  1.00  0.00     0.202 C 
BRANCH  20  21
ATOM     21  C   UNL A   1      39.068  21.177  25.717  1.00  0.00     0.261 C 
BRANCH  21  22
ATOM     22  O   UNL A   1      39.671  20.157  26.516  1.00  0.00    -0.460 OA
BRANCH  22  23
ATOM     23  C   UNL A   1      40.952  19.866  26.185  1.00  0.00     0.338 C 
ATOM     24  O   UNL A   1      41.394  18.865  25.639  1.00  0.00    -0.246 OA
BRANCH  23  25
ATOM     25  C   UNL A   1      41.771  21.031  26.526  1.00  0.00     0.060 A 
ATOM     26  C   UNL A   1      42.041  21.310  27.871  1.00  0.00     0.016 A 
ATOM     27  C   UNL A   1      42.253  21.847  25.501  1.00  0.00     0.016 A 
ATOM     28  C   UNL A   1      42.790  22.434  28.199  1.00  0.00     0.010 A 
ATOM     29  C   UNL A   1      42.979  22.983  25.829  1.00  0.00     0.010 A 
ATOM     30  C   UNL A   1      43.220  23.291  27.178  1.00  0.00    -0.014 A 
BRANCH  30  31
ATOM     31  C   UNL A   1      43.729  24.632  27.512  1.00  0.00     0.031 A 
ATOM     32  C   UNL A   1      42.743  25.643  28.015  1.00  0.00     0.074 A 
ATOM     33  C   UNL A   1      45.024  24.931  27.341  1.00  0.00     0.049 A 
ATOM     34  N   UNL A   1      42.904  26.918  28.249  1.00  0.00    -0.248 NA
ATOM     35  C   UNL A   1      41.382  25.146  28.282  1.00  0.00     0.031 C 
ATOM     36  C   UNL A   1      46.056  23.995  26.903  1.00  0.00     0.029 A 
ATOM     37  N   UNL A   1      45.685  26.120  27.497  1.00  0.00    -0.354 N 
ATOM     38  C   UNL A   1      41.665  27.376  28.678  1.00  0.00     0.074 A 
ATOM     39  C   UNL A   1      40.755  26.253  28.645  1.00  0.00     0.031 C 
ATOM     40  C   UNL A   1      47.225  24.651  26.808  1.00  0.00     0.029 A 
ATOM     41  C   UNL A   1      47.006  26.059  27.131  1.00  0.00     0.049 A 
ATOM     42  H   UNL A   1      45.256  26.937  27.838  1.00  0.00     0.167 HD
ATOM     43  C   UNL A   1      41.327  28.627  29.066  1.00  0.00     0.037 A 
ATOM     44  C   UNL A   1      47.914  27.047  27.036  1.00  0.00     0.037 A 
ATOM     45  C   UNL A   1      42.251  29.728  29.071  1.00  0.00     0.049 A 
ATOM     46  C   UNL A   1      47.489  28.451  27.389  1.00  0.00     0.074 A 
ATOM     47  C   UNL A   1      42.030  31.041  29.441  1.00  0.00     0.029 A 
ATOM     48  N   UNL A   1      43.579  29.639  28.673  1.00  0.00    -0.354 N 
ATOM     49  N   UNL A   1      46.323  28.885  27.804  1.00  0.00    -0.248 NA
ATOM     50  C   UNL A   1      48.508  29.501  27.258  1.00  0.00     0.031 C 
ATOM     51  C   UNL A   1      43.208  31.760  29.210  1.00  0.00     0.029 A 
ATOM     52  C   UNL A   1      44.183  30.881  28.762  1.00  0.00     0.049 A 
ATOM     53  H   UNL A   1      44.025  28.815  28.371  1.00  0.00     0.167 HD
ATOM     54  C   UNL A   1      46.474  30.249  28.016  1.00  0.00     0.074 A 
ATOM     55  C   UNL A   1      47.851  30.566  27.693  1.00  0.00     0.031 C 
ATOM     56  C   UNL A   1      45.562  31.160  28.441  1.00  0.00     0.037 A 
BRANCH  43  57
ATOM     57  C   UNL A   1      39.900  28.865  29.465  1.00  0.00     0.064 A 
ATOM     58  C   UNL A   1      39.465  28.713  30.792  1.00  0.00     0.173 A 
ATOM     59  C   UNL A   1      38.951  29.251  28.507  1.00  0.00     0.173 A 
ATOM     60  F   UNL A   1      40.326  28.325  31.746  1.00  0.00    -0.203 F 
ATOM     61  C   UNL A   1      38.129  28.908  31.136  1.00  0.00     0.198 A 
ATOM     62  C   UNL A   1      37.624  29.479  28.860  1.00  0.00     0.198 A 
ATOM     63  F   UNL A   1      39.309  29.407  27.224  1.00  0.00    -0.203 F 
ATOM     64  F   UNL A   1      37.726  28.699  32.397  1.00  0.00    -0.200 F 
ATOM     65  C   UNL A   1      37.212  29.297  30.172  1.00  0.00     0.200 A 
ATOM     66  F   UNL A   1      36.741  29.866  27.929  1.00  0.00    -0.200 F 
ATOM     67  F   UNL A   1      35.928  29.490  30.506  1.00  0.00    -0.200 F 
ENDBRANCH  43  57
BRANCH  44  68
ATOM     68  C   UNL A   1      49.296  26.749  26.579  1.00  0.00     0.064 A 
ATOM     69  C   UNL A   1      50.284  26.343  27.487  1.00  0.00     0.173 A 
ATOM     70  C   UNL A   1      49.661  26.867  25.229  1.00  0.00     0.173 A 
ATOM     71  F   UNL A   1      49.990  26.235  28.790  1.00  0.00    -0.203 F 
ATOM     72  C   UNL A   1      51.587  26.087  27.066  1.00  0.00     0.198 A 
ATOM     73  C   UNL A   1      50.957  26.580  24.805  1.00  0.00     0.198 A 
ATOM     74  F   UNL A   1      48.756  27.252  24.319  1.00  0.00    -0.203 F 
ATOM     75  F   UNL A   1      52.523  25.747  27.964  1.00  0.00    -0.200 F 
ATOM     76  C   UNL A   1      51.922  26.199  25.725  1.00  0.00     0.200 A 
ATOM     77  F   UNL A   1      51.272  26.677  23.506  1.00  0.00    -0.200 F 
ATOM     78  F   UNL A   1      53.175  25.949  25.321  1.00  0.00    -0.200 F 
ENDBRANCH  44  68
BRANCH  56  79
ATOM     79  C   UNL A   1      46.038  32.572  28.627  1.00  0.00     0.064 A 
ATOM     80  C   UNL A   1      46.608  33.009  29.831  1.00  0.00     0.173 A 
ATOM     81  C   UNL A   1      45.963  33.486  27.564  1.00  0.00     0.173 A 
ATOM     82  F   UNL A   1      46.691  32.178  30.880  1.00  0.00    -0.203 F 
ATOM     83  C   UNL A   1      47.059  34.318  29.973  1.00  0.00     0.198 A 
ATOM     84  C   UNL A   1      46.449  34.782  27.698  1.00  0.00     0.198 A 
ATOM     85  F   UNL A   1      45.435  33.115  26.388  1.00  0.00    -0.203 F 
ATOM     86  F   UNL A   1      47.552  34.730  31.149  1.00  0.00    -0.200 F 
ATOM     87  C   UNL A   1      46.988  35.200  28.905  1.00  0.00     0.200 A 
ATOM     88  F   UNL A   1      46.397  35.627  26.658  1.00  0.00    -0.200 F 
ATOM     89  F   UNL A   1      47.433  36.457  29.042  1.00  0.00    -0.200 F 
ENDBRANCH  56  79
ENDBRANCH  30  31
ENDBRANCH  23  25
ENDBRANCH  22  23
ENDBRANCH  21  22
ENDBRANCH  20  21
ENDBRANCH  19  20
ENDBRANCH  18  19
ENDBRANCH   1  18
TORSDOF 20
ENDMDL
MODEL 2
REMARK VINA RESULT:      -9.4      0.870      2.253
REMARK SMILES C=CCSc1ccccc1C(=O)OCCOCCOCCOC(=O)c1ccc(-c2c3nc(c(-c4c(F)c(F)c(F)c(F)c4F)c4ccc([nH]4)c(-c4c(F)c(F)c(F)c(F)c4F)c4nc(c(-c5c(F)c(F)c(F)c(F)c5F)c5ccc2[nH]5)C=C4)C=C3)cc1
REMARK SMILES IDX 17 1 16 2 15 3 14 4 13 5 11 6 12 7 10 8 5 9 6 10 7 11 9 12
REMARK SMILES IDX 8 13 4 14 3 15 2 16 1 17 18 18 19 19 20 20 21 21 22 22 23 23
REMARK SMILES IDX 24 24 25 25 26 26 87 27 27 28 86 29 28 30 29 31 30 32 80 33
REMARK SMILES IDX 31 34 85 35 79 36 81 37 32 38 84 39 78 40 77 41 33 43 65 44
REMARK SMILES IDX 45 45 64 46 46 47 49 48 63 49 82 50 47 51 48 52 62 54 83 55
REMARK SMILES IDX 50 56 34 57 35 58 43 59 36 60 37 61 41 62 44 63 38 64 39 65
REMARK SMILES IDX 42 66 40 67 66 68 67 69 75 70 68 71 69 72 73 73 76 74 70 75
REMARK SMILES IDX 71 76 74 77 72 78 51 79 52 80 60 81 53 82 54 83 58 84 61 85
REMARK SMILES IDX 55 86 56 87 59 88 57 89
REMARK H PARENT 81 42 49 53
REMARK Flexibility Score: inf
ROOT
ATOM      1  C   UNL A   1      35.103  22.209  24.414  1.00  0.00     0.188 C 
ENDROOT
BRANCH   1   2
ATOM      2  O   UNL A   1      33.941  22.798  24.983  1.00  0.00    -0.376 OA
BRANCH   2   3
ATOM      3  C   UNL A   1      32.855  23.211  24.159  1.00  0.00     0.202 C 
BRANCH   3   4
ATOM      4  C   UNL A   1      33.131  23.515  22.685  1.00  0.00     0.261 C 
BRANCH   4   5
ATOM      5  O   UNL A   1      32.306  24.601  22.237  1.00  0.00    -0.460 OA
BRANCH   5   6
ATOM      6  C   UNL A   1      32.891  25.823  22.273  1.00  0.00     0.339 C 
ATOM      7  O   UNL A   1      33.866  26.183  21.635  1.00  0.00    -0.246 OA
BRANCH   6   8
ATOM      8  C   UNL A   1      31.972  26.761  22.945  1.00  0.00     0.073 A 
ATOM      9  C   UNL A   1      31.996  27.068  24.316  1.00  0.00     0.022 A 
ATOM     10  C   UNL A   1      31.039  27.986  24.790  1.00  0.00     0.016 A 
ATOM     11  C   UNL A   1      30.112  28.594  23.932  1.00  0.00     0.001 A 
ATOM     12  C   UNL A   1      31.039  27.381  22.085  1.00  0.00     0.017 A 
ATOM     13  C   UNL A   1      30.120  28.301  22.575  1.00  0.00     0.001 A 
BRANCH   9  14
ATOM     14  S   UNL A   1      33.392  26.804  25.409  1.00  0.00    -0.121 SA
BRANCH  14  15
ATOM     15  C   UNL A   1      34.057  28.404  25.940  1.00  0.00     0.101 C 
BRANCH  15  16
ATOM     16  C   UNL A   1      33.502  29.053  27.158  1.00  0.00    -0.024 C 
ATOM     17  C   UNL A   1      33.601  30.375  27.348  1.00  0.00     0.005 C 
ENDBRANCH  15  16
ENDBRANCH  14  15
ENDBRANCH   9  14
ENDBRANCH   6   8
ENDBRANCH   5   6
ENDBRANCH   4   5
ENDBRANCH   3   4
ENDBRANCH   2   3
ENDBRANCH   1   2
BRANCH   1  18
ATOM     18  C   UNL A   1      35.634  20.853  24.917  1.00  0.00     0.188 C 
BRANCH  18  19
ATOM     19  O   UNL A   1      36.808  20.726  25.713  1.00  0.00    -0.376 OA
BRANCH  19  20
ATOM     20  C   UNL A   1      38.043  20.391  25.104  1.00  0.00     0.202 C 
BRANCH  20  21
ATOM     21  C   UNL A   1      39.221  21.051  25.820  1.00  0.00     0.261 C 
BRANCH  21  22
ATOM     22  O   UNL A   1      39.945  20.111  26.618  1.00  0.00    -0.460 OA
BRANCH  22  23
ATOM     23  C   UNL A   1      41.224  19.905  26.224  1.00  0.00     0.338 C 
ATOM     24  O   UNL A   1      41.689  18.970  25.587  1.00  0.00    -0.246 OA
BRANCH  23  25
ATOM     25  C   UNL A   1      42.004  21.077  26.627  1.00  0.00     0.060 A 
ATOM     26  C   UNL A   1      42.207  21.330  27.989  1.00  0.00     0.016 A 
ATOM     27  C   UNL A   1      42.516  21.925  25.644  1.00  0.00     0.016 A 
ATOM     28  C   UNL A   1      42.918  22.459  28.376  1.00  0.00     0.010 A 
ATOM     29  C   UNL A   1      43.204  23.066  26.030  1.00  0.00     0.010 A 
ATOM     30  C   UNL A   1      43.377  23.348  27.395  1.00  0.00    -0.014 A 
BRANCH  30  31
ATOM     31  C   UNL A   1      43.844  24.690  27.782  1.00  0.00     0.031 A 
ATOM     32  C   UNL A   1      42.805  25.708  28.148  1.00  0.00     0.074 A 
ATOM     33  C   UNL A   1      45.151  24.985  27.774  1.00  0.00     0.049 A 
ATOM     34  N   UNL A   1      42.940  26.983  28.392  1.00  0.00    -0.248 NA
ATOM     35  C   UNL A   1      41.420  25.216  28.243  1.00  0.00     0.031 C 
ATOM     36  C   UNL A   1      46.227  24.043  27.478  1.00  0.00     0.029 A 
ATOM     37  N   UNL A   1      45.791  26.173  28.005  1.00  0.00    -0.354 N 
ATOM     38  C   UNL A   1      41.658  27.447  28.657  1.00  0.00     0.074 A 
ATOM     39  C   UNL A   1      40.755  26.327  28.516  1.00  0.00     0.031 C 
ATOM     40  C   UNL A   1      47.401  24.696  27.527  1.00  0.00     0.029 A 
ATOM     41  C   UNL A   1      47.148  26.107  27.810  1.00  0.00     0.049 A 
ATOM     42  H   UNL A   1      45.325  26.994  28.283  1.00  0.00     0.167 HD
ATOM     43  C   UNL A   1      41.277  28.702  28.989  1.00  0.00     0.037 A 
ATOM     44  C   UNL A   1      48.063  27.092  27.825  1.00  0.00     0.037 A 
ATOM     45  C   UNL A   1      42.196  29.801  29.104  1.00  0.00     0.049 A 
ATOM     46  C   UNL A   1      47.602  28.499  28.110  1.00  0.00     0.074 A 
ATOM     47  C   UNL A   1      41.934  31.117  29.434  1.00  0.00     0.029 A 
ATOM     48  N   UNL A   1      43.564  29.706  28.879  1.00  0.00    -0.354 N 
ATOM     49  N   UNL A   1      46.393  28.939  28.371  1.00  0.00    -0.248 NA
ATOM     50  C   UNL A   1      48.632  29.546  28.102  1.00  0.00     0.031 C 
ATOM     51  C   UNL A   1      43.134  31.831  29.349  1.00  0.00     0.029 A 
ATOM     52  C   UNL A   1      44.156  30.947  29.035  1.00  0.00     0.049 A 
ATOM     53  H   UNL A   1      44.041  28.879  28.641  1.00  0.00     0.167 HD
ATOM     54  C   UNL A   1      46.520  30.304  28.591  1.00  0.00     0.074 A 
ATOM     55  C   UNL A   1      47.928  30.616  28.443  1.00  0.00     0.031 C 
ATOM     56  C   UNL A   1      45.565  31.220  28.890  1.00  0.00     0.037 A 
BRANCH  43  57
ATOM     57  C   UNL A   1      39.811  28.946  29.202  1.00  0.00     0.064 A 
ATOM     58  C   UNL A   1      39.218  28.847  30.472  1.00  0.00     0.173 A 
ATOM     59  C   UNL A   1      38.985  29.286  28.120  1.00  0.00     0.173 A 
ATOM     60  F   UNL A   1      39.958  28.505  31.538  1.00  0.00    -0.203 F 
ATOM     61  C   UNL A   1      37.850  29.046  30.643  1.00  0.00     0.198 A 
ATOM     62  C   UNL A   1      37.624  29.518  28.300  1.00  0.00     0.198 A 
ATOM     63  F   UNL A   1      39.496  29.391  26.885  1.00  0.00    -0.203 F 
ATOM     64  F   UNL A   1      37.298  28.887  31.853  1.00  0.00    -0.200 F 
ATOM     65  C   UNL A   1      37.056  29.389  29.559  1.00  0.00     0.200 A 
ATOM     66  F   UNL A   1      36.860  29.860  27.253  1.00  0.00    -0.200 F 
ATOM     67  F   UNL A   1      35.741  29.586  29.726  1.00  0.00    -0.200 F 
ENDBRANCH  43  57
BRANCH  44  68
ATOM     68  C   UNL A   1      49.491  26.788  27.549  1.00  0.00     0.064 A 
ATOM     69  C   UNL A   1      49.987  26.783  26.237  1.00  0.00     0.173 A 
ATOM     70  C   UNL A   1      50.390  26.491  28.585  1.00  0.00     0.173 A 
ATOM     71  F   UNL A   1      49.164  27.040  25.211  1.00  0.00    -0.203 F 
ATOM     72  C   UNL A   1      51.319  26.474  25.972  1.00  0.00     0.198 A 
ATOM     73  C   UNL A   1      51.729  26.213  28.321  1.00  0.00     0.198 A 
ATOM     74  F   UNL A   1      49.968  26.482  29.858  1.00  0.00    -0.203 F 
ATOM     75  F   UNL A   1      51.754  26.429  24.705  1.00  0.00    -0.200 F 
ATOM     76  C   UNL A   1      52.191  26.195  27.013  1.00  0.00     0.200 A 
ATOM     77  F   UNL A   1      52.570  25.958  29.332  1.00  0.00    -0.200 F 
ATOM     78  F   UNL A   1      53.473  25.901  26.758  1.00  0.00    -0.200 F 
ENDBRANCH  44  68
BRANCH  56  79
ATOM     79  C   UNL A   1      46.018  32.633  29.124  1.00  0.00     0.064 A 
ATOM     80  C   UNL A   1      46.103  33.566  28.082  1.00  0.00     0.173 A 
ATOM     81  C   UNL A   1      46.325  33.067  30.424  1.00  0.00     0.173 A 
ATOM     82  F   UNL A   1      45.832  33.198  26.821  1.00  0.00    -0.203 F 
ATOM     83  C   UNL A   1      46.508  34.875  28.327  1.00  0.00     0.198 A 
ATOM     84  C   UNL A   1      46.693  34.386  30.670  1.00  0.00     0.198 A 
ATOM     85  F   UNL A   1      46.251  32.216  31.458  1.00  0.00    -0.203 F 
ATOM     86  F   UNL A   1      46.633  35.737  27.309  1.00  0.00    -0.200 F 
ATOM     87  C   UNL A   1      46.793  35.287  29.621  1.00  0.00     0.200 A 
ATOM     88  F   UNL A   1      46.949  34.785  31.924  1.00  0.00    -0.200 F 
ATOM     89  F   UNL A   1      47.171  36.550  29.856  1.00  0.00    -0.200 F 
ENDBRANCH  56  79
ENDBRANCH  30  31
ENDBRANCH  23  25
ENDBRANCH  22  23
ENDBRANCH  21  22
ENDBRANCH  20  21
ENDBRANCH  19  20
ENDBRANCH  18  19
ENDBRANCH   1  18
TORSDOF 20
ENDMDL
MODEL 3
REMARK VINA RESULT:      -9.4      4.849      9.761
REMARK SMILES C=CCSc1ccccc1C(=O)OCCOCCOCCOC(=O)c1ccc(-c2c3nc(c(-c4c(F)c(F)c(F)c(F)c4F)c4ccc([nH]4)c(-c4c(F)c(F)c(F)c(F)c4F)c4nc(c(-c5c(F)c(F)c(F)c(F)c5F)c5ccc2[nH]5)C=C4)C=C3)cc1
REMARK SMILES IDX 17 1 16 2 15 3 14 4 13 5 11 6 12 7 10 8 5 9 6 10 7 11 9 12
REMARK SMILES IDX 8 13 4 14 3 15 2 16 1 17 18 18 19 19 20 20 21 21 22 22 23 23
REMARK SMILES IDX 24 24 25 25 26 26 87 27 27 28 86 29 28 30 29 31 30 32 80 33
REMARK SMILES IDX 31 34 85 35 79 36 81 37 32 38 84 39 78 40 77 41 33 43 65 44
REMARK SMILES IDX 45 45 64 46 46 47 49 48 63 49 82 50 47 51 48 52 62 54 83 55
REMARK SMILES IDX 50 56 34 57 35 58 43 59 36 60 37 61 41 62 44 63 38 64 39 65
REMARK SMILES IDX 42 66 40 67 66 68 67 69 75 70 68 71 69 72 73 73 76 74 70 75
REMARK SMILES IDX 71 76 74 77 72 78 51 79 52 80 60 81 53 82 54 83 58 84 61 85
REMARK SMILES IDX 55 86 56 87 59 88 57 89
REMARK H PARENT 81 42 49 53
REMARK Flexibility Score: inf
ROOT
ATOM      1  C   UNL A   1      40.481  21.381  26.727  1.00  0.00     0.188 C 
ENDROOT
BRANCH   1   2
ATOM      2  O   UNL A   1      39.588  22.188  25.973  1.00  0.00    -0.376 OA
BRANCH   2   3
ATOM      3  C   UNL A   1      38.191  21.906  25.951  1.00  0.00     0.202 C 
BRANCH   3   4
ATOM      4  C   UNL A   1      37.656  20.953  24.881  1.00  0.00     0.261 C 
BRANCH   4   5
ATOM      5  O   UNL A   1      36.225  21.040  24.807  1.00  0.00    -0.460 OA
BRANCH   5   6
ATOM      6  C   UNL A   1      35.740  22.234  24.389  1.00  0.00     0.339 C 
ATOM      7  O   UNL A   1      36.063  22.839  23.380  1.00  0.00    -0.246 OA
BRANCH   6   8
ATOM      8  C   UNL A   1      34.519  22.538  25.157  1.00  0.00     0.073 A 
ATOM      9  C   UNL A   1      33.350  23.106  24.622  1.00  0.00     0.022 A 
ATOM     10  C   UNL A   1      32.277  23.332  25.504  1.00  0.00     0.016 A 
ATOM     11  C   UNL A   1      32.351  22.985  26.860  1.00  0.00     0.001 A 
ATOM     12  C   UNL A   1      34.585  22.185  26.523  1.00  0.00     0.017 A 
ATOM     13  C   UNL A   1      33.502  22.397  27.368  1.00  0.00     0.001 A 
BRANCH   9  14
ATOM     14  S   UNL A   1      32.911  23.117  22.883  1.00  0.00    -0.121 SA
BRANCH  14  15
ATOM     15  C   UNL A   1      32.536  24.812  22.364  1.00  0.00     0.101 C 
BRANCH  15  16
ATOM     16  C   UNL A   1      33.364  25.932  22.886  1.00  0.00    -0.024 C 
ATOM     17  C   UNL A   1      33.524  27.063  22.187  1.00  0.00     0.005 C 
ENDBRANCH  15  16
ENDBRANCH  14  15
ENDBRANCH   9  14
ENDBRANCH   6   8
ENDBRANCH   5   6
ENDBRANCH   4   5
ENDBRANCH   3   4
ENDBRANCH   2   3
ENDBRANCH   1   2
BRANCH   1  18
ATOM     18  C   UNL A   1      41.871  21.007  26.177  1.00  0.00     0.188 C 
BRANCH  18  19
ATOM     19  O   UNL A   1      43.084  21.535  26.706  1.00  0.00    -0.376 OA
BRANCH  19  20
ATOM     20  C   UNL A   1      44.147  21.875  25.834  1.00  0.00     0.202 C 
BRANCH  20  21
ATOM     21  C   UNL A   1      43.636  22.529  24.550  1.00  0.00     0.261 C 
BRANCH  21  22
ATOM     22  O   UNL A   1      42.984  23.773  24.817  1.00  0.00    -0.460 OA
BRANCH  22  23
ATOM     23  C   UNL A   1      43.820  24.788  25.140  1.00  0.00     0.338 C 
ATOM     24  O   UNL A   1      44.940  25.025  24.710  1.00  0.00    -0.246 OA
BRANCH  23  25
ATOM     25  C   UNL A   1      43.112  25.662  26.077  1.00  0.00     0.060 A 
ATOM     26  C   UNL A   1      43.221  27.051  25.937  1.00  0.00     0.016 A 
ATOM     27  C   UNL A   1      42.354  25.090  27.102  1.00  0.00     0.016 A 
ATOM     28  C   UNL A   1      42.579  27.882  26.846  1.00  0.00     0.010 A 
ATOM     29  C   UNL A   1      41.733  25.920  28.024  1.00  0.00     0.010 A 
ATOM     30  C   UNL A   1      41.872  27.313  27.913  1.00  0.00    -0.014 A 
BRANCH  30  31
ATOM     31  C   UNL A   1      41.458  28.153  29.050  1.00  0.00     0.031 A 
ATOM     32  C   UNL A   1      42.243  28.034  30.322  1.00  0.00     0.074 A 
ATOM     33  C   UNL A   1      40.399  28.968  28.946  1.00  0.00     0.049 A 
ATOM     34  N   UNL A   1      42.008  28.554  31.496  1.00  0.00    -0.248 NA
ATOM     35  C   UNL A   1      43.458  27.204  30.260  1.00  0.00     0.031 C 
ATOM     36  C   UNL A   1      39.613  29.179  27.733  1.00  0.00     0.029 A 
ATOM     37  N   UNL A   1      39.793  29.755  29.887  1.00  0.00    -0.354 N 
ATOM     38  C   UNL A   1      43.037  28.105  32.314  1.00  0.00     0.074 A 
ATOM     39  C   UNL A   1      43.882  27.248  31.513  1.00  0.00     0.031 C 
ATOM     40  C   UNL A   1      38.610  30.030  28.009  1.00  0.00     0.029 A 
ATOM     41  C   UNL A   1      38.662  30.381  29.426  1.00  0.00     0.049 A 
ATOM     42  H   UNL A   1      40.134  29.863  30.804  1.00  0.00     0.167 HD
ATOM     43  C   UNL A   1      43.251  28.390  33.619  1.00  0.00     0.037 A 
ATOM     44  C   UNL A   1      37.760  31.120  30.097  1.00  0.00     0.037 A 
ATOM     45  C   UNL A   1      42.382  29.232  34.395  1.00  0.00     0.049 A 
ATOM     46  C   UNL A   1      37.972  31.351  31.572  1.00  0.00     0.074 A 
ATOM     47  C   UNL A   1      42.490  29.596  35.723  1.00  0.00     0.029 A 
ATOM     48  N   UNL A   1      41.230  29.835  33.904  1.00  0.00    -0.354 N 
ATOM     49  N   UNL A   1      38.948  30.937  32.345  1.00  0.00    -0.248 NA
ATOM     50  C   UNL A   1      36.955  32.150  32.267  1.00  0.00     0.031 C 
ATOM     51  C   UNL A   1      41.372  30.370  36.053  1.00  0.00     0.029 A 
ATOM     52  C   UNL A   1      40.603  30.546  34.912  1.00  0.00     0.049 A 
ATOM     53  H   UNL A   1      40.907  29.765  32.977  1.00  0.00     0.167 HD
ATOM     54  C   UNL A   1      38.684  31.451  33.607  1.00  0.00     0.074 A 
ATOM     55  C   UNL A   1      37.459  32.217  33.491  1.00  0.00     0.031 C 
ATOM     56  C   UNL A   1      39.387  31.308  34.759  1.00  0.00     0.037 A 
BRANCH  43  57
ATOM     57  C   UNL A   1      44.436  27.750  34.281  1.00  0.00     0.064 A 
ATOM     58  C   UNL A   1      44.359  26.478  34.871  1.00  0.00     0.173 A 
ATOM     59  C   UNL A   1      45.669  28.418  34.327  1.00  0.00     0.173 A 
ATOM     60  F   UNL A   1      43.199  25.803  34.873  1.00  0.00    -0.203 F 
ATOM     61  C   UNL A   1      45.462  25.914  35.508  1.00  0.00     0.198 A 
ATOM     62  C   UNL A   1      46.779  27.838  34.935  1.00  0.00     0.198 A 
ATOM     63  F   UNL A   1      45.799  29.637  33.784  1.00  0.00    -0.203 F 
ATOM     64  F   UNL A   1      45.348  24.725  36.115  1.00  0.00    -0.200 F 
ATOM     65  C   UNL A   1      46.672  26.591  35.534  1.00  0.00     0.200 A 
ATOM     66  F   UNL A   1      47.950  28.488  34.949  1.00  0.00    -0.200 F 
ATOM     67  F   UNL A   1      47.734  26.045  36.143  1.00  0.00    -0.200 F 
ENDBRANCH  43  57
BRANCH  44  68
ATOM     68  C   UNL A   1      36.578  31.677  29.389  1.00  0.00     0.064 A 
ATOM     69  C   UNL A   1      35.549  30.839  28.935  1.00  0.00     0.173 A 
ATOM     70  C   UNL A   1      36.452  33.053  29.146  1.00  0.00     0.173 A 
ATOM     71  F   UNL A   1      35.633  29.515  29.125  1.00  0.00    -0.203 F 
ATOM     72  C   UNL A   1      34.451  31.354  28.249  1.00  0.00     0.198 A 
ATOM     73  C   UNL A   1      35.338  33.570  28.488  1.00  0.00     0.198 A 
ATOM     74  F   UNL A   1      37.407  33.899  29.559  1.00  0.00    -0.203 F 
ATOM     75  F   UNL A   1      33.506  30.525  27.784  1.00  0.00    -0.200 F 
ATOM     76  C   UNL A   1      34.343  32.719  28.031  1.00  0.00     0.200 A 
ATOM     77  F   UNL A   1      35.232  34.892  28.292  1.00  0.00    -0.200 F 
ATOM     78  F   UNL A   1      33.285  33.214  27.374  1.00  0.00    -0.200 F 
ENDBRANCH  44  68
BRANCH  56  79
ATOM     79  C   UNL A   1      38.875  32.033  35.970  1.00  0.00     0.064 A 
ATOM     80  C   UNL A   1      38.107  31.389  36.950  1.00  0.00     0.173 A 
ATOM     81  C   UNL A   1      39.200  33.384  36.171  1.00  0.00     0.173 A 
ATOM     82  F   UNL A   1      37.759  30.102  36.798  1.00  0.00    -0.203 F 
ATOM     83  C   UNL A   1      37.660  32.078  38.073  1.00  0.00     0.198 A 
ATOM     84  C   UNL A   1      38.783  34.059  37.313  1.00  0.00     0.198 A 
ATOM     85  F   UNL A   1      39.940  34.045  35.268  1.00  0.00    -0.203 F 
ATOM     86  F   UNL A   1      36.883  31.457  38.972  1.00  0.00    -0.200 F 
ATOM     87  C   UNL A   1      38.005  33.408  38.260  1.00  0.00     0.200 A 
ATOM     88  F   UNL A   1      39.135  35.339  37.500  1.00  0.00    -0.200 F 
ATOM     89  F   UNL A   1      37.582  34.066  39.347  1.00  0.00    -0.200 F 
ENDBRANCH  56  79
ENDBRANCH  30  31
ENDBRANCH  23  25
ENDBRANCH  22  23
ENDBRANCH  21  22
ENDBRANCH  20  21
ENDBRANCH  19  20
ENDBRANCH  18  19
ENDBRANCH   1  18
TORSDOF 20
ENDMDL
