MODEL 1
REMARK VINA RESULT:      -8.2      0.000      0.000
REMARK SMILES C[C@@H](SCC(=O)N1c2ccccc2SC[C@H]1c1ccccc1)C(=O)OCCOCCOCCOC(=O)c1ccc(-c2c3nc(c(-c4c(F)c(F)c(F)c(F)c4F)c4ccc([nH]4)c(-c4c(F)c(F)c(F)c(F)c4F)c4nc(c(-c5c(F)c(F)c(F)c(F)c5F)c5ccc2[nH]5)C=C4)C=C3)cc1
REMARK SMILES IDX 28 1 27 2 26 3 25 4 23 5 24 6 2 7 1 8 3 9 4 10 5 11 6 12
REMARK SMILES IDX 7 13 8 14 16 15 9 16 13 17 15 18 10 19 12 20 14 21 11 22
REMARK SMILES IDX 17 23 18 24 22 25 19 26 21 27 20 28 29 29 30 30 31 31 32 32
REMARK SMILES IDX 33 33 34 34 35 35 36 36 37 37 38 38 99 39 39 40 98 41 40 42
REMARK SMILES IDX 41 43 42 44 92 45 43 46 97 47 91 48 93 49 44 50 96 51 90 52
REMARK SMILES IDX 89 53 45 55 77 56 57 57 76 58 58 59 61 60 75 61 94 62 59 63
REMARK SMILES IDX 60 64 74 66 95 67 62 68 46 69 47 70 55 71 48 72 49 73 53 74
REMARK SMILES IDX 56 75 50 76 51 77 54 78 52 79 78 80 79 81 87 82 80 83 81 84
REMARK SMILES IDX 85 85 88 86 82 87 83 88 86 89 84 90 63 91 64 92 72 93 65 94
REMARK SMILES IDX 66 95 70 96 73 97 67 98 68 99 71 100 69 101
REMARK H PARENT 93 54 61 65
REMARK Flexibility Score: inf
ROOT
ATOM      1  O   UNL A   1      38.556  32.298  38.627  1.00  0.00    -0.376 OA
ENDROOT
BRANCH   1   2
ATOM      2  C   UNL A   1      37.883  32.047  37.403  1.00  0.00     0.202 C 
BRANCH   2   3
ATOM      3  C   UNL A   1      38.464  31.204  36.258  1.00  0.00     0.261 C 
BRANCH   3   4
ATOM      4  O   UNL A   1      38.759  31.830  34.994  1.00  0.00    -0.462 OA
BRANCH   4   5
ATOM      5  C   UNL A   1      37.837  31.621  34.004  1.00  0.00     0.318 C 
ATOM      6  O   UNL A   1      36.654  31.945  34.100  1.00  0.00    -0.251 OA
BRANCH   5   7
ATOM      7  C   UNL A   1      38.388  31.007  32.715  1.00  0.00     0.154 C 
ATOM      8  C   UNL A   1      39.475  29.954  32.866  1.00  0.00     0.032 C 
BRANCH   7   9
ATOM      9  S   UNL A   1      37.004  30.336  31.726  1.00  0.00    -0.137 SA
BRANCH   9  10
ATOM     10  C   UNL A   1      37.822  29.832  30.174  1.00  0.00     0.170 C 
BRANCH  10  11
ATOM     11  C   UNL A   1      37.494  30.654  28.928  1.00  0.00     0.237 C 
ATOM     12  O   UNL A   1      38.141  30.542  27.884  1.00  0.00    -0.274 OA
BRANCH  11  13
ATOM     13  N   UNL A   1      36.301  31.389  28.987  1.00  0.00    -0.302 N 
ATOM     14  C   UNL A   1      35.144  30.820  28.281  1.00  0.00     0.058 A 
ATOM     15  C   UNL A   1      36.417  32.868  28.944  1.00  0.00     0.131 C 
ATOM     16  C   UNL A   1      35.086  29.433  28.030  1.00  0.00     0.027 A 
ATOM     17  C   UNL A   1      34.059  31.599  27.812  1.00  0.00     0.031 A 
ATOM     18  C   UNL A   1      35.105  33.576  29.302  1.00  0.00     0.105 C 
ATOM     19  C   UNL A   1      34.016  28.851  27.334  1.00  0.00     0.002 A 
ATOM     20  C   UNL A   1      32.993  31.004  27.113  1.00  0.00     0.017 A 
ATOM     21  S   UNL A   1      33.904  33.366  27.989  1.00  0.00    -0.121 SA
ATOM     22  C   UNL A   1      32.968  29.636  26.876  1.00  0.00     0.001 A 
BRANCH  15  23
ATOM     23  C   UNL A   1      37.446  33.524  29.861  1.00  0.00    -0.024 A 
ATOM     24  C   UNL A   1      38.827  33.463  29.632  1.00  0.00     0.006 A 
ATOM     25  C   UNL A   1      36.998  34.048  31.086  1.00  0.00     0.006 A 
ATOM     26  C   UNL A   1      39.725  33.994  30.563  1.00  0.00     0.000 A 
ATOM     27  C   UNL A   1      37.897  34.523  32.038  1.00  0.00     0.000 A 
ATOM     28  C   UNL A   1      39.260  34.523  31.765  1.00  0.00     0.000 A 
ENDBRANCH  15  23
ENDBRANCH  11  13
ENDBRANCH  10  11
ENDBRANCH   9  10
ENDBRANCH   7   9
ENDBRANCH   5   7
ENDBRANCH   4   5
ENDBRANCH   3   4
ENDBRANCH   2   3
ENDBRANCH   1   2
BRANCH   1  29
ATOM     29  C   UNL A   1      38.127  33.335  39.476  1.00  0.00     0.188 C 
BRANCH  29  30
ATOM     30  C   UNL A   1      38.913  34.647  39.446  1.00  0.00     0.188 C 
BRANCH  30  31
ATOM     31  O   UNL A   1      38.805  35.600  40.485  1.00  0.00    -0.376 OA
BRANCH  31  32
ATOM     32  C   UNL A   1      38.980  36.970  40.152  1.00  0.00     0.202 C 
BRANCH  32  33
ATOM     33  C   UNL A   1      40.396  37.568  40.117  1.00  0.00     0.261 C 
BRANCH  33  34
ATOM     34  O   UNL A   1      41.130  37.318  38.909  1.00  0.00    -0.460 OA
BRANCH  34  35
ATOM     35  C   UNL A   1      42.206  36.487  39.038  1.00  0.00     0.338 C 
ATOM     36  O   UNL A   1      42.793  36.191  40.052  1.00  0.00    -0.246 OA
BRANCH  35  37
ATOM     37  C   UNL A   1      42.379  35.776  37.745  1.00  0.00     0.060 A 
ATOM     38  C   UNL A   1      43.646  35.440  37.273  1.00  0.00     0.016 A 
ATOM     39  C   UNL A   1      41.239  35.523  36.963  1.00  0.00     0.016 A 
ATOM     40  C   UNL A   1      43.770  34.830  36.024  1.00  0.00     0.010 A 
ATOM     41  C   UNL A   1      41.366  34.952  35.697  1.00  0.00     0.010 A 
ATOM     42  C   UNL A   1      42.634  34.576  35.233  1.00  0.00    -0.014 A 
BRANCH  42  43
ATOM     43  C   UNL A   1      42.759  33.711  34.039  1.00  0.00     0.031 A 
ATOM     44  C   UNL A   1      42.928  34.257  32.659  1.00  0.00     0.074 A 
ATOM     45  C   UNL A   1      42.736  32.383  34.245  1.00  0.00     0.049 A 
ATOM     46  N   UNL A   1      43.219  33.613  31.556  1.00  0.00    -0.248 NA
ATOM     47  C   UNL A   1      42.741  35.702  32.488  1.00  0.00     0.031 C 
ATOM     48  C   UNL A   1      42.540  31.748  35.549  1.00  0.00     0.029 A 
ATOM     49  N   UNL A   1      42.903  31.336  33.379  1.00  0.00    -0.354 N 
ATOM     50  C   UNL A   1      43.294  34.576  30.563  1.00  0.00     0.074 A 
ATOM     51  C   UNL A   1      42.954  35.842  31.184  1.00  0.00     0.031 C 
ATOM     52  C   UNL A   1      42.641  30.420  35.404  1.00  0.00     0.029 A 
ATOM     53  C   UNL A   1      42.895  30.114  34.000  1.00  0.00     0.049 A 
ATOM     54  H   UNL A   1      43.016  31.449  32.407  1.00  0.00     0.167 HD
ATOM     55  C   UNL A   1      43.636  34.414  29.259  1.00  0.00     0.037 A 
ATOM     56  C   UNL A   1      43.097  28.882  33.500  1.00  0.00     0.037 A 
ATOM     57  C   UNL A   1      43.919  33.139  28.643  1.00  0.00     0.049 A 
ATOM     58  C   UNL A   1      43.416  28.723  32.044  1.00  0.00     0.074 A 
ATOM     59  C   UNL A   1      44.295  32.874  27.337  1.00  0.00     0.029 A 
ATOM     60  N   UNL A   1      43.832  31.910  29.285  1.00  0.00    -0.354 N 
ATOM     61  N   UNL A   1      43.572  29.646  31.128  1.00  0.00    -0.248 NA
ATOM     62  C   UNL A   1      43.596  27.351  31.558  1.00  0.00     0.031 C 
ATOM     63  C   UNL A   1      44.381  31.486  27.174  1.00  0.00     0.029 A 
ATOM     64  C   UNL A   1      44.115  30.884  28.393  1.00  0.00     0.049 A 
ATOM     65  H   UNL A   1      43.603  31.785  30.233  1.00  0.00     0.167 HD
ATOM     66  C   UNL A   1      43.882  28.971  29.957  1.00  0.00     0.074 A 
ATOM     67  C   UNL A   1      43.914  27.559  30.288  1.00  0.00     0.031 C 
ATOM     68  C   UNL A   1      44.118  29.477  28.721  1.00  0.00     0.037 A 
BRANCH  55  69
ATOM     69  C   UNL A   1      43.730  35.651  28.412  1.00  0.00     0.064 A 
ATOM     70  C   UNL A   1      42.585  36.235  27.848  1.00  0.00     0.173 A 
ATOM     71  C   UNL A   1      44.960  36.293  28.204  1.00  0.00     0.173 A 
ATOM     72  F   UNL A   1      41.383  35.665  28.018  1.00  0.00    -0.203 F 
ATOM     73  C   UNL A   1      42.671  37.395  27.082  1.00  0.00     0.198 A 
ATOM     74  C   UNL A   1      45.039  37.470  27.460  1.00  0.00     0.198 A 
ATOM     75  F   UNL A   1      46.085  35.790  28.732  1.00  0.00    -0.203 F 
ATOM     76  F   UNL A   1      41.569  37.909  26.520  1.00  0.00    -0.200 F 
ATOM     77  C   UNL A   1      43.897  38.015  26.894  1.00  0.00     0.200 A 
ATOM     78  F   UNL A   1      46.222  38.079  27.295  1.00  0.00    -0.200 F 
ATOM     79  F   UNL A   1      43.977  39.136  26.164  1.00  0.00    -0.200 F 
ENDBRANCH  55  69
BRANCH  56  80
ATOM     80  C   UNL A   1      43.075  27.725  34.426  1.00  0.00     0.064 A 
ATOM     81  C   UNL A   1      41.909  26.964  34.586  1.00  0.00     0.173 A 
ATOM     82  C   UNL A   1      44.232  27.307  35.098  1.00  0.00     0.173 A 
ATOM     83  F   UNL A   1      40.778  27.336  33.970  1.00  0.00    -0.203 F 
ATOM     84  C   UNL A   1      41.903  25.823  35.383  1.00  0.00     0.198 A 
ATOM     85  C   UNL A   1      44.230  26.152  35.876  1.00  0.00     0.198 A 
ATOM     86  F   UNL A   1      45.374  27.997  34.962  1.00  0.00    -0.203 F 
ATOM     87  F   UNL A   1      40.773  25.119  35.532  1.00  0.00    -0.200 F 
ATOM     88  C   UNL A   1      43.066  25.412  36.018  1.00  0.00     0.200 A 
ATOM     89  F   UNL A   1      45.360  25.746  36.471  1.00  0.00    -0.200 F 
ATOM     90  F   UNL A   1      43.065  24.299  36.765  1.00  0.00    -0.200 F 
ENDBRANCH  56  80
BRANCH  68  91
ATOM     91  C   UNL A   1      44.425  28.494  27.627  1.00  0.00     0.064 A 
ATOM     92  C   UNL A   1      45.721  27.989  27.437  1.00  0.00     0.173 A 
ATOM     93  C   UNL A   1      43.411  28.031  26.774  1.00  0.00     0.173 A 
ATOM     94  F   UNL A   1      46.731  28.412  28.213  1.00  0.00    -0.203 F 
ATOM     95  C   UNL A   1      45.995  27.079  26.418  1.00  0.00     0.198 A 
ATOM     96  C   UNL A   1      43.683  27.096  25.778  1.00  0.00     0.198 A 
ATOM     97  F   UNL A   1      42.155  28.476  26.913  1.00  0.00    -0.203 F 
ATOM     98  F   UNL A   1      47.251  26.652  26.224  1.00  0.00    -0.200 F 
ATOM     99  C   UNL A   1      44.975  26.628  25.595  1.00  0.00     0.200 A 
ATOM    100  F   UNL A   1      42.693  26.653  24.990  1.00  0.00    -0.200 F 
ATOM    101  F   UNL A   1      45.239  25.749  24.618  1.00  0.00    -0.200 F 
ENDBRANCH  68  91
ENDBRANCH  42  43
ENDBRANCH  35  37
ENDBRANCH  34  35
ENDBRANCH  33  34
ENDBRANCH  32  33
ENDBRANCH  31  32
ENDBRANCH  30  31
ENDBRANCH  29  30
ENDBRANCH   1  29
TORSDOF 22
ENDMDL
MODEL 2
REMARK VINA RESULT:      -8.1      4.924     10.660
REMARK SMILES C[C@@H](SCC(=O)N1c2ccccc2SC[C@H]1c1ccccc1)C(=O)OCCOCCOCCOC(=O)c1ccc(-c2c3nc(c(-c4c(F)c(F)c(F)c(F)c4F)c4ccc([nH]4)c(-c4c(F)c(F)c(F)c(F)c4F)c4nc(c(-c5c(F)c(F)c(F)c(F)c5F)c5ccc2[nH]5)C=C4)C=C3)cc1
REMARK SMILES IDX 28 1 27 2 26 3 25 4 23 5 24 6 2 7 1 8 3 9 4 10 5 11 6 12
REMARK SMILES IDX 7 13 8 14 16 15 9 16 13 17 15 18 10 19 12 20 14 21 11 22
REMARK SMILES IDX 17 23 18 24 22 25 19 26 21 27 20 28 29 29 30 30 31 31 32 32
REMARK SMILES IDX 33 33 34 34 35 35 36 36 37 37 38 38 99 39 39 40 98 41 40 42
REMARK SMILES IDX 41 43 42 44 92 45 43 46 97 47 91 48 93 49 44 50 96 51 90 52
REMARK SMILES IDX 89 53 45 55 77 56 57 57 76 58 58 59 61 60 75 61 94 62 59 63
REMARK SMILES IDX 60 64 74 66 95 67 62 68 46 69 47 70 55 71 48 72 49 73 53 74
REMARK SMILES IDX 56 75 50 76 51 77 54 78 52 79 78 80 79 81 87 82 80 83 81 84
REMARK SMILES IDX 85 85 88 86 82 87 83 88 86 89 84 90 63 91 64 92 72 93 65 94
REMARK SMILES IDX 66 95 70 96 73 97 67 98 68 99 71 100 69 101
REMARK H PARENT 93 54 61 65
REMARK Flexibility Score: inf
ROOT
ATOM      1  O   UNL A   1      32.417  25.410  26.474  1.00  0.00    -0.376 OA
ENDROOT
BRANCH   1   2
ATOM      2  C   UNL A   1      33.173  24.549  25.637  1.00  0.00     0.202 C 
BRANCH   2   3
ATOM      3  C   UNL A   1      34.695  24.647  25.451  1.00  0.00     0.261 C 
BRANCH   3   4
ATOM      4  O   UNL A   1      35.549  23.654  26.054  1.00  0.00    -0.462 OA
BRANCH   4   5
ATOM      5  C   UNL A   1      36.321  22.934  25.182  1.00  0.00     0.318 C 
ATOM      6  O   UNL A   1      36.784  23.402  24.143  1.00  0.00    -0.251 OA
BRANCH   5   7
ATOM      7  C   UNL A   1      36.637  21.501  25.617  1.00  0.00     0.154 C 
ATOM      8  C   UNL A   1      35.809  20.393  24.984  1.00  0.00     0.032 C 
BRANCH   7   9
ATOM      9  S   UNL A   1      38.417  21.172  25.362  1.00  0.00    -0.137 SA
BRANCH   9  10
ATOM     10  C   UNL A   1      39.216  22.412  26.438  1.00  0.00     0.170 C 
BRANCH  10  11
ATOM     11  C   UNL A   1      40.542  22.008  27.082  1.00  0.00     0.237 C 
ATOM     12  O   UNL A   1      40.587  21.376  28.140  1.00  0.00    -0.274 OA
BRANCH  11  13
ATOM     13  N   UNL A   1      41.685  22.228  26.300  1.00  0.00    -0.302 N 
ATOM     14  C   UNL A   1      42.475  21.041  25.944  1.00  0.00     0.058 A 
ATOM     15  C   UNL A   1      42.464  23.461  26.575  1.00  0.00     0.131 C 
ATOM     16  C   UNL A   1      41.866  19.768  25.929  1.00  0.00     0.027 A 
ATOM     17  C   UNL A   1      43.853  21.092  25.619  1.00  0.00     0.031 A 
ATOM     18  C   UNL A   1      43.511  23.755  25.493  1.00  0.00     0.105 C 
ATOM     19  C   UNL A   1      42.588  18.606  25.625  1.00  0.00     0.002 A 
ATOM     20  C   UNL A   1      44.566  19.918  25.318  1.00  0.00     0.017 A 
ATOM     21  S   UNL A   1      44.850  22.569  25.583  1.00  0.00    -0.121 SA
ATOM     22  C   UNL A   1      43.939  18.679  25.319  1.00  0.00     0.001 A 
BRANCH  15  23
ATOM     23  C   UNL A   1      41.693  24.772  26.701  1.00  0.00    -0.024 A 
ATOM     24  C   UNL A   1      41.763  25.798  25.749  1.00  0.00     0.006 A 
ATOM     25  C   UNL A   1      41.037  25.037  27.917  1.00  0.00     0.006 A 
ATOM     26  C   UNL A   1      41.115  27.017  25.971  1.00  0.00     0.000 A 
ATOM     27  C   UNL A   1      40.444  26.274  28.160  1.00  0.00     0.000 A 
ATOM     28  C   UNL A   1      40.457  27.255  27.175  1.00  0.00     0.000 A 
ENDBRANCH  15  23
ENDBRANCH  11  13
ENDBRANCH  10  11
ENDBRANCH   9  10
ENDBRANCH   7   9
ENDBRANCH   5   7
ENDBRANCH   4   5
ENDBRANCH   3   4
ENDBRANCH   2   3
ENDBRANCH   1   2
BRANCH   1  29
ATOM     29  C   UNL A   1      31.459  26.280  25.921  1.00  0.00     0.188 C 
BRANCH  29  30
ATOM     30  C   UNL A   1      31.508  27.749  26.344  1.00  0.00     0.188 C 
BRANCH  30  31
ATOM     31  O   UNL A   1      32.701  28.505  26.269  1.00  0.00    -0.376 OA
BRANCH  31  32
ATOM     32  C   UNL A   1      32.590  29.906  26.065  1.00  0.00     0.202 C 
BRANCH  32  33
ATOM     33  C   UNL A   1      32.914  30.868  27.219  1.00  0.00     0.261 C 
BRANCH  33  34
ATOM     34  O   UNL A   1      34.288  31.272  27.303  1.00  0.00    -0.460 OA
BRANCH  34  35
ATOM     35  C   UNL A   1      34.515  32.447  27.964  1.00  0.00     0.338 C 
ATOM     36  O   UNL A   1      33.816  33.432  27.978  1.00  0.00    -0.246 OA
BRANCH  35  37
ATOM     37  C   UNL A   1      35.646  32.221  28.901  1.00  0.00     0.060 A 
ATOM     38  C   UNL A   1      35.601  31.199  29.847  1.00  0.00     0.016 A 
ATOM     39  C   UNL A   1      36.729  33.115  28.870  1.00  0.00     0.016 A 
ATOM     40  C   UNL A   1      36.655  31.060  30.752  1.00  0.00     0.010 A 
ATOM     41  C   UNL A   1      37.762  33.001  29.801  1.00  0.00     0.010 A 
ATOM     42  C   UNL A   1      37.743  31.953  30.730  1.00  0.00    -0.014 A 
BRANCH  42  43
ATOM     43  C   UNL A   1      38.955  31.641  31.519  1.00  0.00     0.031 A 
ATOM     44  C   UNL A   1      40.082  30.823  30.981  1.00  0.00     0.074 A 
ATOM     45  C   UNL A   1      39.018  32.149  32.762  1.00  0.00     0.049 A 
ATOM     46  N   UNL A   1      41.267  30.621  31.503  1.00  0.00    -0.248 NA
ATOM     47  C   UNL A   1      39.856  30.137  29.704  1.00  0.00     0.031 C 
ATOM     48  C   UNL A   1      37.955  32.931  33.395  1.00  0.00     0.029 A 
ATOM     49  N   UNL A   1      40.015  32.110  33.700  1.00  0.00    -0.354 N 
ATOM     50  C   UNL A   1      41.948  29.820  30.601  1.00  0.00     0.074 A 
ATOM     51  C   UNL A   1      41.020  29.521  29.527  1.00  0.00     0.031 C 
ATOM     52  C   UNL A   1      38.374  33.337  34.602  1.00  0.00     0.029 A 
ATOM     53  C   UNL A   1      39.725  32.832  34.828  1.00  0.00     0.049 A 
ATOM     54  H   UNL A   1      40.856  31.614  33.576  1.00  0.00     0.167 HD
ATOM     55  C   UNL A   1      43.236  29.396  30.660  1.00  0.00     0.037 A 
ATOM     56  C   UNL A   1      40.472  33.084  35.917  1.00  0.00     0.037 A 
ATOM     57  C   UNL A   1      44.131  29.657  31.762  1.00  0.00     0.049 A 
ATOM     58  C   UNL A   1      41.873  32.555  35.985  1.00  0.00     0.074 A 
ATOM     59  C   UNL A   1      45.459  29.290  31.905  1.00  0.00     0.029 A 
ATOM     60  N   UNL A   1      43.782  30.332  32.925  1.00  0.00    -0.354 N 
ATOM     61  N   UNL A   1      42.542  31.873  35.088  1.00  0.00    -0.248 NA
ATOM     62  C   UNL A   1      42.624  32.841  37.212  1.00  0.00     0.031 C 
ATOM     63  C   UNL A   1      45.895  29.692  33.173  1.00  0.00     0.029 A 
ATOM     64  C   UNL A   1      44.859  30.362  33.802  1.00  0.00     0.049 A 
ATOM     65  H   UNL A   1      42.901  30.731  33.102  1.00  0.00     0.167 HD
ATOM     66  C   UNL A   1      43.798  31.656  35.634  1.00  0.00     0.074 A 
ATOM     67  C   UNL A   1      43.803  32.303  36.933  1.00  0.00     0.031 C 
ATOM     68  C   UNL A   1      44.850  30.983  35.106  1.00  0.00     0.037 A 
BRANCH  55  69
ATOM     69  C   UNL A   1      43.756  28.608  29.491  1.00  0.00     0.064 A 
ATOM     70  C   UNL A   1      44.226  29.250  28.334  1.00  0.00     0.173 A 
ATOM     71  C   UNL A   1      43.841  27.209  29.542  1.00  0.00     0.173 A 
ATOM     72  F   UNL A   1      44.170  30.586  28.233  1.00  0.00    -0.203 F 
ATOM     73  C   UNL A   1      44.729  28.520  27.260  1.00  0.00     0.198 A 
ATOM     74  C   UNL A   1      44.373  26.483  28.477  1.00  0.00     0.198 A 
ATOM     75  F   UNL A   1      43.424  26.544  30.628  1.00  0.00    -0.203 F 
ATOM     76  F   UNL A   1      45.132  29.154  26.150  1.00  0.00    -0.200 F 
ATOM     77  C   UNL A   1      44.808  27.137  27.335  1.00  0.00     0.200 A 
ATOM     78  F   UNL A   1      44.467  25.148  28.558  1.00  0.00    -0.200 F 
ATOM     79  F   UNL A   1      45.302  26.437  26.305  1.00  0.00    -0.200 F 
ENDBRANCH  55  69
BRANCH  56  80
ATOM     80  C   UNL A   1      39.911  33.947  36.983  1.00  0.00     0.064 A 
ATOM     81  C   UNL A   1      39.091  33.403  37.980  1.00  0.00     0.173 A 
ATOM     82  C   UNL A   1      40.250  35.304  37.077  1.00  0.00     0.173 A 
ATOM     83  F   UNL A   1      38.734  32.111  37.923  1.00  0.00    -0.203 F 
ATOM     84  C   UNL A   1      38.632  34.186  39.036  1.00  0.00     0.198 A 
ATOM     85  C   UNL A   1      39.809  36.080  38.146  1.00  0.00     0.198 A 
ATOM     86  F   UNL A   1      41.044  35.863  36.152  1.00  0.00    -0.203 F 
ATOM     87  F   UNL A   1      37.837  33.646  39.971  1.00  0.00    -0.200 F 
ATOM     88  C   UNL A   1      39.001  35.520  39.124  1.00  0.00     0.200 A 
ATOM     89  F   UNL A   1      40.185  37.363  38.239  1.00  0.00    -0.200 F 
ATOM     90  F   UNL A   1      38.579  36.266  40.154  1.00  0.00    -0.200 F 
ENDBRANCH  56  80
BRANCH  68  91
ATOM     91  C   UNL A   1      46.099  30.904  35.938  1.00  0.00     0.064 A 
ATOM     92  C   UNL A   1      46.329  29.833  36.815  1.00  0.00     0.173 A 
ATOM     93  C   UNL A   1      47.089  31.894  35.842  1.00  0.00     0.173 A 
ATOM     94  F   UNL A   1      45.407  28.868  36.960  1.00  0.00    -0.203 F 
ATOM     95  C   UNL A   1      47.489  29.770  37.584  1.00  0.00     0.198 A 
ATOM     96  C   UNL A   1      48.262  31.811  36.588  1.00  0.00     0.198 A 
ATOM     97  F   UNL A   1      46.923  32.938  35.017  1.00  0.00    -0.203 F 
ATOM     98  F   UNL A   1      47.661  28.764  38.453  1.00  0.00    -0.200 F 
ATOM     99  C   UNL A   1      48.457  30.755  37.464  1.00  0.00     0.200 A 
ATOM    100  F   UNL A   1      49.202  32.758  36.462  1.00  0.00    -0.200 F 
ATOM    101  F   UNL A   1      49.576  30.690  38.200  1.00  0.00    -0.200 F 
ENDBRANCH  68  91
ENDBRANCH  42  43
ENDBRANCH  35  37
ENDBRANCH  34  35
ENDBRANCH  33  34
ENDBRANCH  32  33
ENDBRANCH  31  32
ENDBRANCH  30  31
ENDBRANCH  29  30
ENDBRANCH   1  29
TORSDOF 22
ENDMDL
MODEL 3
REMARK VINA RESULT:      -8.1      3.137     11.214
REMARK SMILES C[C@@H](SCC(=O)N1c2ccccc2SC[C@H]1c1ccccc1)C(=O)OCCOCCOCCOC(=O)c1ccc(-c2c3nc(c(-c4c(F)c(F)c(F)c(F)c4F)c4ccc([nH]4)c(-c4c(F)c(F)c(F)c(F)c4F)c4nc(c(-c5c(F)c(F)c(F)c(F)c5F)c5ccc2[nH]5)C=C4)C=C3)cc1
REMARK SMILES IDX 28 1 27 2 26 3 25 4 23 5 24 6 2 7 1 8 3 9 4 10 5 11 6 12
REMARK SMILES IDX 7 13 8 14 16 15 9 16 13 17 15 18 10 19 12 20 14 21 11 22
REMARK SMILES IDX 17 23 18 24 22 25 19 26 21 27 20 28 29 29 30 30 31 31 32 32
REMARK SMILES IDX 33 33 34 34 35 35 36 36 37 37 38 38 99 39 39 40 98 41 40 42
REMARK SMILES IDX 41 43 42 44 92 45 43 46 97 47 91 48 93 49 44 50 96 51 90 52
REMARK SMILES IDX 89 53 45 55 77 56 57 57 76 58 58 59 61 60 75 61 94 62 59 63
REMARK SMILES IDX 60 64 74 66 95 67 62 68 46 69 47 70 55 71 48 72 49 73 53 74
REMARK SMILES IDX 56 75 50 76 51 77 54 78 52 79 78 80 79 81 87 82 80 83 81 84
REMARK SMILES IDX 85 85 88 86 82 87 83 88 86 89 84 90 63 91 64 92 72 93 65 94
REMARK SMILES IDX 66 95 70 96 73 97 67 98 68 99 71 100 69 101
REMARK H PARENT 93 54 61 65
REMARK Flexibility Score: inf
ROOT
ATOM      1  O   UNL A   1      42.191  25.027  27.098  1.00  0.00    -0.376 OA
ENDROOT
BRANCH   1   2
ATOM      2  C   UNL A   1      41.103  25.909  27.326  1.00  0.00     0.202 C 
BRANCH   2   3
ATOM      3  C   UNL A   1      39.904  25.584  28.231  1.00  0.00     0.261 C 
BRANCH   3   4
ATOM      4  O   UNL A   1      39.607  26.441  29.351  1.00  0.00    -0.462 OA
BRANCH   4   5
ATOM      5  C   UNL A   1      39.439  27.766  29.050  1.00  0.00     0.318 C 
ATOM      6  O   UNL A   1      38.567  28.181  28.289  1.00  0.00    -0.251 OA
BRANCH   5   7
ATOM      7  C   UNL A   1      40.376  28.728  29.784  1.00  0.00     0.154 C 
ATOM      8  C   UNL A   1      40.779  29.994  29.042  1.00  0.00     0.032 C 
BRANCH   7   9
ATOM      9  S   UNL A   1      39.646  29.161  31.404  1.00  0.00    -0.137 SA
BRANCH   9  10
ATOM     10  C   UNL A   1      38.129  30.063  30.936  1.00  0.00     0.170 C 
BRANCH  10  11
ATOM     11  C   UNL A   1      38.077  31.549  31.290  1.00  0.00     0.237 C 
ATOM     12  O   UNL A   1      39.056  32.286  31.150  1.00  0.00    -0.274 OA
BRANCH  11  13
ATOM     13  N   UNL A   1      36.805  32.053  31.596  1.00  0.00    -0.302 N 
ATOM     14  C   UNL A   1      35.954  32.421  30.455  1.00  0.00     0.058 A 
ATOM     15  C   UNL A   1      36.694  32.927  32.790  1.00  0.00     0.131 C 
ATOM     16  C   UNL A   1      36.177  31.831  29.192  1.00  0.00     0.027 A 
ATOM     17  C   UNL A   1      34.904  33.366  30.541  1.00  0.00     0.031 A 
ATOM     18  C   UNL A   1      35.239  33.186  33.202  1.00  0.00     0.105 C 
ATOM     19  C   UNL A   1      35.409  32.174  28.070  1.00  0.00     0.002 A 
ATOM     20  C   UNL A   1      34.143  33.703  29.407  1.00  0.00     0.017 A 
ATOM     21  S   UNL A   1      34.436  34.257  32.012  1.00  0.00    -0.121 SA
ATOM     22  C   UNL A   1      34.391  33.111  28.177  1.00  0.00     0.001 A 
BRANCH  15  23
ATOM     23  C   UNL A   1      37.358  32.452  34.080  1.00  0.00    -0.024 A 
ATOM     24  C   UNL A   1      37.875  31.160  34.246  1.00  0.00     0.006 A 
ATOM     25  C   UNL A   1      37.275  33.285  35.209  1.00  0.00     0.006 A 
ATOM     26  C   UNL A   1      38.377  30.751  35.485  1.00  0.00     0.000 A 
ATOM     27  C   UNL A   1      37.722  32.854  36.456  1.00  0.00     0.000 A 
ATOM     28  C   UNL A   1      38.300  31.597  36.589  1.00  0.00     0.000 A 
ENDBRANCH  15  23
ENDBRANCH  11  13
ENDBRANCH  10  11
ENDBRANCH   9  10
ENDBRANCH   7   9
ENDBRANCH   5   7
ENDBRANCH   4   5
ENDBRANCH   3   4
ENDBRANCH   2   3
ENDBRANCH   1   2
BRANCH   1  29
ATOM     29  C   UNL A   1      41.960  23.715  26.644  1.00  0.00     0.188 C 
BRANCH  29  30
ATOM     30  C   UNL A   1      42.779  23.224  25.449  1.00  0.00     0.188 C 
BRANCH  30  31
ATOM     31  O   UNL A   1      43.849  22.313  25.607  1.00  0.00    -0.376 OA
BRANCH  31  32
ATOM     32  C   UNL A   1      44.983  22.466  24.766  1.00  0.00     0.202 C 
BRANCH  32  33
ATOM     33  C   UNL A   1      45.986  23.598  25.042  1.00  0.00     0.261 C 
BRANCH  33  34
ATOM     34  O   UNL A   1      45.541  24.907  24.659  1.00  0.00    -0.460 OA
BRANCH  34  35
ATOM     35  C   UNL A   1      46.460  25.907  24.813  1.00  0.00     0.338 C 
ATOM     36  O   UNL A   1      47.429  26.130  24.128  1.00  0.00    -0.246 OA
BRANCH  35  37
ATOM     37  C   UNL A   1      45.918  26.860  25.816  1.00  0.00     0.060 A 
ATOM     38  C   UNL A   1      44.574  27.230  25.802  1.00  0.00     0.016 A 
ATOM     39  C   UNL A   1      46.809  27.449  26.729  1.00  0.00     0.016 A 
ATOM     40  C   UNL A   1      44.118  28.178  26.721  1.00  0.00     0.010 A 
ATOM     41  C   UNL A   1      46.362  28.426  27.618  1.00  0.00     0.010 A 
ATOM     42  C   UNL A   1      45.005  28.775  27.637  1.00  0.00    -0.014 A 
BRANCH  42  43
ATOM     43  C   UNL A   1      44.462  29.578  28.754  1.00  0.00     0.031 A 
ATOM     44  C   UNL A   1      44.111  28.987  30.080  1.00  0.00     0.074 A 
ATOM     45  C   UNL A   1      44.310  30.896  28.538  1.00  0.00     0.049 A 
ATOM     46  N   UNL A   1      43.791  29.604  31.191  1.00  0.00    -0.248 NA
ATOM     47  C   UNL A   1      44.110  27.524  30.176  1.00  0.00     0.031 C 
ATOM     48  C   UNL A   1      44.589  31.567  27.267  1.00  0.00     0.029 A 
ATOM     49  N   UNL A   1      43.914  31.905  29.375  1.00  0.00    -0.354 N 
ATOM     50  C   UNL A   1      43.591  28.609  32.134  1.00  0.00     0.074 A 
ATOM     51  C   UNL A   1      43.765  27.343  31.446  1.00  0.00     0.031 C 
ATOM     52  C   UNL A   1      44.398  32.884  27.421  1.00  0.00     0.029 A 
ATOM     53  C   UNL A   1      43.972  33.145  28.793  1.00  0.00     0.049 A 
ATOM     54  H   UNL A   1      43.618  31.755  30.302  1.00  0.00     0.167 HD
ATOM     55  C   UNL A   1      43.310  28.747  33.454  1.00  0.00     0.037 A 
ATOM     56  C   UNL A   1      43.733  34.362  29.311  1.00  0.00     0.037 A 
ATOM     57  C   UNL A   1      43.087  30.013  34.113  1.00  0.00     0.049 A 
ATOM     58  C   UNL A   1      43.367  34.485  30.759  1.00  0.00     0.074 A 
ATOM     59  C   UNL A   1      42.818  30.257  35.449  1.00  0.00     0.029 A 
ATOM     60  N   UNL A   1      43.081  31.248  33.477  1.00  0.00    -0.354 N 
ATOM     61  N   UNL A   1      43.266  33.546  31.668  1.00  0.00    -0.248 NA
ATOM     62  C   UNL A   1      43.092  35.838  31.254  1.00  0.00     0.031 C 
ATOM     63  C   UNL A   1      42.595  31.630  35.611  1.00  0.00     0.029 A 
ATOM     64  C   UNL A   1      42.781  32.253  34.388  1.00  0.00     0.049 A 
ATOM     65  H   UNL A   1      43.263  31.390  32.521  1.00  0.00     0.167 HD
ATOM     66  C   UNL A   1      42.928  34.193  32.847  1.00  0.00     0.074 A 
ATOM     67  C   UNL A   1      42.865  35.609  32.540  1.00  0.00     0.031 C 
ATOM     68  C   UNL A   1      42.692  33.659  34.071  1.00  0.00     0.037 A 
BRANCH  55  69
ATOM     69  C   UNL A   1      43.235  27.493  34.278  1.00  0.00     0.064 A 
ATOM     70  C   UNL A   1      44.390  26.918  34.832  1.00  0.00     0.173 A 
ATOM     71  C   UNL A   1      42.002  26.888  34.566  1.00  0.00     0.173 A 
ATOM     72  F   UNL A   1      45.595  27.456  34.591  1.00  0.00    -0.203 F 
ATOM     73  C   UNL A   1      44.317  25.768  35.615  1.00  0.00     0.198 A 
ATOM     74  C   UNL A   1      41.931  25.754  35.374  1.00  0.00     0.198 A 
ATOM     75  F   UNL A   1      40.865  27.404  34.079  1.00  0.00    -0.203 F 
ATOM     76  F   UNL A   1      45.439  25.214  36.097  1.00  0.00    -0.200 F 
ATOM     77  C   UNL A   1      43.087  25.191  35.890  1.00  0.00     0.200 A 
ATOM     78  F   UNL A   1      40.738  25.209  35.656  1.00  0.00    -0.200 F 
ATOM     79  F   UNL A   1      43.017  24.090  36.651  1.00  0.00    -0.200 F 
ENDBRANCH  55  69
BRANCH  56  80
ATOM     80  C   UNL A   1      43.919  35.553  28.449  1.00  0.00     0.064 A 
ATOM     81  C   UNL A   1      42.819  36.160  27.827  1.00  0.00     0.173 A 
ATOM     82  C   UNL A   1      45.176  36.156  28.299  1.00  0.00     0.173 A 
ATOM     83  F   UNL A   1      41.602  35.610  27.936  1.00  0.00    -0.203 F 
ATOM     84  C   UNL A   1      42.971  37.330  27.089  1.00  0.00     0.198 A 
ATOM     85  C   UNL A   1      45.321  37.340  27.580  1.00  0.00     0.198 A 
ATOM     86  F   UNL A   1      46.253  35.617  28.888  1.00  0.00    -0.203 F 
ATOM     87  F   UNL A   1      41.906  37.885  26.492  1.00  0.00    -0.200 F 
ATOM     88  C   UNL A   1      44.218  37.925  26.975  1.00  0.00     0.200 A 
ATOM     89  F   UNL A   1      46.524  37.923  27.490  1.00  0.00    -0.200 F 
ATOM     90  F   UNL A   1      44.358  39.065  26.286  1.00  0.00    -0.200 F 
ENDBRANCH  56  80
BRANCH  68  91
ATOM     91  C   UNL A   1      42.334  34.614  35.175  1.00  0.00     0.064 A 
ATOM     92  C   UNL A   1      41.001  34.962  35.441  1.00  0.00     0.173 A 
ATOM     93  C   UNL A   1      43.330  35.168  35.994  1.00  0.00     0.173 A 
ATOM     94  F   UNL A   1      40.011  34.475  34.676  1.00  0.00    -0.203 F 
ATOM     95  C   UNL A   1      40.681  35.849  36.466  1.00  0.00     0.198 A 
ATOM     96  C   UNL A   1      43.003  36.029  37.039  1.00  0.00     0.198 A 
ATOM     97  F   UNL A   1      44.621  34.867  35.788  1.00  0.00    -0.203 F 
ATOM     98  F   UNL A   1      39.404  36.206  36.665  1.00  0.00    -0.200 F 
ATOM     99  C   UNL A   1      41.681  36.376  37.268  1.00  0.00     0.200 A 
ATOM    100  F   UNL A   1      43.971  36.529  37.821  1.00  0.00    -0.200 F 
ATOM    101  F   UNL A   1      41.370  37.226  38.257  1.00  0.00    -0.200 F 
ENDBRANCH  68  91
ENDBRANCH  42  43
ENDBRANCH  35  37
ENDBRANCH  34  35
ENDBRANCH  33  34
ENDBRANCH  32  33
ENDBRANCH  31  32
ENDBRANCH  30  31
ENDBRANCH  29  30
ENDBRANCH   1  29
TORSDOF 22
ENDMDL
