MODEL 1
REMARK VINA RESULT:      -8.3      0.000      0.000
REMARK SMILES Cc1c(CC(=O)OCCOCCOCCOC(=O)c2ccc(-c3c4nc(c(-c5c(F)c(F)c(F)c(F)c5F)c5ccc([nH]5)c(-c5c(F)c(F)c(F)c(F)c5F)c5nc(c(-c6c(F)c(F)c(F)c(F)c6F)c6ccc3[nH]6)C=C5)C=C4)cc2)cc(-c2ccc(S(C)(=O)=O)cc2)n1-c1cccc(F)c1
REMARK SMILES IDX 11 1 10 2 9 3 8 4 7 5 5 6 6 7 4 8 3 9 1 10 2 11 94 12 82 13
REMARK SMILES IDX 83 14 95 15 96 16 101 17 97 18 99 19 98 20 100 21 84 22
REMARK SMILES IDX 85 23 93 24 86 25 92 26 87 27 88 28 89 29 90 30 91 31 12 32
REMARK SMILES IDX 13 33 14 34 15 35 16 36 17 37 18 38 19 39 20 40 81 41 21 42
REMARK SMILES IDX 80 43 22 44 23 45 24 46 74 47 25 48 79 49 73 50 75 51 26 52
REMARK SMILES IDX 78 53 72 54 71 55 27 57 59 58 39 59 58 60 40 61 43 62 57 63
REMARK SMILES IDX 76 64 41 65 42 66 56 68 77 69 44 70 28 71 29 72 37 73 30 74
REMARK SMILES IDX 31 75 35 76 38 77 32 78 33 79 36 80 34 81 60 82 61 83 69 84
REMARK SMILES IDX 62 85 63 86 67 87 70 88 64 89 65 90 68 91 66 92 45 93 46 94
REMARK SMILES IDX 54 95 47 96 48 97 52 98 55 99 49 100 50 101 53 102 51 103
REMARK H PARENT 75 56 43 67
REMARK Flexibility Score: inf
ROOT
ATOM      1  C   UNL A   1      44.118  20.352  25.293  1.00  0.00     0.188 C 
ENDROOT
BRANCH   1   2
ATOM      2  O   UNL A   1      45.360  20.916  24.905  1.00  0.00    -0.376 OA
BRANCH   2   3
ATOM      3  C   UNL A   1      45.636  22.275  25.216  1.00  0.00     0.202 C 
BRANCH   3   4
ATOM      4  C   UNL A   1      45.052  23.350  24.295  1.00  0.00     0.261 C 
BRANCH   4   5
ATOM      5  O   UNL A   1      44.320  24.377  24.997  1.00  0.00    -0.463 OA
BRANCH   5   6
ATOM      6  C   UNL A   1      44.980  25.551  25.172  1.00  0.00     0.310 C 
ATOM      7  O   UNL A   1      46.035  25.834  24.607  1.00  0.00    -0.252 OA
BRANCH   6   8
ATOM      8  C   UNL A   1      44.312  26.559  26.084  1.00  0.00     0.160 C 
BRANCH   8   9
ATOM      9  C   UNL A   1      44.721  26.658  27.527  1.00  0.00    -0.015 A 
ATOM     10  C   UNL A   1      47.193  27.521  27.370  1.00  0.00     0.065 C 
ATOM     11  C   UNL A   1      45.934  27.100  28.055  1.00  0.00     0.024 A 
ATOM     12  N   UNL A   1      45.861  27.007  29.438  1.00  0.00    -0.313 N 
ATOM     13  C   UNL A   1      44.011  26.084  28.623  1.00  0.00     0.033 A 
ATOM     14  C   UNL A   1      44.779  26.205  29.769  1.00  0.00     0.053 A 
BRANCH  12  15
ATOM     15  C   UNL A   1      46.714  27.657  30.363  1.00  0.00     0.049 A 
ATOM     16  C   UNL A   1      46.578  29.027  30.615  1.00  0.00     0.027 A 
ATOM     17  C   UNL A   1      47.787  26.932  30.891  1.00  0.00     0.065 A 
ATOM     18  C   UNL A   1      47.527  29.675  31.408  1.00  0.00     0.005 A 
ATOM     19  C   UNL A   1      48.732  27.601  31.657  1.00  0.00     0.125 A 
ATOM     20  C   UNL A   1      48.614  28.963  31.921  1.00  0.00     0.039 A 
ATOM     21  F   UNL A   1      49.797  26.933  32.121  1.00  0.00    -0.207 F 
ENDBRANCH  12  15
BRANCH  14  22
ATOM     22  C   UNL A   1      44.535  25.657  31.102  1.00  0.00    -0.001 A 
ATOM     23  C   UNL A   1      44.562  24.276  31.337  1.00  0.00     0.011 A 
ATOM     24  C   UNL A   1      44.218  26.528  32.154  1.00  0.00     0.011 A 
ATOM     25  C   UNL A   1      44.260  23.768  32.603  1.00  0.00     0.021 A 
ATOM     26  C   UNL A   1      43.913  26.029  33.422  1.00  0.00     0.021 A 
ATOM     27  C   UNL A   1      43.928  24.649  33.637  1.00  0.00     0.067 A 
BRANCH  27  28
ATOM     28  S   UNL A   1      43.577  24.003  35.254  1.00  0.00     0.175 S 
ATOM     29  C   UNL A   1      43.869  25.368  36.347  1.00  0.00     0.163 C 
ATOM     30  O   UNL A   1      42.155  23.694  35.283  1.00  0.00    -0.224 OA
ATOM     31  O   UNL A   1      44.565  22.989  35.550  1.00  0.00    -0.224 OA
ENDBRANCH  27  28
ENDBRANCH  14  22
ENDBRANCH   8   9
ENDBRANCH   6   8
ENDBRANCH   5   6
ENDBRANCH   4   5
ENDBRANCH   3   4
ENDBRANCH   2   3
ENDBRANCH   1   2
BRANCH   1  32
ATOM     32  C   UNL A   1      43.096  21.183  26.079  1.00  0.00     0.188 C 
BRANCH  32  33
ATOM     33  O   UNL A   1      41.726  20.848  26.039  1.00  0.00    -0.376 OA
BRANCH  33  34
ATOM     34  C   UNL A   1      40.763  21.883  26.216  1.00  0.00     0.202 C 
BRANCH  34  35
ATOM     35  C   UNL A   1      41.293  23.263  26.681  1.00  0.00     0.261 C 
BRANCH  35  36
ATOM     36  O   UNL A   1      40.568  24.451  26.194  1.00  0.00    -0.460 OA
BRANCH  36  37
ATOM     37  C   UNL A   1      39.707  25.045  27.086  1.00  0.00     0.338 C 
ATOM     38  O   UNL A   1      38.648  24.544  27.444  1.00  0.00    -0.246 OA
BRANCH  37  39
ATOM     39  C   UNL A   1      40.123  26.418  27.617  1.00  0.00     0.060 A 
ATOM     40  C   UNL A   1      40.638  27.379  26.751  1.00  0.00     0.016 A 
ATOM     41  C   UNL A   1      40.328  26.682  28.987  1.00  0.00     0.016 A 
ATOM     42  C   UNL A   1      41.285  28.569  27.245  1.00  0.00     0.010 A 
ATOM     43  C   UNL A   1      41.031  27.870  29.483  1.00  0.00     0.010 A 
ATOM     44  C   UNL A   1      41.543  28.869  28.631  1.00  0.00    -0.014 A 
BRANCH  44  45
ATOM     45  C   UNL A   1      42.748  29.896  28.961  1.00  0.00     0.031 A 
ATOM     46  C   UNL A   1      42.432  30.347  30.349  1.00  0.00     0.074 A 
ATOM     47  C   UNL A   1      43.878  30.511  28.405  1.00  0.00     0.049 A 
ATOM     48  N   UNL A   1      41.280  30.883  30.654  1.00  0.00    -0.248 NA
ATOM     49  C   UNL A   1      43.228  29.906  31.497  1.00  0.00     0.031 C 
ATOM     50  C   UNL A   1      44.407  30.359  27.039  1.00  0.00     0.029 A 
ATOM     51  N   UNL A   1      44.857  31.429  28.933  1.00  0.00    -0.354 N 
ATOM     52  C   UNL A   1      41.340  31.137  32.003  1.00  0.00     0.074 A 
ATOM     53  C   UNL A   1      42.429  30.304  32.489  1.00  0.00     0.031 C 
ATOM     54  C   UNL A   1      45.596  31.011  26.874  1.00  0.00     0.029 A 
ATOM     55  C   UNL A   1      45.987  31.736  28.084  1.00  0.00     0.049 A 
ATOM     56  H   UNL A   1      44.761  31.828  29.829  1.00  0.00     0.167 HD
ATOM     57  C   UNL A   1      41.030  32.408  32.390  1.00  0.00     0.037 A 
ATOM     58  C   UNL A   1      47.113  32.545  28.269  1.00  0.00     0.037 A 
ATOM     59  C   UNL A   1      42.191  33.179  32.732  1.00  0.00     0.049 A 
ATOM     60  C   UNL A   1      46.835  33.479  29.367  1.00  0.00     0.074 A 
ATOM     61  C   UNL A   1      43.313  32.913  33.490  1.00  0.00     0.029 A 
ATOM     62  N   UNL A   1      42.514  34.232  31.903  1.00  0.00    -0.354 N 
ATOM     63  N   UNL A   1      46.145  34.561  29.180  1.00  0.00    -0.248 NA
ATOM     64  C   UNL A   1      47.426  33.341  30.696  1.00  0.00     0.031 C 
ATOM     65  C   UNL A   1      44.384  33.436  32.734  1.00  0.00     0.029 A 
ATOM     66  C   UNL A   1      43.881  34.289  31.760  1.00  0.00     0.049 A 
ATOM     67  H   UNL A   1      41.870  34.846  31.482  1.00  0.00     0.167 HD
ATOM     68  C   UNL A   1      45.768  34.898  30.438  1.00  0.00     0.074 A 
ATOM     69  C   UNL A   1      46.788  34.345  31.305  1.00  0.00     0.031 C 
ATOM     70  C   UNL A   1      44.430  34.989  30.626  1.00  0.00     0.037 A 
BRANCH  57  71
ATOM     71  C   UNL A   1      39.814  32.977  31.729  1.00  0.00     0.064 A 
ATOM     72  C   UNL A   1      38.607  32.993  32.432  1.00  0.00     0.173 A 
ATOM     73  C   UNL A   1      39.797  33.406  30.389  1.00  0.00     0.173 A 
ATOM     74  F   UNL A   1      38.579  32.657  33.731  1.00  0.00    -0.203 F 
ATOM     75  C   UNL A   1      37.419  33.358  31.801  1.00  0.00     0.198 A 
ATOM     76  C   UNL A   1      38.603  33.713  29.746  1.00  0.00     0.198 A 
ATOM     77  F   UNL A   1      40.942  33.555  29.702  1.00  0.00    -0.203 F 
ATOM     78  F   UNL A   1      36.275  33.390  32.499  1.00  0.00    -0.200 F 
ATOM     79  C   UNL A   1      37.413  33.683  30.451  1.00  0.00     0.200 A 
ATOM     80  F   UNL A   1      38.612  34.045  28.447  1.00  0.00    -0.200 F 
ATOM     81  F   UNL A   1      36.263  33.991  29.836  1.00  0.00    -0.200 F 
ENDBRANCH  57  71
BRANCH  58  82
ATOM     82  C   UNL A   1      48.489  32.926  27.650  1.00  0.00     0.064 A 
ATOM     83  C   UNL A   1      49.635  32.061  27.780  1.00  0.00     0.173 A 
ATOM     84  C   UNL A   1      48.617  33.865  26.620  1.00  0.00     0.173 A 
ATOM     85  F   UNL A   1      49.705  31.129  28.740  1.00  0.00    -0.203 F 
ATOM     86  C   UNL A   1      50.728  32.061  26.897  1.00  0.00     0.198 A 
ATOM     87  C   UNL A   1      49.742  33.889  25.753  1.00  0.00     0.198 A 
ATOM     88  F   UNL A   1      47.617  34.718  26.368  1.00  0.00    -0.203 F 
ATOM     89  F   UNL A   1      51.694  31.134  27.013  1.00  0.00    -0.200 F 
ATOM     90  C   UNL A   1      50.775  32.970  25.869  1.00  0.00     0.200 A 
ATOM     91  F   UNL A   1      49.790  34.776  24.747  1.00  0.00    -0.200 F 
ATOM     92  F   UNL A   1      51.784  32.941  24.984  1.00  0.00    -0.200 F 
ENDBRANCH  58  82
BRANCH  70  93
ATOM     93  C   UNL A   1      43.637  35.647  29.503  1.00  0.00     0.064 A 
ATOM     94  C   UNL A   1      43.233  35.048  28.283  1.00  0.00     0.173 A 
ATOM     95  C   UNL A   1      43.355  37.012  29.633  1.00  0.00     0.173 A 
ATOM     96  F   UNL A   1      43.314  33.726  28.075  1.00  0.00    -0.203 F 
ATOM     97  C   UNL A   1      42.698  35.797  27.232  1.00  0.00     0.198 A 
ATOM     98  C   UNL A   1      42.762  37.746  28.606  1.00  0.00     0.198 A 
ATOM     99  F   UNL A   1      43.646  37.646  30.780  1.00  0.00    -0.203 F 
ATOM    100  F   UNL A   1      42.409  35.206  26.062  1.00  0.00    -0.200 F 
ATOM    101  C   UNL A   1      42.462  37.147  27.395  1.00  0.00     0.200 A 
ATOM    102  F   UNL A   1      42.481  39.043  28.796  1.00  0.00    -0.200 F 
ATOM    103  F   UNL A   1      41.927  37.865  26.398  1.00  0.00    -0.200 F 
ENDBRANCH  70  93
ENDBRANCH  44  45
ENDBRANCH  37  39
ENDBRANCH  36  37
ENDBRANCH  35  36
ENDBRANCH  34  35
ENDBRANCH  33  34
ENDBRANCH  32  33
ENDBRANCH   1  32
TORSDOF 21
ENDMDL
MODEL 2
REMARK VINA RESULT:      -8.1      2.758      4.466
REMARK SMILES Cc1c(CC(=O)OCCOCCOCCOC(=O)c2ccc(-c3c4nc(c(-c5c(F)c(F)c(F)c(F)c5F)c5ccc([nH]5)c(-c5c(F)c(F)c(F)c(F)c5F)c5nc(c(-c6c(F)c(F)c(F)c(F)c6F)c6ccc3[nH]6)C=C5)C=C4)cc2)cc(-c2ccc(S(C)(=O)=O)cc2)n1-c1cccc(F)c1
REMARK SMILES IDX 11 1 10 2 9 3 8 4 7 5 5 6 6 7 4 8 3 9 1 10 2 11 94 12 82 13
REMARK SMILES IDX 83 14 95 15 96 16 101 17 97 18 99 19 98 20 100 21 84 22
REMARK SMILES IDX 85 23 93 24 86 25 92 26 87 27 88 28 89 29 90 30 91 31 12 32
REMARK SMILES IDX 13 33 14 34 15 35 16 36 17 37 18 38 19 39 20 40 81 41 21 42
REMARK SMILES IDX 80 43 22 44 23 45 24 46 74 47 25 48 79 49 73 50 75 51 26 52
REMARK SMILES IDX 78 53 72 54 71 55 27 57 59 58 39 59 58 60 40 61 43 62 57 63
REMARK SMILES IDX 76 64 41 65 42 66 56 68 77 69 44 70 28 71 29 72 37 73 30 74
REMARK SMILES IDX 31 75 35 76 38 77 32 78 33 79 36 80 34 81 60 82 61 83 69 84
REMARK SMILES IDX 62 85 63 86 67 87 70 88 64 89 65 90 68 91 66 92 45 93 46 94
REMARK SMILES IDX 54 95 47 96 48 97 52 98 55 99 49 100 50 101 53 102 51 103
REMARK H PARENT 75 56 43 67
REMARK Flexibility Score: inf
ROOT
ATOM      1  C   UNL A   1      38.666  19.706  25.010  1.00  0.00     0.188 C 
ENDROOT
BRANCH   1   2
ATOM      2  O   UNL A   1      39.938  19.236  25.423  1.00  0.00    -0.376 OA
BRANCH   2   3
ATOM      3  C   UNL A   1      40.623  19.907  26.473  1.00  0.00     0.202 C 
BRANCH   3   4
ATOM      4  C   UNL A   1      42.154  19.927  26.428  1.00  0.00     0.261 C 
BRANCH   4   5
ATOM      5  O   UNL A   1      42.699  19.503  25.161  1.00  0.00    -0.463 OA
BRANCH   5   6
ATOM      6  C   UNL A   1      44.050  19.576  25.050  1.00  0.00     0.310 C 
ATOM      7  O   UNL A   1      44.826  18.800  25.606  1.00  0.00    -0.252 OA
BRANCH   6   8
ATOM      8  C   UNL A   1      44.584  20.659  24.136  1.00  0.00     0.160 C 
BRANCH   8   9
ATOM      9  C   UNL A   1      45.071  21.960  24.713  1.00  0.00    -0.015 A 
ATOM     10  C   UNL A   1      42.845  23.136  25.448  1.00  0.00     0.065 C 
ATOM     11  C   UNL A   1      44.324  22.982  25.296  1.00  0.00     0.024 A 
ATOM     12  N   UNL A   1      45.198  23.991  25.677  1.00  0.00    -0.313 N 
ATOM     13  C   UNL A   1      46.386  22.488  24.551  1.00  0.00     0.033 A 
ATOM     14  C   UNL A   1      46.414  23.782  25.045  1.00  0.00     0.053 A 
BRANCH  12  15
ATOM     15  C   UNL A   1      44.917  25.034  26.594  1.00  0.00     0.049 A 
ATOM     16  C   UNL A   1      44.651  26.329  26.137  1.00  0.00     0.027 A 
ATOM     17  C   UNL A   1      45.069  24.769  27.958  1.00  0.00     0.065 A 
ATOM     18  C   UNL A   1      44.532  27.370  27.060  1.00  0.00     0.005 A 
ATOM     19  C   UNL A   1      44.971  25.824  28.858  1.00  0.00     0.125 A 
ATOM     20  C   UNL A   1      44.705  27.119  28.423  1.00  0.00     0.039 A 
ATOM     21  F   UNL A   1      45.173  25.597  30.163  1.00  0.00    -0.207 F 
ENDBRANCH  12  15
BRANCH  14  22
ATOM     22  C   UNL A   1      47.492  24.767  24.982  1.00  0.00    -0.001 A 
ATOM     23  C   UNL A   1      47.802  25.432  23.788  1.00  0.00     0.011 A 
ATOM     24  C   UNL A   1      48.263  25.014  26.127  1.00  0.00     0.011 A 
ATOM     25  C   UNL A   1      48.879  26.319  23.733  1.00  0.00     0.021 A 
ATOM     26  C   UNL A   1      49.342  25.898  26.080  1.00  0.00     0.021 A 
ATOM     27  C   UNL A   1      49.649  26.540  24.879  1.00  0.00     0.067 A 
BRANCH  27  28
ATOM     28  S   UNL A   1      50.997  27.696  24.814  1.00  0.00     0.175 S 
ATOM     29  C   UNL A   1      50.908  28.563  26.358  1.00  0.00     0.163 C 
ATOM     30  O   UNL A   1      52.223  26.911  24.805  1.00  0.00    -0.224 OA
ATOM     31  O   UNL A   1      50.715  28.648  23.762  1.00  0.00    -0.224 OA
ENDBRANCH  27  28
ENDBRANCH  14  22
ENDBRANCH   8   9
ENDBRANCH   6   8
ENDBRANCH   5   6
ENDBRANCH   4   5
ENDBRANCH   3   4
ENDBRANCH   2   3
ENDBRANCH   1   2
BRANCH   1  32
ATOM     32  C   UNL A   1      38.002  20.889  25.726  1.00  0.00     0.188 C 
BRANCH  32  33
ATOM     33  O   UNL A   1      38.006  22.171  25.135  1.00  0.00    -0.376 OA
BRANCH  33  34
ATOM     34  C   UNL A   1      37.905  23.314  25.980  1.00  0.00     0.202 C 
BRANCH  34  35
ATOM     35  C   UNL A   1      39.094  23.590  26.935  1.00  0.00     0.261 C 
BRANCH  35  36
ATOM     36  O   UNL A   1      39.232  24.967  27.441  1.00  0.00    -0.460 OA
BRANCH  36  37
ATOM     37  C   UNL A   1      40.103  25.781  26.756  1.00  0.00     0.338 C 
ATOM     38  O   UNL A   1      40.557  25.510  25.650  1.00  0.00    -0.246 OA
BRANCH  37  39
ATOM     39  C   UNL A   1      40.522  27.072  27.460  1.00  0.00     0.060 A 
ATOM     40  C   UNL A   1      40.700  28.244  26.730  1.00  0.00     0.016 A 
ATOM     41  C   UNL A   1      41.060  27.097  28.764  1.00  0.00     0.016 A 
ATOM     42  C   UNL A   1      41.347  29.398  27.303  1.00  0.00     0.010 A 
ATOM     43  C   UNL A   1      41.762  28.257  29.324  1.00  0.00     0.010 A 
ATOM     44  C   UNL A   1      41.937  29.462  28.616  1.00  0.00    -0.014 A 
BRANCH  44  45
ATOM     45  C   UNL A   1      43.090  30.569  28.863  1.00  0.00     0.031 A 
ATOM     46  C   UNL A   1      42.837  31.008  30.269  1.00  0.00     0.074 A 
ATOM     47  C   UNL A   1      44.137  31.254  28.232  1.00  0.00     0.049 A 
ATOM     48  N   UNL A   1      41.675  31.468  30.647  1.00  0.00    -0.248 NA
ATOM     49  C   UNL A   1      43.735  30.628  31.361  1.00  0.00     0.031 C 
ATOM     50  C   UNL A   1      44.584  31.128  26.834  1.00  0.00     0.029 A 
ATOM     51  N   UNL A   1      45.086  32.238  28.692  1.00  0.00    -0.354 N 
ATOM     52  C   UNL A   1      41.806  31.735  31.988  1.00  0.00     0.074 A 
ATOM     53  C   UNL A   1      42.978  30.979  32.404  1.00  0.00     0.031 C 
ATOM     54  C   UNL A   1      45.715  31.856  26.590  1.00  0.00     0.029 A 
ATOM     55  C   UNL A   1      46.135  32.613  27.770  1.00  0.00     0.049 A 
ATOM     56  H   UNL A   1      45.023  32.635  29.592  1.00  0.00     0.167 HD
ATOM     57  C   UNL A   1      41.438  32.985  32.393  1.00  0.00     0.037 A 
ATOM     58  C   UNL A   1      47.214  33.496  27.878  1.00  0.00     0.037 A 
ATOM     59  C   UNL A   1      42.566  33.834  32.655  1.00  0.00     0.049 A 
ATOM     60  C   UNL A   1      46.948  34.417  28.990  1.00  0.00     0.074 A 
ATOM     61  C   UNL A   1      43.750  33.648  33.338  1.00  0.00     0.029 A 
ATOM     62  N   UNL A   1      42.763  34.900  31.804  1.00  0.00    -0.354 N 
ATOM     63  N   UNL A   1      46.178  35.450  28.846  1.00  0.00    -0.248 NA
ATOM     64  C   UNL A   1      47.633  34.327  30.277  1.00  0.00     0.031 C 
ATOM     65  C   UNL A   1      44.732  34.235  32.511  1.00  0.00     0.029 A 
ATOM     66  C   UNL A   1      44.110  35.046  31.571  1.00  0.00     0.049 A 
ATOM     67  H   UNL A   1      42.053  35.467  31.425  1.00  0.00     0.167 HD
ATOM     68  C   UNL A   1      45.862  35.769  30.125  1.00  0.00     0.074 A 
ATOM     69  C   UNL A   1      46.972  35.291  30.924  1.00  0.00     0.031 C 
ATOM     70  C   UNL A   1      44.536  35.774  30.402  1.00  0.00     0.037 A 
BRANCH  57  71
ATOM     71  C   UNL A   1      40.147  33.468  31.812  1.00  0.00     0.064 A 
ATOM     72  C   UNL A   1      38.997  33.442  32.605  1.00  0.00     0.173 A 
ATOM     73  C   UNL A   1      40.005  33.854  30.466  1.00  0.00     0.173 A 
ATOM     74  F   UNL A   1      39.086  33.146  33.911  1.00  0.00    -0.203 F 
ATOM     75  C   UNL A   1      37.746  33.723  32.058  1.00  0.00     0.198 A 
ATOM     76  C   UNL A   1      38.751  34.077  29.909  1.00  0.00     0.198 A 
ATOM     77  F   UNL A   1      41.085  34.042  29.690  1.00  0.00    -0.203 F 
ATOM     78  F   UNL A   1      36.658  33.717  32.841  1.00  0.00    -0.200 F 
ATOM     79  C   UNL A   1      37.621  34.005  30.704  1.00  0.00     0.200 A 
ATOM     80  F   UNL A   1      38.644  34.369  28.605  1.00  0.00    -0.200 F 
ATOM     81  F   UNL A   1      36.413  34.234  30.171  1.00  0.00    -0.200 F 
ENDBRANCH  57  71
BRANCH  58  82
ATOM     82  C   UNL A   1      48.519  33.963  27.169  1.00  0.00     0.064 A 
ATOM     83  C   UNL A   1      49.719  33.164  27.204  1.00  0.00     0.173 A 
ATOM     84  C   UNL A   1      48.519  34.919  26.147  1.00  0.00     0.173 A 
ATOM     85  F   UNL A   1      49.911  32.227  28.141  1.00  0.00    -0.203 F 
ATOM     86  C   UNL A   1      50.744  33.238  26.245  1.00  0.00     0.198 A 
ATOM     87  C   UNL A   1      49.576  35.019  25.203  1.00  0.00     0.198 A 
ATOM     88  F   UNL A   1      47.456  35.716  25.979  1.00  0.00    -0.203 F 
ATOM     89  F   UNL A   1      51.766  32.366  26.277  1.00  0.00    -0.200 F 
ATOM     90  C   UNL A   1      50.665  34.159  25.231  1.00  0.00     0.200 A 
ATOM     91  F   UNL A   1      49.501  35.918  24.209  1.00  0.00    -0.200 F 
ATOM     92  F   UNL A   1      51.607  34.199  24.276  1.00  0.00    -0.200 F 
ENDBRANCH  58  82
BRANCH  70  93
ATOM     93  C   UNL A   1      43.629  36.370  29.332  1.00  0.00     0.064 A 
ATOM     94  C   UNL A   1      43.166  35.729  28.155  1.00  0.00     0.173 A 
ATOM     95  C   UNL A   1      43.288  37.721  29.463  1.00  0.00     0.173 A 
ATOM     96  F   UNL A   1      43.300  34.409  27.960  1.00  0.00    -0.203 F 
ATOM     97  C   UNL A   1      42.518  36.430  27.136  1.00  0.00     0.198 A 
ATOM     98  C   UNL A   1      42.583  38.406  28.472  1.00  0.00     0.198 A 
ATOM     99  F   UNL A   1      43.631  38.390  30.575  1.00  0.00    -0.203 F 
ATOM    100  F   UNL A   1      42.173  35.804  26.000  1.00  0.00    -0.200 F 
ATOM    101  C   UNL A   1      42.225  37.770  27.296  1.00  0.00     0.200 A 
ATOM    102  F   UNL A   1      42.251  39.690  28.664  1.00  0.00    -0.200 F 
ATOM    103  F   UNL A   1      41.582  38.442  26.332  1.00  0.00    -0.200 F 
ENDBRANCH  70  93
ENDBRANCH  44  45
ENDBRANCH  37  39
ENDBRANCH  36  37
ENDBRANCH  35  36
ENDBRANCH  34  35
ENDBRANCH  33  34
ENDBRANCH  32  33
ENDBRANCH   1  32
TORSDOF 21
ENDMDL
MODEL 3
REMARK VINA RESULT:      -8.1      6.081     10.854
REMARK SMILES Cc1c(CC(=O)OCCOCCOCCOC(=O)c2ccc(-c3c4nc(c(-c5c(F)c(F)c(F)c(F)c5F)c5ccc([nH]5)c(-c5c(F)c(F)c(F)c(F)c5F)c5nc(c(-c6c(F)c(F)c(F)c(F)c6F)c6ccc3[nH]6)C=C5)C=C4)cc2)cc(-c2ccc(S(C)(=O)=O)cc2)n1-c1cccc(F)c1
REMARK SMILES IDX 11 1 10 2 9 3 8 4 7 5 5 6 6 7 4 8 3 9 1 10 2 11 94 12 82 13
REMARK SMILES IDX 83 14 95 15 96 16 101 17 97 18 99 19 98 20 100 21 84 22
REMARK SMILES IDX 85 23 93 24 86 25 92 26 87 27 88 28 89 29 90 30 91 31 12 32
REMARK SMILES IDX 13 33 14 34 15 35 16 36 17 37 18 38 19 39 20 40 81 41 21 42
REMARK SMILES IDX 80 43 22 44 23 45 24 46 74 47 25 48 79 49 73 50 75 51 26 52
REMARK SMILES IDX 78 53 72 54 71 55 27 57 59 58 39 59 58 60 40 61 43 62 57 63
REMARK SMILES IDX 76 64 41 65 42 66 56 68 77 69 44 70 28 71 29 72 37 73 30 74
REMARK SMILES IDX 31 75 35 76 38 77 32 78 33 79 36 80 34 81 60 82 61 83 69 84
REMARK SMILES IDX 62 85 63 86 67 87 70 88 64 89 65 90 68 91 66 92 45 93 46 94
REMARK SMILES IDX 54 95 47 96 48 97 52 98 55 99 49 100 50 101 53 102 51 103
REMARK H PARENT 75 56 43 67
REMARK Flexibility Score: inf
ROOT
ATOM      1  C   UNL A   1      33.768  34.963  32.610  1.00  0.00     0.188 C 
ENDROOT
BRANCH   1   2
ATOM      2  O   UNL A   1      33.754  33.553  32.763  1.00  0.00    -0.376 OA
BRANCH   2   3
ATOM      3  C   UNL A   1      34.659  32.760  32.006  1.00  0.00     0.202 C 
BRANCH   3   4
ATOM      4  C   UNL A   1      35.931  32.266  32.703  1.00  0.00     0.261 C 
BRANCH   4   5
ATOM      5  O   UNL A   1      36.065  32.740  34.059  1.00  0.00    -0.463 OA
BRANCH   5   6
ATOM      6  C   UNL A   1      36.969  33.737  34.244  1.00  0.00     0.310 C 
ATOM      7  O   UNL A   1      36.741  34.921  34.000  1.00  0.00    -0.252 OA
BRANCH   6   8
ATOM      8  C   UNL A   1      38.300  33.326  34.838  1.00  0.00     0.160 C 
BRANCH   8   9
ATOM      9  C   UNL A   1      38.706  33.826  36.197  1.00  0.00    -0.015 A 
ATOM     10  C   UNL A   1      37.400  32.228  37.816  1.00  0.00     0.065 C 
ATOM     11  C   UNL A   1      38.343  33.327  37.447  1.00  0.00     0.024 A 
ATOM     12  N   UNL A   1      38.951  34.113  38.417  1.00  0.00    -0.313 N 
ATOM     13  C   UNL A   1      39.360  35.068  36.452  1.00  0.00     0.033 A 
ATOM     14  C   UNL A   1      39.398  35.283  37.820  1.00  0.00     0.053 A 
BRANCH  12  15
ATOM     15  C   UNL A   1      39.130  33.765  39.778  1.00  0.00     0.049 A 
ATOM     16  C   UNL A   1      40.410  33.523  40.287  1.00  0.00     0.027 A 
ATOM     17  C   UNL A   1      37.990  33.519  40.550  1.00  0.00     0.065 A 
ATOM     18  C   UNL A   1      40.550  33.031  41.587  1.00  0.00     0.005 A 
ATOM     19  C   UNL A   1      38.150  33.006  41.831  1.00  0.00     0.125 A 
ATOM     20  C   UNL A   1      39.415  32.761  42.357  1.00  0.00     0.039 A 
ATOM     21  F   UNL A   1      37.066  32.709  42.562  1.00  0.00    -0.207 F 
ENDBRANCH  12  15
BRANCH  14  22
ATOM     22  C   UNL A   1      39.845  36.465  38.554  1.00  0.00    -0.001 A 
ATOM     23  C   UNL A   1      41.201  36.813  38.616  1.00  0.00     0.011 A 
ATOM     24  C   UNL A   1      38.903  37.236  39.250  1.00  0.00     0.011 A 
ATOM     25  C   UNL A   1      41.614  37.908  39.378  1.00  0.00     0.021 A 
ATOM     26  C   UNL A   1      39.309  38.331  40.016  1.00  0.00     0.021 A 
ATOM     27  C   UNL A   1      40.665  38.656  40.081  1.00  0.00     0.067 A 
BRANCH  27  28
ATOM     28  S   UNL A   1      41.191  40.069  41.022  1.00  0.00     0.175 S 
ATOM     29  C   UNL A   1      42.567  40.717  40.110  1.00  0.00     0.163 C 
ATOM     30  O   UNL A   1      40.109  41.040  40.961  1.00  0.00    -0.224 OA
ATOM     31  O   UNL A   1      41.695  39.594  42.292  1.00  0.00    -0.224 OA
ENDBRANCH  27  28
ENDBRANCH  14  22
ENDBRANCH   8   9
ENDBRANCH   6   8
ENDBRANCH   5   6
ENDBRANCH   4   5
ENDBRANCH   3   4
ENDBRANCH   2   3
ENDBRANCH   1   2
BRANCH   1  32
ATOM     32  C   UNL A   1      32.998  35.630  31.464  1.00  0.00     0.188 C 
BRANCH  32  33
ATOM     33  O   UNL A   1      32.918  35.003  30.202  1.00  0.00    -0.376 OA
BRANCH  33  34
ATOM     34  C   UNL A   1      33.182  35.778  29.035  1.00  0.00     0.202 C 
BRANCH  34  35
ATOM     35  C   UNL A   1      34.237  35.223  28.046  1.00  0.00     0.261 C 
BRANCH  35  36
ATOM     36  O   UNL A   1      35.239  34.293  28.598  1.00  0.00    -0.460 OA
BRANCH  36  37
ATOM     37  C   UNL A   1      35.172  32.994  28.154  1.00  0.00     0.338 C 
ATOM     38  O   UNL A   1      34.412  32.618  27.270  1.00  0.00    -0.246 OA
BRANCH  37  39
ATOM     39  C   UNL A   1      36.097  31.991  28.847  1.00  0.00     0.060 A 
ATOM     40  C   UNL A   1      37.426  32.320  29.095  1.00  0.00     0.016 A 
ATOM     41  C   UNL A   1      35.790  30.620  28.969  1.00  0.00     0.016 A 
ATOM     42  C   UNL A   1      38.387  31.321  29.493  1.00  0.00     0.010 A 
ATOM     43  C   UNL A   1      36.782  29.600  29.325  1.00  0.00     0.010 A 
ATOM     44  C   UNL A   1      38.129  29.907  29.603  1.00  0.00    -0.014 A 
BRANCH  44  45
ATOM     45  C   UNL A   1      39.393  28.906  29.479  1.00  0.00     0.031 A 
ATOM     46  C   UNL A   1      39.931  28.870  30.872  1.00  0.00     0.074 A 
ATOM     47  C   UNL A   1      40.142  28.157  28.560  1.00  0.00     0.049 A 
ATOM     48  N   UNL A   1      40.274  29.960  31.506  1.00  0.00    -0.248 NA
ATOM     49  C   UNL A   1      39.777  27.687  31.721  1.00  0.00     0.031 C 
ATOM     50  C   UNL A   1      39.939  28.051  27.105  1.00  0.00     0.029 A 
ATOM     51  N   UNL A   1      41.279  27.282  28.701  1.00  0.00    -0.354 N 
ATOM     52  C   UNL A   1      40.685  29.546  32.749  1.00  0.00     0.074 A 
ATOM     53  C   UNL A   1      40.129  28.210  32.898  1.00  0.00     0.031 C 
ATOM     54  C   UNL A   1      40.778  27.136  26.535  1.00  0.00     0.029 A 
ATOM     55  C   UNL A   1      41.694  26.557  27.519  1.00  0.00     0.049 A 
ATOM     56  H   UNL A   1      41.751  27.181  29.560  1.00  0.00     0.167 HD
ATOM     57  C   UNL A   1      41.911  29.986  33.156  1.00  0.00     0.037 A 
ATOM     58  C   UNL A   1      42.713  25.627  27.293  1.00  0.00     0.037 A 
ATOM     59  C   UNL A   1      42.918  28.967  33.068  1.00  0.00     0.049 A 
ATOM     60  C   UNL A   1      43.697  25.748  28.377  1.00  0.00     0.074 A 
ATOM     61  C   UNL A   1      42.953  27.638  33.436  1.00  0.00     0.029 A 
ATOM     62  N   UNL A   1      43.913  29.144  32.130  1.00  0.00    -0.354 N 
ATOM     63  N   UNL A   1      44.604  26.675  28.370  1.00  0.00    -0.248 NA
ATOM     64  C   UNL A   1      43.822  24.764  29.449  1.00  0.00     0.031 C 
ATOM     65  C   UNL A   1      43.578  26.985  32.351  1.00  0.00     0.029 A 
ATOM     66  C   UNL A   1      44.207  27.931  31.552  1.00  0.00     0.049 A 
ATOM     67  H   UNL A   1      44.345  30.000  31.910  1.00  0.00     0.167 HD
ATOM     68  C   UNL A   1      45.004  26.712  29.665  1.00  0.00     0.074 A 
ATOM     69  C   UNL A   1      44.751  25.383  30.183  1.00  0.00     0.031 C 
ATOM     70  C   UNL A   1      44.865  27.916  30.270  1.00  0.00     0.037 A 
BRANCH  57  71
ATOM     71  C   UNL A   1      42.166  31.437  32.895  1.00  0.00     0.064 A 
ATOM     72  C   UNL A   1      42.065  32.342  33.954  1.00  0.00     0.173 A 
ATOM     73  C   UNL A   1      42.402  31.958  31.609  1.00  0.00     0.173 A 
ATOM     74  F   UNL A   1      41.907  31.896  35.210  1.00  0.00    -0.203 F 
ATOM     75  C   UNL A   1      42.130  33.716  33.727  1.00  0.00     0.198 A 
ATOM     76  C   UNL A   1      42.408  33.328  31.376  1.00  0.00     0.198 A 
ATOM     77  F   UNL A   1      42.655  31.139  30.574  1.00  0.00    -0.203 F 
ATOM     78  F   UNL A   1      42.056  34.567  34.760  1.00  0.00    -0.200 F 
ATOM     79  C   UNL A   1      42.265  34.207  32.435  1.00  0.00     0.200 A 
ATOM     80  F   UNL A   1      42.559  33.791  30.128  1.00  0.00    -0.200 F 
ATOM     81  F   UNL A   1      42.284  35.529  32.215  1.00  0.00    -0.200 F 
ENDBRANCH  57  71
BRANCH  58  82
ATOM     82  C   UNL A   1      43.272  24.620  26.247  1.00  0.00     0.064 A 
ATOM     83  C   UNL A   1      44.436  24.930  25.453  1.00  0.00     0.173 A 
ATOM     84  C   UNL A   1      42.977  23.252  26.286  1.00  0.00     0.173 A 
ATOM     85  F   UNL A   1      44.842  26.193  25.270  1.00  0.00    -0.203 F 
ATOM     86  C   UNL A   1      45.274  23.964  24.871  1.00  0.00     0.198 A 
ATOM     87  C   UNL A   1      43.803  22.280  25.662  1.00  0.00     0.198 A 
ATOM     88  F   UNL A   1      41.936  22.815  27.007  1.00  0.00    -0.203 F 
ATOM     89  F   UNL A   1      46.411  24.334  24.258  1.00  0.00    -0.200 F 
ATOM     90  C   UNL A   1      44.965  22.632  24.988  1.00  0.00     0.200 A 
ATOM     91  F   UNL A   1      43.504  20.977  25.776  1.00  0.00    -0.200 F 
ATOM     92  F   UNL A   1      45.789  21.698  24.487  1.00  0.00    -0.200 F 
ENDBRANCH  58  82
BRANCH  70  93
ATOM     93  C   UNL A   1      45.233  29.135  29.433  1.00  0.00     0.064 A 
ATOM     94  C   UNL A   1      44.412  29.794  28.484  1.00  0.00     0.173 A 
ATOM     95  C   UNL A   1      46.549  29.603  29.528  1.00  0.00     0.173 A 
ATOM     96  F   UNL A   1      43.099  29.545  28.379  1.00  0.00    -0.203 F 
ATOM     97  C   UNL A   1      44.916  30.767  27.617  1.00  0.00     0.198 A 
ATOM     98  C   UNL A   1      47.034  30.620  28.705  1.00  0.00     0.198 A 
ATOM     99  F   UNL A   1      47.378  29.079  30.445  1.00  0.00    -0.203 F 
ATOM    100  F   UNL A   1      44.127  31.305  26.673  1.00  0.00    -0.200 F 
ATOM    101  C   UNL A   1      46.229  31.180  27.729  1.00  0.00     0.200 A 
ATOM    102  F   UNL A   1      48.292  31.056  28.863  1.00  0.00    -0.200 F 
ATOM    103  F   UNL A   1      46.711  32.129  26.915  1.00  0.00    -0.200 F 
ENDBRANCH  70  93
ENDBRANCH  44  45
ENDBRANCH  37  39
ENDBRANCH  36  37
ENDBRANCH  35  36
ENDBRANCH  34  35
ENDBRANCH  33  34
ENDBRANCH  32  33
ENDBRANCH   1  32
TORSDOF 21
ENDMDL
