MODEL 1
REMARK VINA RESULT:     -10.8      0.000      0.000
REMARK SMILES C[C@H]1[NH2+]CC[C@H]1C(=O)N1CC(C(=O)OCCOCCOCCOC(=O)c2ccc(-c3c4nc(c(-c5c(F)c(F)c(F)c(F)c5F)c5ccc([nH]5)c(-c5c(F)c(F)c(F)c(F)c5F)c5nc(c(-c6c(F)c(F)c(F)c(F)c6F)c6ccc3[nH]6)C=C5)C=C4)cc2)C1
REMARK SMILES IDX 19 1 18 2 17 3 16 4 15 5 14 6 12 7 13 8 11 9 7 10 8 11 9 12
REMARK SMILES IDX 10 13 89 14 6 15 1 16 2 17 3 18 4 19 5 22 20 23 21 24 22 25
REMARK SMILES IDX 23 26 24 27 25 28 26 29 27 30 88 31 28 32 87 33 29 34 30 35
REMARK SMILES IDX 31 36 81 37 32 38 86 39 80 40 82 41 33 42 85 43 79 44 78 45
REMARK SMILES IDX 34 47 66 48 46 49 65 50 47 51 50 52 64 53 83 54 48 55 49 56
REMARK SMILES IDX 63 58 84 59 51 60 35 61 36 62 44 63 37 64 38 65 42 66 45 67
REMARK SMILES IDX 39 68 40 69 43 70 41 71 67 72 68 73 76 74 69 75 70 76 74 77
REMARK SMILES IDX 77 78 71 79 72 80 75 81 73 82 52 83 53 84 61 85 54 86 55 87
REMARK SMILES IDX 59 88 62 89 56 90 57 91 60 92 58 93
REMARK H PARENT 3 20 3 21 82 46 50 57
REMARK Flexibility Score: inf
ROOT
ATOM      1  C   UNL A   1      32.680  30.006  26.184  1.00  0.00     0.188 C 
ENDROOT
BRANCH   1   2
ATOM      2  C   UNL A   1      32.876  28.922  25.107  1.00  0.00     0.188 C 
BRANCH   2   3
ATOM      3  O   UNL A   1      33.791  27.859  25.341  1.00  0.00    -0.376 OA
BRANCH   3   4
ATOM      4  C   UNL A   1      33.359  26.515  25.142  1.00  0.00     0.202 C 
BRANCH   4   5
ATOM      5  C   UNL A   1      31.880  26.243  24.815  1.00  0.00     0.261 C 
BRANCH   5   6
ATOM      6  O   UNL A   1      31.489  24.864  24.958  1.00  0.00    -0.463 OA
BRANCH   6   7
ATOM      7  C   UNL A   1      31.919  24.201  26.076  1.00  0.00     0.312 C 
ATOM      8  O   UNL A   1      31.485  24.436  27.203  1.00  0.00    -0.252 OA
BRANCH   7   9
ATOM      9  C   UNL A   1      32.938  23.088  25.772  1.00  0.00     0.138 C 
ATOM     10  C   UNL A   1      34.066  20.231  24.880  1.00  0.00     0.231 C 
ATOM     11  O   UNL A   1      35.228  20.618  24.773  1.00  0.00    -0.274 OA
ATOM     12  N   UNL A   1      33.013  21.100  25.090  1.00  0.00    -0.340 N 
ATOM     13  C   UNL A   1      32.853  22.399  24.414  1.00  0.00     0.136 C 
ATOM     14  C   UNL A   1      32.790  21.710  26.402  1.00  0.00     0.136 C 
BRANCH  10  15
ATOM     15  C   UNL A   1      33.692  18.754  24.835  1.00  0.00     0.142 C 
ATOM     16  C   UNL A   1      32.323  19.027  22.625  1.00  0.00     0.076 C 
ATOM     17  C   UNL A   1      32.490  18.348  23.980  1.00  0.00     0.192 C 
ATOM     18  N   UNL A   1      32.660  16.894  23.784  1.00  0.00    -0.343 N 
ATOM     19  C   UNL A   1      34.067  16.548  23.985  1.00  0.00     0.261 C 
ATOM     20  H   UNL A   1      32.377  16.642  22.837  1.00  0.00     0.346 HD
ATOM     21  H   UNL A   1      32.081  16.387  24.453  1.00  0.00     0.346 HD
ATOM     22  C   UNL A   1      34.797  17.823  24.360  1.00  0.00     0.081 C 
ENDBRANCH  10  15
ENDBRANCH   7   9
ENDBRANCH   6   7
ENDBRANCH   5   6
ENDBRANCH   4   5
ENDBRANCH   3   4
ENDBRANCH   2   3
ENDBRANCH   1   2
BRANCH   1  23
ATOM     23  O   UNL A   1      31.707  30.972  25.881  1.00  0.00    -0.376 OA
BRANCH  23  24
ATOM     24  C   UNL A   1      31.372  31.944  26.856  1.00  0.00     0.202 C 
BRANCH  24  25
ATOM     25  C   UNL A   1      32.065  33.318  26.950  1.00  0.00     0.261 C 
BRANCH  25  26
ATOM     26  O   UNL A   1      32.787  33.630  28.147  1.00  0.00    -0.460 OA
BRANCH  26  27
ATOM     27  C   UNL A   1      33.965  34.286  27.999  1.00  0.00     0.338 C 
ATOM     28  O   UNL A   1      34.129  35.458  27.730  1.00  0.00    -0.246 OA
BRANCH  27  29
ATOM     29  C   UNL A   1      35.041  33.365  28.428  1.00  0.00     0.060 A 
ATOM     30  C   UNL A   1      34.724  32.037  28.751  1.00  0.00     0.016 A 
ATOM     31  C   UNL A   1      36.357  33.820  28.514  1.00  0.00     0.016 A 
ATOM     32  C   UNL A   1      35.725  31.160  29.175  1.00  0.00     0.010 A 
ATOM     33  C   UNL A   1      37.352  32.950  28.965  1.00  0.00     0.010 A 
ATOM     34  C   UNL A   1      37.038  31.626  29.322  1.00  0.00    -0.014 A 
BRANCH  34  35
ATOM     35  C   UNL A   1      38.054  30.822  30.045  1.00  0.00     0.031 A 
ATOM     36  C   UNL A   1      38.295  31.138  31.495  1.00  0.00     0.074 A 
ATOM     37  C   UNL A   1      38.770  29.864  29.433  1.00  0.00     0.049 A 
ATOM     38  N   UNL A   1      39.241  30.722  32.295  1.00  0.00    -0.248 NA
ATOM     39  C   UNL A   1      37.335  32.061  32.125  1.00  0.00     0.031 C 
ATOM     40  C   UNL A   1      38.588  29.417  28.054  1.00  0.00     0.029 A 
ATOM     41  N   UNL A   1      39.821  29.109  29.896  1.00  0.00    -0.354 N 
ATOM     42  C   UNL A   1      38.997  31.337  33.515  1.00  0.00     0.074 A 
ATOM     43  C   UNL A   1      37.834  32.180  33.345  1.00  0.00     0.031 C 
ATOM     44  C   UNL A   1      39.516  28.482  27.774  1.00  0.00     0.029 A 
ATOM     45  C   UNL A   1      40.384  28.304  28.936  1.00  0.00     0.049 A 
ATOM     46  H   UNL A   1      40.140  29.144  30.827  1.00  0.00     0.167 HD
ATOM     47  C   UNL A   1      39.679  31.205  34.677  1.00  0.00     0.037 A 
ATOM     48  C   UNL A   1      41.498  27.544  28.987  1.00  0.00     0.037 A 
ATOM     49  C   UNL A   1      40.844  30.378  34.839  1.00  0.00     0.049 A 
ATOM     50  C   UNL A   1      42.310  27.507  30.261  1.00  0.00     0.074 A 
ATOM     51  C   UNL A   1      41.626  30.198  35.966  1.00  0.00     0.029 A 
ATOM     52  N   UNL A   1      41.395  29.592  33.839  1.00  0.00    -0.354 N 
ATOM     53  N   UNL A   1      42.083  28.096  31.411  1.00  0.00    -0.248 NA
ATOM     54  C   UNL A   1      43.540  26.700  30.242  1.00  0.00     0.031 C 
ATOM     55  C   UNL A   1      42.676  29.337  35.635  1.00  0.00     0.029 A 
ATOM     56  C   UNL A   1      42.513  28.933  34.320  1.00  0.00     0.049 A 
ATOM     57  H   UNL A   1      41.044  29.514  32.922  1.00  0.00     0.167 HD
ATOM     58  C   UNL A   1      43.107  27.689  32.260  1.00  0.00     0.074 A 
ATOM     59  C   UNL A   1      43.956  26.803  31.495  1.00  0.00     0.031 C 
ATOM     60  C   UNL A   1      43.322  28.018  33.558  1.00  0.00     0.037 A 
BRANCH  47  61
ATOM     61  C   UNL A   1      39.191  31.989  35.860  1.00  0.00     0.064 A 
ATOM     62  C   UNL A   1      38.298  31.435  36.789  1.00  0.00     0.173 A 
ATOM     63  C   UNL A   1      39.652  33.294  36.090  1.00  0.00     0.173 A 
ATOM     64  F   UNL A   1      37.814  30.198  36.604  1.00  0.00    -0.203 F 
ATOM     65  C   UNL A   1      37.868  32.166  37.892  1.00  0.00     0.198 A 
ATOM     66  C   UNL A   1      39.245  34.011  37.211  1.00  0.00     0.198 A 
ATOM     67  F   UNL A   1      40.509  33.871  35.232  1.00  0.00    -0.203 F 
ATOM     68  F   UNL A   1      36.978  31.633  38.741  1.00  0.00    -0.200 F 
ATOM     69  C   UNL A   1      38.348  33.449  38.108  1.00  0.00     0.200 A 
ATOM     70  F   UNL A   1      39.721  35.245  37.426  1.00  0.00    -0.200 F 
ATOM     71  F   UNL A   1      37.943  34.146  39.177  1.00  0.00    -0.200 F 
ENDBRANCH  47  61
BRANCH  48  72
ATOM     72  C   UNL A   1      41.946  26.774  27.794  1.00  0.00     0.064 A 
ATOM     73  C   UNL A   1      41.504  25.460  27.578  1.00  0.00     0.173 A 
ATOM     74  C   UNL A   1      42.878  27.301  26.887  1.00  0.00     0.173 A 
ATOM     75  F   UNL A   1      40.636  24.898  28.433  1.00  0.00    -0.203 F 
ATOM     76  C   UNL A   1      42.002  24.694  26.526  1.00  0.00     0.198 A 
ATOM     77  C   UNL A   1      43.349  26.546  25.815  1.00  0.00     0.198 A 
ATOM     78  F   UNL A   1      43.341  28.550  27.049  1.00  0.00    -0.203 F 
ATOM     79  F   UNL A   1      41.618  23.417  26.390  1.00  0.00    -0.200 F 
ATOM     80  C   UNL A   1      42.923  25.238  25.644  1.00  0.00     0.200 A 
ATOM     81  F   UNL A   1      44.233  27.079  24.961  1.00  0.00    -0.200 F 
ATOM     82  F   UNL A   1      43.413  24.497  24.640  1.00  0.00    -0.200 F 
ENDBRANCH  48  72
BRANCH  60  83
ATOM     83  C   UNL A   1      44.467  27.355  34.268  1.00  0.00     0.064 A 
ATOM     84  C   UNL A   1      44.334  26.105  34.890  1.00  0.00     0.173 A 
ATOM     85  C   UNL A   1      45.737  27.954  34.264  1.00  0.00     0.173 A 
ATOM     86  F   UNL A   1      43.140  25.496  34.933  1.00  0.00    -0.203 F 
ATOM     87  C   UNL A   1      45.426  25.490  35.499  1.00  0.00     0.198 A 
ATOM     88  C   UNL A   1      46.832  27.320  34.844  1.00  0.00     0.198 A 
ATOM     89  F   UNL A   1      45.921  29.144  33.673  1.00  0.00    -0.203 F 
ATOM     90  F   UNL A   1      45.267  24.315  36.124  1.00  0.00    -0.200 F 
ATOM     91  C   UNL A   1      46.675  26.093  35.466  1.00  0.00     0.200 A 
ATOM     92  F   UNL A   1      48.041  27.897  34.794  1.00  0.00    -0.200 F 
ATOM     93  F   UNL A   1      47.727  25.490  36.037  1.00  0.00    -0.200 F 
ENDBRANCH  60  83
ENDBRANCH  34  35
ENDBRANCH  27  29
ENDBRANCH  26  27
ENDBRANCH  25  26
ENDBRANCH  24  25
ENDBRANCH  23  24
ENDBRANCH   1  23
TORSDOF 18
ENDMDL
MODEL 2
REMARK VINA RESULT:     -10.8      4.555     10.786
REMARK SMILES C[C@H]1[NH2+]CC[C@H]1C(=O)N1CC(C(=O)OCCOCCOCCOC(=O)c2ccc(-c3c4nc(c(-c5c(F)c(F)c(F)c(F)c5F)c5ccc([nH]5)c(-c5c(F)c(F)c(F)c(F)c5F)c5nc(c(-c6c(F)c(F)c(F)c(F)c6F)c6ccc3[nH]6)C=C5)C=C4)cc2)C1
REMARK SMILES IDX 19 1 18 2 17 3 16 4 15 5 14 6 12 7 13 8 11 9 7 10 8 11 9 12
REMARK SMILES IDX 10 13 89 14 6 15 1 16 2 17 3 18 4 19 5 22 20 23 21 24 22 25
REMARK SMILES IDX 23 26 24 27 25 28 26 29 27 30 88 31 28 32 87 33 29 34 30 35
REMARK SMILES IDX 31 36 81 37 32 38 86 39 80 40 82 41 33 42 85 43 79 44 78 45
REMARK SMILES IDX 34 47 66 48 46 49 65 50 47 51 50 52 64 53 83 54 48 55 49 56
REMARK SMILES IDX 63 58 84 59 51 60 35 61 36 62 44 63 37 64 38 65 42 66 45 67
REMARK SMILES IDX 39 68 40 69 43 70 41 71 67 72 68 73 76 74 69 75 70 76 74 77
REMARK SMILES IDX 77 78 71 79 72 80 75 81 73 82 52 83 53 84 61 85 54 86 55 87
REMARK SMILES IDX 59 88 62 89 56 90 57 91 60 92 58 93
REMARK H PARENT 3 20 3 21 82 46 50 57
REMARK Flexibility Score: inf
ROOT
ATOM      1  C   UNL A   1      37.043  21.755  25.750  1.00  0.00     0.188 C 
ENDROOT
BRANCH   1   2
ATOM      2  C   UNL A   1      36.237  22.951  25.209  1.00  0.00     0.188 C 
BRANCH   2   3
ATOM      3  O   UNL A   1      35.686  22.890  23.900  1.00  0.00    -0.376 OA
BRANCH   3   4
ATOM      4  C   UNL A   1      34.299  22.599  23.743  1.00  0.00     0.202 C 
BRANCH   4   5
ATOM      5  C   UNL A   1      33.496  23.341  22.661  1.00  0.00     0.261 C 
BRANCH   5   6
ATOM      6  O   UNL A   1      34.029  24.633  22.312  1.00  0.00    -0.463 OA
BRANCH   6   7
ATOM      7  C   UNL A   1      33.223  25.473  21.593  1.00  0.00     0.312 C 
ATOM      8  O   UNL A   1      33.030  25.344  20.384  1.00  0.00    -0.252 OA
BRANCH   7   9
ATOM      9  C   UNL A   1      32.527  26.540  22.456  1.00  0.00     0.138 C 
ATOM     10  C   UNL A   1      32.192  29.015  24.455  1.00  0.00     0.231 C 
ATOM     11  O   UNL A   1      31.002  29.184  24.196  1.00  0.00    -0.274 OA
ATOM     12  N   UNL A   1      32.987  28.141  23.739  1.00  0.00    -0.340 N 
ATOM     13  C   UNL A   1      32.958  27.992  22.274  1.00  0.00     0.136 C 
ATOM     14  C   UNL A   1      32.878  26.694  23.929  1.00  0.00     0.136 C 
BRANCH  10  15
ATOM     15  C   UNL A   1      32.881  29.721  25.616  1.00  0.00     0.142 C 
ATOM     16  C   UNL A   1      31.649  28.272  27.409  1.00  0.00     0.076 C 
ATOM     17  C   UNL A   1      32.235  29.618  26.999  1.00  0.00     0.192 C 
ATOM     18  N   UNL A   1      33.318  29.987  27.933  1.00  0.00    -0.343 N 
ATOM     19  C   UNL A   1      34.607  29.777  27.274  1.00  0.00     0.261 C 
ATOM     20  H   UNL A   1      33.262  29.405  28.769  1.00  0.00     0.346 HD
ATOM     21  H   UNL A   1      33.223  30.967  28.200  1.00  0.00     0.346 HD
ATOM     22  C   UNL A   1      34.321  29.298  25.864  1.00  0.00     0.081 C 
ENDBRANCH  10  15
ENDBRANCH   7   9
ENDBRANCH   6   7
ENDBRANCH   5   6
ENDBRANCH   4   5
ENDBRANCH   3   4
ENDBRANCH   2   3
ENDBRANCH   1   2
BRANCH   1  23
ATOM     23  O   UNL A   1      37.862  21.117  24.804  1.00  0.00    -0.376 OA
BRANCH  23  24
ATOM     24  C   UNL A   1      38.154  19.740  24.961  1.00  0.00     0.202 C 
BRANCH  24  25
ATOM     25  C   UNL A   1      39.283  19.216  25.871  1.00  0.00     0.261 C 
BRANCH  25  26
ATOM     26  O   UNL A   1      40.564  19.853  25.793  1.00  0.00    -0.460 OA
BRANCH  26  27
ATOM     27  C   UNL A   1      41.240  20.017  26.957  1.00  0.00     0.338 C 
ATOM     28  O   UNL A   1      41.823  19.167  27.598  1.00  0.00    -0.246 OA
BRANCH  27  29
ATOM     29  C   UNL A   1      41.323  21.470  27.221  1.00  0.00     0.060 A 
ATOM     30  C   UNL A   1      40.680  22.366  26.352  1.00  0.00     0.016 A 
ATOM     31  C   UNL A   1      42.039  21.942  28.320  1.00  0.00     0.016 A 
ATOM     32  C   UNL A   1      40.764  23.742  26.576  1.00  0.00     0.010 A 
ATOM     33  C   UNL A   1      42.145  23.318  28.527  1.00  0.00     0.010 A 
ATOM     34  C   UNL A   1      41.532  24.226  27.643  1.00  0.00    -0.014 A 
BRANCH  34  35
ATOM     35  C   UNL A   1      41.887  25.663  27.735  1.00  0.00     0.031 A 
ATOM     36  C   UNL A   1      43.228  26.088  27.205  1.00  0.00     0.074 A 
ATOM     37  C   UNL A   1      41.067  26.563  28.303  1.00  0.00     0.049 A 
ATOM     38  N   UNL A   1      43.853  27.229  27.330  1.00  0.00    -0.248 NA
ATOM     39  C   UNL A   1      43.969  25.076  26.432  1.00  0.00     0.031 C 
ATOM     40  C   UNL A   1      39.718  26.293  28.794  1.00  0.00     0.029 A 
ATOM     41  N   UNL A   1      41.269  27.893  28.584  1.00  0.00    -0.354 N 
ATOM     42  C   UNL A   1      45.059  27.071  26.662  1.00  0.00     0.074 A 
ATOM     43  C   UNL A   1      45.096  25.715  26.160  1.00  0.00     0.031 C 
ATOM     44  C   UNL A   1      39.222  27.418  29.342  1.00  0.00     0.029 A 
ATOM     45  C   UNL A   1      40.236  28.469  29.283  1.00  0.00     0.049 A 
ATOM     46  H   UNL A   1      42.077  28.385  28.311  1.00  0.00     0.167 HD
ATOM     47  C   UNL A   1      46.046  27.979  26.477  1.00  0.00     0.037 A 
ATOM     48  C   UNL A   1      40.145  29.693  29.843  1.00  0.00     0.037 A 
ATOM     49  C   UNL A   1      46.013  29.321  26.991  1.00  0.00     0.049 A 
ATOM     50  C   UNL A   1      41.311  30.648  29.725  1.00  0.00     0.074 A 
ATOM     51  C   UNL A   1      46.975  30.311  26.885  1.00  0.00     0.029 A 
ATOM     52  N   UNL A   1      44.958  29.862  27.709  1.00  0.00    -0.354 N 
ATOM     53  N   UNL A   1      42.454  30.494  29.101  1.00  0.00    -0.248 NA
ATOM     54  C   UNL A   1      41.174  31.951  30.396  1.00  0.00     0.031 C 
ATOM     55  C   UNL A   1      46.520  31.436  27.579  1.00  0.00     0.029 A 
ATOM     56  C   UNL A   1      45.250  31.168  28.063  1.00  0.00     0.049 A 
ATOM     57  H   UNL A   1      44.125  29.388  27.935  1.00  0.00     0.167 HD
ATOM     58  C   UNL A   1      43.143  31.691  29.260  1.00  0.00     0.074 A 
ATOM     59  C   UNL A   1      42.292  32.564  30.038  1.00  0.00     0.031 C 
ATOM     60  C   UNL A   1      44.371  32.039  28.800  1.00  0.00     0.037 A 
BRANCH  47  61
ATOM     61  C   UNL A   1      47.254  27.541  25.703  1.00  0.00     0.064 A 
ATOM     62  C   UNL A   1      47.339  27.719  24.314  1.00  0.00     0.173 A 
ATOM     63  C   UNL A   1      48.356  26.974  26.360  1.00  0.00     0.173 A 
ATOM     64  F   UNL A   1      46.305  28.240  23.636  1.00  0.00    -0.203 F 
ATOM     65  C   UNL A   1      48.472  27.327  23.609  1.00  0.00     0.198 A 
ATOM     66  C   UNL A   1      49.502  26.612  25.657  1.00  0.00     0.198 A 
ATOM     67  F   UNL A   1      48.328  26.783  27.688  1.00  0.00    -0.203 F 
ATOM     68  F   UNL A   1      48.512  27.464  22.276  1.00  0.00    -0.200 F 
ATOM     69  C   UNL A   1      49.557  26.782  24.282  1.00  0.00     0.200 A 
ATOM     70  F   UNL A   1      50.554  26.100  26.310  1.00  0.00    -0.200 F 
ATOM     71  F   UNL A   1      50.652  26.417  23.603  1.00  0.00    -0.200 F 
ENDBRANCH  47  61
BRANCH  48  72
ATOM     72  C   UNL A   1      38.926  30.094  30.598  1.00  0.00     0.064 A 
ATOM     73  C   UNL A   1      37.831  30.675  29.941  1.00  0.00     0.173 A 
ATOM     74  C   UNL A   1      38.855  29.976  31.994  1.00  0.00     0.173 A 
ATOM     75  F   UNL A   1      37.860  30.838  28.609  1.00  0.00    -0.203 F 
ATOM     76  C   UNL A   1      36.732  31.153  30.652  1.00  0.00     0.198 A 
ATOM     77  C   UNL A   1      37.741  30.423  32.701  1.00  0.00     0.198 A 
ATOM     78  F   UNL A   1      39.877  29.436  32.675  1.00  0.00    -0.203 F 
ATOM     79  F   UNL A   1      35.735  31.771  30.004  1.00  0.00    -0.200 F 
ATOM     80  C   UNL A   1      36.686  31.024  32.032  1.00  0.00     0.200 A 
ATOM     81  F   UNL A   1      37.698  30.289  34.034  1.00  0.00    -0.200 F 
ATOM     82  F   UNL A   1      35.636  31.496  32.717  1.00  0.00    -0.200 F 
ENDBRANCH  48  72
BRANCH  60  83
ATOM     83  C   UNL A   1      44.839  33.445  29.043  1.00  0.00     0.064 A 
ATOM     84  C   UNL A   1      45.630  33.785  30.150  1.00  0.00     0.173 A 
ATOM     85  C   UNL A   1      44.545  34.453  28.111  1.00  0.00     0.173 A 
ATOM     86  F   UNL A   1      45.929  32.863  31.076  1.00  0.00    -0.203 F 
ATOM     87  C   UNL A   1      46.092  35.088  30.324  1.00  0.00     0.198 A 
ATOM     88  C   UNL A   1      45.037  35.745  28.271  1.00  0.00     0.198 A 
ATOM     89  F   UNL A   1      43.801  34.177  27.030  1.00  0.00    -0.203 F 
ATOM     90  F   UNL A   1      46.812  35.401  31.410  1.00  0.00    -0.200 F 
ATOM     91  C   UNL A   1      45.804  36.063  29.380  1.00  0.00     0.200 A 
ATOM     92  F   UNL A   1      44.772  36.679  27.348  1.00  0.00    -0.200 F 
ATOM     93  F   UNL A   1      46.265  37.311  29.541  1.00  0.00    -0.200 F 
ENDBRANCH  60  83
ENDBRANCH  34  35
ENDBRANCH  27  29
ENDBRANCH  26  27
ENDBRANCH  25  26
ENDBRANCH  24  25
ENDBRANCH  23  24
ENDBRANCH   1  23
TORSDOF 18
ENDMDL
MODEL 3
REMARK VINA RESULT:     -10.8      4.883      7.373
REMARK SMILES C[C@H]1[NH2+]CC[C@H]1C(=O)N1CC(C(=O)OCCOCCOCCOC(=O)c2ccc(-c3c4nc(c(-c5c(F)c(F)c(F)c(F)c5F)c5ccc([nH]5)c(-c5c(F)c(F)c(F)c(F)c5F)c5nc(c(-c6c(F)c(F)c(F)c(F)c6F)c6ccc3[nH]6)C=C5)C=C4)cc2)C1
REMARK SMILES IDX 19 1 18 2 17 3 16 4 15 5 14 6 12 7 13 8 11 9 7 10 8 11 9 12
REMARK SMILES IDX 10 13 89 14 6 15 1 16 2 17 3 18 4 19 5 22 20 23 21 24 22 25
REMARK SMILES IDX 23 26 24 27 25 28 26 29 27 30 88 31 28 32 87 33 29 34 30 35
REMARK SMILES IDX 31 36 81 37 32 38 86 39 80 40 82 41 33 42 85 43 79 44 78 45
REMARK SMILES IDX 34 47 66 48 46 49 65 50 47 51 50 52 64 53 83 54 48 55 49 56
REMARK SMILES IDX 63 58 84 59 51 60 35 61 36 62 44 63 37 64 38 65 42 66 45 67
REMARK SMILES IDX 39 68 40 69 43 70 41 71 67 72 68 73 76 74 69 75 70 76 74 77
REMARK SMILES IDX 77 78 71 79 72 80 75 81 73 82 52 83 53 84 61 85 54 86 55 87
REMARK SMILES IDX 59 88 62 89 56 90 57 91 60 92 58 93
REMARK H PARENT 3 20 3 21 82 46 50 57
REMARK Flexibility Score: inf
ROOT
ATOM      1  C   UNL A   1      32.923  35.680  30.809  1.00  0.00     0.188 C 
ENDROOT
BRANCH   1   2
ATOM      2  C   UNL A   1      33.260  36.138  29.377  1.00  0.00     0.188 C 
BRANCH   2   3
ATOM      3  O   UNL A   1      34.092  35.326  28.560  1.00  0.00    -0.376 OA
BRANCH   3   4
ATOM      4  C   UNL A   1      34.158  33.925  28.811  1.00  0.00     0.202 C 
BRANCH   4   5
ATOM      5  C   UNL A   1      33.769  32.943  27.691  1.00  0.00     0.261 C 
BRANCH   5   6
ATOM      6  O   UNL A   1      33.686  31.569  28.115  1.00  0.00    -0.463 OA
BRANCH   6   7
ATOM      7  C   UNL A   1      34.154  30.615  27.252  1.00  0.00     0.312 C 
ATOM      8  O   UNL A   1      35.261  30.092  27.368  1.00  0.00    -0.252 OA
BRANCH   7   9
ATOM      9  C   UNL A   1      33.131  30.212  26.175  1.00  0.00     0.138 C 
ATOM     10  C   UNL A   1      31.001  28.423  24.595  1.00  0.00     0.231 C 
ATOM     11  O   UNL A   1      30.571  29.359  23.925  1.00  0.00    -0.274 OA
ATOM     12  N   UNL A   1      31.879  28.608  25.646  1.00  0.00    -0.340 N 
ATOM     13  C   UNL A   1      31.777  29.689  26.641  1.00  0.00     0.136 C 
ATOM     14  C   UNL A   1      33.291  28.909  25.405  1.00  0.00     0.136 C 
BRANCH  10  15
ATOM     15  C   UNL A   1      30.639  26.973  24.297  1.00  0.00     0.142 C 
ATOM     16  C   UNL A   1      32.585  26.697  22.575  1.00  0.00     0.076 C 
ATOM     17  C   UNL A   1      31.159  26.361  22.996  1.00  0.00     0.192 C 
ATOM     18  N   UNL A   1      31.040  24.904  23.208  1.00  0.00    -0.343 N 
ATOM     19  C   UNL A   1      31.007  24.634  24.645  1.00  0.00     0.261 C 
ATOM     20  H   UNL A   1      31.840  24.431  22.789  1.00  0.00     0.346 HD
ATOM     21  H   UNL A   1      30.183  24.562  22.772  1.00  0.00     0.346 HD
ATOM     22  C   UNL A   1      31.066  25.970  25.358  1.00  0.00     0.081 C 
ENDBRANCH  10  15
ENDBRANCH   7   9
ENDBRANCH   6   7
ENDBRANCH   5   6
ENDBRANCH   4   5
ENDBRANCH   3   4
ENDBRANCH   2   3
ENDBRANCH   1   2
BRANCH   1  23
ATOM     23  O   UNL A   1      33.364  36.542  31.826  1.00  0.00    -0.376 OA
BRANCH  23  24
ATOM     24  C   UNL A   1      34.569  36.245  32.508  1.00  0.00     0.202 C 
BRANCH  24  25
ATOM     25  C   UNL A   1      34.923  34.834  33.018  1.00  0.00     0.261 C 
BRANCH  25  26
ATOM     26  O   UNL A   1      35.684  33.976  32.160  1.00  0.00    -0.460 OA
BRANCH  26  27
ATOM     27  C   UNL A   1      35.221  32.713  31.989  1.00  0.00     0.338 C 
ATOM     28  O   UNL A   1      34.073  32.328  32.082  1.00  0.00    -0.246 OA
BRANCH  27  29
ATOM     29  C   UNL A   1      36.338  31.899  31.459  1.00  0.00     0.060 A 
ATOM     30  C   UNL A   1      37.139  31.168  32.349  1.00  0.00     0.016 A 
ATOM     31  C   UNL A   1      36.590  31.866  30.088  1.00  0.00     0.016 A 
ATOM     32  C   UNL A   1      38.209  30.409  31.867  1.00  0.00     0.010 A 
ATOM     33  C   UNL A   1      37.676  31.130  29.611  1.00  0.00     0.010 A 
ATOM     34  C   UNL A   1      38.506  30.420  30.498  1.00  0.00    -0.014 A 
BRANCH  34  35
ATOM     35  C   UNL A   1      39.792  29.879  29.995  1.00  0.00     0.031 A 
ATOM     36  C   UNL A   1      40.954  30.825  29.882  1.00  0.00     0.074 A 
ATOM     37  C   UNL A   1      39.923  28.597  29.612  1.00  0.00     0.049 A 
ATOM     38  N   UNL A   1      42.115  30.659  29.306  1.00  0.00    -0.248 NA
ATOM     39  C   UNL A   1      40.773  32.149  30.503  1.00  0.00     0.031 C 
ATOM     40  C   UNL A   1      38.896  27.565  29.732  1.00  0.00     0.029 A 
ATOM     41  N   UNL A   1      40.981  27.953  29.017  1.00  0.00    -0.354 N 
ATOM     42  C   UNL A   1      42.797  31.855  29.485  1.00  0.00     0.074 A 
ATOM     43  C   UNL A   1      41.912  32.750  30.195  1.00  0.00     0.031 C 
ATOM     44  C   UNL A   1      39.366  26.421  29.200  1.00  0.00     0.029 A 
ATOM     45  C   UNL A   1      40.704  26.656  28.660  1.00  0.00     0.049 A 
ATOM     46  H   UNL A   1      41.853  28.382  28.860  1.00  0.00     0.167 HD
ATOM     47  C   UNL A   1      44.054  32.174  29.098  1.00  0.00     0.037 A 
ATOM     48  C   UNL A   1      41.437  25.778  27.945  1.00  0.00     0.037 A 
ATOM     49  C   UNL A   1      44.927  31.287  28.378  1.00  0.00     0.049 A 
ATOM     50  C   UNL A   1      42.791  26.200  27.420  1.00  0.00     0.074 A 
ATOM     51  C   UNL A   1      46.208  31.523  27.913  1.00  0.00     0.029 A 
ATOM     52  N   UNL A   1      44.604  29.987  28.020  1.00  0.00    -0.354 N 
ATOM     53  N   UNL A   1      43.430  27.334  27.583  1.00  0.00    -0.248 NA
ATOM     54  C   UNL A   1      43.524  25.218  26.606  1.00  0.00     0.031 C 
ATOM     55  C   UNL A   1      46.643  30.382  27.234  1.00  0.00     0.029 A 
ATOM     56  C   UNL A   1      45.657  29.413  27.330  1.00  0.00     0.049 A 
ATOM     57  H   UNL A   1      43.751  29.538  28.225  1.00  0.00     0.167 HD
ATOM     58  C   UNL A   1      44.653  27.180  26.940  1.00  0.00     0.074 A 
ATOM     59  C   UNL A   1      44.670  25.845  26.385  1.00  0.00     0.031 C 
ATOM     60  C   UNL A   1      45.675  28.065  26.823  1.00  0.00     0.037 A 
BRANCH  47  61
ATOM     61  C   UNL A   1      44.552  33.551  29.428  1.00  0.00     0.064 A 
ATOM     62  C   UNL A   1      44.331  34.637  28.569  1.00  0.00     0.173 A 
ATOM     63  C   UNL A   1      45.223  33.795  30.636  1.00  0.00     0.173 A 
ATOM     64  F   UNL A   1      43.711  34.452  27.394  1.00  0.00    -0.203 F 
ATOM     65  C   UNL A   1      44.781  35.912  28.896  1.00  0.00     0.198 A 
ATOM     66  C   UNL A   1      45.643  35.078  30.976  1.00  0.00     0.198 A 
ATOM     67  F   UNL A   1      45.458  32.791  31.495  1.00  0.00    -0.203 F 
ATOM     68  F   UNL A   1      44.600  36.926  28.038  1.00  0.00    -0.200 F 
ATOM     69  C   UNL A   1      45.429  36.134  30.103  1.00  0.00     0.200 A 
ATOM     70  F   UNL A   1      46.256  35.293  32.148  1.00  0.00    -0.200 F 
ATOM     71  F   UNL A   1      45.851  37.364  30.422  1.00  0.00    -0.200 F 
ENDBRANCH  47  61
BRANCH  48  72
ATOM     72  C   UNL A   1      40.912  24.418  27.644  1.00  0.00     0.064 A 
ATOM     73  C   UNL A   1      41.490  23.278  28.222  1.00  0.00     0.173 A 
ATOM     74  C   UNL A   1      39.875  24.220  26.720  1.00  0.00     0.173 A 
ATOM     75  F   UNL A   1      42.506  23.411  29.090  1.00  0.00    -0.203 F 
ATOM     76  C   UNL A   1      41.078  21.997  27.862  1.00  0.00     0.198 A 
ATOM     77  C   UNL A   1      39.440  22.938  26.386  1.00  0.00     0.198 A 
ATOM     78  F   UNL A   1      39.290  25.273  26.129  1.00  0.00    -0.203 F 
ATOM     79  F   UNL A   1      41.700  20.926  28.376  1.00  0.00    -0.200 F 
ATOM     80  C   UNL A   1      40.051  21.828  26.947  1.00  0.00     0.200 A 
ATOM     81  F   UNL A   1      38.441  22.781  25.507  1.00  0.00    -0.200 F 
ATOM     82  F   UNL A   1      39.663  20.595  26.590  1.00  0.00    -0.200 F 
ENDBRANCH  48  72
BRANCH  60  83
ATOM     83  C   UNL A   1      46.932  27.600  26.146  1.00  0.00     0.064 A 
ATOM     84  C   UNL A   1      47.992  27.023  26.859  1.00  0.00     0.173 A 
ATOM     85  C   UNL A   1      47.044  27.672  24.748  1.00  0.00     0.173 A 
ATOM     86  F   UNL A   1      47.941  26.942  28.196  1.00  0.00    -0.203 F 
ATOM     87  C   UNL A   1      49.126  26.554  26.199  1.00  0.00     0.198 A 
ATOM     88  C   UNL A   1      48.164  27.172  24.090  1.00  0.00     0.198 A 
ATOM     89  F   UNL A   1      46.053  28.205  24.017  1.00  0.00    -0.203 F 
ATOM     90  F   UNL A   1      50.146  26.045  26.904  1.00  0.00    -0.200 F 
ATOM     91  C   UNL A   1      49.206  26.620  24.815  1.00  0.00     0.200 A 
ATOM     92  F   UNL A   1      48.229  27.220  22.752  1.00  0.00    -0.200 F 
ATOM     93  F   UNL A   1      50.290  26.152  24.182  1.00  0.00    -0.200 F 
ENDBRANCH  60  83
ENDBRANCH  34  35
ENDBRANCH  27  29
ENDBRANCH  26  27
ENDBRANCH  25  26
ENDBRANCH  24  25
ENDBRANCH  23  24
ENDBRANCH   1  23
TORSDOF 18
ENDMDL
