MODEL 1
REMARK VINA RESULT:     -10.0      0.000      0.000
REMARK SMILES Cc1cscc1-c1noc(SCC(=O)OCCOCCOCCOC(=O)c2ccc(-c3c4nc(c(-c5c(F)c(F)c(F)c(F)c5F)c5ccc([nH]5)c(-c5c(F)c(F)c(F)c(F)c5F)c5nc(c(-c6c(F)c(F)c(F)c(F)c6F)c6ccc3[nH]6)C=C5)C=C4)cc2)n1
REMARK SMILES IDX 19 1 18 2 17 3 16 4 15 5 13 6 14 7 12 8 11 9 10 10 7 11 8 12
REMARK SMILES IDX 90 13 9 14 6 15 1 16 2 17 3 18 4 19 5 20 20 21 21 22 22 23
REMARK SMILES IDX 23 24 24 25 25 26 26 27 27 28 28 29 89 30 29 31 88 32 30 33
REMARK SMILES IDX 31 34 32 35 82 36 33 37 87 38 81 39 83 40 34 41 86 42 80 43
REMARK SMILES IDX 79 44 35 46 67 47 47 48 66 49 48 50 51 51 65 52 84 53 49 54
REMARK SMILES IDX 50 55 64 57 85 58 52 59 36 60 37 61 45 62 38 63 39 64 43 65
REMARK SMILES IDX 46 66 40 67 41 68 44 69 42 70 68 71 69 72 77 73 70 74 71 75
REMARK SMILES IDX 75 76 78 77 72 78 73 79 76 80 74 81 53 82 54 83 62 84 55 85
REMARK SMILES IDX 56 86 60 87 63 88 57 89 58 90 61 91 59 92
REMARK H PARENT 83 45 51 56
REMARK Flexibility Score: inf
ROOT
ATOM      1  C   UNL A   1      34.107  32.316  27.726  1.00  0.00     0.188 C 
ENDROOT
BRANCH   1   2
ATOM      2  O   UNL A   1      33.395  31.150  27.319  1.00  0.00    -0.376 OA
BRANCH   2   3
ATOM      3  C   UNL A   1      34.138  29.930  27.327  1.00  0.00     0.202 C 
BRANCH   3   4
ATOM      4  C   UNL A   1      33.934  29.061  26.070  1.00  0.00     0.261 C 
BRANCH   4   5
ATOM      5  O   UNL A   1      32.608  28.467  26.053  1.00  0.00    -0.463 OA
BRANCH   5   6
ATOM      6  C   UNL A   1      31.733  28.854  25.084  1.00  0.00     0.316 C 
ATOM      7  O   UNL A   1      31.241  29.977  25.028  1.00  0.00    -0.251 OA
BRANCH   6   8
ATOM      8  C   UNL A   1      31.576  27.831  23.947  1.00  0.00     0.202 C 
BRANCH   8   9
ATOM      9  S   UNL A   1      33.020  27.666  22.884  1.00  0.00    -0.053 SA
BRANCH   9  10
ATOM     10  C   UNL A   1      33.495  25.974  22.800  1.00  0.00     0.286 A 
ATOM     11  C   UNL A   1      33.908  23.915  23.131  1.00  0.00     0.204 A 
ATOM     12  N   UNL A   1      33.591  23.960  21.833  1.00  0.00    -0.056 NA
ATOM     13  N   UNL A   1      33.963  25.175  23.745  1.00  0.00    -0.181 NA
ATOM     14  O   UNL A   1      33.312  25.302  21.615  1.00  0.00    -0.327 OA
BRANCH  11  15
ATOM     15  C   UNL A   1      34.343  22.640  23.761  1.00  0.00     0.036 A 
ATOM     16  C   UNL A   1      36.900  23.165  24.366  1.00  0.00     0.046 C 
ATOM     17  C   UNL A   1      35.660  22.327  24.312  1.00  0.00    -0.029 A 
ATOM     18  C   UNL A   1      35.680  21.050  24.851  1.00  0.00     0.069 A 
ATOM     19  S   UNL A   1      34.123  20.387  25.009  1.00  0.00    -0.151 S 
ATOM     20  C   UNL A   1      33.438  21.641  24.070  1.00  0.00     0.077 A 
ENDBRANCH  11  15
ENDBRANCH   9  10
ENDBRANCH   8   9
ENDBRANCH   6   8
ENDBRANCH   5   6
ENDBRANCH   4   5
ENDBRANCH   3   4
ENDBRANCH   2   3
ENDBRANCH   1   2
BRANCH   1  21
ATOM     21  C   UNL A   1      34.447  32.397  29.217  1.00  0.00     0.188 C 
BRANCH  21  22
ATOM     22  O   UNL A   1      34.776  33.735  29.571  1.00  0.00    -0.376 OA
BRANCH  22  23
ATOM     23  C   UNL A   1      34.102  34.706  28.783  1.00  0.00     0.202 C 
BRANCH  23  24
ATOM     24  C   UNL A   1      32.891  35.283  29.542  1.00  0.00     0.261 C 
BRANCH  24  25
ATOM     25  O   UNL A   1      33.115  36.299  30.559  1.00  0.00    -0.460 OA
BRANCH  25  26
ATOM     26  C   UNL A   1      32.829  35.933  31.821  1.00  0.00     0.338 C 
ATOM     27  O   UNL A   1      31.798  36.209  32.405  1.00  0.00    -0.246 OA
BRANCH  26  28
ATOM     28  C   UNL A   1      33.863  35.154  32.516  1.00  0.00     0.060 A 
ATOM     29  C   UNL A   1      35.176  35.636  32.448  1.00  0.00     0.016 A 
ATOM     30  C   UNL A   1      33.619  33.861  32.970  1.00  0.00     0.016 A 
ATOM     31  C   UNL A   1      36.254  34.825  32.789  1.00  0.00     0.010 A 
ATOM     32  C   UNL A   1      34.702  33.051  33.340  1.00  0.00     0.010 A 
ATOM     33  C   UNL A   1      36.025  33.523  33.243  1.00  0.00    -0.014 A 
BRANCH  33  34
ATOM     34  C   UNL A   1      37.151  32.682  33.715  1.00  0.00     0.031 A 
ATOM     35  C   UNL A   1      37.875  32.963  34.996  1.00  0.00     0.074 A 
ATOM     36  C   UNL A   1      37.560  31.675  32.930  1.00  0.00     0.049 A 
ATOM     37  N   UNL A   1      39.027  32.522  35.431  1.00  0.00    -0.248 NA
ATOM     38  C   UNL A   1      37.196  33.867  35.919  1.00  0.00     0.031 C 
ATOM     39  C   UNL A   1      36.906  31.253  31.693  1.00  0.00     0.029 A 
ATOM     40  N   UNL A   1      38.654  30.859  33.037  1.00  0.00    -0.354 N 
ATOM     41  C   UNL A   1      39.227  33.134  36.664  1.00  0.00     0.074 A 
ATOM     42  C   UNL A   1      38.073  33.973  36.908  1.00  0.00     0.031 C 
ATOM     43  C   UNL A   1      37.641  30.290  31.123  1.00  0.00     0.029 A 
ATOM     44  C   UNL A   1      38.842  30.079  31.927  1.00  0.00     0.049 A 
ATOM     45  H   UNL A   1      39.242  30.835  33.826  1.00  0.00     0.167 HD
ATOM     46  C   UNL A   1      40.281  33.001  37.507  1.00  0.00     0.037 A 
ATOM     47  C   UNL A   1      39.895  29.330  31.563  1.00  0.00     0.037 A 
ATOM     48  C   UNL A   1      41.395  32.116  37.266  1.00  0.00     0.049 A 
ATOM     49  C   UNL A   1      41.082  29.237  32.471  1.00  0.00     0.074 A 
ATOM     50  C   UNL A   1      42.488  31.858  38.075  1.00  0.00     0.029 A 
ATOM     51  N   UNL A   1      41.549  31.340  36.127  1.00  0.00    -0.354 N 
ATOM     52  N   UNL A   1      41.295  29.835  33.617  1.00  0.00    -0.248 NA
ATOM     53  C   UNL A   1      42.174  28.359  32.035  1.00  0.00     0.031 C 
ATOM     54  C   UNL A   1      43.325  30.957  37.406  1.00  0.00     0.029 A 
ATOM     55  C   UNL A   1      42.730  30.618  36.202  1.00  0.00     0.049 A 
ATOM     56  H   UNL A   1      40.913  31.306  35.377  1.00  0.00     0.167 HD
ATOM     57  C   UNL A   1      42.533  29.389  34.055  1.00  0.00     0.074 A 
ATOM     58  C   UNL A   1      43.021  28.465  33.050  1.00  0.00     0.031 C 
ATOM     59  C   UNL A   1      43.202  29.709  35.189  1.00  0.00     0.037 A 
BRANCH  46  60
ATOM     60  C   UNL A   1      40.311  33.835  38.757  1.00  0.00     0.064 A 
ATOM     61  C   UNL A   1      39.713  33.411  39.952  1.00  0.00     0.173 A 
ATOM     62  C   UNL A   1      41.031  35.042  38.781  1.00  0.00     0.173 A 
ATOM     63  F   UNL A   1      39.010  32.269  39.987  1.00  0.00    -0.203 F 
ATOM     64  C   UNL A   1      39.825  34.167  41.119  1.00  0.00     0.198 A 
ATOM     65  C   UNL A   1      41.163  35.781  39.953  1.00  0.00     0.198 A 
ATOM     66  F   UNL A   1      41.632  35.491  37.668  1.00  0.00    -0.203 F 
ATOM     67  F   UNL A   1      39.226  33.752  42.244  1.00  0.00    -0.200 F 
ATOM     68  C   UNL A   1      40.557  35.345  41.121  1.00  0.00     0.200 A 
ATOM     69  F   UNL A   1      41.885  36.910  39.956  1.00  0.00    -0.200 F 
ATOM     70  F   UNL A   1      40.681  36.058  42.249  1.00  0.00    -0.200 F 
ENDBRANCH  46  60
BRANCH  47  71
ATOM     71  C   UNL A   1      39.853  28.643  30.252  1.00  0.00     0.064 A 
ATOM     72  C   UNL A   1      40.413  29.238  29.116  1.00  0.00     0.173 A 
ATOM     73  C   UNL A   1      39.333  27.346  30.132  1.00  0.00     0.173 A 
ATOM     74  F   UNL A   1      40.910  30.481  29.190  1.00  0.00    -0.203 F 
ATOM     75  C   UNL A   1      40.458  28.557  27.904  1.00  0.00     0.198 A 
ATOM     76  C   UNL A   1      39.401  26.658  28.926  1.00  0.00     0.198 A 
ATOM     77  F   UNL A   1      38.800  26.733  31.200  1.00  0.00    -0.203 F 
ATOM     78  F   UNL A   1      40.987  29.151  26.826  1.00  0.00    -0.200 F 
ATOM     79  C   UNL A   1      39.963  27.264  27.812  1.00  0.00     0.200 A 
ATOM     80  F   UNL A   1      38.941  25.400  28.847  1.00  0.00    -0.200 F 
ATOM     81  F   UNL A   1      40.030  26.601  26.651  1.00  0.00    -0.200 F 
ENDBRANCH  47  71
BRANCH  59  82
ATOM     82  C   UNL A   1      44.516  29.027  35.415  1.00  0.00     0.064 A 
ATOM     83  C   UNL A   1      45.721  29.592  34.976  1.00  0.00     0.173 A 
ATOM     84  C   UNL A   1      44.571  27.796  36.087  1.00  0.00     0.173 A 
ATOM     85  F   UNL A   1      45.716  30.759  34.312  1.00  0.00    -0.203 F 
ATOM     86  C   UNL A   1      46.932  28.936  35.174  1.00  0.00     0.198 A 
ATOM     87  C   UNL A   1      45.785  27.155  36.306  1.00  0.00     0.198 A 
ATOM     88  F   UNL A   1      43.444  27.217  36.531  1.00  0.00    -0.203 F 
ATOM     89  F   UNL A   1      48.067  29.469  34.701  1.00  0.00    -0.200 F 
ATOM     90  C   UNL A   1      46.964  27.720  35.842  1.00  0.00     0.200 A 
ATOM     91  F   UNL A   1      45.816  25.984  36.958  1.00  0.00    -0.200 F 
ATOM     92  F   UNL A   1      48.130  27.087  36.030  1.00  0.00    -0.200 F 
ENDBRANCH  59  82
ENDBRANCH  33  34
ENDBRANCH  26  28
ENDBRANCH  25  26
ENDBRANCH  24  25
ENDBRANCH  23  24
ENDBRANCH  22  23
ENDBRANCH  21  22
ENDBRANCH   1  21
TORSDOF 20
ENDMDL
MODEL 2
REMARK VINA RESULT:      -9.9      5.466      9.383
REMARK SMILES Cc1cscc1-c1noc(SCC(=O)OCCOCCOCCOC(=O)c2ccc(-c3c4nc(c(-c5c(F)c(F)c(F)c(F)c5F)c5ccc([nH]5)c(-c5c(F)c(F)c(F)c(F)c5F)c5nc(c(-c6c(F)c(F)c(F)c(F)c6F)c6ccc3[nH]6)C=C5)C=C4)cc2)n1
REMARK SMILES IDX 19 1 18 2 17 3 16 4 15 5 13 6 14 7 12 8 11 9 10 10 7 11 8 12
REMARK SMILES IDX 90 13 9 14 6 15 1 16 2 17 3 18 4 19 5 20 20 21 21 22 22 23
REMARK SMILES IDX 23 24 24 25 25 26 26 27 27 28 28 29 89 30 29 31 88 32 30 33
REMARK SMILES IDX 31 34 32 35 82 36 33 37 87 38 81 39 83 40 34 41 86 42 80 43
REMARK SMILES IDX 79 44 35 46 67 47 47 48 66 49 48 50 51 51 65 52 84 53 49 54
REMARK SMILES IDX 50 55 64 57 85 58 52 59 36 60 37 61 45 62 38 63 39 64 43 65
REMARK SMILES IDX 46 66 40 67 41 68 44 69 42 70 68 71 69 72 77 73 70 74 71 75
REMARK SMILES IDX 75 76 78 77 72 78 73 79 76 80 74 81 53 82 54 83 62 84 55 85
REMARK SMILES IDX 56 86 60 87 63 88 57 89 58 90 61 91 59 92
REMARK H PARENT 83 45 51 56
REMARK Flexibility Score: inf
ROOT
ATOM      1  C   UNL A   1      34.118  24.178  26.048  1.00  0.00     0.188 C 
ENDROOT
BRANCH   1   2
ATOM      2  O   UNL A   1      34.318  25.323  25.222  1.00  0.00    -0.376 OA
BRANCH   2   3
ATOM      3  C   UNL A   1      33.722  26.537  25.682  1.00  0.00     0.202 C 
BRANCH   3   4
ATOM      4  C   UNL A   1      32.983  27.329  24.586  1.00  0.00     0.261 C 
BRANCH   4   5
ATOM      5  O   UNL A   1      31.549  27.344  24.825  1.00  0.00    -0.463 OA
BRANCH   5   6
ATOM      6  C   UNL A   1      30.730  26.757  23.909  1.00  0.00     0.316 C 
ATOM      7  O   UNL A   1      30.297  27.339  22.920  1.00  0.00    -0.251 OA
BRANCH   6   8
ATOM      8  C   UNL A   1      30.562  25.242  24.110  1.00  0.00     0.202 C 
BRANCH   8   9
ATOM      9  S   UNL A   1      31.597  24.227  23.041  1.00  0.00    -0.053 SA
BRANCH   9  10
ATOM     10  C   UNL A   1      31.689  22.596  23.694  1.00  0.00     0.286 A 
ATOM     11  C   UNL A   1      32.192  20.604  24.243  1.00  0.00     0.204 A 
ATOM     12  N   UNL A   1      31.587  21.081  25.336  1.00  0.00    -0.056 NA
ATOM     13  N   UNL A   1      32.178  21.491  23.157  1.00  0.00    -0.181 NA
ATOM     14  O   UNL A   1      31.264  22.384  24.985  1.00  0.00    -0.327 OA
BRANCH  11  15
ATOM     15  C   UNL A   1      32.643  19.189  24.184  1.00  0.00     0.036 A 
ATOM     16  C   UNL A   1      32.231  18.584  21.606  1.00  0.00     0.046 C 
ATOM     17  C   UNL A   1      32.666  18.314  23.013  1.00  0.00    -0.029 A 
ATOM     18  C   UNL A   1      33.190  17.071  23.335  1.00  0.00     0.069 A 
ATOM     19  S   UNL A   1      33.938  17.056  24.861  1.00  0.00    -0.151 S 
ATOM     20  C   UNL A   1      33.294  18.592  25.248  1.00  0.00     0.077 A 
ENDBRANCH  11  15
ENDBRANCH   9  10
ENDBRANCH   8   9
ENDBRANCH   6   8
ENDBRANCH   5   6
ENDBRANCH   4   5
ENDBRANCH   3   4
ENDBRANCH   2   3
ENDBRANCH   1   2
BRANCH   1  21
ATOM     21  C   UNL A   1      35.327  23.251  26.198  1.00  0.00     0.188 C 
BRANCH  21  22
ATOM     22  O   UNL A   1      34.962  21.915  25.872  1.00  0.00    -0.376 OA
BRANCH  22  23
ATOM     23  C   UNL A   1      35.623  21.420  24.715  1.00  0.00     0.202 C 
BRANCH  23  24
ATOM     24  C   UNL A   1      36.948  20.729  25.095  1.00  0.00     0.261 C 
BRANCH  24  25
ATOM     25  O   UNL A   1      38.184  21.493  25.033  1.00  0.00    -0.460 OA
BRANCH  25  26
ATOM     26  C   UNL A   1      39.065  21.258  26.022  1.00  0.00     0.338 C 
ATOM     27  O   UNL A   1      39.418  20.153  26.386  1.00  0.00    -0.246 OA
BRANCH  26  28
ATOM     28  C   UNL A   1      39.610  22.445  26.694  1.00  0.00     0.060 A 
ATOM     29  C   UNL A   1      39.261  23.693  26.164  1.00  0.00     0.016 A 
ATOM     30  C   UNL A   1      40.645  22.347  27.620  1.00  0.00     0.016 A 
ATOM     31  C   UNL A   1      39.964  24.841  26.516  1.00  0.00     0.010 A 
ATOM     32  C   UNL A   1      41.337  23.507  27.997  1.00  0.00     0.010 A 
ATOM     33  C   UNL A   1      41.008  24.758  27.441  1.00  0.00    -0.014 A 
BRANCH  33  34
ATOM     34  C   UNL A   1      41.695  25.985  27.912  1.00  0.00     0.031 A 
ATOM     35  C   UNL A   1      40.975  27.069  28.654  1.00  0.00     0.074 A 
ATOM     36  C   UNL A   1      42.991  26.141  27.605  1.00  0.00     0.049 A 
ATOM     37  N   UNL A   1      41.328  28.304  28.901  1.00  0.00    -0.248 NA
ATOM     38  C   UNL A   1      39.672  26.701  29.200  1.00  0.00     0.031 C 
ATOM     39  C   UNL A   1      43.826  25.138  26.946  1.00  0.00     0.029 A 
ATOM     40  N   UNL A   1      43.814  27.223  27.767  1.00  0.00    -0.354 N 
ATOM     41  C   UNL A   1      40.264  28.871  29.596  1.00  0.00     0.074 A 
ATOM     42  C   UNL A   1      39.257  27.841  29.736  1.00  0.00     0.031 C 
ATOM     43  C   UNL A   1      45.032  25.671  26.709  1.00  0.00     0.029 A 
ATOM     44  C   UNL A   1      45.024  27.064  27.145  1.00  0.00     0.049 A 
ATOM     45  H   UNL A   1      43.564  28.028  28.276  1.00  0.00     0.167 HD
ATOM     46  C   UNL A   1      40.150  30.136  30.070  1.00  0.00     0.037 A 
ATOM     47  C   UNL A   1      45.991  27.960  26.891  1.00  0.00     0.037 A 
ATOM     48  C   UNL A   1      41.191  31.130  29.966  1.00  0.00     0.049 A 
ATOM     49  C   UNL A   1      45.831  29.372  27.363  1.00  0.00     0.074 A 
ATOM     50  C   UNL A   1      41.209  32.423  30.458  1.00  0.00     0.029 A 
ATOM     51  N   UNL A   1      42.406  30.930  29.326  1.00  0.00    -0.354 N 
ATOM     52  N   UNL A   1      44.820  29.924  27.988  1.00  0.00    -0.248 NA
ATOM     53  C   UNL A   1      46.949  30.283  27.098  1.00  0.00     0.031 C 
ATOM     54  C   UNL A   1      42.417  33.021  30.080  1.00  0.00     0.029 A 
ATOM     55  C   UNL A   1      43.171  32.084  29.393  1.00  0.00     0.049 A 
ATOM     56  H   UNL A   1      42.684  30.093  28.891  1.00  0.00     0.167 HD
ATOM     57  C   UNL A   1      45.188  31.242  28.215  1.00  0.00     0.074 A 
ATOM     58  C   UNL A   1      46.519  31.403  27.663  1.00  0.00     0.031 C 
ATOM     59  C   UNL A   1      44.490  32.227  28.832  1.00  0.00     0.037 A 
BRANCH  46  60
ATOM     60  C   UNL A   1      38.861  30.545  30.724  1.00  0.00     0.064 A 
ATOM     61  C   UNL A   1      38.676  30.486  32.113  1.00  0.00     0.173 A 
ATOM     62  C   UNL A   1      37.821  31.091  29.951  1.00  0.00     0.173 A 
ATOM     63  F   UNL A   1      39.632  29.970  32.899  1.00  0.00    -0.203 F 
ATOM     64  C   UNL A   1      37.498  30.947  32.701  1.00  0.00     0.198 A 
ATOM     65  C   UNL A   1      36.658  31.575  30.544  1.00  0.00     0.198 A 
ATOM     66  F   UNL A   1      37.948  31.182  28.618  1.00  0.00    -0.203 F 
ATOM     67  F   UNL A   1      37.335  30.859  34.028  1.00  0.00    -0.200 F 
ATOM     68  C   UNL A   1      36.495  31.499  31.917  1.00  0.00     0.200 A 
ATOM     69  F   UNL A   1      35.698  32.123  29.785  1.00  0.00    -0.200 F 
ATOM     70  F   UNL A   1      35.373  31.960  32.488  1.00  0.00    -0.200 F 
ENDBRANCH  46  60
BRANCH  47  71
ATOM     71  C   UNL A   1      47.176  27.519  26.121  1.00  0.00     0.064 A 
ATOM     72  C   UNL A   1      47.193  27.606  24.725  1.00  0.00     0.173 A 
ATOM     73  C   UNL A   1      48.342  27.089  26.772  1.00  0.00     0.173 A 
ATOM     74  F   UNL A   1      46.093  28.002  24.067  1.00  0.00    -0.203 F 
ATOM     75  C   UNL A   1      48.337  27.280  24.003  1.00  0.00     0.198 A 
ATOM     76  C   UNL A   1      49.493  26.788  26.051  1.00  0.00     0.198 A 
ATOM     77  F   UNL A   1      48.374  27.007  28.110  1.00  0.00    -0.203 F 
ATOM     78  F   UNL A   1      48.326  27.358  22.666  1.00  0.00    -0.200 F 
ATOM     79  C   UNL A   1      49.489  26.883  24.668  1.00  0.00     0.200 A 
ATOM     80  F   UNL A   1      50.610  26.426  26.697  1.00  0.00    -0.200 F 
ATOM     81  F   UNL A   1      50.598  26.594  23.973  1.00  0.00    -0.200 F 
ENDBRANCH  47  71
BRANCH  59  82
ATOM     82  C   UNL A   1      45.172  33.554  28.970  1.00  0.00     0.064 A 
ATOM     83  C   UNL A   1      45.003  34.568  28.016  1.00  0.00     0.173 A 
ATOM     84  C   UNL A   1      45.998  33.817  30.073  1.00  0.00     0.173 A 
ATOM     85  F   UNL A   1      44.237  34.355  26.935  1.00  0.00    -0.203 F 
ATOM     86  C   UNL A   1      45.660  35.787  28.147  1.00  0.00     0.198 A 
ATOM     87  C   UNL A   1      46.633  35.046  30.214  1.00  0.00     0.198 A 
ATOM     88  F   UNL A   1      46.187  32.879  31.014  1.00  0.00    -0.203 F 
ATOM     89  F   UNL A   1      45.525  36.725  27.199  1.00  0.00    -0.200 F 
ATOM     90  C   UNL A   1      46.471  36.028  29.247  1.00  0.00     0.200 A 
ATOM     91  F   UNL A   1      47.410  35.280  31.280  1.00  0.00    -0.200 F 
ATOM     92  F   UNL A   1      47.105  37.201  29.370  1.00  0.00    -0.200 F 
ENDBRANCH  59  82
ENDBRANCH  33  34
ENDBRANCH  26  28
ENDBRANCH  25  26
ENDBRANCH  24  25
ENDBRANCH  23  24
ENDBRANCH  22  23
ENDBRANCH  21  22
ENDBRANCH   1  21
TORSDOF 20
ENDMDL
MODEL 3
REMARK VINA RESULT:      -9.7      5.550      9.805
REMARK SMILES Cc1cscc1-c1noc(SCC(=O)OCCOCCOCCOC(=O)c2ccc(-c3c4nc(c(-c5c(F)c(F)c(F)c(F)c5F)c5ccc([nH]5)c(-c5c(F)c(F)c(F)c(F)c5F)c5nc(c(-c6c(F)c(F)c(F)c(F)c6F)c6ccc3[nH]6)C=C5)C=C4)cc2)n1
REMARK SMILES IDX 19 1 18 2 17 3 16 4 15 5 13 6 14 7 12 8 11 9 10 10 7 11 8 12
REMARK SMILES IDX 90 13 9 14 6 15 1 16 2 17 3 18 4 19 5 20 20 21 21 22 22 23
REMARK SMILES IDX 23 24 24 25 25 26 26 27 27 28 28 29 89 30 29 31 88 32 30 33
REMARK SMILES IDX 31 34 32 35 82 36 33 37 87 38 81 39 83 40 34 41 86 42 80 43
REMARK SMILES IDX 79 44 35 46 67 47 47 48 66 49 48 50 51 51 65 52 84 53 49 54
REMARK SMILES IDX 50 55 64 57 85 58 52 59 36 60 37 61 45 62 38 63 39 64 43 65
REMARK SMILES IDX 46 66 40 67 41 68 44 69 42 70 68 71 69 72 77 73 70 74 71 75
REMARK SMILES IDX 75 76 78 77 72 78 73 79 76 80 74 81 53 82 54 83 62 84 55 85
REMARK SMILES IDX 56 86 60 87 63 88 57 89 58 90 61 91 59 92
REMARK H PARENT 83 45 51 56
REMARK Flexibility Score: inf
ROOT
ATOM      1  C   UNL A   1      33.312  21.134  26.748  1.00  0.00     0.188 C 
ENDROOT
BRANCH   1   2
ATOM      2  O   UNL A   1      33.355  22.461  27.270  1.00  0.00    -0.376 OA
BRANCH   2   3
ATOM      3  C   UNL A   1      32.335  23.347  26.807  1.00  0.00     0.202 C 
BRANCH   3   4
ATOM      4  C   UNL A   1      31.341  22.702  25.822  1.00  0.00     0.261 C 
BRANCH   4   5
ATOM      5  O   UNL A   1      31.326  23.411  24.553  1.00  0.00    -0.463 OA
BRANCH   5   6
ATOM      6  C   UNL A   1      32.047  22.904  23.515  1.00  0.00     0.316 C 
ATOM      7  O   UNL A   1      32.046  21.715  23.209  1.00  0.00    -0.251 OA
BRANCH   6   8
ATOM      8  C   UNL A   1      32.697  23.979  22.629  1.00  0.00     0.202 C 
BRANCH   8   9
ATOM      9  S   UNL A   1      34.036  24.888  23.419  1.00  0.00    -0.053 SA
BRANCH   9  10
ATOM     10  C   UNL A   1      33.461  26.481  23.893  1.00  0.00     0.286 A 
ATOM     11  C   UNL A   1      33.082  28.367  24.800  1.00  0.00     0.204 A 
ATOM     12  N   UNL A   1      32.865  28.601  23.502  1.00  0.00    -0.056 NA
ATOM     13  N   UNL A   1      33.352  27.023  25.095  1.00  0.00    -0.181 NA
ATOM     14  O   UNL A   1      33.120  27.374  22.905  1.00  0.00    -0.327 OA
BRANCH  11  15
ATOM     15  C   UNL A   1      32.849  29.432  25.811  1.00  0.00     0.036 A 
ATOM     16  C   UNL A   1      35.109  29.336  27.247  1.00  0.00     0.046 C 
ATOM     17  C   UNL A   1      33.756  29.857  26.875  1.00  0.00    -0.029 A 
ATOM     18  C   UNL A   1      33.211  30.908  27.598  1.00  0.00     0.069 A 
ATOM     19  S   UNL A   1      31.851  31.585  26.836  1.00  0.00    -0.151 S 
ATOM     20  C   UNL A   1      31.773  30.295  25.716  1.00  0.00     0.077 A 
ENDBRANCH  11  15
ENDBRANCH   9  10
ENDBRANCH   8   9
ENDBRANCH   6   8
ENDBRANCH   5   6
ENDBRANCH   4   5
ENDBRANCH   3   4
ENDBRANCH   2   3
ENDBRANCH   1   2
BRANCH   1  21
ATOM     21  C   UNL A   1      34.305  20.834  25.622  1.00  0.00     0.188 C 
BRANCH  21  22
ATOM     22  O   UNL A   1      35.196  21.929  25.452  1.00  0.00    -0.376 OA
BRANCH  22  23
ATOM     23  C   UNL A   1      35.988  21.830  24.276  1.00  0.00     0.202 C 
BRANCH  23  24
ATOM     24  C   UNL A   1      37.439  21.445  24.623  1.00  0.00     0.261 C 
BRANCH  24  25
ATOM     25  O   UNL A   1      37.865  21.480  26.014  1.00  0.00    -0.460 OA
BRANCH  25  26
ATOM     26  C   UNL A   1      39.194  21.513  26.216  1.00  0.00     0.338 C 
ATOM     27  O   UNL A   1      39.962  20.618  25.917  1.00  0.00    -0.246 OA
BRANCH  26  28
ATOM     28  C   UNL A   1      39.719  22.729  26.853  1.00  0.00     0.060 A 
ATOM     29  C   UNL A   1      39.368  23.953  26.273  1.00  0.00     0.016 A 
ATOM     30  C   UNL A   1      40.739  22.673  27.799  1.00  0.00     0.016 A 
ATOM     31  C   UNL A   1      40.056  25.120  26.595  1.00  0.00     0.010 A 
ATOM     32  C   UNL A   1      41.414  23.852  28.145  1.00  0.00     0.010 A 
ATOM     33  C   UNL A   1      41.085  25.079  27.539  1.00  0.00    -0.014 A 
BRANCH  33  34
ATOM     34  C   UNL A   1      41.754  26.328  27.977  1.00  0.00     0.031 A 
ATOM     35  C   UNL A   1      41.016  27.423  28.685  1.00  0.00     0.074 A 
ATOM     36  C   UNL A   1      43.049  26.492  27.670  1.00  0.00     0.049 A 
ATOM     37  N   UNL A   1      41.352  28.669  28.898  1.00  0.00    -0.248 NA
ATOM     38  C   UNL A   1      39.716  27.053  29.238  1.00  0.00     0.031 C 
ATOM     39  C   UNL A   1      43.899  25.483  27.042  1.00  0.00     0.029 A 
ATOM     40  N   UNL A   1      43.856  27.590  27.803  1.00  0.00    -0.354 N 
ATOM     41  C   UNL A   1      40.279  29.242  29.573  1.00  0.00     0.074 A 
ATOM     42  C   UNL A   1      39.285  28.203  29.739  1.00  0.00     0.031 C 
ATOM     43  C   UNL A   1      45.098  26.024  26.793  1.00  0.00     0.029 A 
ATOM     44  C   UNL A   1      45.070  27.429  27.189  1.00  0.00     0.049 A 
ATOM     45  H   UNL A   1      43.594  28.405  28.287  1.00  0.00     0.167 HD
ATOM     46  C   UNL A   1      40.146  30.518  30.010  1.00  0.00     0.037 A 
ATOM     47  C   UNL A   1      46.026  28.330  26.912  1.00  0.00     0.037 A 
ATOM     48  C   UNL A   1      41.174  31.522  29.880  1.00  0.00     0.049 A 
ATOM     49  C   UNL A   1      45.845  29.753  27.343  1.00  0.00     0.074 A 
ATOM     50  C   UNL A   1      41.173  32.830  30.335  1.00  0.00     0.029 A 
ATOM     51  N   UNL A   1      42.393  31.321  29.251  1.00  0.00    -0.354 N 
ATOM     52  N   UNL A   1      44.825  30.309  27.949  1.00  0.00    -0.248 NA
ATOM     53  C   UNL A   1      46.953  30.672  27.056  1.00  0.00     0.031 C 
ATOM     54  C   UNL A   1      42.373  33.432  29.944  1.00  0.00     0.029 A 
ATOM     55  C   UNL A   1      43.143  32.486  29.286  1.00  0.00     0.049 A 
ATOM     56  H   UNL A   1      42.684  30.476  28.840  1.00  0.00     0.167 HD
ATOM     57  C   UNL A   1      45.175  31.639  28.139  1.00  0.00     0.074 A 
ATOM     58  C   UNL A   1      46.505  31.802  27.587  1.00  0.00     0.031 C 
ATOM     59  C   UNL A   1      44.462  32.631  28.726  1.00  0.00     0.037 A 
BRANCH  46  60
ATOM     60  C   UNL A   1      38.849  30.928  30.648  1.00  0.00     0.064 A 
ATOM     61  C   UNL A   1      37.721  31.278  29.892  1.00  0.00     0.173 A 
ATOM     62  C   UNL A   1      38.707  30.881  32.046  1.00  0.00     0.173 A 
ATOM     63  F   UNL A   1      37.800  31.342  28.554  1.00  0.00    -0.203 F 
ATOM     64  C   UNL A   1      36.506  31.576  30.509  1.00  0.00     0.198 A 
ATOM     65  C   UNL A   1      37.485  31.153  32.657  1.00  0.00     0.198 A 
ATOM     66  F   UNL A   1      39.750  30.542  32.819  1.00  0.00    -0.203 F 
ATOM     67  F   UNL A   1      35.449  31.929  29.765  1.00  0.00    -0.200 F 
ATOM     68  C   UNL A   1      36.387  31.503  31.889  1.00  0.00     0.200 A 
ATOM     69  F   UNL A   1      37.369  31.066  33.990  1.00  0.00    -0.200 F 
ATOM     70  F   UNL A   1      35.212  31.770  32.477  1.00  0.00    -0.200 F 
ENDBRANCH  46  60
BRANCH  47  71
ATOM     71  C   UNL A   1      47.220  27.884  26.159  1.00  0.00     0.064 A 
ATOM     72  C   UNL A   1      48.358  27.427  26.831  1.00  0.00     0.173 A 
ATOM     73  C   UNL A   1      47.208  27.822  24.757  1.00  0.00     0.173 A 
ATOM     74  F   UNL A   1      48.410  27.480  28.170  1.00  0.00    -0.203 F 
ATOM     75  C   UNL A   1      49.446  26.919  26.127  1.00  0.00     0.198 A 
ATOM     76  C   UNL A   1      48.286  27.292  24.057  1.00  0.00     0.198 A 
ATOM     77  F   UNL A   1      46.130  28.236  24.074  1.00  0.00    -0.203 F 
ATOM     78  F   UNL A   1      50.531  26.499  26.791  1.00  0.00    -0.200 F 
ATOM     79  C   UNL A   1      49.405  26.841  24.742  1.00  0.00     0.200 A 
ATOM     80  F   UNL A   1      48.234  27.198  22.720  1.00  0.00    -0.200 F 
ATOM     81  F   UNL A   1      50.443  26.329  24.068  1.00  0.00    -0.200 F 
ENDBRANCH  47  71
BRANCH  59  82
ATOM     82  C   UNL A   1      45.125  33.970  28.827  1.00  0.00     0.064 A 
ATOM     83  C   UNL A   1      44.961  34.948  27.835  1.00  0.00     0.173 A 
ATOM     84  C   UNL A   1      45.929  34.282  29.934  1.00  0.00     0.173 A 
ATOM     85  F   UNL A   1      44.216  34.687  26.750  1.00  0.00    -0.203 F 
ATOM     86  C   UNL A   1      45.601  36.179  27.933  1.00  0.00     0.198 A 
ATOM     87  C   UNL A   1      46.547  35.524  30.042  1.00  0.00     0.198 A 
ATOM     88  F   UNL A   1      46.113  33.382  30.911  1.00  0.00    -0.203 F 
ATOM     89  F   UNL A   1      45.471  37.080  26.950  1.00  0.00    -0.200 F 
ATOM     90  C   UNL A   1      46.390  36.468  29.037  1.00  0.00     0.200 A 
ATOM     91  F   UNL A   1      47.302  35.805  31.112  1.00  0.00    -0.200 F 
ATOM     92  F   UNL A   1      47.008  37.654  29.129  1.00  0.00    -0.200 F 
ENDBRANCH  59  82
ENDBRANCH  33  34
ENDBRANCH  26  28
ENDBRANCH  25  26
ENDBRANCH  24  25
ENDBRANCH  23  24
ENDBRANCH  22  23
ENDBRANCH  21  22
ENDBRANCH   1  21
TORSDOF 20
ENDMDL
