MODEL 1
REMARK VINA RESULT:     -10.9      0.000      0.000
REMARK SMILES C[C@@H](C(=O)OCCOCCOCCOC(=O)c1ccc(-c2c3nc(c(-c4c(F)c(F)c(F)c(F)c4F)c4ccc([nH]4)c(-c4c(F)c(F)c(F)c(F)c4F)c4nc(c(-c5c(F)c(F)c(F)c(F)c5F)c5ccc2[nH]5)C=C4)C=C3)cc1)c1cccc(C(=O)c2ccccc2)c1
REMARK SMILES IDX 9 1 8 2 7 3 6 4 5 5 3 6 4 7 2 8 1 9 80 10 81 11 93 12 82 13
REMARK SMILES IDX 84 14 83 15 85 16 86 17 87 18 88 19 92 20 89 21 91 22 90 23
REMARK SMILES IDX 10 24 11 25 12 26 13 27 14 28 15 29 16 30 17 31 18 32 79 33
REMARK SMILES IDX 19 34 78 35 20 36 21 37 22 38 72 39 23 40 77 41 71 42 73 43
REMARK SMILES IDX 24 44 76 45 70 46 69 47 25 49 57 50 37 51 56 52 38 53 41 54
REMARK SMILES IDX 55 55 74 56 39 57 40 58 54 60 75 61 42 62 26 63 27 64 35 65
REMARK SMILES IDX 28 66 29 67 33 68 36 69 30 70 31 71 34 72 32 73 58 74 59 75
REMARK SMILES IDX 67 76 60 77 61 78 65 79 68 80 62 81 63 82 66 83 64 84 43 85
REMARK SMILES IDX 44 86 52 87 45 88 46 89 50 90 53 91 47 92 48 93 51 94 49 95
REMARK H PARENT 73 48 41 59
REMARK Flexibility Score: inf
ROOT
ATOM      1  C   UNL A   1      40.442  22.008  26.950  1.00  0.00     0.188 C 
ENDROOT
BRANCH   1   2
ATOM      2  O   UNL A   1      39.353  21.494  26.198  1.00  0.00    -0.376 OA
BRANCH   2   3
ATOM      3  C   UNL A   1      38.410  22.473  25.747  1.00  0.00     0.202 C 
BRANCH   3   4
ATOM      4  C   UNL A   1      37.037  21.910  25.343  1.00  0.00     0.261 C 
BRANCH   4   5
ATOM      5  O   UNL A   1      36.026  22.221  26.335  1.00  0.00    -0.463 OA
BRANCH   5   6
ATOM      6  C   UNL A   1      35.169  23.243  26.047  1.00  0.00     0.313 C 
ATOM      7  O   UNL A   1      35.531  24.373  25.738  1.00  0.00    -0.252 OA
BRANCH   6   8
ATOM      8  C   UNL A   1      33.692  22.831  26.115  1.00  0.00     0.126 C 
ATOM      9  C   UNL A   1      33.338  21.908  27.286  1.00  0.00     0.025 C 
BRANCH   8  10
ATOM     10  C   UNL A   1      33.134  22.224  24.822  1.00  0.00    -0.033 A 
ATOM     11  C   UNL A   1      32.638  23.081  23.824  1.00  0.00     0.004 A 
ATOM     12  C   UNL A   1      33.049  20.838  24.601  1.00  0.00     0.016 A 
ATOM     13  C   UNL A   1      32.055  22.571  22.660  1.00  0.00     0.001 A 
ATOM     14  C   UNL A   1      32.466  20.322  23.438  1.00  0.00     0.023 A 
ATOM     15  C   UNL A   1      31.960  21.194  22.470  1.00  0.00     0.012 A 
BRANCH  14  16
ATOM     16  C   UNL A   1      32.508  18.868  23.142  1.00  0.00     0.193 C 
ATOM     17  O   UNL A   1      32.061  18.483  22.063  1.00  0.00    -0.289 OA
BRANCH  16  18
ATOM     18  C   UNL A   1      33.071  17.859  24.083  1.00  0.00     0.022 A 
ATOM     19  C   UNL A   1      34.387  17.419  23.890  1.00  0.00     0.012 A 
ATOM     20  C   UNL A   1      32.273  17.198  25.020  1.00  0.00     0.012 A 
ATOM     21  C   UNL A   1      34.899  16.345  24.625  1.00  0.00     0.001 A 
ATOM     22  C   UNL A   1      32.793  16.123  25.758  1.00  0.00     0.001 A 
ATOM     23  C   UNL A   1      34.102  15.697  25.563  1.00  0.00     0.000 A 
ENDBRANCH  16  18
ENDBRANCH  14  16
ENDBRANCH   8  10
ENDBRANCH   6   8
ENDBRANCH   5   6
ENDBRANCH   4   5
ENDBRANCH   3   4
ENDBRANCH   2   3
ENDBRANCH   1   2
BRANCH   1  24
ATOM     24  C   UNL A   1      41.828  21.654  26.412  1.00  0.00     0.188 C 
BRANCH  24  25
ATOM     25  O   UNL A   1      42.398  20.539  27.069  1.00  0.00    -0.376 OA
BRANCH  25  26
ATOM     26  C   UNL A   1      42.124  19.244  26.534  1.00  0.00     0.202 C 
BRANCH  26  27
ATOM     27  C   UNL A   1      43.190  18.559  25.658  1.00  0.00     0.261 C 
BRANCH  27  28
ATOM     28  O   UNL A   1      43.484  19.185  24.387  1.00  0.00    -0.460 OA
BRANCH  28  29
ATOM     29  C   UNL A   1      44.767  19.498  24.069  1.00  0.00     0.338 C 
ATOM     30  O   UNL A   1      45.538  18.836  23.421  1.00  0.00    -0.246 OA
BRANCH  29  31
ATOM     31  C   UNL A   1      45.023  20.896  24.530  1.00  0.00     0.060 A 
ATOM     32  C   UNL A   1      44.553  21.962  23.754  1.00  0.00     0.016 A 
ATOM     33  C   UNL A   1      45.655  21.166  25.752  1.00  0.00     0.016 A 
ATOM     34  C   UNL A   1      44.676  23.283  24.218  1.00  0.00     0.010 A 
ATOM     35  C   UNL A   1      45.769  22.485  26.220  1.00  0.00     0.010 A 
ATOM     36  C   UNL A   1      45.282  23.559  25.458  1.00  0.00    -0.014 A 
BRANCH  36  37
ATOM     37  C   UNL A   1      45.575  24.972  25.846  1.00  0.00     0.031 A 
ATOM     38  C   UNL A   1      44.525  25.733  26.579  1.00  0.00     0.074 A 
ATOM     39  C   UNL A   1      46.720  25.613  25.545  1.00  0.00     0.049 A 
ATOM     40  N   UNL A   1      44.571  26.949  27.055  1.00  0.00    -0.248 NA
ATOM     41  C   UNL A   1      43.225  25.065  26.722  1.00  0.00     0.031 C 
ATOM     42  C   UNL A   1      47.733  25.089  24.662  1.00  0.00     0.029 A 
ATOM     43  N   UNL A   1      47.244  26.819  25.952  1.00  0.00    -0.354 N 
ATOM     44  C   UNL A   1      43.289  27.218  27.494  1.00  0.00     0.074 A 
ATOM     45  C   UNL A   1      42.490  26.039  27.230  1.00  0.00     0.031 C 
ATOM     46  C   UNL A   1      48.828  25.862  24.709  1.00  0.00     0.029 A 
ATOM     47  C   UNL A   1      48.564  26.996  25.580  1.00  0.00     0.049 A 
ATOM     48  H   UNL A   1      46.730  27.490  26.457  1.00  0.00     0.167 HD
ATOM     49  C   UNL A   1      42.817  28.361  28.039  1.00  0.00     0.037 A 
ATOM     50  C   UNL A   1      49.453  27.955  25.914  1.00  0.00     0.037 A 
ATOM     51  C   UNL A   1      43.605  29.539  28.278  1.00  0.00     0.049 A 
ATOM     52  C   UNL A   1      48.951  29.147  26.684  1.00  0.00     0.074 A 
ATOM     53  C   UNL A   1      43.207  30.745  28.825  1.00  0.00     0.029 A 
ATOM     54  N   UNL A   1      44.956  29.660  27.980  1.00  0.00    -0.354 N 
ATOM     55  N   UNL A   1      47.746  29.379  27.146  1.00  0.00    -0.248 NA
ATOM     56  C   UNL A   1      49.904  30.242  26.923  1.00  0.00     0.031 C 
ATOM     57  C   UNL A   1      44.311  31.605  28.837  1.00  0.00     0.029 A 
ATOM     58  C   UNL A   1      45.409  30.921  28.341  1.00  0.00     0.049 A 
ATOM     59  H   UNL A   1      45.511  28.956  27.573  1.00  0.00     0.167 HD
ATOM     60  C   UNL A   1      47.787  30.650  27.697  1.00  0.00     0.074 A 
ATOM     61  C   UNL A   1      49.152  31.117  27.576  1.00  0.00     0.031 C 
ATOM     62  C   UNL A   1      46.769  31.377  28.217  1.00  0.00     0.037 A 
BRANCH  49  63
ATOM     63  C   UNL A   1      41.354  28.378  28.348  1.00  0.00     0.064 A 
ATOM     64  C   UNL A   1      40.419  28.889  27.435  1.00  0.00     0.173 A 
ATOM     65  C   UNL A   1      40.893  27.955  29.602  1.00  0.00     0.173 A 
ATOM     66  F   UNL A   1      40.821  29.342  26.238  1.00  0.00    -0.203 F 
ATOM     67  C   UNL A   1      39.080  29.022  27.787  1.00  0.00     0.198 A 
ATOM     68  C   UNL A   1      39.547  28.057  29.937  1.00  0.00     0.198 A 
ATOM     69  F   UNL A   1      41.751  27.473  30.513  1.00  0.00    -0.203 F 
ATOM     70  F   UNL A   1      38.220  29.596  26.935  1.00  0.00    -0.200 F 
ATOM     71  C   UNL A   1      38.645  28.604  29.036  1.00  0.00     0.200 A 
ATOM     72  F   UNL A   1      39.127  27.653  31.144  1.00  0.00    -0.200 F 
ATOM     73  F   UNL A   1      37.358  28.749  29.381  1.00  0.00    -0.200 F 
ENDBRANCH  49  63
BRANCH  50  74
ATOM     74  C   UNL A   1      50.899  27.849  25.554  1.00  0.00     0.064 A 
ATOM     75  C   UNL A   1      51.324  28.150  24.247  1.00  0.00     0.173 A 
ATOM     76  C   UNL A   1      51.875  27.402  26.456  1.00  0.00     0.173 A 
ATOM     77  F   UNL A   1      50.430  28.539  23.326  1.00  0.00    -0.203 F 
ATOM     78  C   UNL A   1      52.653  27.983  23.855  1.00  0.00     0.198 A 
ATOM     79  C   UNL A   1      53.212  27.273  26.073  1.00  0.00     0.198 A 
ATOM     80  F   UNL A   1      51.532  27.073  27.710  1.00  0.00    -0.203 F 
ATOM     81  F   UNL A   1      53.007  28.200  22.580  1.00  0.00    -0.200 F 
ATOM     82  C   UNL A   1      53.598  27.551  24.770  1.00  0.00     0.200 A 
ATOM     83  F   UNL A   1      54.123  26.853  26.962  1.00  0.00    -0.200 F 
ATOM     84  F   UNL A   1      54.871  27.376  24.392  1.00  0.00    -0.200 F 
ENDBRANCH  50  74
BRANCH  62  85
ATOM     85  C   UNL A   1      47.091  32.761  28.694  1.00  0.00     0.064 A 
ATOM     86  C   UNL A   1      47.510  33.004  30.010  1.00  0.00     0.173 A 
ATOM     87  C   UNL A   1      47.028  33.849  27.811  1.00  0.00     0.173 A 
ATOM     88  F   UNL A   1      47.572  31.999  30.897  1.00  0.00    -0.203 F 
ATOM     89  C   UNL A   1      47.842  34.290  30.429  1.00  0.00     0.198 A 
ATOM     90  C   UNL A   1      47.385  35.128  28.226  1.00  0.00     0.198 A 
ATOM     91  F   UNL A   1      46.635  33.667  26.540  1.00  0.00    -0.203 F 
ATOM     92  F   UNL A   1      48.207  34.505  31.701  1.00  0.00    -0.200 F 
ATOM     93  C   UNL A   1      47.787  35.349  29.535  1.00  0.00     0.200 A 
ATOM     94  F   UNL A   1      47.343  36.148  27.358  1.00  0.00    -0.200 F 
ATOM     95  F   UNL A   1      48.118  36.583  29.937  1.00  0.00    -0.200 F 
ENDBRANCH  62  85
ENDBRANCH  36  37
ENDBRANCH  29  31
ENDBRANCH  28  29
ENDBRANCH  27  28
ENDBRANCH  26  27
ENDBRANCH  25  26
ENDBRANCH  24  25
ENDBRANCH   1  24
TORSDOF 20
ENDMDL
MODEL 2
REMARK VINA RESULT:     -10.9      7.741     13.341
REMARK SMILES C[C@@H](C(=O)OCCOCCOCCOC(=O)c1ccc(-c2c3nc(c(-c4c(F)c(F)c(F)c(F)c4F)c4ccc([nH]4)c(-c4c(F)c(F)c(F)c(F)c4F)c4nc(c(-c5c(F)c(F)c(F)c(F)c5F)c5ccc2[nH]5)C=C4)C=C3)cc1)c1cccc(C(=O)c2ccccc2)c1
REMARK SMILES IDX 9 1 8 2 7 3 6 4 5 5 3 6 4 7 2 8 1 9 80 10 81 11 93 12 82 13
REMARK SMILES IDX 84 14 83 15 85 16 86 17 87 18 88 19 92 20 89 21 91 22 90 23
REMARK SMILES IDX 10 24 11 25 12 26 13 27 14 28 15 29 16 30 17 31 18 32 79 33
REMARK SMILES IDX 19 34 78 35 20 36 21 37 22 38 72 39 23 40 77 41 71 42 73 43
REMARK SMILES IDX 24 44 76 45 70 46 69 47 25 49 57 50 37 51 56 52 38 53 41 54
REMARK SMILES IDX 55 55 74 56 39 57 40 58 54 60 75 61 42 62 26 63 27 64 35 65
REMARK SMILES IDX 28 66 29 67 33 68 36 69 30 70 31 71 34 72 32 73 58 74 59 75
REMARK SMILES IDX 67 76 60 77 61 78 65 79 68 80 62 81 63 82 66 83 64 84 43 85
REMARK SMILES IDX 44 86 52 87 45 88 46 89 50 90 53 91 47 92 48 93 51 94 49 95
REMARK H PARENT 73 48 41 59
REMARK Flexibility Score: inf
ROOT
ATOM      1  C   UNL A   1      35.032  32.428  28.411  1.00  0.00     0.188 C 
ENDROOT
BRANCH   1   2
ATOM      2  O   UNL A   1      34.289  31.585  27.543  1.00  0.00    -0.376 OA
BRANCH   2   3
ATOM      3  C   UNL A   1      34.889  30.314  27.268  1.00  0.00     0.202 C 
BRANCH   3   4
ATOM      4  C   UNL A   1      34.136  29.104  27.847  1.00  0.00     0.261 C 
BRANCH   4   5
ATOM      5  O   UNL A   1      33.584  28.273  26.795  1.00  0.00    -0.463 OA
BRANCH   5   6
ATOM      6  C   UNL A   1      32.392  27.659  27.050  1.00  0.00     0.313 C 
ATOM      7  O   UNL A   1      31.591  28.045  27.894  1.00  0.00    -0.252 OA
BRANCH   6   8
ATOM      8  C   UNL A   1      32.133  26.445  26.148  1.00  0.00     0.126 C 
ATOM      9  C   UNL A   1      33.321  25.488  26.005  1.00  0.00     0.025 C 
BRANCH   8  10
ATOM     10  C   UNL A   1      31.602  26.785  24.751  1.00  0.00    -0.033 A 
ATOM     11  C   UNL A   1      32.308  26.331  23.623  1.00  0.00     0.004 A 
ATOM     12  C   UNL A   1      30.458  27.575  24.537  1.00  0.00     0.016 A 
ATOM     13  C   UNL A   1      31.901  26.676  22.330  1.00  0.00     0.001 A 
ATOM     14  C   UNL A   1      30.047  27.925  23.245  1.00  0.00     0.023 A 
ATOM     15  C   UNL A   1      30.778  27.479  22.141  1.00  0.00     0.012 A 
BRANCH  14  16
ATOM     16  C   UNL A   1      28.764  28.635  23.017  1.00  0.00     0.193 C 
ATOM     17  O   UNL A   1      27.717  28.027  23.234  1.00  0.00    -0.289 OA
BRANCH  16  18
ATOM     18  C   UNL A   1      28.685  30.047  22.546  1.00  0.00     0.022 A 
ATOM     19  C   UNL A   1      28.786  31.077  23.491  1.00  0.00     0.012 A 
ATOM     20  C   UNL A   1      28.319  30.370  21.238  1.00  0.00     0.012 A 
ATOM     21  C   UNL A   1      28.535  32.405  23.132  1.00  0.00     0.001 A 
ATOM     22  C   UNL A   1      28.072  31.705  20.882  1.00  0.00     0.001 A 
ATOM     23  C   UNL A   1      28.180  32.721  21.825  1.00  0.00     0.000 A 
ENDBRANCH  16  18
ENDBRANCH  14  16
ENDBRANCH   8  10
ENDBRANCH   6   8
ENDBRANCH   5   6
ENDBRANCH   4   5
ENDBRANCH   3   4
ENDBRANCH   2   3
ENDBRANCH   1   2
BRANCH   1  24
ATOM     24  C   UNL A   1      34.243  33.580  29.031  1.00  0.00     0.188 C 
BRANCH  24  25
ATOM     25  O   UNL A   1      34.777  34.846  28.697  1.00  0.00    -0.376 OA
BRANCH  25  26
ATOM     26  C   UNL A   1      33.923  35.982  28.833  1.00  0.00     0.202 C 
BRANCH  26  27
ATOM     27  C   UNL A   1      32.660  35.866  29.706  1.00  0.00     0.261 C 
BRANCH  27  28
ATOM     28  O   UNL A   1      32.730  36.453  31.027  1.00  0.00    -0.460 OA
BRANCH  28  29
ATOM     29  C   UNL A   1      32.437  35.699  32.118  1.00  0.00     0.338 C 
ATOM     30  O   UNL A   1      31.345  35.496  32.589  1.00  0.00    -0.246 OA
BRANCH  29  31
ATOM     31  C   UNL A   1      33.694  35.021  32.556  1.00  0.00     0.060 A 
ATOM     32  C   UNL A   1      33.632  33.687  32.979  1.00  0.00     0.016 A 
ATOM     33  C   UNL A   1      34.939  35.659  32.486  1.00  0.00     0.016 A 
ATOM     34  C   UNL A   1      34.812  32.988  33.285  1.00  0.00     0.010 A 
ATOM     35  C   UNL A   1      36.118  34.957  32.783  1.00  0.00     0.010 A 
ATOM     36  C   UNL A   1      36.068  33.614  33.188  1.00  0.00    -0.014 A 
BRANCH  36  37
ATOM     37  C   UNL A   1      37.289  32.919  33.699  1.00  0.00     0.031 A 
ATOM     38  C   UNL A   1      38.032  32.025  32.767  1.00  0.00     0.074 A 
ATOM     39  C   UNL A   1      37.741  33.024  34.962  1.00  0.00     0.049 A 
ATOM     40  N   UNL A   1      39.137  31.358  32.973  1.00  0.00    -0.248 NA
ATOM     41  C   UNL A   1      37.404  31.790  31.461  1.00  0.00     0.031 C 
ATOM     42  C   UNL A   1      37.017  33.670  36.030  1.00  0.00     0.029 A 
ATOM     43  N   UNL A   1      38.910  32.620  35.567  1.00  0.00    -0.354 N 
ATOM     44  C   UNL A   1      39.302  30.571  31.849  1.00  0.00     0.074 A 
ATOM     45  C   UNL A   1      38.187  30.846  30.966  1.00  0.00     0.031 C 
ATOM     46  C   UNL A   1      37.800  33.780  37.114  1.00  0.00     0.029 A 
ATOM     47  C   UNL A   1      39.074  33.135  36.840  1.00  0.00     0.049 A 
ATOM     48  H   UNL A   1      39.565  32.023  35.137  1.00  0.00     0.167 HD
ATOM     49  C   UNL A   1      40.282  29.675  31.594  1.00  0.00     0.037 A 
ATOM     50  C   UNL A   1      40.132  33.097  37.676  1.00  0.00     0.037 A 
ATOM     51  C   UNL A   1      41.374  29.386  32.482  1.00  0.00     0.049 A 
ATOM     52  C   UNL A   1      41.304  32.232  37.295  1.00  0.00     0.074 A 
ATOM     53  C   UNL A   1      42.412  28.490  32.306  1.00  0.00     0.029 A 
ATOM     54  N   UNL A   1      41.569  29.987  33.720  1.00  0.00    -0.354 N 
ATOM     55  N   UNL A   1      41.484  31.527  36.205  1.00  0.00    -0.248 NA
ATOM     56  C   UNL A   1      42.389  32.100  38.280  1.00  0.00     0.031 C 
ATOM     57  C   UNL A   1      43.224  28.530  33.446  1.00  0.00     0.029 A 
ATOM     58  C   UNL A   1      42.718  29.485  34.313  1.00  0.00     0.049 A 
ATOM     59  H   UNL A   1      40.979  30.668  34.116  1.00  0.00     0.167 HD
ATOM     60  C   UNL A   1      42.678  30.845  36.386  1.00  0.00     0.074 A 
ATOM     61  C   UNL A   1      43.217  31.271  37.660  1.00  0.00     0.031 C 
ATOM     62  C   UNL A   1      43.247  29.916  35.581  1.00  0.00     0.037 A 
BRANCH  49  63
ATOM     63  C   UNL A   1      40.150  28.914  30.314  1.00  0.00     0.064 A 
ATOM     64  C   UNL A   1      39.530  27.657  30.271  1.00  0.00     0.173 A 
ATOM     65  C   UNL A   1      40.724  29.411  29.136  1.00  0.00     0.173 A 
ATOM     66  F   UNL A   1      39.002  27.125  31.385  1.00  0.00    -0.203 F 
ATOM     67  C   UNL A   1      39.533  26.902  29.103  1.00  0.00     0.198 A 
ATOM     68  C   UNL A   1      40.694  28.668  27.961  1.00  0.00     0.198 A 
ATOM     69  F   UNL A   1      41.341  30.602  29.132  1.00  0.00    -0.203 F 
ATOM     70  F   UNL A   1      39.016  25.665  29.107  1.00  0.00    -0.200 F 
ATOM     71  C   UNL A   1      40.112  27.408  27.950  1.00  0.00     0.200 A 
ATOM     72  F   UNL A   1      41.253  29.158  26.847  1.00  0.00    -0.200 F 
ATOM     73  F   UNL A   1      40.131  26.673  26.829  1.00  0.00    -0.200 F 
ENDBRANCH  49  63
BRANCH  50  74
ATOM     74  C   UNL A   1      40.167  33.893  38.940  1.00  0.00     0.064 A 
ATOM     75  C   UNL A   1      39.546  33.400  40.101  1.00  0.00     0.173 A 
ATOM     76  C   UNL A   1      40.753  35.164  39.021  1.00  0.00     0.173 A 
ATOM     77  F   UNL A   1      38.928  32.209  40.076  1.00  0.00    -0.203 F 
ATOM     78  C   UNL A   1      39.488  34.153  41.275  1.00  0.00     0.198 A 
ATOM     79  C   UNL A   1      40.730  35.901  40.207  1.00  0.00     0.198 A 
ATOM     80  F   UNL A   1      41.339  35.705  37.942  1.00  0.00    -0.203 F 
ATOM     81  F   UNL A   1      38.817  33.686  42.338  1.00  0.00    -0.200 F 
ATOM     82  C   UNL A   1      40.086  35.400  41.329  1.00  0.00     0.200 A 
ATOM     83  F   UNL A   1      41.309  37.109  40.254  1.00  0.00    -0.200 F 
ATOM     84  F   UNL A   1      40.020  36.132  42.450  1.00  0.00    -0.200 F 
ENDBRANCH  50  74
BRANCH  62  85
ATOM     85  C   UNL A   1      44.525  29.291  36.056  1.00  0.00     0.064 A 
ATOM     86  C   UNL A   1      45.769  29.894  35.818  1.00  0.00     0.173 A 
ATOM     87  C   UNL A   1      44.500  28.103  36.802  1.00  0.00     0.173 A 
ATOM     88  F   UNL A   1      45.846  31.023  35.097  1.00  0.00    -0.203 F 
ATOM     89  C   UNL A   1      46.944  29.322  36.297  1.00  0.00     0.198 A 
ATOM     90  C   UNL A   1      45.674  27.549  37.301  1.00  0.00     0.198 A 
ATOM     91  F   UNL A   1      43.335  27.490  37.058  1.00  0.00    -0.203 F 
ATOM     92  F   UNL A   1      48.125  29.896  36.028  1.00  0.00    -0.200 F 
ATOM     93  C   UNL A   1      46.895  28.155  37.045  1.00  0.00     0.200 A 
ATOM     94  F   UNL A   1      45.625  26.428  38.033  1.00  0.00    -0.200 F 
ATOM     95  F   UNL A   1      48.026  27.612  37.515  1.00  0.00    -0.200 F 
ENDBRANCH  62  85
ENDBRANCH  36  37
ENDBRANCH  29  31
ENDBRANCH  28  29
ENDBRANCH  27  28
ENDBRANCH  26  27
ENDBRANCH  25  26
ENDBRANCH  24  25
ENDBRANCH   1  24
TORSDOF 20
ENDMDL
MODEL 3
REMARK VINA RESULT:     -10.7      7.492     12.587
REMARK SMILES C[C@@H](C(=O)OCCOCCOCCOC(=O)c1ccc(-c2c3nc(c(-c4c(F)c(F)c(F)c(F)c4F)c4ccc([nH]4)c(-c4c(F)c(F)c(F)c(F)c4F)c4nc(c(-c5c(F)c(F)c(F)c(F)c5F)c5ccc2[nH]5)C=C4)C=C3)cc1)c1cccc(C(=O)c2ccccc2)c1
REMARK SMILES IDX 9 1 8 2 7 3 6 4 5 5 3 6 4 7 2 8 1 9 80 10 81 11 93 12 82 13
REMARK SMILES IDX 84 14 83 15 85 16 86 17 87 18 88 19 92 20 89 21 91 22 90 23
REMARK SMILES IDX 10 24 11 25 12 26 13 27 14 28 15 29 16 30 17 31 18 32 79 33
REMARK SMILES IDX 19 34 78 35 20 36 21 37 22 38 72 39 23 40 77 41 71 42 73 43
REMARK SMILES IDX 24 44 76 45 70 46 69 47 25 49 57 50 37 51 56 52 38 53 41 54
REMARK SMILES IDX 55 55 74 56 39 57 40 58 54 60 75 61 42 62 26 63 27 64 35 65
REMARK SMILES IDX 28 66 29 67 33 68 36 69 30 70 31 71 34 72 32 73 58 74 59 75
REMARK SMILES IDX 67 76 60 77 61 78 65 79 68 80 62 81 63 82 66 83 64 84 43 85
REMARK SMILES IDX 44 86 52 87 45 88 46 89 50 90 53 91 47 92 48 93 51 94 49 95
REMARK H PARENT 73 48 41 59
REMARK Flexibility Score: inf
ROOT
ATOM      1  C   UNL A   1      35.332  32.430  28.125  1.00  0.00     0.188 C 
ENDROOT
BRANCH   1   2
ATOM      2  O   UNL A   1      34.655  31.274  27.653  1.00  0.00    -0.376 OA
BRANCH   2   3
ATOM      3  C   UNL A   1      33.227  31.380  27.613  1.00  0.00     0.202 C 
BRANCH   3   4
ATOM      4  C   UNL A   1      32.525  30.328  26.738  1.00  0.00     0.261 C 
BRANCH   4   5
ATOM      5  O   UNL A   1      32.619  29.005  27.325  1.00  0.00    -0.463 OA
BRANCH   5   6
ATOM      6  C   UNL A   1      33.380  28.086  26.664  1.00  0.00     0.313 C 
ATOM      7  O   UNL A   1      34.588  28.198  26.488  1.00  0.00    -0.252 OA
BRANCH   6   8
ATOM      8  C   UNL A   1      32.577  26.869  26.184  1.00  0.00     0.126 C 
ATOM      9  C   UNL A   1      33.339  25.540  26.231  1.00  0.00     0.025 C 
BRANCH   8  10
ATOM     10  C   UNL A   1      31.942  27.025  24.797  1.00  0.00    -0.033 A 
ATOM     11  C   UNL A   1      32.571  26.433  23.688  1.00  0.00     0.004 A 
ATOM     12  C   UNL A   1      30.776  27.777  24.569  1.00  0.00     0.016 A 
ATOM     13  C   UNL A   1      32.068  26.608  22.395  1.00  0.00     0.001 A 
ATOM     14  C   UNL A   1      30.268  27.956  23.277  1.00  0.00     0.023 A 
ATOM     15  C   UNL A   1      30.924  27.376  22.188  1.00  0.00     0.012 A 
BRANCH  14  16
ATOM     16  C   UNL A   1      28.963  28.627  23.054  1.00  0.00     0.193 C 
ATOM     17  O   UNL A   1      27.936  27.981  23.259  1.00  0.00    -0.289 OA
BRANCH  16  18
ATOM     18  C   UNL A   1      28.838  30.042  22.605  1.00  0.00     0.022 A 
ATOM     19  C   UNL A   1      28.944  31.063  23.558  1.00  0.00     0.012 A 
ATOM     20  C   UNL A   1      28.426  30.372  21.311  1.00  0.00     0.012 A 
ATOM     21  C   UNL A   1      28.652  32.389  23.224  1.00  0.00     0.001 A 
ATOM     22  C   UNL A   1      28.139  31.706  20.980  1.00  0.00     0.001 A 
ATOM     23  C   UNL A   1      28.251  32.713  21.932  1.00  0.00     0.000 A 
ENDBRANCH  16  18
ENDBRANCH  14  16
ENDBRANCH   8  10
ENDBRANCH   6   8
ENDBRANCH   5   6
ENDBRANCH   4   5
ENDBRANCH   3   4
ENDBRANCH   2   3
ENDBRANCH   1   2
BRANCH   1  24
ATOM     24  C   UNL A   1      34.442  33.482  28.785  1.00  0.00     0.188 C 
BRANCH  24  25
ATOM     25  O   UNL A   1      34.364  34.676  28.033  1.00  0.00    -0.376 OA
BRANCH  25  26
ATOM     26  C   UNL A   1      33.981  35.868  28.720  1.00  0.00     0.202 C 
BRANCH  26  27
ATOM     27  C   UNL A   1      32.737  35.839  29.628  1.00  0.00     0.261 C 
BRANCH  27  28
ATOM     28  O   UNL A   1      32.904  36.351  30.971  1.00  0.00    -0.460 OA
BRANCH  28  29
ATOM     29  C   UNL A   1      32.656  35.546  32.037  1.00  0.00     0.338 C 
ATOM     30  O   UNL A   1      31.590  35.338  32.559  1.00  0.00    -0.246 OA
BRANCH  29  31
ATOM     31  C   UNL A   1      33.921  34.822  32.366  1.00  0.00     0.060 A 
ATOM     32  C   UNL A   1      35.137  35.511  32.282  1.00  0.00     0.016 A 
ATOM     33  C   UNL A   1      33.915  33.497  32.824  1.00  0.00     0.016 A 
ATOM     34  C   UNL A   1      36.329  34.892  32.696  1.00  0.00     0.010 A 
ATOM     35  C   UNL A   1      35.105  32.883  33.247  1.00  0.00     0.010 A 
ATOM     36  C   UNL A   1      36.326  33.573  33.186  1.00  0.00    -0.014 A 
BRANCH  36  37
ATOM     37  C   UNL A   1      37.620  32.869  33.440  1.00  0.00     0.031 A 
ATOM     38  C   UNL A   1      38.262  33.035  34.774  1.00  0.00     0.074 A 
ATOM     39  C   UNL A   1      38.260  32.119  32.524  1.00  0.00     0.049 A 
ATOM     40  N   UNL A   1      39.356  32.488  35.234  1.00  0.00    -0.248 NA
ATOM     41  C   UNL A   1      37.633  34.008  35.676  1.00  0.00     0.031 C 
ATOM     42  C   UNL A   1      37.882  32.040  31.134  1.00  0.00     0.029 A 
ATOM     43  N   UNL A   1      39.339  31.267  32.610  1.00  0.00    -0.354 N 
ATOM     44  C   UNL A   1      39.584  33.099  36.452  1.00  0.00     0.074 A 
ATOM     45  C   UNL A   1      38.515  34.055  36.659  1.00  0.00     0.031 C 
ATOM     46  C   UNL A   1      38.585  31.075  30.522  1.00  0.00     0.029 A 
ATOM     47  C   UNL A   1      39.532  30.510  31.470  1.00  0.00     0.049 A 
ATOM     48  H   UNL A   1      39.916  31.203  33.406  1.00  0.00     0.167 HD
ATOM     49  C   UNL A   1      40.614  32.901  37.305  1.00  0.00     0.037 A 
ATOM     50  C   UNL A   1      40.367  29.479  31.227  1.00  0.00     0.037 A 
ATOM     51  C   UNL A   1      41.687  31.969  37.088  1.00  0.00     0.049 A 
ATOM     52  C   UNL A   1      41.401  29.146  32.269  1.00  0.00     0.074 A 
ATOM     53  C   UNL A   1      42.774  31.704  37.898  1.00  0.00     0.029 A 
ATOM     54  N   UNL A   1      41.809  31.150  35.972  1.00  0.00    -0.354 N 
ATOM     55  N   UNL A   1      41.585  29.691  33.447  1.00  0.00    -0.248 NA
ATOM     56  C   UNL A   1      42.386  28.107  31.930  1.00  0.00     0.031 C 
ATOM     57  C   UNL A   1      43.569  30.742  37.265  1.00  0.00     0.029 A 
ATOM     58  C   UNL A   1      42.952  30.372  36.081  1.00  0.00     0.049 A 
ATOM     59  H   UNL A   1      41.178  31.125  35.217  1.00  0.00     0.167 HD
ATOM     60  C   UNL A   1      42.718  29.089  33.972  1.00  0.00     0.074 A 
ATOM     61  C   UNL A   1      43.143  28.087  33.018  1.00  0.00     0.031 C 
ATOM     62  C   UNL A   1      43.368  29.377  35.125  1.00  0.00     0.037 A 
BRANCH  49  63
ATOM     63  C   UNL A   1      40.630  33.772  38.520  1.00  0.00     0.064 A 
ATOM     64  C   UNL A   1      39.929  33.419  39.683  1.00  0.00     0.173 A 
ATOM     65  C   UNL A   1      41.286  35.010  38.492  1.00  0.00     0.173 A 
ATOM     66  F   UNL A   1      39.254  32.260  39.740  1.00  0.00    -0.203 F 
ATOM     67  C   UNL A   1      39.842  34.298  40.756  1.00  0.00     0.198 A 
ATOM     68  C   UNL A   1      41.226  35.872  39.581  1.00  0.00     0.198 A 
ATOM     69  F   UNL A   1      41.957  35.397  37.397  1.00  0.00    -0.203 F 
ATOM     70  F   UNL A   1      39.092  33.981  41.820  1.00  0.00    -0.200 F 
ATOM     71  C   UNL A   1      40.492  35.523  40.706  1.00  0.00     0.200 A 
ATOM     72  F   UNL A   1      41.854  37.054  39.532  1.00  0.00    -0.200 F 
ATOM     73  F   UNL A   1      40.393  36.378  41.733  1.00  0.00    -0.200 F 
ENDBRANCH  49  63
BRANCH  50  74
ATOM     74  C   UNL A   1      40.275  28.668  29.975  1.00  0.00     0.064 A 
ATOM     75  C   UNL A   1      39.537  27.471  29.963  1.00  0.00     0.173 A 
ATOM     76  C   UNL A   1      40.946  29.016  28.795  1.00  0.00     0.173 A 
ATOM     77  F   UNL A   1      38.908  27.061  31.075  1.00  0.00    -0.203 F 
ATOM     78  C   UNL A   1      39.498  26.648  28.836  1.00  0.00     0.198 A 
ATOM     79  C   UNL A   1      40.875  28.212  27.655  1.00  0.00     0.198 A 
ATOM     80  F   UNL A   1      41.690  30.132  28.747  1.00  0.00    -0.203 F 
ATOM     81  F   UNL A   1      38.852  25.474  28.886  1.00  0.00    -0.200 F 
ATOM     82  C   UNL A   1      40.161  27.023  27.680  1.00  0.00     0.200 A 
ATOM     83  F   UNL A   1      41.520  28.578  26.538  1.00  0.00    -0.200 F 
ATOM     84  F   UNL A   1      40.137  26.228  26.602  1.00  0.00    -0.200 F 
ENDBRANCH  50  74
BRANCH  62  85
ATOM     85  C   UNL A   1      44.614  28.599  35.421  1.00  0.00     0.064 A 
ATOM     86  C   UNL A   1      44.565  27.352  36.061  1.00  0.00     0.173 A 
ATOM     87  C   UNL A   1      45.866  29.082  35.013  1.00  0.00     0.173 A 
ATOM     88  F   UNL A   1      43.393  26.853  36.483  1.00  0.00    -0.203 F 
ATOM     89  C   UNL A   1      45.728  26.622  36.295  1.00  0.00     0.198 A 
ATOM     90  C   UNL A   1      47.023  28.339  35.226  1.00  0.00     0.198 A 
ATOM     91  F   UNL A   1      45.965  30.269  34.395  1.00  0.00    -0.203 F 
ATOM     92  F   UNL A   1      45.663  25.449  36.940  1.00  0.00    -0.200 F 
ATOM     93  C   UNL A   1      46.954  27.112  35.871  1.00  0.00     0.200 A 
ATOM     94  F   UNL A   1      48.205  28.808  34.805  1.00  0.00    -0.200 F 
ATOM     95  F   UNL A   1      48.071  26.404  36.087  1.00  0.00    -0.200 F 
ENDBRANCH  62  85
ENDBRANCH  36  37
ENDBRANCH  29  31
ENDBRANCH  28  29
ENDBRANCH  27  28
ENDBRANCH  26  27
ENDBRANCH  25  26
ENDBRANCH  24  25
ENDBRANCH   1  24
TORSDOF 20
ENDMDL
