MODEL 1
REMARK VINA RESULT:     -11.4      0.000      0.000
REMARK SMILES C[C@@H]1CN(C(=O)N2CCC(CC(=O)OCCOCCOCCOC(=O)c3ccc(-c4c5nc(c(-c6c(F)c(F)c(F)c(F)c6F)c6ccc([nH]6)c(-c6c(F)c(F)c(F)c(F)c6F)c6nc(c(-c7c(F)c(F)c(F)c(F)c7F)c7ccc4[nH]7)C=C6)C=C5)cc3)CC2)C[C@@H](C)S1
REMARK SMILES IDX 19 1 18 2 17 3 16 4 15 5 14 6 12 7 13 8 11 9 10 10 1 11 2 12
REMARK SMILES IDX 3 13 94 14 4 15 92 16 5 17 91 18 93 19 6 20 7 21 8 22 90 23
REMARK SMILES IDX 9 24 89 25 20 26 21 27 22 28 23 29 24 30 25 31 26 32 27 33
REMARK SMILES IDX 88 34 28 35 87 36 29 37 30 38 31 39 81 40 32 41 86 42 80 43
REMARK SMILES IDX 82 44 33 45 85 46 79 47 78 48 34 50 66 51 46 52 65 53 47 54
REMARK SMILES IDX 50 55 64 56 83 57 48 58 49 59 63 61 84 62 51 63 35 64 36 65
REMARK SMILES IDX 44 66 37 67 38 68 42 69 45 70 39 71 40 72 43 73 41 74 67 75
REMARK SMILES IDX 68 76 76 77 69 78 70 79 74 80 77 81 71 82 72 83 75 84 73 85
REMARK SMILES IDX 52 86 53 87 61 88 54 89 55 90 59 91 62 92 56 93 57 94 60 95
REMARK SMILES IDX 58 96
REMARK H PARENT 82 49 50 60
REMARK Flexibility Score: inf
ROOT
ATOM      1  C   UNL A   1      42.445  20.481  26.247  1.00  0.00     0.188 C 
ENDROOT
BRANCH   1   2
ATOM      2  C   UNL A   1      41.650  20.433  27.551  1.00  0.00     0.188 C 
BRANCH   2   3
ATOM      3  O   UNL A   1      40.406  21.123  27.555  1.00  0.00    -0.376 OA
BRANCH   3   4
ATOM      4  C   UNL A   1      40.191  22.057  26.495  1.00  0.00     0.202 C 
BRANCH   4   5
ATOM      5  C   UNL A   1      38.727  22.367  26.156  1.00  0.00     0.261 C 
BRANCH   5   6
ATOM      6  O   UNL A   1      38.144  21.431  25.227  1.00  0.00    -0.463 OA
BRANCH   6   7
ATOM      7  C   UNL A   1      37.039  21.857  24.565  1.00  0.00     0.306 C 
ATOM      8  O   UNL A   1      36.977  22.883  23.896  1.00  0.00    -0.252 OA
BRANCH   7   9
ATOM      9  C   UNL A   1      35.864  20.898  24.629  1.00  0.00     0.126 C 
BRANCH   9  10
ATOM     10  C   UNL A   1      34.727  21.071  25.662  1.00  0.00     0.003 C 
ATOM     11  C   UNL A   1      33.781  24.585  23.389  1.00  0.00     0.021 C 
ATOM     12  C   UNL A   1      34.030  25.822  24.249  1.00  0.00     0.063 C 
ATOM     13  C   UNL A   1      33.737  25.611  25.745  1.00  0.00     0.135 C 
ATOM     14  S   UNL A   1      33.075  27.244  23.601  1.00  0.00    -0.152 SA
ATOM     15  N   UNL A   1      32.333  25.300  26.015  1.00  0.00    -0.322 N 
ATOM     16  C   UNL A   1      31.406  26.821  24.263  1.00  0.00     0.063 C 
ATOM     17  C   UNL A   1      31.763  24.034  26.037  1.00  0.00     0.320 C 
ATOM     18  C   UNL A   1      31.441  26.440  25.758  1.00  0.00     0.135 C 
ATOM     19  C   UNL A   1      30.519  28.041  24.027  1.00  0.00     0.021 C 
ATOM     20  O   UNL A   1      30.564  23.882  25.789  1.00  0.00    -0.248 OA
ATOM     21  N   UNL A   1      32.577  22.937  26.229  1.00  0.00    -0.325 N 
ATOM     22  C   UNL A   1      32.197  21.660  25.646  1.00  0.00     0.121 C 
ATOM     23  C   UNL A   1      33.647  22.819  27.206  1.00  0.00     0.121 C 
ATOM     24  C   UNL A   1      33.384  21.086  24.877  1.00  0.00     0.026 C 
ATOM     25  C   UNL A   1      34.926  22.328  26.529  1.00  0.00     0.026 C 
ENDBRANCH   9  10
ENDBRANCH   7   9
ENDBRANCH   6   7
ENDBRANCH   5   6
ENDBRANCH   4   5
ENDBRANCH   3   4
ENDBRANCH   2   3
ENDBRANCH   1   2
BRANCH   1  26
ATOM     26  O   UNL A   1      43.619  21.281  26.258  1.00  0.00    -0.376 OA
BRANCH  26  27
ATOM     27  C   UNL A   1      44.371  21.326  25.040  1.00  0.00     0.202 C 
BRANCH  27  28
ATOM     28  C   UNL A   1      44.120  22.509  24.077  1.00  0.00     0.261 C 
BRANCH  28  29
ATOM     29  O   UNL A   1      43.527  23.693  24.657  1.00  0.00    -0.460 OA
BRANCH  29  30
ATOM     30  C   UNL A   1      44.350  24.664  25.117  1.00  0.00     0.338 C 
ATOM     31  O   UNL A   1      45.414  25.002  24.625  1.00  0.00    -0.246 OA
BRANCH  30  32
ATOM     32  C   UNL A   1      43.621  25.458  26.149  1.00  0.00     0.060 A 
ATOM     33  C   UNL A   1      43.899  26.830  26.242  1.00  0.00     0.016 A 
ATOM     34  C   UNL A   1      42.619  24.905  26.954  1.00  0.00     0.016 A 
ATOM     35  C   UNL A   1      43.212  27.637  27.156  1.00  0.00     0.010 A 
ATOM     36  C   UNL A   1      41.941  25.710  27.881  1.00  0.00     0.010 A 
ATOM     37  C   UNL A   1      42.255  27.076  28.010  1.00  0.00    -0.014 A 
BRANCH  37  38
ATOM     38  C   UNL A   1      41.737  27.862  29.164  1.00  0.00     0.031 A 
ATOM     39  C   UNL A   1      42.465  27.760  30.479  1.00  0.00     0.074 A 
ATOM     40  C   UNL A   1      40.671  28.676  29.060  1.00  0.00     0.049 A 
ATOM     41  N   UNL A   1      42.187  28.311  31.634  1.00  0.00    -0.248 NA
ATOM     42  C   UNL A   1      43.673  26.920  30.489  1.00  0.00     0.031 C 
ATOM     43  C   UNL A   1      39.900  28.915  27.844  1.00  0.00     0.029 A 
ATOM     44  N   UNL A   1      40.049  29.454  30.010  1.00  0.00    -0.354 N 
ATOM     45  C   UNL A   1      43.181  27.881  32.505  1.00  0.00     0.074 A 
ATOM     46  C   UNL A   1      44.048  26.998  31.756  1.00  0.00     0.031 C 
ATOM     47  C   UNL A   1      38.900  29.770  28.123  1.00  0.00     0.029 A 
ATOM     48  C   UNL A   1      38.939  30.115  29.544  1.00  0.00     0.049 A 
ATOM     49  H   UNL A   1      40.371  29.531  30.938  1.00  0.00     0.167 HD
ATOM     50  C   UNL A   1      43.362  28.197  33.809  1.00  0.00     0.037 A 
ATOM     51  C   UNL A   1      38.042  30.887  30.195  1.00  0.00     0.037 A 
ATOM     52  C   UNL A   1      42.504  29.072  34.564  1.00  0.00     0.049 A 
ATOM     53  C   UNL A   1      38.215  31.152  31.673  1.00  0.00     0.074 A 
ATOM     54  C   UNL A   1      42.621  29.462  35.886  1.00  0.00     0.029 A 
ATOM     55  N   UNL A   1      41.364  29.685  34.066  1.00  0.00    -0.354 N 
ATOM     56  N   UNL A   1      39.169  30.761  32.482  1.00  0.00    -0.248 NA
ATOM     57  C   UNL A   1      37.180  31.971  32.327  1.00  0.00     0.031 C 
ATOM     58  C   UNL A   1      41.518  30.260  36.208  1.00  0.00     0.029 A 
ATOM     59  C   UNL A   1      40.751  30.423  35.066  1.00  0.00     0.049 A 
ATOM     60  H   UNL A   1      41.040  29.607  33.140  1.00  0.00     0.167 HD
ATOM     61  C   UNL A   1      38.868  31.309  33.725  1.00  0.00     0.074 A 
ATOM     62  C   UNL A   1      37.651  32.074  33.561  1.00  0.00     0.031 C 
ATOM     63  C   UNL A   1      39.543  31.191  34.896  1.00  0.00     0.037 A 
BRANCH  50  64
ATOM     64  C   UNL A   1      44.523  27.563  34.519  1.00  0.00     0.064 A 
ATOM     65  C   UNL A   1      44.433  26.285  35.091  1.00  0.00     0.173 A 
ATOM     66  C   UNL A   1      45.755  28.232  34.598  1.00  0.00     0.173 A 
ATOM     67  F   UNL A   1      43.273  25.610  35.057  1.00  0.00    -0.203 F 
ATOM     68  C   UNL A   1      45.523  25.712  35.740  1.00  0.00     0.198 A 
ATOM     69  C   UNL A   1      46.852  27.641  35.218  1.00  0.00     0.198 A 
ATOM     70  F   UNL A   1      45.896  29.454  34.065  1.00  0.00    -0.203 F 
ATOM     71  F   UNL A   1      45.399  24.512  36.324  1.00  0.00    -0.200 F 
ATOM     72  C   UNL A   1      46.734  26.387  35.796  1.00  0.00     0.200 A 
ATOM     73  F   UNL A   1      48.024  28.290  35.259  1.00  0.00    -0.200 F 
ATOM     74  F   UNL A   1      47.785  25.831  36.414  1.00  0.00    -0.200 F 
ENDBRANCH  50  64
BRANCH  51  75
ATOM     75  C   UNL A   1      36.875  31.456  29.467  1.00  0.00     0.064 A 
ATOM     76  C   UNL A   1      35.812  30.642  29.046  1.00  0.00     0.173 A 
ATOM     77  C   UNL A   1      36.820  32.817  29.134  1.00  0.00     0.173 A 
ATOM     78  F   UNL A   1      35.833  29.327  29.307  1.00  0.00    -0.203 F 
ATOM     79  C   UNL A   1      34.753  31.164  28.305  1.00  0.00     0.198 A 
ATOM     80  C   UNL A   1      35.746  33.344  28.421  1.00  0.00     0.198 A 
ATOM     81  F   UNL A   1      37.816  33.639  29.501  1.00  0.00    -0.203 F 
ATOM     82  F   UNL A   1      33.782  30.352  27.865  1.00  0.00    -0.200 F 
ATOM     83  C   UNL A   1      34.717  32.515  27.998  1.00  0.00     0.200 A 
ATOM     84  F   UNL A   1      35.712  34.653  28.133  1.00  0.00    -0.200 F 
ATOM     85  F   UNL A   1      33.700  33.016  27.284  1.00  0.00    -0.200 F 
ENDBRANCH  51  75
BRANCH  63  86
ATOM     86  C   UNL A   1      39.013  31.939  36.089  1.00  0.00     0.064 A 
ATOM     87  C   UNL A   1      38.150  31.337  37.017  1.00  0.00     0.173 A 
ATOM     88  C   UNL A   1      39.415  33.262  36.333  1.00  0.00     0.173 A 
ATOM     89  F   UNL A   1      37.726  30.079  36.828  1.00  0.00    -0.203 F 
ATOM     90  C   UNL A   1      37.687  32.041  38.127  1.00  0.00     0.198 A 
ATOM     91  C   UNL A   1      38.977  33.951  37.461  1.00  0.00     0.198 A 
ATOM     92  F   UNL A   1      40.248  33.884  35.485  1.00  0.00    -0.203 F 
ATOM     93  F   UNL A   1      36.823  31.462  38.972  1.00  0.00    -0.200 F 
ATOM     94  C   UNL A   1      38.107  33.344  38.352  1.00  0.00     0.200 A 
ATOM     95  F   UNL A   1      39.400  35.203  37.686  1.00  0.00    -0.200 F 
ATOM     96  F   UNL A   1      37.668  34.015  39.426  1.00  0.00    -0.200 F 
ENDBRANCH  63  86
ENDBRANCH  37  38
ENDBRANCH  30  32
ENDBRANCH  29  30
ENDBRANCH  28  29
ENDBRANCH  27  28
ENDBRANCH  26  27
ENDBRANCH   1  26
TORSDOF 18
ENDMDL
MODEL 2
REMARK VINA RESULT:     -11.4      1.386      2.566
REMARK SMILES C[C@@H]1CN(C(=O)N2CCC(CC(=O)OCCOCCOCCOC(=O)c3ccc(-c4c5nc(c(-c6c(F)c(F)c(F)c(F)c6F)c6ccc([nH]6)c(-c6c(F)c(F)c(F)c(F)c6F)c6nc(c(-c7c(F)c(F)c(F)c(F)c7F)c7ccc4[nH]7)C=C6)C=C5)cc3)CC2)C[C@@H](C)S1
REMARK SMILES IDX 19 1 18 2 17 3 16 4 15 5 14 6 12 7 13 8 11 9 10 10 1 11 2 12
REMARK SMILES IDX 3 13 94 14 4 15 92 16 5 17 91 18 93 19 6 20 7 21 8 22 90 23
REMARK SMILES IDX 9 24 89 25 20 26 21 27 22 28 23 29 24 30 25 31 26 32 27 33
REMARK SMILES IDX 88 34 28 35 87 36 29 37 30 38 31 39 81 40 32 41 86 42 80 43
REMARK SMILES IDX 82 44 33 45 85 46 79 47 78 48 34 50 66 51 46 52 65 53 47 54
REMARK SMILES IDX 50 55 64 56 83 57 48 58 49 59 63 61 84 62 51 63 35 64 36 65
REMARK SMILES IDX 44 66 37 67 38 68 42 69 45 70 39 71 40 72 43 73 41 74 67 75
REMARK SMILES IDX 68 76 76 77 69 78 70 79 74 80 77 81 71 82 72 83 75 84 73 85
REMARK SMILES IDX 52 86 53 87 61 88 54 89 55 90 59 91 62 92 56 93 57 94 60 95
REMARK SMILES IDX 58 96
REMARK H PARENT 82 49 50 60
REMARK Flexibility Score: inf
ROOT
ATOM      1  C   UNL A   1      39.920  21.876  26.585  1.00  0.00     0.188 C 
ENDROOT
BRANCH   1   2
ATOM      2  C   UNL A   1      38.593  22.185  25.892  1.00  0.00     0.188 C 
BRANCH   2   3
ATOM      3  O   UNL A   1      37.939  21.086  25.268  1.00  0.00    -0.376 OA
BRANCH   3   4
ATOM      4  C   UNL A   1      36.723  21.376  24.577  1.00  0.00     0.202 C 
BRANCH   4   5
ATOM      5  C   UNL A   1      35.495  20.560  25.001  1.00  0.00     0.261 C 
BRANCH   5   6
ATOM      6  O   UNL A   1      34.249  21.263  24.818  1.00  0.00    -0.463 OA
BRANCH   6   7
ATOM      7  C   UNL A   1      33.810  21.986  25.878  1.00  0.00     0.306 C 
ATOM      8  O   UNL A   1      34.001  21.691  27.053  1.00  0.00    -0.252 OA
BRANCH   7   9
ATOM      9  C   UNL A   1      33.119  23.285  25.505  1.00  0.00     0.126 C 
BRANCH   9  10
ATOM     10  C   UNL A   1      33.884  24.452  24.838  1.00  0.00     0.003 C 
ATOM     11  C   UNL A   1      30.075  26.424  24.914  1.00  0.00     0.021 C 
ATOM     12  C   UNL A   1      29.587  26.630  23.483  1.00  0.00     0.063 C 
ATOM     13  C   UNL A   1      30.716  26.890  22.470  1.00  0.00     0.135 C 
ATOM     14  S   UNL A   1      28.348  27.977  23.424  1.00  0.00    -0.152 SA
ATOM     15  N   UNL A   1      31.458  28.121  22.743  1.00  0.00    -0.322 N 
ATOM     16  C   UNL A   1      29.475  29.435  23.507  1.00  0.00     0.063 C 
ATOM     17  C   UNL A   1      32.575  28.240  23.559  1.00  0.00     0.320 C 
ATOM     18  C   UNL A   1      30.653  29.329  22.516  1.00  0.00     0.135 C 
ATOM     19  C   UNL A   1      28.621  30.666  23.217  1.00  0.00     0.021 C 
ATOM     20  O   UNL A   1      32.836  29.312  24.112  1.00  0.00    -0.248 OA
ATOM     21  N   UNL A   1      33.328  27.117  23.831  1.00  0.00    -0.325 N 
ATOM     22  C   UNL A   1      34.045  27.032  25.094  1.00  0.00     0.121 C 
ATOM     23  C   UNL A   1      33.742  26.103  22.874  1.00  0.00     0.121 C 
ATOM     24  C   UNL A   1      33.731  25.695  25.761  1.00  0.00     0.026 C 
ATOM     25  C   UNL A   1      33.397  24.711  23.401  1.00  0.00     0.026 C 
ENDBRANCH   9  10
ENDBRANCH   7   9
ENDBRANCH   6   7
ENDBRANCH   5   6
ENDBRANCH   4   5
ENDBRANCH   3   4
ENDBRANCH   2   3
ENDBRANCH   1   2
BRANCH   1  26
ATOM     26  O   UNL A   1      40.803  21.008  25.887  1.00  0.00    -0.376 OA
BRANCH  26  27
ATOM     27  C   UNL A   1      42.178  21.046  26.284  1.00  0.00     0.202 C 
BRANCH  27  28
ATOM     28  C   UNL A   1      43.185  21.745  25.344  1.00  0.00     0.261 C 
BRANCH  28  29
ATOM     29  O   UNL A   1      42.802  23.049  24.850  1.00  0.00    -0.460 OA
BRANCH  29  30
ATOM     30  C   UNL A   1      43.633  24.092  25.081  1.00  0.00     0.338 C 
ATOM     31  O   UNL A   1      44.621  24.386  24.429  1.00  0.00    -0.246 OA
BRANCH  30  32
ATOM     32  C   UNL A   1      42.992  25.001  26.077  1.00  0.00     0.060 A 
ATOM     33  C   UNL A   1      43.493  26.306  26.195  1.00  0.00     0.016 A 
ATOM     34  C   UNL A   1      41.867  24.627  26.820  1.00  0.00     0.016 A 
ATOM     35  C   UNL A   1      42.903  27.219  27.076  1.00  0.00     0.010 A 
ATOM     36  C   UNL A   1      41.286  25.537  27.715  1.00  0.00     0.010 A 
ATOM     37  C   UNL A   1      41.819  26.830  27.872  1.00  0.00    -0.014 A 
BRANCH  37  38
ATOM     38  C   UNL A   1      41.378  27.695  29.001  1.00  0.00     0.031 A 
ATOM     39  C   UNL A   1      42.140  27.616  30.298  1.00  0.00     0.074 A 
ATOM     40  C   UNL A   1      40.352  28.559  28.888  1.00  0.00     0.049 A 
ATOM     41  N   UNL A   1      41.927  28.234  31.433  1.00  0.00    -0.248 NA
ATOM     42  C   UNL A   1      43.303  26.715  30.313  1.00  0.00     0.031 C 
ATOM     43  C   UNL A   1      39.557  28.782  27.685  1.00  0.00     0.029 A 
ATOM     44  N   UNL A   1      39.801  29.412  29.818  1.00  0.00    -0.354 N 
ATOM     45  C   UNL A   1      42.924  27.793  32.294  1.00  0.00     0.074 A 
ATOM     46  C   UNL A   1      43.721  26.831  31.564  1.00  0.00     0.031 C 
ATOM     47  C   UNL A   1      38.611  29.701  27.951  1.00  0.00     0.029 A 
ATOM     48  C   UNL A   1      38.712  30.108  29.353  1.00  0.00     0.049 A 
ATOM     49  H   UNL A   1      40.155  29.514  30.732  1.00  0.00     0.167 HD
ATOM     50  C   UNL A   1      43.162  28.159  33.576  1.00  0.00     0.037 A 
ATOM     51  C   UNL A   1      37.878  30.956  29.992  1.00  0.00     0.037 A 
ATOM     52  C   UNL A   1      42.374  29.112  34.312  1.00  0.00     0.049 A 
ATOM     53  C   UNL A   1      38.109  31.280  31.449  1.00  0.00     0.074 A 
ATOM     54  C   UNL A   1      42.552  29.556  35.611  1.00  0.00     0.029 A 
ATOM     55  N   UNL A   1      41.252  29.760  33.819  1.00  0.00    -0.354 N 
ATOM     56  N   UNL A   1      39.067  30.876  32.249  1.00  0.00    -0.248 NA
ATOM     57  C   UNL A   1      37.139  32.182  32.093  1.00  0.00     0.031 C 
ATOM     58  C   UNL A   1      41.502  30.424  35.925  1.00  0.00     0.029 A 
ATOM     59  C   UNL A   1      40.710  30.576  34.799  1.00  0.00     0.049 A 
ATOM     60  H   UNL A   1      40.895  29.657  32.907  1.00  0.00     0.167 HD
ATOM     61  C   UNL A   1      38.834  31.497  33.472  1.00  0.00     0.074 A 
ATOM     62  C   UNL A   1      37.653  32.316  33.307  1.00  0.00     0.031 C 
ATOM     63  C   UNL A   1      39.538  31.398  34.627  1.00  0.00     0.037 A 
BRANCH  50  64
ATOM     64  C   UNL A   1      44.310  27.498  34.282  1.00  0.00     0.064 A 
ATOM     65  C   UNL A   1      44.174  26.250  34.911  1.00  0.00     0.173 A 
ATOM     66  C   UNL A   1      45.575  28.107  34.300  1.00  0.00     0.173 A 
ATOM     67  F   UNL A   1      42.983  25.634  34.936  1.00  0.00    -0.203 F 
ATOM     68  C   UNL A   1      45.253  25.652  35.555  1.00  0.00     0.198 A 
ATOM     69  C   UNL A   1      46.659  27.489  34.915  1.00  0.00     0.198 A 
ATOM     70  F   UNL A   1      45.760  29.297  33.711  1.00  0.00    -0.203 F 
ATOM     71  F   UNL A   1      45.087  24.485  36.193  1.00  0.00    -0.200 F 
ATOM     72  C   UNL A   1      46.497  26.267  35.549  1.00  0.00     0.200 A 
ATOM     73  F   UNL A   1      47.863  28.080  34.897  1.00  0.00    -0.200 F 
ATOM     74  F   UNL A   1      47.537  25.685  36.163  1.00  0.00    -0.200 F 
ENDBRANCH  50  64
BRANCH  51  75
ATOM     75  C   UNL A   1      36.718  31.551  29.271  1.00  0.00     0.064 A 
ATOM     76  C   UNL A   1      36.680  32.918  28.957  1.00  0.00     0.173 A 
ATOM     77  C   UNL A   1      35.604  30.775  28.923  1.00  0.00     0.173 A 
ATOM     78  F   UNL A   1      37.705  33.712  29.301  1.00  0.00    -0.203 F 
ATOM     79  C   UNL A   1      35.565  33.487  28.344  1.00  0.00     0.198 A 
ATOM     80  C   UNL A   1      34.503  31.338  28.281  1.00  0.00     0.198 A 
ATOM     81  F   UNL A   1      35.582  29.464  29.210  1.00  0.00    -0.203 F 
ATOM     82  F   UNL A   1      35.532  34.806  28.111  1.00  0.00    -0.200 F 
ATOM     83  C   UNL A   1      34.480  32.695  28.000  1.00  0.00     0.200 A 
ATOM     84  F   UNL A   1      33.460  30.567  27.944  1.00  0.00    -0.200 F 
ATOM     85  F   UNL A   1      33.408  33.243  27.412  1.00  0.00    -0.200 F 
ENDBRANCH  51  75
BRANCH  63  86
ATOM     86  C   UNL A   1      39.084  32.227  35.798  1.00  0.00     0.064 A 
ATOM     87  C   UNL A   1      38.246  31.705  36.795  1.00  0.00     0.173 A 
ATOM     88  C   UNL A   1      39.536  33.548  35.950  1.00  0.00     0.173 A 
ATOM     89  F   UNL A   1      37.777  30.453  36.696  1.00  0.00    -0.203 F 
ATOM     90  C   UNL A   1      37.854  32.484  37.882  1.00  0.00     0.198 A 
ATOM     91  C   UNL A   1      39.170  34.311  37.055  1.00  0.00     0.198 A 
ATOM     92  F   UNL A   1      40.348  34.094  35.032  1.00  0.00    -0.203 F 
ATOM     93  F   UNL A   1      37.013  31.980  38.796  1.00  0.00    -0.200 F 
ATOM     94  C   UNL A   1      38.323  33.783  38.016  1.00  0.00     0.200 A 
ATOM     95  F   UNL A   1      39.639  35.560  37.190  1.00  0.00    -0.200 F 
ATOM     96  F   UNL A   1      37.953  34.526  39.067  1.00  0.00    -0.200 F 
ENDBRANCH  63  86
ENDBRANCH  37  38
ENDBRANCH  30  32
ENDBRANCH  29  30
ENDBRANCH  28  29
ENDBRANCH  27  28
ENDBRANCH  26  27
ENDBRANCH   1  26
TORSDOF 18
ENDMDL
MODEL 3
REMARK VINA RESULT:     -11.3      3.848      9.068
REMARK SMILES C[C@@H]1CN(C(=O)N2CCC(CC(=O)OCCOCCOCCOC(=O)c3ccc(-c4c5nc(c(-c6c(F)c(F)c(F)c(F)c6F)c6ccc([nH]6)c(-c6c(F)c(F)c(F)c(F)c6F)c6nc(c(-c7c(F)c(F)c(F)c(F)c7F)c7ccc4[nH]7)C=C6)C=C5)cc3)CC2)C[C@@H](C)S1
REMARK SMILES IDX 19 1 18 2 17 3 16 4 15 5 14 6 12 7 13 8 11 9 10 10 1 11 2 12
REMARK SMILES IDX 3 13 94 14 4 15 92 16 5 17 91 18 93 19 6 20 7 21 8 22 90 23
REMARK SMILES IDX 9 24 89 25 20 26 21 27 22 28 23 29 24 30 25 31 26 32 27 33
REMARK SMILES IDX 88 34 28 35 87 36 29 37 30 38 31 39 81 40 32 41 86 42 80 43
REMARK SMILES IDX 82 44 33 45 85 46 79 47 78 48 34 50 66 51 46 52 65 53 47 54
REMARK SMILES IDX 50 55 64 56 83 57 48 58 49 59 63 61 84 62 51 63 35 64 36 65
REMARK SMILES IDX 44 66 37 67 38 68 42 69 45 70 39 71 40 72 43 73 41 74 67 75
REMARK SMILES IDX 68 76 76 77 69 78 70 79 74 80 77 81 71 82 72 83 75 84 73 85
REMARK SMILES IDX 52 86 53 87 61 88 54 89 55 90 59 91 62 92 56 93 57 94 60 95
REMARK SMILES IDX 58 96
REMARK H PARENT 82 49 50 60
REMARK Flexibility Score: inf
ROOT
ATOM      1  C   UNL A   1      34.625  32.948  29.032  1.00  0.00     0.188 C 
ENDROOT
BRANCH   1   2
ATOM      2  C   UNL A   1      35.405  31.996  28.126  1.00  0.00     0.188 C 
BRANCH   2   3
ATOM      3  O   UNL A   1      34.630  31.085  27.357  1.00  0.00    -0.376 OA
BRANCH   3   4
ATOM      4  C   UNL A   1      34.826  29.696  27.624  1.00  0.00     0.202 C 
BRANCH   4   5
ATOM      5  C   UNL A   1      34.049  28.720  26.729  1.00  0.00     0.261 C 
BRANCH   5   6
ATOM      6  O   UNL A   1      33.562  29.323  25.513  1.00  0.00    -0.463 OA
BRANCH   6   7
ATOM      7  C   UNL A   1      32.216  29.424  25.393  1.00  0.00     0.306 C 
ATOM      8  O   UNL A   1      31.498  30.104  26.119  1.00  0.00    -0.252 OA
BRANCH   7   9
ATOM      9  C   UNL A   1      31.637  28.685  24.199  1.00  0.00     0.126 C 
BRANCH   9  10
ATOM     10  C   UNL A   1      30.685  27.479  24.371  1.00  0.00     0.003 C 
ATOM     11  C   UNL A   1      34.312  25.203  24.633  1.00  0.00     0.021 C 
ATOM     12  C   UNL A   1      34.410  24.273  23.426  1.00  0.00     0.063 C 
ATOM     13  C   UNL A   1      33.051  23.748  22.931  1.00  0.00     0.135 C 
ATOM     14  S   UNL A   1      35.543  22.881  23.791  1.00  0.00    -0.152 SA
ATOM     15  N   UNL A   1      32.359  22.925  23.923  1.00  0.00    -0.322 N 
ATOM     16  C   UNL A   1      34.421  21.832  24.813  1.00  0.00     0.063 C 
ATOM     17  C   UNL A   1      31.483  23.382  24.899  1.00  0.00     0.320 C 
ATOM     18  C   UNL A   1      33.034  21.643  24.164  1.00  0.00     0.135 C 
ATOM     19  C   UNL A   1      35.127  20.493  25.003  1.00  0.00     0.021 C 
ATOM     20  O   UNL A   1      31.333  22.754  25.949  1.00  0.00    -0.248 OA
ATOM     21  N   UNL A   1      30.867  24.605  24.726  1.00  0.00    -0.325 N 
ATOM     22  C   UNL A   1      30.500  25.386  25.897  1.00  0.00     0.121 C 
ATOM     23  C   UNL A   1      30.260  25.098  23.501  1.00  0.00     0.121 C 
ATOM     24  C   UNL A   1      31.023  26.811  25.734  1.00  0.00     0.026 C 
ATOM     25  C   UNL A   1      30.779  26.500  23.185  1.00  0.00     0.026 C 
ENDBRANCH   9  10
ENDBRANCH   7   9
ENDBRANCH   6   7
ENDBRANCH   5   6
ENDBRANCH   4   5
ENDBRANCH   3   4
ENDBRANCH   2   3
ENDBRANCH   1   2
BRANCH   1  26
ATOM     26  O   UNL A   1      33.722  33.832  28.382  1.00  0.00    -0.376 OA
BRANCH  26  27
ATOM     27  C   UNL A   1      33.944  35.233  28.584  1.00  0.00     0.202 C 
BRANCH  27  28
ATOM     28  C   UNL A   1      32.902  36.020  29.409  1.00  0.00     0.261 C 
BRANCH  28  29
ATOM     29  O   UNL A   1      32.329  35.331  30.544  1.00  0.00    -0.460 OA
BRANCH  29  30
ATOM     30  C   UNL A   1      32.637  35.772  31.785  1.00  0.00     0.338 C 
ATOM     31  O   UNL A   1      31.951  36.499  32.485  1.00  0.00    -0.246 OA
BRANCH  30  32
ATOM     32  C   UNL A   1      33.812  35.000  32.288  1.00  0.00     0.060 A 
ATOM     33  C   UNL A   1      35.074  35.612  32.236  1.00  0.00     0.016 A 
ATOM     34  C   UNL A   1      33.684  33.741  32.884  1.00  0.00     0.016 A 
ATOM     35  C   UNL A   1      36.204  34.958  32.737  1.00  0.00     0.010 A 
ATOM     36  C   UNL A   1      34.819  33.079  33.372  1.00  0.00     0.010 A 
ATOM     37  C   UNL A   1      36.093  33.670  33.274  1.00  0.00    -0.014 A 
BRANCH  37  38
ATOM     38  C   UNL A   1      37.319  32.868  33.540  1.00  0.00     0.031 A 
ATOM     39  C   UNL A   1      38.067  33.116  34.823  1.00  0.00     0.074 A 
ATOM     40  C   UNL A   1      37.755  31.916  32.694  1.00  0.00     0.049 A 
ATOM     41  N   UNL A   1      39.178  32.579  35.262  1.00  0.00    -0.248 NA
ATOM     42  C   UNL A   1      37.478  34.108  35.736  1.00  0.00     0.031 C 
ATOM     43  C   UNL A   1      37.109  31.530  31.444  1.00  0.00     0.029 A 
ATOM     44  N   UNL A   1      38.861  31.101  32.766  1.00  0.00    -0.354 N 
ATOM     45  C   UNL A   1      39.421  33.170  36.495  1.00  0.00     0.074 A 
ATOM     46  C   UNL A   1      38.363  34.131  36.721  1.00  0.00     0.031 C 
ATOM     47  C   UNL A   1      37.836  30.562  30.858  1.00  0.00     0.029 A 
ATOM     48  C   UNL A   1      39.017  30.281  31.675  1.00  0.00     0.049 A 
ATOM     49  H   UNL A   1      39.484  31.104  33.529  1.00  0.00     0.167 HD
ATOM     50  C   UNL A   1      40.430  32.932  37.368  1.00  0.00     0.037 A 
ATOM     51  C   UNL A   1      40.011  29.424  31.359  1.00  0.00     0.037 A 
ATOM     52  C   UNL A   1      41.488  31.982  37.152  1.00  0.00     0.049 A 
ATOM     53  C   UNL A   1      41.174  29.242  32.306  1.00  0.00     0.074 A 
ATOM     54  C   UNL A   1      42.543  31.663  37.988  1.00  0.00     0.029 A 
ATOM     55  N   UNL A   1      41.634  31.205  36.013  1.00  0.00    -0.354 N 
ATOM     56  N   UNL A   1      41.383  29.788  33.480  1.00  0.00    -0.248 NA
ATOM     57  C   UNL A   1      42.240  28.320  31.881  1.00  0.00     0.031 C 
ATOM     58  C   UNL A   1      43.362  30.740  37.331  1.00  0.00     0.029 A 
ATOM     59  C   UNL A   1      42.779  30.432  36.112  1.00  0.00     0.049 A 
ATOM     60  H   UNL A   1      41.014  31.203  35.248  1.00  0.00     0.167 HD
ATOM     61  C   UNL A   1      42.581  29.253  33.944  1.00  0.00     0.074 A 
ATOM     62  C   UNL A   1      43.046  28.328  32.934  1.00  0.00     0.031 C 
ATOM     63  C   UNL A   1      43.234  29.505  35.106  1.00  0.00     0.037 A 
BRANCH  50  64
ATOM     64  C   UNL A   1      40.455  33.742  38.632  1.00  0.00     0.064 A 
ATOM     65  C   UNL A   1      39.692  33.386  39.755  1.00  0.00     0.173 A 
ATOM     66  C   UNL A   1      41.280  34.873  38.731  1.00  0.00     0.173 A 
ATOM     67  F   UNL A   1      38.875  32.323  39.707  1.00  0.00    -0.203 F 
ATOM     68  C   UNL A   1      39.734  34.148  40.920  1.00  0.00     0.198 A 
ATOM     69  C   UNL A   1      41.345  35.612  39.908  1.00  0.00     0.198 A 
ATOM     70  F   UNL A   1      42.032  35.255  37.688  1.00  0.00    -0.203 F 
ATOM     71  F   UNL A   1      38.959  33.819  41.962  1.00  0.00    -0.200 F 
ATOM     72  C   UNL A   1      40.567  35.255  40.998  1.00  0.00     0.200 A 
ATOM     73  F   UNL A   1      42.160  36.674  39.986  1.00  0.00    -0.200 F 
ATOM     74  F   UNL A   1      40.613  35.983  42.123  1.00  0.00    -0.200 F 
ENDBRANCH  50  64
BRANCH  51  75
ATOM     75  C   UNL A   1      39.975  28.677  30.070  1.00  0.00     0.064 A 
ATOM     76  C   UNL A   1      39.390  27.406  29.982  1.00  0.00     0.173 A 
ATOM     77  C   UNL A   1      40.569  29.201  28.912  1.00  0.00     0.173 A 
ATOM     78  F   UNL A   1      38.841  26.845  31.069  1.00  0.00    -0.203 F 
ATOM     79  C   UNL A   1      39.419  26.680  28.792  1.00  0.00     0.198 A 
ATOM     80  C   UNL A   1      40.569  28.488  27.715  1.00  0.00     0.198 A 
ATOM     81  F   UNL A   1      41.154  30.408  28.944  1.00  0.00    -0.203 F 
ATOM     82  F   UNL A   1      38.904  25.443  28.753  1.00  0.00    -0.200 F 
ATOM     83  C   UNL A   1      40.002  27.224  27.658  1.00  0.00     0.200 A 
ATOM     84  F   UNL A   1      41.127  29.021  26.620  1.00  0.00    -0.200 F 
ATOM     85  F   UNL A   1      40.030  26.525  26.515  1.00  0.00    -0.200 F 
ENDBRANCH  51  75
BRANCH  63  86
ATOM     86  C   UNL A   1      44.501  28.741  35.378  1.00  0.00     0.064 A 
ATOM     87  C   UNL A   1      44.492  27.491  36.014  1.00  0.00     0.173 A 
ATOM     88  C   UNL A   1      45.740  29.246  34.949  1.00  0.00     0.173 A 
ATOM     89  F   UNL A   1      43.338  26.966  36.454  1.00  0.00    -0.203 F 
ATOM     90  C   UNL A   1      45.675  26.790  36.237  1.00  0.00     0.198 A 
ATOM     91  C   UNL A   1      46.916  28.527  35.142  1.00  0.00     0.198 A 
ATOM     92  F   UNL A   1      45.808  30.432  34.325  1.00  0.00    -0.203 F 
ATOM     93  F   UNL A   1      45.646  25.622  36.892  1.00  0.00    -0.200 F 
ATOM     94  C   UNL A   1      46.885  27.305  35.794  1.00  0.00     0.200 A 
ATOM     95  F   UNL A   1      48.081  29.018  34.697  1.00  0.00    -0.200 F 
ATOM     96  F   UNL A   1      48.021  26.624  36.001  1.00  0.00    -0.200 F 
ENDBRANCH  63  86
ENDBRANCH  37  38
ENDBRANCH  30  32
ENDBRANCH  29  30
ENDBRANCH  28  29
ENDBRANCH  27  28
ENDBRANCH  26  27
ENDBRANCH   1  26
TORSDOF 18
ENDMDL
