MODEL 1
REMARK VINA RESULT:     -11.6      0.000      0.000
REMARK SMILES O=C(OCCOCCOCCOC(=O)c1ccccc1-c1ccc(/C=C2/SC(=S)N(Cc3ccccc3)C2=O)o1)c1ccc(-c2c3nc(c(-c4c(F)c(F)c(F)c(F)c4F)c4ccc([nH]4)c(-c4c(F)c(F)c(F)c(F)c4F)c4nc(c(-c5c(F)c(F)c(F)c(F)c5F)c5ccc2[nH]5)C=C4)C=C3)cc1
REMARK SMILES IDX 8 1 7 2 6 3 5 4 4 5 3 6 2 7 1 8 41 9 42 10 103 11 43 12
REMARK SMILES IDX 102 13 44 14 45 15 46 16 96 17 47 18 101 19 95 20 97 21
REMARK SMILES IDX 48 22 100 23 94 24 93 25 49 27 81 28 61 29 80 30 62 31 65 32
REMARK SMILES IDX 79 33 98 34 63 35 64 36 78 38 99 39 66 40 50 41 51 42 59 43
REMARK SMILES IDX 52 44 53 45 57 46 60 47 54 48 55 49 58 50 56 51 82 52 83 53
REMARK SMILES IDX 91 54 84 55 85 56 89 57 92 58 86 59 87 60 90 61 88 62 67 63
REMARK SMILES IDX 68 64 76 65 69 66 70 67 74 68 77 69 71 70 72 71 75 72 73 73
REMARK SMILES IDX 9 74 10 75 11 76 12 77 13 78 14 79 15 80 16 81 20 82 17 83
REMARK SMILES IDX 19 84 18 85 21 86 22 87 40 88 23 89 24 90 25 91 26 92 27 93
REMARK SMILES IDX 38 94 28 95 30 96 39 97 29 98 31 99 32 100 33 101 37 102
REMARK SMILES IDX 34 103 36 104 35 105
REMARK H PARENT 97 26 65 37
REMARK Flexibility Score: inf
ROOT
ATOM      1  C   UNL A   1      29.250  32.258  23.642  1.00  0.00     0.188 C 
ENDROOT
BRANCH   1   2
ATOM      2  C   UNL A   1      30.110  31.732  24.790  1.00  0.00     0.188 C 
BRANCH   2   3
ATOM      3  O   UNL A   1      30.675  32.762  25.605  1.00  0.00    -0.376 OA
BRANCH   3   4
ATOM      4  C   UNL A   1      31.366  32.267  26.759  1.00  0.00     0.202 C 
BRANCH   4   5
ATOM      5  C   UNL A   1      32.562  33.113  27.233  1.00  0.00     0.261 C 
BRANCH   5   6
ATOM      6  O   UNL A   1      32.186  34.317  27.928  1.00  0.00    -0.460 OA
BRANCH   6   7
ATOM      7  C   UNL A   1      32.920  35.062  28.792  1.00  0.00     0.338 C 
ATOM      8  O   UNL A   1      32.552  36.208  29.045  1.00  0.00    -0.246 OA
BRANCH   7   9
ATOM      9  C   UNL A   1      34.159  34.569  29.466  1.00  0.00     0.060 A 
ATOM     10  C   UNL A   1      35.418  34.514  28.870  1.00  0.00     0.016 A 
ATOM     11  C   UNL A   1      34.056  34.182  30.813  1.00  0.00     0.016 A 
ATOM     12  C   UNL A   1      36.510  33.975  29.525  1.00  0.00     0.010 A 
ATOM     13  C   UNL A   1      35.167  33.691  31.507  1.00  0.00     0.010 A 
ATOM     14  C   UNL A   1      36.389  33.543  30.841  1.00  0.00    -0.014 A 
BRANCH  14  15
ATOM     15  C   UNL A   1      37.521  32.795  31.415  1.00  0.00     0.031 A 
ATOM     16  C   UNL A   1      37.953  33.133  32.807  1.00  0.00     0.074 A 
ATOM     17  C   UNL A   1      38.012  31.723  30.770  1.00  0.00     0.049 A 
ATOM     18  N   UNL A   1      38.913  32.616  33.524  1.00  0.00    -0.248 NA
ATOM     19  C   UNL A   1      37.181  34.179  33.497  1.00  0.00     0.031 C 
ATOM     20  C   UNL A   1      37.523  31.226  29.485  1.00  0.00     0.029 A 
ATOM     21  N   UNL A   1      38.989  30.830  31.123  1.00  0.00    -0.354 N 
ATOM     22  C   UNL A   1      38.875  33.290  34.736  1.00  0.00     0.074 A 
ATOM     23  C   UNL A   1      37.809  34.262  34.658  1.00  0.00     0.031 C 
ATOM     24  C   UNL A   1      38.183  30.101  29.172  1.00  0.00     0.029 A 
ATOM     25  C   UNL A   1      39.198  29.854  30.182  1.00  0.00     0.049 A 
ATOM     26  H   UNL A   1      39.491  30.884  31.968  1.00  0.00     0.167 HD
ATOM     27  C   UNL A   1      39.670  33.105  35.815  1.00  0.00     0.037 A 
ATOM     28  C   UNL A   1      40.134  28.889  30.124  1.00  0.00     0.037 A 
ATOM     29  C   UNL A   1      40.720  32.125  35.856  1.00  0.00     0.049 A 
ATOM     30  C   UNL A   1      41.091  28.790  31.277  1.00  0.00     0.074 A 
ATOM     31  C   UNL A   1      41.640  31.880  36.856  1.00  0.00     0.029 A 
ATOM     32  N   UNL A   1      40.985  31.220  34.832  1.00  0.00    -0.354 N 
ATOM     33  N   UNL A   1      41.111  29.483  32.392  1.00  0.00    -0.248 NA
ATOM     34  C   UNL A   1      42.156  27.786  31.171  1.00  0.00     0.031 C 
ATOM     35  C   UNL A   1      42.496  30.865  36.415  1.00  0.00     0.029 A 
ATOM     36  C   UNL A   1      42.071  30.431  35.168  1.00  0.00     0.049 A 
ATOM     37  H   UNL A   1      40.474  31.152  33.993  1.00  0.00     0.167 HD
ATOM     38  C   UNL A   1      42.172  28.987  33.132  1.00  0.00     0.074 A 
ATOM     39  C   UNL A   1      42.760  27.921  32.344  1.00  0.00     0.031 C 
ATOM     40  C   UNL A   1      42.621  29.375  34.352  1.00  0.00     0.037 A 
BRANCH  27  41
ATOM     41  C   UNL A   1      39.473  34.036  36.974  1.00  0.00     0.064 A 
ATOM     42  C   UNL A   1      40.066  35.307  37.024  1.00  0.00     0.173 A 
ATOM     43  C   UNL A   1      38.714  33.624  38.081  1.00  0.00     0.173 A 
ATOM     44  F   UNL A   1      40.830  35.736  36.008  1.00  0.00    -0.203 F 
ATOM     45  C   UNL A   1      39.934  36.116  38.152  1.00  0.00     0.198 A 
ATOM     46  C   UNL A   1      38.559  34.448  39.193  1.00  0.00     0.198 A 
ATOM     47  F   UNL A   1      38.135  32.414  38.091  1.00  0.00    -0.203 F 
ATOM     48  F   UNL A   1      40.565  37.297  38.205  1.00  0.00    -0.200 F 
ATOM     49  C   UNL A   1      39.177  35.688  39.232  1.00  0.00     0.200 A 
ATOM     50  F   UNL A   1      37.826  34.031  40.235  1.00  0.00    -0.200 F 
ATOM     51  F   UNL A   1      39.059  36.462  40.319  1.00  0.00    -0.200 F 
ENDBRANCH  27  41
BRANCH  28  52
ATOM     52  C   UNL A   1      40.233  28.007  28.929  1.00  0.00     0.064 A 
ATOM     53  C   UNL A   1      39.640  26.738  28.900  1.00  0.00     0.173 A 
ATOM     54  C   UNL A   1      40.936  28.417  27.782  1.00  0.00     0.173 A 
ATOM     55  F   UNL A   1      38.973  26.286  29.972  1.00  0.00    -0.203 F 
ATOM     56  C   UNL A   1      39.762  25.907  27.785  1.00  0.00     0.198 A 
ATOM     57  C   UNL A   1      41.033  27.598  26.659  1.00  0.00     0.198 A 
ATOM     58  F   UNL A   1      41.523  29.624  27.748  1.00  0.00    -0.203 F 
ATOM     59  F   UNL A   1      39.227  24.679  27.807  1.00  0.00    -0.200 F 
ATOM     60  C   UNL A   1      40.457  26.339  26.665  1.00  0.00     0.200 A 
ATOM     61  F   UNL A   1      41.698  28.029  25.576  1.00  0.00    -0.200 F 
ATOM     62  F   UNL A   1      40.590  25.533  25.603  1.00  0.00    -0.200 F 
ENDBRANCH  28  52
BRANCH  40  63
ATOM     63  C   UNL A   1      43.778  28.609  34.917  1.00  0.00     0.064 A 
ATOM     64  C   UNL A   1      43.592  27.447  35.678  1.00  0.00     0.173 A 
ATOM     65  C   UNL A   1      45.092  29.025  34.653  1.00  0.00     0.173 A 
ATOM     66  F   UNL A   1      42.353  27.022  35.970  1.00  0.00    -0.203 F 
ATOM     67  C   UNL A   1      44.681  26.742  36.178  1.00  0.00     0.198 A 
ATOM     68  C   UNL A   1      46.178  28.298  35.125  1.00  0.00     0.198 A 
ATOM     69  F   UNL A   1      45.319  30.127  33.923  1.00  0.00    -0.203 F 
ATOM     70  F   UNL A   1      44.481  25.663  36.948  1.00  0.00    -0.200 F 
ATOM     71  C   UNL A   1      45.972  27.162  35.894  1.00  0.00     0.200 A 
ATOM     72  F   UNL A   1      47.425  28.695  34.834  1.00  0.00    -0.200 F 
ATOM     73  F   UNL A   1      47.021  26.475  36.367  1.00  0.00    -0.200 F 
ENDBRANCH  40  63
ENDBRANCH  14  15
ENDBRANCH   7   9
ENDBRANCH   6   7
ENDBRANCH   5   6
ENDBRANCH   4   5
ENDBRANCH   3   4
ENDBRANCH   2   3
ENDBRANCH   1   2
BRANCH   1  74
ATOM     74  O   UNL A   1      28.550  31.295  22.864  1.00  0.00    -0.376 OA
BRANCH  74  75
ATOM     75  C   UNL A   1      28.634  29.934  23.268  1.00  0.00     0.202 C 
BRANCH  75  76
ATOM     76  C   UNL A   1      29.353  28.943  22.343  1.00  0.00     0.261 C 
BRANCH  76  77
ATOM     77  O   UNL A   1      30.190  27.962  22.976  1.00  0.00    -0.460 OA
BRANCH  77  78
ATOM     78  C   UNL A   1      31.439  28.402  23.269  1.00  0.00     0.338 C 
ATOM     79  O   UNL A   1      32.242  28.913  22.502  1.00  0.00    -0.246 OA
BRANCH  78  80
ATOM     80  C   UNL A   1      31.799  28.094  24.658  1.00  0.00     0.071 A 
ATOM     81  C   UNL A   1      31.492  29.022  25.659  1.00  0.00     0.016 A 
ATOM     82  C   UNL A   1      32.611  26.977  24.925  1.00  0.00     0.032 A 
ATOM     83  C   UNL A   1      32.018  28.851  26.939  1.00  0.00     0.001 A 
ATOM     84  C   UNL A   1      33.172  26.852  26.200  1.00  0.00     0.013 A 
ATOM     85  C   UNL A   1      32.876  27.782  27.202  1.00  0.00     0.001 A 
BRANCH  82  86
ATOM     86  C   UNL A   1      32.860  25.983  23.894  1.00  0.00     0.135 A 
ATOM     87  C   UNL A   1      33.661  25.973  22.776  1.00  0.00     0.051 A 
ATOM     88  O   UNL A   1      32.078  24.863  23.923  1.00  0.00    -0.457 OA
ATOM     89  C   UNL A   1      33.272  24.850  22.030  1.00  0.00     0.051 A 
ATOM     90  C   UNL A   1      32.360  24.131  22.796  1.00  0.00     0.128 A 
BRANCH  90  91
ATOM     91  C   UNL A   1      31.847  22.837  22.505  1.00  0.00     0.068 C 
ATOM     92  C   UNL A   1      32.104  21.839  23.360  1.00  0.00     0.084 C 
ATOM     93  S   UNL A   1      32.053  20.164  22.988  1.00  0.00    -0.054 SA
ATOM     94  C   UNL A   1      32.688  22.015  24.719  1.00  0.00     0.266 C 
ATOM     95  C   UNL A   1      33.209  19.783  24.281  1.00  0.00     0.148 C 
ATOM     96  N   UNL A   1      33.435  20.903  25.050  1.00  0.00    -0.288 N 
ATOM     97  O   UNL A   1      32.470  22.974  25.435  1.00  0.00    -0.268 OA
ATOM     98  S   UNL A   1      33.863  18.261  24.459  1.00  0.00    -0.052 S 
BRANCH  96  99
ATOM     99  C   UNL A   1      34.295  20.985  26.229  1.00  0.00     0.163 C 
BRANCH  99 100
ATOM    100  C   UNL A   1      35.602  21.714  25.967  1.00  0.00    -0.028 A 
ATOM    101  C   UNL A   1      35.746  23.065  26.315  1.00  0.00     0.005 A 
ATOM    102  C   UNL A   1      36.674  21.080  25.315  1.00  0.00     0.005 A 
ATOM    103  C   UNL A   1      36.921  23.760  26.012  1.00  0.00     0.000 A 
ATOM    104  C   UNL A   1      37.856  21.769  25.031  1.00  0.00     0.000 A 
ATOM    105  C   UNL A   1      37.977  23.112  25.374  1.00  0.00     0.000 A 
ENDBRANCH  99 100
ENDBRANCH  96  99
ENDBRANCH  90  91
ENDBRANCH  82  86
ENDBRANCH  78  80
ENDBRANCH  77  78
ENDBRANCH  76  77
ENDBRANCH  75  76
ENDBRANCH  74  75
ENDBRANCH   1  74
TORSDOF 21
ENDMDL
MODEL 2
REMARK VINA RESULT:     -11.3      1.070      2.007
REMARK SMILES O=C(OCCOCCOCCOC(=O)c1ccccc1-c1ccc(/C=C2/SC(=S)N(Cc3ccccc3)C2=O)o1)c1ccc(-c2c3nc(c(-c4c(F)c(F)c(F)c(F)c4F)c4ccc([nH]4)c(-c4c(F)c(F)c(F)c(F)c4F)c4nc(c(-c5c(F)c(F)c(F)c(F)c5F)c5ccc2[nH]5)C=C4)C=C3)cc1
REMARK SMILES IDX 8 1 7 2 6 3 5 4 4 5 3 6 2 7 1 8 41 9 42 10 103 11 43 12
REMARK SMILES IDX 102 13 44 14 45 15 46 16 96 17 47 18 101 19 95 20 97 21
REMARK SMILES IDX 48 22 100 23 94 24 93 25 49 27 81 28 61 29 80 30 62 31 65 32
REMARK SMILES IDX 79 33 98 34 63 35 64 36 78 38 99 39 66 40 50 41 51 42 59 43
REMARK SMILES IDX 52 44 53 45 57 46 60 47 54 48 55 49 58 50 56 51 82 52 83 53
REMARK SMILES IDX 91 54 84 55 85 56 89 57 92 58 86 59 87 60 90 61 88 62 67 63
REMARK SMILES IDX 68 64 76 65 69 66 70 67 74 68 77 69 71 70 72 71 75 72 73 73
REMARK SMILES IDX 9 74 10 75 11 76 12 77 13 78 14 79 15 80 16 81 20 82 17 83
REMARK SMILES IDX 19 84 18 85 21 86 22 87 40 88 23 89 24 90 25 91 26 92 27 93
REMARK SMILES IDX 38 94 28 95 30 96 39 97 29 98 31 99 32 100 33 101 37 102
REMARK SMILES IDX 34 103 36 104 35 105
REMARK H PARENT 97 26 65 37
REMARK Flexibility Score: inf
ROOT
ATOM      1  C   UNL A   1      28.940  31.682  23.789  1.00  0.00     0.188 C 
ENDROOT
BRANCH   1   2
ATOM      2  C   UNL A   1      30.184  31.492  24.654  1.00  0.00     0.188 C 
BRANCH   2   3
ATOM      3  O   UNL A   1      30.568  32.664  25.377  1.00  0.00    -0.376 OA
BRANCH   3   4
ATOM      4  C   UNL A   1      31.163  32.383  26.651  1.00  0.00     0.202 C 
BRANCH   4   5
ATOM      5  C   UNL A   1      32.526  33.052  26.910  1.00  0.00     0.261 C 
BRANCH   5   6
ATOM      6  O   UNL A   1      32.509  34.015  27.980  1.00  0.00    -0.460 OA
BRANCH   6   7
ATOM      7  C   UNL A   1      33.545  34.465  28.732  1.00  0.00     0.338 C 
ATOM      8  O   UNL A   1      33.539  35.637  29.106  1.00  0.00    -0.246 OA
BRANCH   7   9
ATOM      9  C   UNL A   1      34.704  33.614  29.141  1.00  0.00     0.060 A 
ATOM     10  C   UNL A   1      34.599  32.422  29.854  1.00  0.00     0.016 A 
ATOM     11  C   UNL A   1      35.985  34.021  28.731  1.00  0.00     0.016 A 
ATOM     12  C   UNL A   1      35.718  31.721  30.268  1.00  0.00     0.010 A 
ATOM     13  C   UNL A   1      37.121  33.288  29.089  1.00  0.00     0.010 A 
ATOM     14  C   UNL A   1      36.987  32.159  29.904  1.00  0.00    -0.014 A 
BRANCH  14  15
ATOM     15  C   UNL A   1      38.140  31.495  30.538  1.00  0.00     0.031 A 
ATOM     16  C   UNL A   1      38.401  31.771  31.985  1.00  0.00     0.074 A 
ATOM     17  C   UNL A   1      38.807  30.534  29.877  1.00  0.00     0.049 A 
ATOM     18  N   UNL A   1      39.344  31.308  32.759  1.00  0.00    -0.248 NA
ATOM     19  C   UNL A   1      37.454  32.674  32.662  1.00  0.00     0.031 C 
ATOM     20  C   UNL A   1      38.497  30.086  28.520  1.00  0.00     0.029 A 
ATOM     21  N   UNL A   1      39.842  29.727  30.266  1.00  0.00    -0.354 N 
ATOM     22  C   UNL A   1      39.119  31.880  34.003  1.00  0.00     0.074 A 
ATOM     23  C   UNL A   1      37.960  32.736  33.882  1.00  0.00     0.031 C 
ATOM     24  C   UNL A   1      39.307  29.066  28.202  1.00  0.00     0.029 A 
ATOM     25  C   UNL A   1      40.247  28.853  29.289  1.00  0.00     0.049 A 
ATOM     26  H   UNL A   1      40.256  29.770  31.159  1.00  0.00     0.167 HD
ATOM     27  C   UNL A   1      39.827  31.700  35.141  1.00  0.00     0.037 A 
ATOM     28  C   UNL A   1      41.287  28.001  29.263  1.00  0.00     0.037 A 
ATOM     29  C   UNL A   1      40.973  30.838  35.222  1.00  0.00     0.049 A 
ATOM     30  C   UNL A   1      42.141  27.918  30.496  1.00  0.00     0.074 A 
ATOM     31  C   UNL A   1      41.820  30.619  36.291  1.00  0.00     0.029 A 
ATOM     32  N   UNL A   1      41.432  30.047  34.173  1.00  0.00    -0.354 N 
ATOM     33  N   UNL A   1      41.979  28.523  31.650  1.00  0.00    -0.248 NA
ATOM     34  C   UNL A   1      43.317  27.045  30.431  1.00  0.00     0.031 C 
ATOM     35  C   UNL A   1      42.823  29.737  35.873  1.00  0.00     0.029 A 
ATOM     36  C   UNL A   1      42.566  29.355  34.563  1.00  0.00     0.049 A 
ATOM     37  H   UNL A   1      41.012  29.988  33.285  1.00  0.00     0.167 HD
ATOM     38  C   UNL A   1      43.017  28.089  32.459  1.00  0.00     0.074 A 
ATOM     39  C   UNL A   1      43.793  27.154  31.665  1.00  0.00     0.031 C 
ATOM     40  C   UNL A   1      43.305  28.429  33.740  1.00  0.00     0.037 A 
BRANCH  27  41
ATOM     41  C   UNL A   1      39.419  32.514  36.333  1.00  0.00     0.064 A 
ATOM     42  C   UNL A   1      38.434  32.083  37.235  1.00  0.00     0.173 A 
ATOM     43  C   UNL A   1      39.993  33.777  36.547  1.00  0.00     0.173 A 
ATOM     44  F   UNL A   1      37.828  30.899  37.056  1.00  0.00    -0.203 F 
ATOM     45  C   UNL A   1      38.017  32.898  38.284  1.00  0.00     0.198 A 
ATOM     46  C   UNL A   1      39.595  34.576  37.615  1.00  0.00     0.198 A 
ATOM     47  F   UNL A   1      40.931  34.244  35.709  1.00  0.00    -0.203 F 
ATOM     48  F   UNL A   1      37.027  32.494  39.092  1.00  0.00    -0.200 F 
ATOM     49  C   UNL A   1      38.600  34.141  38.477  1.00  0.00     0.200 A 
ATOM     50  F   UNL A   1      40.162  35.776  37.798  1.00  0.00    -0.200 F 
ATOM     51  F   UNL A   1      38.191  34.928  39.481  1.00  0.00    -0.200 F 
ENDBRANCH  27  41
BRANCH  28  52
ATOM     52  C   UNL A   1      41.596  27.227  28.029  1.00  0.00     0.064 A 
ATOM     53  C   UNL A   1      41.085  25.940  27.820  1.00  0.00     0.173 A 
ATOM     54  C   UNL A   1      42.422  27.764  27.024  1.00  0.00     0.173 A 
ATOM     55  F   UNL A   1      40.306  25.370  28.752  1.00  0.00    -0.203 F 
ATOM     56  C   UNL A   1      41.402  25.212  26.673  1.00  0.00     0.198 A 
ATOM     57  C   UNL A   1      42.715  27.047  25.866  1.00  0.00     0.198 A 
ATOM     58  F   UNL A   1      42.939  28.995  27.165  1.00  0.00    -0.203 F 
ATOM     59  F   UNL A   1      40.940  23.962  26.526  1.00  0.00    -0.200 F 
ATOM     60  C   UNL A   1      42.216  25.767  25.696  1.00  0.00     0.200 A 
ATOM     61  F   UNL A   1      43.494  27.597  24.922  1.00  0.00    -0.200 F 
ATOM     62  F   UNL A   1      42.535  25.059  24.603  1.00  0.00    -0.200 F 
ENDBRANCH  28  52
BRANCH  40  63
ATOM     63  C   UNL A   1      44.485  27.751  34.366  1.00  0.00     0.064 A 
ATOM     64  C   UNL A   1      45.758  28.337  34.363  1.00  0.00     0.173 A 
ATOM     65  C   UNL A   1      44.324  26.516  35.013  1.00  0.00     0.173 A 
ATOM     66  F   UNL A   1      45.962  29.508  33.741  1.00  0.00    -0.203 F 
ATOM     67  C   UNL A   1      46.836  27.697  34.965  1.00  0.00     0.198 A 
ATOM     68  C   UNL A   1      45.397  25.897  35.644  1.00  0.00     0.198 A 
ATOM     69  F   UNL A   1      43.123  25.921  35.047  1.00  0.00    -0.203 F 
ATOM     70  F   UNL A   1      48.057  28.248  34.907  1.00  0.00    -0.200 F 
ATOM     71  C   UNL A   1      46.653  26.484  35.612  1.00  0.00     0.200 A 
ATOM     72  F   UNL A   1      45.215  24.734  36.284  1.00  0.00    -0.200 F 
ATOM     73  F   UNL A   1      47.691  25.874  36.201  1.00  0.00    -0.200 F 
ENDBRANCH  40  63
ENDBRANCH  14  15
ENDBRANCH   7   9
ENDBRANCH   6   7
ENDBRANCH   5   6
ENDBRANCH   4   5
ENDBRANCH   3   4
ENDBRANCH   2   3
ENDBRANCH   1   2
BRANCH   1  74
ATOM     74  O   UNL A   1      28.062  30.570  23.664  1.00  0.00    -0.376 OA
BRANCH  74  75
ATOM     75  C   UNL A   1      28.185  29.761  22.501  1.00  0.00     0.202 C 
BRANCH  75  76
ATOM     76  C   UNL A   1      29.578  29.255  22.109  1.00  0.00     0.261 C 
BRANCH  76  77
ATOM     77  O   UNL A   1      30.159  28.247  22.953  1.00  0.00    -0.460 OA
BRANCH  77  78
ATOM     78  C   UNL A   1      31.468  28.450  23.241  1.00  0.00     0.338 C 
ATOM     79  O   UNL A   1      32.350  28.802  22.470  1.00  0.00    -0.246 OA
BRANCH  78  80
ATOM     80  C   UNL A   1      31.771  28.083  24.630  1.00  0.00     0.071 A 
ATOM     81  C   UNL A   1      31.453  28.984  25.652  1.00  0.00     0.016 A 
ATOM     82  C   UNL A   1      32.541  26.934  24.885  1.00  0.00     0.032 A 
ATOM     83  C   UNL A   1      31.929  28.754  26.942  1.00  0.00     0.001 A 
ATOM     84  C   UNL A   1      33.052  26.750  26.174  1.00  0.00     0.013 A 
ATOM     85  C   UNL A   1      32.746  27.652  27.197  1.00  0.00     0.001 A 
BRANCH  82  86
ATOM     86  C   UNL A   1      32.799  25.970  23.828  1.00  0.00     0.135 A 
ATOM     87  C   UNL A   1      33.566  26.014  22.687  1.00  0.00     0.051 A 
ATOM     88  O   UNL A   1      32.065  24.819  23.859  1.00  0.00    -0.457 OA
ATOM     89  C   UNL A   1      33.201  24.889  21.931  1.00  0.00     0.051 A 
ATOM     90  C   UNL A   1      32.342  24.119  22.710  1.00  0.00     0.128 A 
BRANCH  90  91
ATOM     91  C   UNL A   1      31.873  22.811  22.409  1.00  0.00     0.068 C 
ATOM     92  C   UNL A   1      32.122  21.826  23.282  1.00  0.00     0.084 C 
ATOM     93  S   UNL A   1      32.128  20.148  22.920  1.00  0.00    -0.054 SA
ATOM     94  C   UNL A   1      32.648  22.026  24.660  1.00  0.00     0.266 C 
ATOM     95  C   UNL A   1      33.242  19.805  24.260  1.00  0.00     0.148 C 
ATOM     96  N   UNL A   1      33.410  20.935  25.029  1.00  0.00    -0.288 N 
ATOM     97  O   UNL A   1      32.378  22.983  25.360  1.00  0.00    -0.268 OA
ATOM     98  S   UNL A   1      33.927  18.301  24.475  1.00  0.00    -0.052 S 
BRANCH  96  99
ATOM     99  C   UNL A   1      34.221  21.046  26.240  1.00  0.00     0.163 C 
BRANCH  99 100
ATOM    100  C   UNL A   1      35.562  21.721  26.002  1.00  0.00    -0.028 A 
ATOM    101  C   UNL A   1      35.767  23.054  26.384  1.00  0.00     0.005 A 
ATOM    102  C   UNL A   1      36.607  21.053  25.340  1.00  0.00     0.005 A 
ATOM    103  C   UNL A   1      36.974  23.701  26.103  1.00  0.00     0.000 A 
ATOM    104  C   UNL A   1      37.821  21.693  25.078  1.00  0.00     0.000 A 
ATOM    105  C   UNL A   1      38.002  23.020  25.454  1.00  0.00     0.000 A 
ENDBRANCH  99 100
ENDBRANCH  96  99
ENDBRANCH  90  91
ENDBRANCH  82  86
ENDBRANCH  78  80
ENDBRANCH  77  78
ENDBRANCH  76  77
ENDBRANCH  75  76
ENDBRANCH  74  75
ENDBRANCH   1  74
TORSDOF 21
ENDMDL
MODEL 3
REMARK VINA RESULT:     -11.3      1.591      2.206
REMARK SMILES O=C(OCCOCCOCCOC(=O)c1ccccc1-c1ccc(/C=C2/SC(=S)N(Cc3ccccc3)C2=O)o1)c1ccc(-c2c3nc(c(-c4c(F)c(F)c(F)c(F)c4F)c4ccc([nH]4)c(-c4c(F)c(F)c(F)c(F)c4F)c4nc(c(-c5c(F)c(F)c(F)c(F)c5F)c5ccc2[nH]5)C=C4)C=C3)cc1
REMARK SMILES IDX 8 1 7 2 6 3 5 4 4 5 3 6 2 7 1 8 41 9 42 10 103 11 43 12
REMARK SMILES IDX 102 13 44 14 45 15 46 16 96 17 47 18 101 19 95 20 97 21
REMARK SMILES IDX 48 22 100 23 94 24 93 25 49 27 81 28 61 29 80 30 62 31 65 32
REMARK SMILES IDX 79 33 98 34 63 35 64 36 78 38 99 39 66 40 50 41 51 42 59 43
REMARK SMILES IDX 52 44 53 45 57 46 60 47 54 48 55 49 58 50 56 51 82 52 83 53
REMARK SMILES IDX 91 54 84 55 85 56 89 57 92 58 86 59 87 60 90 61 88 62 67 63
REMARK SMILES IDX 68 64 76 65 69 66 70 67 74 68 77 69 71 70 72 71 75 72 73 73
REMARK SMILES IDX 9 74 10 75 11 76 12 77 13 78 14 79 15 80 16 81 20 82 17 83
REMARK SMILES IDX 19 84 18 85 21 86 22 87 40 88 23 89 24 90 25 91 26 92 27 93
REMARK SMILES IDX 38 94 28 95 30 96 39 97 29 98 31 99 32 100 33 101 37 102
REMARK SMILES IDX 34 103 36 104 35 105
REMARK H PARENT 97 26 65 37
REMARK Flexibility Score: inf
ROOT
ATOM      1  C   UNL A   1      29.949  30.003  23.718  1.00  0.00     0.188 C 
ENDROOT
BRANCH   1   2
ATOM      2  C   UNL A   1      30.761  30.429  24.939  1.00  0.00     0.188 C 
BRANCH   2   3
ATOM      3  O   UNL A   1      30.537  31.785  25.334  1.00  0.00    -0.376 OA
BRANCH   3   4
ATOM      4  C   UNL A   1      31.000  32.081  26.658  1.00  0.00     0.202 C 
BRANCH   4   5
ATOM      5  C   UNL A   1      32.306  32.894  26.741  1.00  0.00     0.261 C 
BRANCH   5   6
ATOM      6  O   UNL A   1      32.357  33.806  27.853  1.00  0.00    -0.460 OA
BRANCH   6   7
ATOM      7  C   UNL A   1      33.446  34.314  28.484  1.00  0.00     0.338 C 
ATOM      8  O   UNL A   1      33.475  35.517  28.736  1.00  0.00    -0.246 OA
BRANCH   7   9
ATOM      9  C   UNL A   1      34.622  33.491  28.900  1.00  0.00     0.060 A 
ATOM     10  C   UNL A   1      34.545  32.195  29.406  1.00  0.00     0.016 A 
ATOM     11  C   UNL A   1      35.900  34.047  28.717  1.00  0.00     0.016 A 
ATOM     12  C   UNL A   1      35.668  31.517  29.843  1.00  0.00     0.010 A 
ATOM     13  C   UNL A   1      37.050  33.347  29.098  1.00  0.00     0.010 A 
ATOM     14  C   UNL A   1      36.925  32.094  29.710  1.00  0.00    -0.014 A 
BRANCH  14  15
ATOM     15  C   UNL A   1      38.054  31.419  30.374  1.00  0.00     0.031 A 
ATOM     16  C   UNL A   1      38.244  31.644  31.841  1.00  0.00     0.074 A 
ATOM     17  C   UNL A   1      38.763  30.489  29.711  1.00  0.00     0.049 A 
ATOM     18  N   UNL A   1      39.154  31.162  32.642  1.00  0.00    -0.248 NA
ATOM     19  C   UNL A   1      37.255  32.512  32.503  1.00  0.00     0.031 C 
ATOM     20  C   UNL A   1      38.524  30.089  28.325  1.00  0.00     0.029 A 
ATOM     21  N   UNL A   1      39.788  29.679  30.120  1.00  0.00    -0.354 N 
ATOM     22  C   UNL A   1      38.863  31.686  33.893  1.00  0.00     0.074 A 
ATOM     23  C   UNL A   1      37.701  32.534  33.748  1.00  0.00     0.031 C 
ATOM     24  C   UNL A   1      39.360  29.089  28.010  1.00  0.00     0.029 A 
ATOM     25  C   UNL A   1      40.249  28.846  29.132  1.00  0.00     0.049 A 
ATOM     26  H   UNL A   1      40.158  29.694  31.032  1.00  0.00     0.167 HD
ATOM     27  C   UNL A   1      39.519  31.471  35.056  1.00  0.00     0.037 A 
ATOM     28  C   UNL A   1      41.300  28.005  29.124  1.00  0.00     0.037 A 
ATOM     29  C   UNL A   1      40.670  30.617  35.161  1.00  0.00     0.049 A 
ATOM     30  C   UNL A   1      42.094  27.886  30.393  1.00  0.00     0.074 A 
ATOM     31  C   UNL A   1      41.468  30.367  36.261  1.00  0.00     0.029 A 
ATOM     32  N   UNL A   1      41.187  29.870  34.107  1.00  0.00    -0.354 N 
ATOM     33  N   UNL A   1      41.871  28.446  31.560  1.00  0.00    -0.248 NA
ATOM     34  C   UNL A   1      43.283  27.027  30.353  1.00  0.00     0.031 C 
ATOM     35  C   UNL A   1      42.499  29.512  35.859  1.00  0.00     0.029 A 
ATOM     36  C   UNL A   1      42.309  29.176  34.526  1.00  0.00     0.049 A 
ATOM     37  H   UNL A   1      40.811  29.840  33.199  1.00  0.00     0.167 HD
ATOM     38  C   UNL A   1      42.874  27.993  32.400  1.00  0.00     0.074 A 
ATOM     39  C   UNL A   1      43.698  27.096  31.611  1.00  0.00     0.031 C 
ATOM     40  C   UNL A   1      43.097  28.288  33.706  1.00  0.00     0.037 A 
BRANCH  27  41
ATOM     41  C   UNL A   1      39.046  32.236  36.256  1.00  0.00     0.064 A 
ATOM     42  C   UNL A   1      39.507  33.529  36.551  1.00  0.00     0.173 A 
ATOM     43  C   UNL A   1      38.149  31.641  37.157  1.00  0.00     0.173 A 
ATOM     44  F   UNL A   1      40.393  34.130  35.742  1.00  0.00    -0.203 F 
ATOM     45  C   UNL A   1      39.114  34.182  37.718  1.00  0.00     0.198 A 
ATOM     46  C   UNL A   1      37.734  32.309  38.306  1.00  0.00     0.198 A 
ATOM     47  F   UNL A   1      37.685  30.403  36.930  1.00  0.00    -0.203 F 
ATOM     48  F   UNL A   1      39.621  35.387  38.013  1.00  0.00    -0.200 F 
ATOM     49  C   UNL A   1      38.225  33.574  38.592  1.00  0.00     0.200 A 
ATOM     50  F   UNL A   1      36.874  31.719  39.147  1.00  0.00    -0.200 F 
ATOM     51  F   UNL A   1      37.856  34.199  39.718  1.00  0.00    -0.200 F 
ENDBRANCH  27  41
BRANCH  28  52
ATOM     52  C   UNL A   1      41.676  27.281  27.879  1.00  0.00     0.064 A 
ATOM     53  C   UNL A   1      41.482  25.900  27.744  1.00  0.00     0.173 A 
ATOM     54  C   UNL A   1      42.247  27.961  26.789  1.00  0.00     0.173 A 
ATOM     55  F   UNL A   1      40.957  25.196  28.758  1.00  0.00    -0.203 F 
ATOM     56  C   UNL A   1      41.863  25.226  26.583  1.00  0.00     0.198 A 
ATOM     57  C   UNL A   1      42.601  27.292  25.620  1.00  0.00     0.198 A 
ATOM     58  F   UNL A   1      42.454  29.286  26.857  1.00  0.00    -0.203 F 
ATOM     59  F   UNL A   1      41.712  23.896  26.505  1.00  0.00    -0.200 F 
ATOM     60  C   UNL A   1      42.420  25.922  25.522  1.00  0.00     0.200 A 
ATOM     61  F   UNL A   1      43.130  27.976  24.594  1.00  0.00    -0.200 F 
ATOM     62  F   UNL A   1      42.803  25.270  24.415  1.00  0.00    -0.200 F 
ENDBRANCH  28  52
BRANCH  40  63
ATOM     63  C   UNL A   1      44.254  27.599  34.362  1.00  0.00     0.064 A 
ATOM     64  C   UNL A   1      44.119  26.337  34.957  1.00  0.00     0.173 A 
ATOM     65  C   UNL A   1      45.524  28.197  34.355  1.00  0.00     0.173 A 
ATOM     66  F   UNL A   1      42.920  25.736  35.001  1.00  0.00    -0.203 F 
ATOM     67  C   UNL A   1      45.211  25.708  35.545  1.00  0.00     0.198 A 
ATOM     68  C   UNL A   1      46.620  27.549  34.914  1.00  0.00     0.198 A 
ATOM     69  F   UNL A   1      45.702  29.401  33.791  1.00  0.00    -0.203 F 
ATOM     70  F   UNL A   1      45.051  24.525  36.156  1.00  0.00    -0.200 F 
ATOM     71  C   UNL A   1      46.460  26.310  35.516  1.00  0.00     0.200 A 
ATOM     72  F   UNL A   1      47.829  28.124  34.868  1.00  0.00    -0.200 F 
ATOM     73  F   UNL A   1      47.513  25.698  36.074  1.00  0.00    -0.200 F 
ENDBRANCH  40  63
ENDBRANCH  14  15
ENDBRANCH   7   9
ENDBRANCH   6   7
ENDBRANCH   5   6
ENDBRANCH   4   5
ENDBRANCH   3   4
ENDBRANCH   2   3
ENDBRANCH   1   2
BRANCH   1  74
ATOM     74  O   UNL A   1      29.819  28.606  23.483  1.00  0.00    -0.376 OA
BRANCH  74  75
ATOM     75  C   UNL A   1      30.597  28.038  22.438  1.00  0.00     0.202 C 
BRANCH  75  76
ATOM     76  C   UNL A   1      32.093  27.807  22.685  1.00  0.00     0.261 C 
BRANCH  76  77
ATOM     77  O   UNL A   1      32.468  26.527  23.220  1.00  0.00    -0.460 OA
BRANCH  77  78
ATOM     78  C   UNL A   1      33.490  26.576  24.111  1.00  0.00     0.338 C 
ATOM     79  O   UNL A   1      34.481  25.859  24.139  1.00  0.00    -0.246 OA
BRANCH  78  80
ATOM     80  C   UNL A   1      33.229  27.560  25.168  1.00  0.00     0.071 A 
ATOM     81  C   UNL A   1      33.966  28.749  25.181  1.00  0.00     0.016 A 
ATOM     82  C   UNL A   1      32.395  27.207  26.244  1.00  0.00     0.032 A 
ATOM     83  C   UNL A   1      33.892  29.590  26.291  1.00  0.00     0.001 A 
ATOM     84  C   UNL A   1      32.376  28.038  27.370  1.00  0.00     0.013 A 
ATOM     85  C   UNL A   1      33.118  29.223  27.392  1.00  0.00     0.001 A 
BRANCH  82  86
ATOM     86  C   UNL A   1      31.579  26.006  26.182  1.00  0.00     0.135 A 
ATOM     87  C   UNL A   1      30.272  25.779  25.821  1.00  0.00     0.051 A 
ATOM     88  O   UNL A   1      32.133  24.865  26.689  1.00  0.00    -0.457 OA
ATOM     89  C   UNL A   1      29.979  24.469  26.228  1.00  0.00     0.051 A 
ATOM     90  C   UNL A   1      31.162  23.892  26.678  1.00  0.00     0.128 A 
BRANCH  90  91
ATOM     91  C   UNL A   1      31.363  22.526  27.014  1.00  0.00     0.068 C 
ATOM     92  C   UNL A   1      32.497  21.930  26.624  1.00  0.00     0.084 C 
ATOM     93  S   UNL A   1      32.731  20.239  26.450  1.00  0.00    -0.054 SA
ATOM     94  C   UNL A   1      33.681  22.642  26.066  1.00  0.00     0.266 C 
ATOM     95  C   UNL A   1      34.018  20.481  25.252  1.00  0.00     0.148 C 
ATOM     96  N   UNL A   1      34.340  21.819  25.177  1.00  0.00    -0.288 N 
ATOM     97  O   UNL A   1      34.030  23.755  26.410  1.00  0.00    -0.268 OA
ATOM     98  S   UNL A   1      34.681  19.212  24.399  1.00  0.00    -0.052 S 
BRANCH  96  99
ATOM     99  C   UNL A   1      35.375  22.414  24.333  1.00  0.00     0.163 C 
BRANCH  99 100
ATOM    100  C   UNL A   1      36.729  22.498  25.018  1.00  0.00    -0.028 A 
ATOM    101  C   UNL A   1      37.571  21.378  25.072  1.00  0.00     0.005 A 
ATOM    102  C   UNL A   1      37.146  23.673  25.668  1.00  0.00     0.005 A 
ATOM    103  C   UNL A   1      38.787  21.430  25.761  1.00  0.00     0.000 A 
ATOM    104  C   UNL A   1      38.370  23.731  26.339  1.00  0.00     0.000 A 
ATOM    105  C   UNL A   1      39.188  22.606  26.392  1.00  0.00     0.000 A 
ENDBRANCH  99 100
ENDBRANCH  96  99
ENDBRANCH  90  91
ENDBRANCH  82  86
ENDBRANCH  78  80
ENDBRANCH  77  78
ENDBRANCH  76  77
ENDBRANCH  75  76
ENDBRANCH  74  75
ENDBRANCH   1  74
TORSDOF 21
ENDMDL
