MODEL 1
REMARK VINA RESULT:     -11.4      0.000      0.000
REMARK SMILES CCCc1cc(OC(F)(F)F)cc2c1O[C@H](C(F)(F)F)C(C(=O)OCCOCCOCCOC(=O)c1ccc(-c3c4nc(c(-c5c(F)c(F)c(F)c(F)c5F)c5ccc([nH]5)c(-c5c(F)c(F)c(F)c(F)c5F)c5nc(c(-c6c(F)c(F)c(F)c(F)c6F)c6ccc3[nH]6)C=C5)C=C4)cc1)=C2
REMARK SMILES IDX 28 1 27 2 26 3 25 4 24 5 22 6 23 7 21 8 4 9 5 10 14 11 6 12
REMARK SMILES IDX 13 13 15 14 12 15 99 16 16 17 3 18 2 19 1 20 7 21 8 22 9 23
REMARK SMILES IDX 10 24 11 25 17 26 18 27 19 28 20 29 29 30 30 31 31 32 32 33
REMARK SMILES IDX 33 34 34 35 35 36 36 37 37 38 98 39 38 40 97 41 39 42 40 43
REMARK SMILES IDX 41 44 91 45 42 46 96 47 90 48 92 49 43 50 95 51 89 52 88 53
REMARK SMILES IDX 44 55 76 56 56 57 75 58 57 59 60 60 74 61 93 62 58 63 59 64
REMARK SMILES IDX 73 66 94 67 61 68 45 69 46 70 54 71 47 72 48 73 52 74 55 75
REMARK SMILES IDX 49 76 50 77 53 78 51 79 77 80 78 81 86 82 79 83 80 84 84 85
REMARK SMILES IDX 87 86 81 87 82 88 85 89 83 90 62 91 63 92 71 93 64 94 65 95
REMARK SMILES IDX 69 96 72 97 66 98 67 99 70 100 68 101
REMARK H PARENT 92 54 60 65
REMARK Flexibility Score: inf
ROOT
ATOM      1  C   UNL A   1      31.898  29.436  25.043  1.00  0.00     0.188 C 
ENDROOT
BRANCH   1   2
ATOM      2  O   UNL A   1      32.283  29.031  23.739  1.00  0.00    -0.376 OA
BRANCH   2   3
ATOM      3  C   UNL A   1      31.300  29.017  22.710  1.00  0.00     0.202 C 
BRANCH   3   4
ATOM      4  C   UNL A   1      30.659  27.669  22.401  1.00  0.00     0.261 C 
BRANCH   4   5
ATOM      5  O   UNL A   1      31.463  26.574  22.884  1.00  0.00    -0.460 OA
BRANCH   5   6
ATOM      6  C   UNL A   1      30.790  25.657  23.611  1.00  0.00     0.338 C 
ATOM      7  O   UNL A   1      29.578  25.600  23.757  1.00  0.00    -0.246 OA
BRANCH   6   8
ATOM      8  C   UNL A   1      31.670  24.601  24.138  1.00  0.00     0.087 C 
ATOM      9  C   UNL A   1      34.787  21.870  24.418  1.00  0.00    -0.002 A 
ATOM     10  C   UNL A   1      34.521  20.590  24.937  1.00  0.00     0.054 A 
ATOM     11  C   UNL A   1      33.701  22.731  24.260  1.00  0.00     0.131 A 
ATOM     12  C   UNL A   1      33.215  20.184  25.249  1.00  0.00     0.130 A 
ATOM     13  C   UNL A   1      32.380  22.360  24.581  1.00  0.00     0.021 A 
ATOM     14  O   UNL A   1      33.961  23.970  23.746  1.00  0.00    -0.475 OA
ATOM     15  C   UNL A   1      32.148  21.077  25.077  1.00  0.00     0.058 A 
ATOM     16  C   UNL A   1      31.294  23.323  24.324  1.00  0.00     0.027 C 
ATOM     17  C   UNL A   1      33.116  25.003  24.278  1.00  0.00     0.316 C 
BRANCH   9  18
ATOM     18  C   UNL A   1      36.233  22.281  24.190  1.00  0.00     0.039 C 
BRANCH  18  19
ATOM     19  C   UNL A   1      37.373  21.374  24.693  1.00  0.00     0.001 C 
ATOM     20  C   UNL A   1      38.269  22.014  25.754  1.00  0.00     0.004 C 
ENDBRANCH  18  19
ENDBRANCH   9  18
BRANCH  12  21
ATOM     21  O   UNL A   1      32.860  18.959  25.743  1.00  0.00    -0.406 OA
BRANCH  21  22
ATOM     22  C   UNL A   1      32.953  17.847  24.865  1.00  0.00     0.573 C 
ATOM     23  F   UNL A   1      32.100  16.865  25.228  1.00  0.00    -0.132 F 
ATOM     24  F   UNL A   1      32.703  18.212  23.589  1.00  0.00    -0.132 F 
ATOM     25  F   UNL A   1      34.209  17.352  24.921  1.00  0.00    -0.132 F 
ENDBRANCH  21  22
ENDBRANCH  12  21
BRANCH  17  26
ATOM     26  C   UNL A   1      33.529  25.380  25.715  1.00  0.00     0.430 C 
ATOM     27  F   UNL A   1      33.658  26.714  25.904  1.00  0.00    -0.167 F 
ATOM     28  F   UNL A   1      32.641  24.930  26.632  1.00  0.00    -0.167 F 
ATOM     29  F   UNL A   1      34.723  24.828  26.040  1.00  0.00    -0.167 F 
ENDBRANCH  17  26
ENDBRANCH   6   8
ENDBRANCH   5   6
ENDBRANCH   4   5
ENDBRANCH   3   4
ENDBRANCH   2   3
ENDBRANCH   1   2
BRANCH   1  30
ATOM     30  C   UNL A   1      32.935  30.086  25.983  1.00  0.00     0.188 C 
BRANCH  30  31
ATOM     31  O   UNL A   1      32.498  30.725  27.176  1.00  0.00    -0.376 OA
BRANCH  31  32
ATOM     32  C   UNL A   1      33.343  31.710  27.760  1.00  0.00     0.202 C 
BRANCH  32  33
ATOM     33  C   UNL A   1      33.116  33.143  27.290  1.00  0.00     0.261 C 
BRANCH  33  34
ATOM     34  O   UNL A   1      32.307  33.865  28.227  1.00  0.00    -0.460 OA
BRANCH  34  35
ATOM     35  C   UNL A   1      32.904  34.941  28.780  1.00  0.00     0.338 C 
ATOM     36  O   UNL A   1      32.541  36.114  28.717  1.00  0.00    -0.246 OA
BRANCH  35  37
ATOM     37  C   UNL A   1      34.051  34.512  29.584  1.00  0.00     0.060 A 
ATOM     38  C   UNL A   1      35.329  34.588  29.027  1.00  0.00     0.016 A 
ATOM     39  C   UNL A   1      33.844  33.914  30.824  1.00  0.00     0.016 A 
ATOM     40  C   UNL A   1      36.414  34.021  29.696  1.00  0.00     0.010 A 
ATOM     41  C   UNL A   1      34.925  33.335  31.493  1.00  0.00     0.010 A 
ATOM     42  C   UNL A   1      36.208  33.354  30.913  1.00  0.00    -0.014 A 
BRANCH  42  43
ATOM     43  C   UNL A   1      37.291  32.530  31.500  1.00  0.00     0.031 A 
ATOM     44  C   UNL A   1      37.802  32.874  32.872  1.00  0.00     0.074 A 
ATOM     45  C   UNL A   1      37.809  31.487  30.830  1.00  0.00     0.049 A 
ATOM     46  N   UNL A   1      38.804  32.363  33.539  1.00  0.00    -0.248 NA
ATOM     47  C   UNL A   1      37.081  33.938  33.588  1.00  0.00     0.031 C 
ATOM     48  C   UNL A   1      37.361  31.017  29.522  1.00  0.00     0.029 A 
ATOM     49  N   UNL A   1      38.838  30.640  31.161  1.00  0.00    -0.354 N 
ATOM     50  C   UNL A   1      38.843  33.050  34.745  1.00  0.00     0.074 A 
ATOM     51  C   UNL A   1      37.772  34.024  34.715  1.00  0.00     0.031 C 
ATOM     52  C   UNL A   1      38.120  29.971  29.153  1.00  0.00     0.029 A 
ATOM     53  C   UNL A   1      39.131  29.725  30.181  1.00  0.00     0.049 A 
ATOM     54  H   UNL A   1      39.318  30.684  32.020  1.00  0.00     0.167 HD
ATOM     55  C   UNL A   1      39.695  32.885  35.784  1.00  0.00     0.037 A 
ATOM     56  C   UNL A   1      40.123  28.817  30.113  1.00  0.00     0.037 A 
ATOM     57  C   UNL A   1      40.760  31.918  35.816  1.00  0.00     0.049 A 
ATOM     58  C   UNL A   1      41.106  28.705  31.250  1.00  0.00     0.074 A 
ATOM     59  C   UNL A   1      41.680  31.679  36.821  1.00  0.00     0.029 A 
ATOM     60  N   UNL A   1      41.045  31.030  34.791  1.00  0.00    -0.354 N 
ATOM     61  N   UNL A   1      41.145  29.363  32.382  1.00  0.00    -0.248 NA
ATOM     62  C   UNL A   1      42.192  27.724  31.093  1.00  0.00     0.031 C 
ATOM     63  C   UNL A   1      42.548  30.670  36.389  1.00  0.00     0.029 A 
ATOM     64  C   UNL A   1      42.141  30.253  35.132  1.00  0.00     0.049 A 
ATOM     65  H   UNL A   1      40.544  30.961  33.947  1.00  0.00     0.167 HD
ATOM     66  C   UNL A   1      42.239  28.865  33.079  1.00  0.00     0.074 A 
ATOM     67  C   UNL A   1      42.831  27.839  32.248  1.00  0.00     0.031 C 
ATOM     68  C   UNL A   1      42.711  29.228  34.296  1.00  0.00     0.037 A 
BRANCH  55  69
ATOM     69  C   UNL A   1      39.529  33.797  36.961  1.00  0.00     0.064 A 
ATOM     70  C   UNL A   1      40.139  35.059  37.006  1.00  0.00     0.173 A 
ATOM     71  C   UNL A   1      38.730  33.412  38.048  1.00  0.00     0.173 A 
ATOM     72  F   UNL A   1      40.926  35.464  35.999  1.00  0.00    -0.203 F 
ATOM     73  C   UNL A   1      39.972  35.894  38.108  1.00  0.00     0.198 A 
ATOM     74  C   UNL A   1      38.546  34.259  39.136  1.00  0.00     0.198 A 
ATOM     75  F   UNL A   1      38.124  32.215  38.050  1.00  0.00    -0.203 F 
ATOM     76  F   UNL A   1      40.595  37.080  38.149  1.00  0.00    -0.200 F 
ATOM     77  C   UNL A   1      39.171  35.496  39.169  1.00  0.00     0.200 A 
ATOM     78  F   UNL A   1      37.766  33.876  40.157  1.00  0.00    -0.200 F 
ATOM     79  F   UNL A   1      39.007  36.302  40.227  1.00  0.00    -0.200 F 
ENDBRANCH  55  69
BRANCH  56  80
ATOM     80  C   UNL A   1      40.262  27.956  28.910  1.00  0.00     0.064 A 
ATOM     81  C   UNL A   1      41.001  28.381  27.798  1.00  0.00     0.173 A 
ATOM     82  C   UNL A   1      39.633  26.704  28.837  1.00  0.00     0.173 A 
ATOM     83  F   UNL A   1      41.595  29.584  27.810  1.00  0.00    -0.203 F 
ATOM     84  C   UNL A   1      41.091  27.596  26.651  1.00  0.00     0.198 A 
ATOM     85  C   UNL A   1      39.746  25.907  27.700  1.00  0.00     0.198 A 
ATOM     86  F   UNL A   1      38.909  26.255  29.872  1.00  0.00    -0.203 F 
ATOM     87  F   UNL A   1      41.763  28.047  25.583  1.00  0.00    -0.200 F 
ATOM     88  C   UNL A   1      40.468  26.357  26.605  1.00  0.00     0.200 A 
ATOM     89  F   UNL A   1      39.147  24.709  27.662  1.00  0.00    -0.200 F 
ATOM     90  F   UNL A   1      40.552  25.603  25.501  1.00  0.00    -0.200 F 
ENDBRANCH  56  80
BRANCH  68  91
ATOM     91  C   UNL A   1      43.907  28.489  34.821  1.00  0.00     0.064 A 
ATOM     92  C   UNL A   1      43.777  27.261  35.484  1.00  0.00     0.173 A 
ATOM     93  C   UNL A   1      45.200  28.993  34.613  1.00  0.00     0.173 A 
ATOM     94  F   UNL A   1      42.561  26.745  35.720  1.00  0.00    -0.203 F 
ATOM     95  C   UNL A   1      44.899  26.570  35.936  1.00  0.00     0.198 A 
ATOM     96  C   UNL A   1      46.320  28.289  35.044  1.00  0.00     0.198 A 
ATOM     97  F   UNL A   1      45.376  30.161  33.978  1.00  0.00    -0.203 F 
ATOM     98  F   UNL A   1      44.752  25.417  36.601  1.00  0.00    -0.200 F 
ATOM     99  C   UNL A   1      46.169  27.082  35.710  1.00  0.00     0.200 A 
ATOM    100  F   UNL A   1      47.546  28.778  34.815  1.00  0.00    -0.200 F 
ATOM    101  F   UNL A   1      47.248  26.413  36.139  1.00  0.00    -0.200 F 
ENDBRANCH  68  91
ENDBRANCH  42  43
ENDBRANCH  35  37
ENDBRANCH  34  35
ENDBRANCH  33  34
ENDBRANCH  32  33
ENDBRANCH  31  32
ENDBRANCH  30  31
ENDBRANCH   1  30
TORSDOF 22
ENDMDL
MODEL 2
REMARK VINA RESULT:     -11.3      1.413      7.232
REMARK SMILES CCCc1cc(OC(F)(F)F)cc2c1O[C@H](C(F)(F)F)C(C(=O)OCCOCCOCCOC(=O)c1ccc(-c3c4nc(c(-c5c(F)c(F)c(F)c(F)c5F)c5ccc([nH]5)c(-c5c(F)c(F)c(F)c(F)c5F)c5nc(c(-c6c(F)c(F)c(F)c(F)c6F)c6ccc3[nH]6)C=C5)C=C4)cc1)=C2
REMARK SMILES IDX 28 1 27 2 26 3 25 4 24 5 22 6 23 7 21 8 4 9 5 10 14 11 6 12
REMARK SMILES IDX 13 13 15 14 12 15 99 16 16 17 3 18 2 19 1 20 7 21 8 22 9 23
REMARK SMILES IDX 10 24 11 25 17 26 18 27 19 28 20 29 29 30 30 31 31 32 32 33
REMARK SMILES IDX 33 34 34 35 35 36 36 37 37 38 98 39 38 40 97 41 39 42 40 43
REMARK SMILES IDX 41 44 91 45 42 46 96 47 90 48 92 49 43 50 95 51 89 52 88 53
REMARK SMILES IDX 44 55 76 56 56 57 75 58 57 59 60 60 74 61 93 62 58 63 59 64
REMARK SMILES IDX 73 66 94 67 61 68 45 69 46 70 54 71 47 72 48 73 52 74 55 75
REMARK SMILES IDX 49 76 50 77 53 78 51 79 77 80 78 81 86 82 79 83 80 84 84 85
REMARK SMILES IDX 87 86 81 87 82 88 85 89 83 90 62 91 63 92 71 93 64 94 65 95
REMARK SMILES IDX 69 96 72 97 66 98 67 99 70 100 68 101
REMARK H PARENT 92 54 60 65
REMARK Flexibility Score: inf
ROOT
ATOM      1  C   UNL A   1      31.520  29.297  24.770  1.00  0.00     0.188 C 
ENDROOT
BRANCH   1   2
ATOM      2  O   UNL A   1      32.188  28.259  24.070  1.00  0.00    -0.376 OA
BRANCH   2   3
ATOM      3  C   UNL A   1      33.351  28.582  23.315  1.00  0.00     0.202 C 
BRANCH   3   4
ATOM      4  C   UNL A   1      33.514  27.865  21.979  1.00  0.00     0.261 C 
BRANCH   4   5
ATOM      5  O   UNL A   1      33.902  26.488  22.158  1.00  0.00    -0.460 OA
BRANCH   5   6
ATOM      6  C   UNL A   1      33.160  25.597  21.466  1.00  0.00     0.338 C 
ATOM      7  O   UNL A   1      32.936  25.624  20.265  1.00  0.00    -0.246 OA
BRANCH   6   8
ATOM      8  C   UNL A   1      32.726  24.462  22.295  1.00  0.00     0.087 C 
ATOM      9  C   UNL A   1      32.443  21.814  25.484  1.00  0.00    -0.002 A 
ATOM     10  C   UNL A   1      32.320  20.440  25.213  1.00  0.00     0.054 A 
ATOM     11  C   UNL A   1      32.621  22.665  24.393  1.00  0.00     0.131 A 
ATOM     12  C   UNL A   1      32.408  19.941  23.906  1.00  0.00     0.130 A 
ATOM     13  C   UNL A   1      32.695  22.196  23.065  1.00  0.00     0.021 A 
ATOM     14  O   UNL A   1      32.751  23.998  24.658  1.00  0.00    -0.475 OA
ATOM     15  C   UNL A   1      32.586  20.826  22.833  1.00  0.00     0.058 A 
ATOM     16  C   UNL A   1      32.942  23.170  21.986  1.00  0.00     0.027 C 
ATOM     17  C   UNL A   1      32.182  24.846  23.647  1.00  0.00     0.316 C 
BRANCH   9  18
ATOM     18  C   UNL A   1      32.245  22.301  26.911  1.00  0.00     0.039 C 
BRANCH  18  19
ATOM     19  C   UNL A   1      33.459  22.408  27.855  1.00  0.00     0.001 C 
ATOM     20  C   UNL A   1      34.813  22.429  27.144  1.00  0.00     0.004 C 
ENDBRANCH  18  19
ENDBRANCH   9  18
BRANCH  12  21
ATOM     21  O   UNL A   1      32.315  18.623  23.550  1.00  0.00    -0.406 OA
BRANCH  21  22
ATOM     22  C   UNL A   1      33.441  17.796  23.797  1.00  0.00     0.573 C 
ATOM     23  F   UNL A   1      34.500  18.523  24.215  1.00  0.00    -0.132 F 
ATOM     24  F   UNL A   1      33.156  16.848  24.716  1.00  0.00    -0.132 F 
ATOM     25  F   UNL A   1      33.786  17.176  22.647  1.00  0.00    -0.132 F 
ENDBRANCH  21  22
ENDBRANCH  12  21
BRANCH  17  26
ATOM     26  C   UNL A   1      30.642  24.857  23.728  1.00  0.00     0.430 C 
ATOM     27  F   UNL A   1      30.055  23.960  22.903  1.00  0.00    -0.167 F 
ATOM     28  F   UNL A   1      30.199  24.597  24.980  1.00  0.00    -0.167 F 
ATOM     29  F   UNL A   1      30.145  26.071  23.393  1.00  0.00    -0.167 F 
ENDBRANCH  17  26
ENDBRANCH   6   8
ENDBRANCH   5   6
ENDBRANCH   4   5
ENDBRANCH   3   4
ENDBRANCH   2   3
ENDBRANCH   1   2
BRANCH   1  30
ATOM     30  C   UNL A   1      32.295  30.159  25.789  1.00  0.00     0.188 C 
BRANCH  30  31
ATOM     31  O   UNL A   1      31.584  30.862  26.799  1.00  0.00    -0.376 OA
BRANCH  31  32
ATOM     32  C   UNL A   1      31.566  32.284  26.742  1.00  0.00     0.202 C 
BRANCH  32  33
ATOM     33  C   UNL A   1      32.680  32.993  27.506  1.00  0.00     0.261 C 
BRANCH  33  34
ATOM     34  O   UNL A   1      32.318  34.349  27.793  1.00  0.00    -0.460 OA
BRANCH  34  35
ATOM     35  C   UNL A   1      32.977  34.904  28.831  1.00  0.00     0.338 C 
ATOM     36  O   UNL A   1      32.647  35.889  29.489  1.00  0.00    -0.246 OA
BRANCH  35  37
ATOM     37  C   UNL A   1      34.155  34.096  29.158  1.00  0.00     0.060 A 
ATOM     38  C   UNL A   1      34.001  32.995  30.004  1.00  0.00     0.016 A 
ATOM     39  C   UNL A   1      35.417  34.508  28.739  1.00  0.00     0.016 A 
ATOM     40  C   UNL A   1      35.127  32.319  30.475  1.00  0.00     0.010 A 
ATOM     41  C   UNL A   1      36.547  33.841  29.217  1.00  0.00     0.010 A 
ATOM     42  C   UNL A   1      36.408  32.767  30.117  1.00  0.00    -0.014 A 
BRANCH  42  43
ATOM     43  C   UNL A   1      37.602  32.229  30.809  1.00  0.00     0.031 A 
ATOM     44  C   UNL A   1      38.410  31.155  30.133  1.00  0.00     0.074 A 
ATOM     45  C   UNL A   1      37.971  32.691  32.016  1.00  0.00     0.049 A 
ATOM     46  N   UNL A   1      39.425  30.467  30.588  1.00  0.00    -0.248 NA
ATOM     47  C   UNL A   1      38.017  30.812  28.757  1.00  0.00     0.031 C 
ATOM     48  C   UNL A   1      37.308  33.767  32.746  1.00  0.00     0.029 A 
ATOM     49  N   UNL A   1      38.995  32.299  32.842  1.00  0.00    -0.354 N 
ATOM     50  C   UNL A   1      39.784  29.604  29.561  1.00  0.00     0.074 A 
ATOM     51  C   UNL A   1      38.871  29.844  28.464  1.00  0.00     0.031 C 
ATOM     52  C   UNL A   1      37.935  33.944  33.922  1.00  0.00     0.029 A 
ATOM     53  C   UNL A   1      39.016  32.966  34.041  1.00  0.00     0.049 A 
ATOM     54  H   UNL A   1      39.651  31.607  32.598  1.00  0.00     0.167 HD
ATOM     55  C   UNL A   1      40.786  28.693  29.536  1.00  0.00     0.037 A 
ATOM     56  C   UNL A   1      39.800  32.783  35.121  1.00  0.00     0.037 A 
ATOM     57  C   UNL A   1      41.694  28.453  30.625  1.00  0.00     0.049 A 
ATOM     58  C   UNL A   1      40.858  31.709  35.097  1.00  0.00     0.074 A 
ATOM     59  C   UNL A   1      42.737  27.546  30.697  1.00  0.00     0.029 A 
ATOM     60  N   UNL A   1      41.664  29.127  31.836  1.00  0.00    -0.354 N 
ATOM     61  N   UNL A   1      41.186  30.889  34.128  1.00  0.00    -0.248 NA
ATOM     62  C   UNL A   1      41.649  31.531  36.323  1.00  0.00     0.031 C 
ATOM     63  C   UNL A   1      43.315  27.645  31.968  1.00  0.00     0.029 A 
ATOM     64  C   UNL A   1      42.659  28.642  32.670  1.00  0.00     0.049 A 
ATOM     65  H   UNL A   1      41.030  29.843  32.068  1.00  0.00     0.167 HD
ATOM     66  C   UNL A   1      42.231  30.116  34.618  1.00  0.00     0.074 A 
ATOM     67  C   UNL A   1      42.493  30.573  35.966  1.00  0.00     0.031 C 
ATOM     68  C   UNL A   1      42.912  29.117  34.006  1.00  0.00     0.037 A 
BRANCH  55  69
ATOM     69  C   UNL A   1      40.927  27.861  28.297  1.00  0.00     0.064 A 
ATOM     70  C   UNL A   1      41.758  28.253  27.239  1.00  0.00     0.173 A 
ATOM     71  C   UNL A   1      40.238  26.644  28.180  1.00  0.00     0.173 A 
ATOM     72  F   UNL A   1      42.424  29.416  27.298  1.00  0.00    -0.203 F 
ATOM     73  C   UNL A   1      41.879  27.466  26.096  1.00  0.00     0.198 A 
ATOM     74  C   UNL A   1      40.379  25.849  27.046  1.00  0.00     0.198 A 
ATOM     75  F   UNL A   1      39.432  26.225  29.167  1.00  0.00    -0.203 F 
ATOM     76  F   UNL A   1      42.648  27.877  25.079  1.00  0.00    -0.200 F 
ATOM     77  C   UNL A   1      41.194  26.263  26.004  1.00  0.00     0.200 A 
ATOM     78  F   UNL A   1      39.724  24.684  26.962  1.00  0.00    -0.200 F 
ATOM     79  F   UNL A   1      41.314  25.504  24.905  1.00  0.00    -0.200 F 
ENDBRANCH  55  69
BRANCH  56  80
ATOM     80  C   UNL A   1      39.599  33.614  36.336  1.00  0.00     0.064 A 
ATOM     81  C   UNL A   1      38.707  33.220  37.342  1.00  0.00     0.173 A 
ATOM     82  C   UNL A   1      40.273  34.833  36.501  1.00  0.00     0.173 A 
ATOM     83  F   UNL A   1      38.016  32.077  37.214  1.00  0.00    -0.203 F 
ATOM     84  C   UNL A   1      38.481  34.023  38.458  1.00  0.00     0.198 A 
ATOM     85  C   UNL A   1      40.068  35.622  37.630  1.00  0.00     0.198 A 
ATOM     86  F   UNL A   1      41.133  35.258  35.563  1.00  0.00    -0.203 F 
ATOM     87  F   UNL A   1      37.585  33.647  39.381  1.00  0.00    -0.200 F 
ATOM     88  C   UNL A   1      39.166  35.220  38.604  1.00  0.00     0.200 A 
ATOM     89  F   UNL A   1      40.735  36.776  37.770  1.00  0.00    -0.200 F 
ATOM     90  F   UNL A   1      38.946  35.994  39.675  1.00  0.00    -0.200 F 
ENDBRANCH  56  80
BRANCH  68  91
ATOM     91  C   UNL A   1      44.026  28.470  34.774  1.00  0.00     0.064 A 
ATOM     92  C   UNL A   1      45.328  28.990  34.755  1.00  0.00     0.173 A 
ATOM     93  C   UNL A   1      43.777  27.346  35.577  1.00  0.00     0.173 A 
ATOM     94  F   UNL A   1      45.620  30.054  33.991  1.00  0.00    -0.203 F 
ATOM     95  C   UNL A   1      46.346  28.398  35.499  1.00  0.00     0.198 A 
ATOM     96  C   UNL A   1      44.791  26.771  36.338  1.00  0.00     0.198 A 
ATOM     97  F   UNL A   1      42.546  26.815  35.633  1.00  0.00    -0.203 F 
ATOM     98  F   UNL A   1      47.591  28.888  35.438  1.00  0.00    -0.200 F 
ATOM     99  C   UNL A   1      46.075  27.294  36.295  1.00  0.00     0.200 A 
ATOM    100  F   UNL A   1      44.524  25.712  37.115  1.00  0.00    -0.200 F 
ATOM    101  F   UNL A   1      47.053  26.729  37.016  1.00  0.00    -0.200 F 
ENDBRANCH  68  91
ENDBRANCH  42  43
ENDBRANCH  35  37
ENDBRANCH  34  35
ENDBRANCH  33  34
ENDBRANCH  32  33
ENDBRANCH  31  32
ENDBRANCH  30  31
ENDBRANCH   1  30
TORSDOF 22
ENDMDL
MODEL 3
REMARK VINA RESULT:     -11.3      1.337      2.517
REMARK SMILES CCCc1cc(OC(F)(F)F)cc2c1O[C@H](C(F)(F)F)C(C(=O)OCCOCCOCCOC(=O)c1ccc(-c3c4nc(c(-c5c(F)c(F)c(F)c(F)c5F)c5ccc([nH]5)c(-c5c(F)c(F)c(F)c(F)c5F)c5nc(c(-c6c(F)c(F)c(F)c(F)c6F)c6ccc3[nH]6)C=C5)C=C4)cc1)=C2
REMARK SMILES IDX 28 1 27 2 26 3 25 4 24 5 22 6 23 7 21 8 4 9 5 10 14 11 6 12
REMARK SMILES IDX 13 13 15 14 12 15 99 16 16 17 3 18 2 19 1 20 7 21 8 22 9 23
REMARK SMILES IDX 10 24 11 25 17 26 18 27 19 28 20 29 29 30 30 31 31 32 32 33
REMARK SMILES IDX 33 34 34 35 35 36 36 37 37 38 98 39 38 40 97 41 39 42 40 43
REMARK SMILES IDX 41 44 91 45 42 46 96 47 90 48 92 49 43 50 95 51 89 52 88 53
REMARK SMILES IDX 44 55 76 56 56 57 75 58 57 59 60 60 74 61 93 62 58 63 59 64
REMARK SMILES IDX 73 66 94 67 61 68 45 69 46 70 54 71 47 72 48 73 52 74 55 75
REMARK SMILES IDX 49 76 50 77 53 78 51 79 77 80 78 81 86 82 79 83 80 84 84 85
REMARK SMILES IDX 87 86 81 87 82 88 85 89 83 90 62 91 63 92 71 93 64 94 65 95
REMARK SMILES IDX 69 96 72 97 66 98 67 99 70 100 68 101
REMARK H PARENT 92 54 60 65
REMARK Flexibility Score: inf
ROOT
ATOM      1  C   UNL A   1      31.478  29.584  24.650  1.00  0.00     0.188 C 
ENDROOT
BRANCH   1   2
ATOM      2  O   UNL A   1      31.906  28.693  23.632  1.00  0.00    -0.376 OA
BRANCH   2   3
ATOM      3  C   UNL A   1      33.298  28.592  23.351  1.00  0.00     0.202 C 
BRANCH   3   4
ATOM      4  C   UNL A   1      33.675  28.103  21.957  1.00  0.00     0.261 C 
BRANCH   4   5
ATOM      5  O   UNL A   1      34.038  26.707  21.963  1.00  0.00    -0.460 OA
BRANCH   5   6
ATOM      6  C   UNL A   1      32.994  25.852  21.939  1.00  0.00     0.338 C 
ATOM      7  O   UNL A   1      32.087  25.844  21.120  1.00  0.00    -0.246 OA
BRANCH   6   8
ATOM      8  C   UNL A   1      33.109  24.795  22.957  1.00  0.00     0.087 C 
ATOM      9  C   UNL A   1      34.760  21.901  25.438  1.00  0.00    -0.002 A 
ATOM     10  C   UNL A   1      34.059  20.698  25.633  1.00  0.00     0.054 A 
ATOM     11  C   UNL A   1      34.218  22.814  24.533  1.00  0.00     0.131 A 
ATOM     12  C   UNL A   1      32.884  20.412  24.923  1.00  0.00     0.130 A 
ATOM     13  C   UNL A   1      33.029  22.564  23.817  1.00  0.00     0.021 A 
ATOM     14  O   UNL A   1      34.905  23.978  24.337  1.00  0.00    -0.475 OA
ATOM     15  C   UNL A   1      32.368  21.354  24.022  1.00  0.00     0.058 A 
ATOM     16  C   UNL A   1      32.568  23.569  22.841  1.00  0.00     0.027 C 
ATOM     17  C   UNL A   1      34.060  25.112  24.083  1.00  0.00     0.316 C 
BRANCH   9  18
ATOM     18  C   UNL A   1      35.974  22.192  26.306  1.00  0.00     0.039 C 
BRANCH  18  19
ATOM     19  C   UNL A   1      37.389  22.010  25.724  1.00  0.00     0.001 C 
ATOM     20  C   UNL A   1      37.515  20.870  24.713  1.00  0.00     0.004 C 
ENDBRANCH  18  19
ENDBRANCH   9  18
BRANCH  12  21
ATOM     21  O   UNL A   1      32.146  19.266  25.036  1.00  0.00    -0.406 OA
BRANCH  21  22
ATOM     22  C   UNL A   1      32.683  18.081  24.469  1.00  0.00     0.573 C 
ATOM     23  F   UNL A   1      33.924  17.832  24.941  1.00  0.00    -0.132 F 
ATOM     24  F   UNL A   1      31.886  17.019  24.714  1.00  0.00    -0.132 F 
ATOM     25  F   UNL A   1      32.769  18.240  23.129  1.00  0.00    -0.132 F 
ENDBRANCH  21  22
ENDBRANCH  12  21
BRANCH  17  26
ATOM     26  C   UNL A   1      33.370  25.596  25.374  1.00  0.00     0.430 C 
ATOM     27  F   UNL A   1      32.060  25.887  25.206  1.00  0.00    -0.167 F 
ATOM     28  F   UNL A   1      33.452  24.679  26.366  1.00  0.00    -0.167 F 
ATOM     29  F   UNL A   1      33.957  26.721  25.848  1.00  0.00    -0.167 F 
ENDBRANCH  17  26
ENDBRANCH   6   8
ENDBRANCH   5   6
ENDBRANCH   4   5
ENDBRANCH   3   4
ENDBRANCH   2   3
ENDBRANCH   1   2
BRANCH   1  30
ATOM     30  C   UNL A   1      32.427  29.929  25.817  1.00  0.00     0.188 C 
BRANCH  30  31
ATOM     31  O   UNL A   1      31.914  30.583  26.970  1.00  0.00    -0.376 OA
BRANCH  31  32
ATOM     32  C   UNL A   1      31.476  31.931  26.840  1.00  0.00     0.202 C 
BRANCH  32  33
ATOM     33  C   UNL A   1      32.565  32.995  26.927  1.00  0.00     0.261 C 
BRANCH  33  34
ATOM     34  O   UNL A   1      32.347  33.858  28.050  1.00  0.00    -0.460 OA
BRANCH  34  35
ATOM     35  C   UNL A   1      33.436  34.540  28.460  1.00  0.00     0.338 C 
ATOM     36  O   UNL A   1      33.527  35.748  28.673  1.00  0.00    -0.246 OA
BRANCH  35  37
ATOM     37  C   UNL A   1      34.534  33.607  28.723  1.00  0.00     0.060 A 
ATOM     38  C   UNL A   1      34.248  32.390  29.346  1.00  0.00     0.016 A 
ATOM     39  C   UNL A   1      35.849  33.996  28.478  1.00  0.00     0.016 A 
ATOM     40  C   UNL A   1      35.290  31.565  29.770  1.00  0.00     0.010 A 
ATOM     41  C   UNL A   1      36.895  33.179  28.911  1.00  0.00     0.010 A 
ATOM     42  C   UNL A   1      36.620  31.977  29.592  1.00  0.00    -0.014 A 
BRANCH  42  43
ATOM     43  C   UNL A   1      37.719  31.244  30.263  1.00  0.00     0.031 A 
ATOM     44  C   UNL A   1      38.026  31.557  31.702  1.00  0.00     0.074 A 
ATOM     45  C   UNL A   1      38.430  30.310  29.610  1.00  0.00     0.049 A 
ATOM     46  N   UNL A   1      38.999  31.121  32.459  1.00  0.00    -0.248 NA
ATOM     47  C   UNL A   1      37.106  32.487  32.378  1.00  0.00     0.031 C 
ATOM     48  C   UNL A   1      38.193  29.877  28.236  1.00  0.00     0.029 A 
ATOM     49  N   UNL A   1      39.508  29.565  30.021  1.00  0.00    -0.354 N 
ATOM     50  C   UNL A   1      38.818  31.732  33.693  1.00  0.00     0.074 A 
ATOM     51  C   UNL A   1      37.650  32.579  33.582  1.00  0.00     0.031 C 
ATOM     52  C   UNL A   1      39.108  28.947  27.911  1.00  0.00     0.029 A 
ATOM     53  C   UNL A   1      40.017  28.752  29.040  1.00  0.00     0.049 A 
ATOM     54  H   UNL A   1      39.878  29.609  30.932  1.00  0.00     0.167 HD
ATOM     55  C   UNL A   1      39.561  31.598  34.818  1.00  0.00     0.037 A 
ATOM     56  C   UNL A   1      41.111  27.967  29.047  1.00  0.00     0.037 A 
ATOM     57  C   UNL A   1      40.722  30.757  34.930  1.00  0.00     0.049 A 
ATOM     58  C   UNL A   1      41.965  27.895  30.287  1.00  0.00     0.074 A 
ATOM     59  C   UNL A   1      41.544  30.560  36.026  1.00  0.00     0.029 A 
ATOM     60  N   UNL A   1      41.226  29.972  33.905  1.00  0.00    -0.354 N 
ATOM     61  N   UNL A   1      41.796  28.481  31.447  1.00  0.00    -0.248 NA
ATOM     62  C   UNL A   1      43.170  27.054  30.214  1.00  0.00     0.031 C 
ATOM     63  C   UNL A   1      42.569  29.684  35.652  1.00  0.00     0.029 A 
ATOM     64  C   UNL A   1      42.360  29.304  34.336  1.00  0.00     0.049 A 
ATOM     65  H   UNL A   1      40.835  29.901  33.004  1.00  0.00     0.167 HD
ATOM     66  C   UNL A   1      42.855  28.067  32.245  1.00  0.00     0.074 A 
ATOM     67  C   UNL A   1      43.655  27.167  31.442  1.00  0.00     0.031 C 
ATOM     68  C   UNL A   1      43.139  28.403  33.526  1.00  0.00     0.037 A 
BRANCH  55  69
ATOM     69  C   UNL A   1      39.155  32.411  36.010  1.00  0.00     0.064 A 
ATOM     70  C   UNL A   1      38.282  31.904  36.984  1.00  0.00     0.173 A 
ATOM     71  C   UNL A   1      39.665  33.706  36.189  1.00  0.00     0.173 A 
ATOM     72  F   UNL A   1      37.757  30.678  36.847  1.00  0.00    -0.203 F 
ATOM     73  C   UNL A   1      37.918  32.674  38.086  1.00  0.00     0.198 A 
ATOM     74  C   UNL A   1      39.316  34.463  37.304  1.00  0.00     0.198 A 
ATOM     75  F   UNL A   1      40.503  34.234  35.286  1.00  0.00    -0.203 F 
ATOM     76  F   UNL A   1      37.053  32.186  38.985  1.00  0.00    -0.200 F 
ATOM     77  C   UNL A   1      38.440  33.950  38.247  1.00  0.00     0.200 A 
ATOM     78  F   UNL A   1      39.827  35.691  37.463  1.00  0.00    -0.200 F 
ATOM     79  F   UNL A   1      38.092  34.688  39.311  1.00  0.00    -0.200 F 
ENDBRANCH  55  69
BRANCH  56  80
ATOM     80  C   UNL A   1      41.487  27.204  27.829  1.00  0.00     0.064 A 
ATOM     81  C   UNL A   1      40.978  25.920  27.594  1.00  0.00     0.173 A 
ATOM     82  C   UNL A   1      42.387  27.732  26.891  1.00  0.00     0.173 A 
ATOM     83  F   UNL A   1      40.138  25.361  28.478  1.00  0.00    -0.203 F 
ATOM     84  C   UNL A   1      41.369  25.185  26.477  1.00  0.00     0.198 A 
ATOM     85  C   UNL A   1      42.756  27.007  25.761  1.00  0.00     0.198 A 
ATOM     86  F   UNL A   1      42.908  28.954  27.074  1.00  0.00    -0.203 F 
ATOM     87  F   UNL A   1      40.906  23.939  26.302  1.00  0.00    -0.200 F 
ATOM     88  C   UNL A   1      42.253  25.730  25.559  1.00  0.00     0.200 A 
ATOM     89  F   UNL A   1      43.607  27.541  24.873  1.00  0.00    -0.200 F 
ATOM     90  F   UNL A   1      42.632  25.022  24.487  1.00  0.00    -0.200 F 
ENDBRANCH  56  80
BRANCH  68  91
ATOM     91  C   UNL A   1      44.346  27.772  34.154  1.00  0.00     0.064 A 
ATOM     92  C   UNL A   1      45.596  28.407  34.142  1.00  0.00     0.173 A 
ATOM     93  C   UNL A   1      44.240  26.541  34.819  1.00  0.00     0.173 A 
ATOM     94  F   UNL A   1      45.752  29.579  33.506  1.00  0.00    -0.203 F 
ATOM     95  C   UNL A   1      46.701  27.824  34.758  1.00  0.00     0.198 A 
ATOM     96  C   UNL A   1      45.340  25.972  35.454  1.00  0.00     0.198 A 
ATOM     97  F   UNL A   1      43.064  25.896  34.864  1.00  0.00    -0.203 F 
ATOM     98  F   UNL A   1      47.894  28.430  34.702  1.00  0.00    -0.200 F 
ATOM     99  C   UNL A   1      46.570  26.611  35.419  1.00  0.00     0.200 A 
ATOM    100  F   UNL A   1      45.209  24.807  36.102  1.00  0.00    -0.200 F 
ATOM    101  F   UNL A   1      47.632  26.055  36.017  1.00  0.00    -0.200 F 
ENDBRANCH  68  91
ENDBRANCH  42  43
ENDBRANCH  35  37
ENDBRANCH  34  35
ENDBRANCH  33  34
ENDBRANCH  32  33
ENDBRANCH  31  32
ENDBRANCH  30  31
ENDBRANCH   1  30
TORSDOF 22
ENDMDL
