MODEL 1
REMARK VINA RESULT:     -11.1      0.000      0.000
REMARK SMILES CC(=O)c1nnn(-c2ccc(C(=O)OCCOCCOCCOC(=O)c3ccc(-c4c5nc(c(-c6c(F)c(F)c(F)c(F)c6F)c6ccc([nH]6)c(-c6c(F)c(F)c(F)c(F)c6F)c6nc(c(-c7c(F)c(F)c(F)c(F)c7F)c7ccc4[nH]7)C=C6)C=C5)cc3)cc2)c1C
REMARK SMILES IDX 18 1 17 2 16 3 15 4 14 5 12 6 13 7 11 8 8 9 9 10 90 11 10 12
REMARK SMILES IDX 89 13 7 14 4 15 5 16 91 17 6 18 92 19 2 20 1 21 3 22 19 23
REMARK SMILES IDX 20 24 21 25 22 26 23 27 24 28 25 29 26 30 27 31 88 32 28 33
REMARK SMILES IDX 87 34 29 35 30 36 31 37 81 38 32 39 86 40 80 41 82 42 33 43
REMARK SMILES IDX 85 44 79 45 78 46 34 48 66 49 46 50 65 51 47 52 50 53 64 54
REMARK SMILES IDX 83 55 48 56 49 57 63 59 84 60 51 61 35 62 36 63 44 64 37 65
REMARK SMILES IDX 38 66 42 67 45 68 39 69 40 70 43 71 41 72 67 73 68 74 76 75
REMARK SMILES IDX 69 76 70 77 74 78 77 79 71 80 72 81 75 82 73 83 52 84 53 85
REMARK SMILES IDX 61 86 54 87 55 88 59 89 62 90 56 91 57 92 60 93 58 94
REMARK H PARENT 82 47 50 58
REMARK Flexibility Score: inf
ROOT
ATOM      1  C   UNL A   1      39.083  21.595  25.746  1.00  0.00     0.188 C 
ENDROOT
BRANCH   1   2
ATOM      2  O   UNL A   1      37.785  22.159  25.784  1.00  0.00    -0.376 OA
BRANCH   2   3
ATOM      3  C   UNL A   1      36.826  21.610  24.889  1.00  0.00     0.202 C 
BRANCH   3   4
ATOM      4  C   UNL A   1      35.727  22.520  24.302  1.00  0.00     0.261 C 
BRANCH   4   5
ATOM      5  O   UNL A   1      35.551  23.794  24.934  1.00  0.00    -0.460 OA
BRANCH   5   6
ATOM      6  C   UNL A   1      34.521  23.921  25.799  1.00  0.00     0.338 C 
ATOM      7  O   UNL A   1      34.355  23.290  26.828  1.00  0.00    -0.246 OA
BRANCH   6   8
ATOM      8  C   UNL A   1      33.672  25.063  25.378  1.00  0.00     0.060 A 
ATOM      9  C   UNL A   1      31.938  27.066  24.530  1.00  0.00     0.067 A 
ATOM     10  C   UNL A   1      31.622  26.330  25.676  1.00  0.00     0.029 A 
ATOM     11  C   UNL A   1      33.172  26.897  23.889  1.00  0.00     0.029 A 
ATOM     12  C   UNL A   1      32.480  25.305  26.078  1.00  0.00     0.018 A 
ATOM     13  C   UNL A   1      34.044  25.899  24.318  1.00  0.00     0.018 A 
BRANCH   9  14
ATOM     14  N   UNL A   1      30.931  27.850  23.924  1.00  0.00    -0.217 N 
ATOM     15  C   UNL A   1      29.710  29.522  23.231  1.00  0.00     0.151 A 
ATOM     16  N   UNL A   1      29.463  28.427  22.442  1.00  0.00    -0.126 NA
ATOM     17  C   UNL A   1      30.657  29.188  24.185  1.00  0.00     0.073 A 
ATOM     18  N   UNL A   1      30.287  27.454  22.807  1.00  0.00    -0.061 NA
ATOM     19  C   UNL A   1      31.384  29.992  25.199  1.00  0.00     0.069 C 
BRANCH  15  20
ATOM     20  C   UNL A   1      29.088  30.811  22.961  1.00  0.00     0.181 C 
ATOM     21  C   UNL A   1      28.814  31.173  21.520  1.00  0.00     0.095 C 
ATOM     22  O   UNL A   1      28.760  31.574  23.868  1.00  0.00    -0.293 OA
ENDBRANCH  15  20
ENDBRANCH   9  14
ENDBRANCH   6   8
ENDBRANCH   5   6
ENDBRANCH   4   5
ENDBRANCH   3   4
ENDBRANCH   2   3
ENDBRANCH   1   2
BRANCH   1  23
ATOM     23  C   UNL A   1      40.000  22.061  26.896  1.00  0.00     0.188 C 
BRANCH  23  24
ATOM     24  O   UNL A   1      40.611  21.125  27.781  1.00  0.00    -0.376 OA
BRANCH  24  25
ATOM     25  C   UNL A   1      41.159  19.906  27.291  1.00  0.00     0.202 C 
BRANCH  25  26
ATOM     26  C   UNL A   1      42.597  19.859  26.773  1.00  0.00     0.261 C 
BRANCH  26  27
ATOM     27  O   UNL A   1      42.762  20.335  25.444  1.00  0.00    -0.460 OA
BRANCH  27  28
ATOM     28  C   UNL A   1      44.049  20.514  25.079  1.00  0.00     0.338 C 
ATOM     29  O   UNL A   1      44.844  19.656  24.737  1.00  0.00    -0.246 OA
BRANCH  28  30
ATOM     30  C   UNL A   1      44.404  21.935  25.196  1.00  0.00     0.060 A 
ATOM     31  C   UNL A   1      45.316  22.271  26.201  1.00  0.00     0.016 A 
ATOM     32  C   UNL A   1      43.677  22.914  24.505  1.00  0.00     0.016 A 
ATOM     33  C   UNL A   1      45.338  23.567  26.668  1.00  0.00     0.010 A 
ATOM     34  C   UNL A   1      43.693  24.210  24.978  1.00  0.00     0.010 A 
ATOM     35  C   UNL A   1      44.451  24.494  26.115  1.00  0.00    -0.014 A 
BRANCH  35  36
ATOM     36  C   UNL A   1      44.230  25.718  26.860  1.00  0.00     0.031 A 
ATOM     37  C   UNL A   1      45.208  26.806  26.672  1.00  0.00     0.074 A 
ATOM     38  C   UNL A   1      43.135  25.870  27.628  1.00  0.00     0.049 A 
ATOM     39  N   UNL A   1      45.921  27.397  27.575  1.00  0.00    -0.248 NA
ATOM     40  C   UNL A   1      45.448  27.273  25.301  1.00  0.00     0.031 C 
ATOM     41  C   UNL A   1      41.947  25.012  27.675  1.00  0.00     0.029 A 
ATOM     42  N   UNL A   1      42.812  26.903  28.457  1.00  0.00    -0.354 N 
ATOM     43  C   UNL A   1      46.593  28.417  26.914  1.00  0.00     0.074 A 
ATOM     44  C   UNL A   1      46.344  28.238  25.505  1.00  0.00     0.031 C 
ATOM     45  C   UNL A   1      40.958  25.667  28.322  1.00  0.00     0.029 A 
ATOM     46  C   UNL A   1      41.478  26.926  28.829  1.00  0.00     0.049 A 
ATOM     47  H   UNL A   1      43.468  27.570  28.763  1.00  0.00     0.167 HD
ATOM     48  C   UNL A   1      47.152  29.461  27.582  1.00  0.00     0.037 A 
ATOM     49  C   UNL A   1      40.831  27.949  29.434  1.00  0.00     0.037 A 
ATOM     50  C   UNL A   1      47.374  29.171  28.971  1.00  0.00     0.049 A 
ATOM     51  C   UNL A   1      41.847  28.838  30.050  1.00  0.00     0.074 A 
ATOM     52  C   UNL A   1      48.112  28.226  29.657  1.00  0.00     0.029 A 
ATOM     53  N   UNL A   1      46.544  29.738  29.904  1.00  0.00    -0.354 N 
ATOM     54  N   UNL A   1      42.550  28.540  31.106  1.00  0.00    -0.248 NA
ATOM     55  C   UNL A   1      42.350  29.953  29.261  1.00  0.00     0.031 C 
ATOM     56  C   UNL A   1      47.370  27.955  30.843  1.00  0.00     0.029 A 
ATOM     57  C   UNL A   1      46.230  28.757  30.809  1.00  0.00     0.049 A 
ATOM     58  H   UNL A   1      46.234  30.672  29.921  1.00  0.00     0.167 HD
ATOM     59  C   UNL A   1      43.782  29.139  30.889  1.00  0.00     0.074 A 
ATOM     60  C   UNL A   1      43.559  30.093  29.810  1.00  0.00     0.031 C 
ATOM     61  C   UNL A   1      44.925  28.605  31.407  1.00  0.00     0.037 A 
BRANCH  48  62
ATOM     62  C   UNL A   1      47.217  30.851  27.020  1.00  0.00     0.064 A 
ATOM     63  C   UNL A   1      48.436  31.551  27.016  1.00  0.00     0.173 A 
ATOM     64  C   UNL A   1      46.063  31.615  26.738  1.00  0.00     0.173 A 
ATOM     65  F   UNL A   1      49.582  30.924  27.319  1.00  0.00    -0.203 F 
ATOM     66  C   UNL A   1      48.490  32.927  26.782  1.00  0.00     0.198 A 
ATOM     67  C   UNL A   1      46.126  32.975  26.448  1.00  0.00     0.198 A 
ATOM     68  F   UNL A   1      44.832  31.094  26.839  1.00  0.00    -0.203 F 
ATOM     69  F   UNL A   1      49.657  33.575  26.892  1.00  0.00    -0.200 F 
ATOM     70  C   UNL A   1      47.336  33.637  26.496  1.00  0.00     0.200 A 
ATOM     71  F   UNL A   1      44.995  33.649  26.199  1.00  0.00    -0.200 F 
ATOM     72  F   UNL A   1      47.381  34.963  26.316  1.00  0.00    -0.200 F 
ENDBRANCH  48  62
BRANCH  49  73
ATOM     73  C   UNL A   1      39.411  28.340  29.295  1.00  0.00     0.064 A 
ATOM     74  C   UNL A   1      38.564  28.399  30.412  1.00  0.00     0.173 A 
ATOM     75  C   UNL A   1      38.915  28.903  28.102  1.00  0.00     0.173 A 
ATOM     76  F   UNL A   1      38.978  27.932  31.599  1.00  0.00    -0.203 F 
ATOM     77  C   UNL A   1      37.303  28.998  30.343  1.00  0.00     0.198 A 
ATOM     78  C   UNL A   1      37.651  29.486  28.030  1.00  0.00     0.198 A 
ATOM     79  F   UNL A   1      39.682  28.985  27.005  1.00  0.00    -0.203 F 
ATOM     80  F   UNL A   1      36.548  29.092  31.447  1.00  0.00    -0.200 F 
ATOM     81  C   UNL A   1      36.850  29.545  29.154  1.00  0.00     0.200 A 
ATOM     82  F   UNL A   1      37.240  30.040  26.881  1.00  0.00    -0.200 F 
ATOM     83  F   UNL A   1      35.663  30.164  29.100  1.00  0.00    -0.200 F 
ENDBRANCH  49  73
BRANCH  61  84
ATOM     84  C   UNL A   1      44.783  27.567  32.480  1.00  0.00     0.064 A 
ATOM     85  C   UNL A   1      44.559  26.204  32.222  1.00  0.00     0.173 A 
ATOM     86  C   UNL A   1      44.999  27.947  33.813  1.00  0.00     0.173 A 
ATOM     87  F   UNL A   1      44.454  25.751  30.965  1.00  0.00    -0.203 F 
ATOM     88  C   UNL A   1      44.493  25.275  33.258  1.00  0.00     0.198 A 
ATOM     89  C   UNL A   1      44.970  27.010  34.842  1.00  0.00     0.198 A 
ATOM     90  F   UNL A   1      45.279  29.225  34.112  1.00  0.00    -0.203 F 
ATOM     91  F   UNL A   1      44.255  23.984  32.988  1.00  0.00    -0.200 F 
ATOM     92  C   UNL A   1      44.703  25.679  34.567  1.00  0.00     0.200 A 
ATOM     93  F   UNL A   1      45.224  27.394  36.100  1.00  0.00    -0.200 F 
ATOM     94  F   UNL A   1      44.673  24.779  35.560  1.00  0.00    -0.200 F 
ENDBRANCH  61  84
ENDBRANCH  35  36
ENDBRANCH  28  30
ENDBRANCH  27  28
ENDBRANCH  26  27
ENDBRANCH  25  26
ENDBRANCH  24  25
ENDBRANCH  23  24
ENDBRANCH   1  23
TORSDOF 19
ENDMDL
MODEL 2
REMARK VINA RESULT:     -11.1      4.577     10.218
REMARK SMILES CC(=O)c1nnn(-c2ccc(C(=O)OCCOCCOCCOC(=O)c3ccc(-c4c5nc(c(-c6c(F)c(F)c(F)c(F)c6F)c6ccc([nH]6)c(-c6c(F)c(F)c(F)c(F)c6F)c6nc(c(-c7c(F)c(F)c(F)c(F)c7F)c7ccc4[nH]7)C=C6)C=C5)cc3)cc2)c1C
REMARK SMILES IDX 18 1 17 2 16 3 15 4 14 5 12 6 13 7 11 8 8 9 9 10 90 11 10 12
REMARK SMILES IDX 89 13 7 14 4 15 5 16 91 17 6 18 92 19 2 20 1 21 3 22 19 23
REMARK SMILES IDX 20 24 21 25 22 26 23 27 24 28 25 29 26 30 27 31 88 32 28 33
REMARK SMILES IDX 87 34 29 35 30 36 31 37 81 38 32 39 86 40 80 41 82 42 33 43
REMARK SMILES IDX 85 44 79 45 78 46 34 48 66 49 46 50 65 51 47 52 50 53 64 54
REMARK SMILES IDX 83 55 48 56 49 57 63 59 84 60 51 61 35 62 36 63 44 64 37 65
REMARK SMILES IDX 38 66 42 67 45 68 39 69 40 70 43 71 41 72 67 73 68 74 76 75
REMARK SMILES IDX 69 76 70 77 74 78 77 79 71 80 72 81 75 82 73 83 52 84 53 85
REMARK SMILES IDX 61 86 54 87 55 88 59 89 62 90 56 91 57 92 60 93 58 94
REMARK H PARENT 82 47 50 58
REMARK Flexibility Score: inf
ROOT
ATOM      1  C   UNL A   1      34.036  30.813  27.336  1.00  0.00     0.188 C 
ENDROOT
BRANCH   1   2
ATOM      2  O   UNL A   1      32.683  30.517  27.043  1.00  0.00    -0.376 OA
BRANCH   2   3
ATOM      3  C   UNL A   1      32.422  29.905  25.786  1.00  0.00     0.202 C 
BRANCH   3   4
ATOM      4  C   UNL A   1      32.299  28.370  25.700  1.00  0.00     0.261 C 
BRANCH   4   5
ATOM      5  O   UNL A   1      33.512  27.647  25.462  1.00  0.00    -0.460 OA
BRANCH   5   6
ATOM      6  C   UNL A   1      33.651  27.043  24.261  1.00  0.00     0.338 C 
ATOM      7  O   UNL A   1      33.598  27.579  23.169  1.00  0.00    -0.246 OA
BRANCH   6   8
ATOM      8  C   UNL A   1      34.025  25.622  24.473  1.00  0.00     0.060 A 
ATOM      9  C   UNL A   1      34.553  22.907  24.768  1.00  0.00     0.067 A 
ATOM     10  C   UNL A   1      34.662  23.490  23.502  1.00  0.00     0.029 A 
ATOM     11  C   UNL A   1      34.314  23.696  25.900  1.00  0.00     0.029 A 
ATOM     12  C   UNL A   1      34.365  24.846  23.354  1.00  0.00     0.018 A 
ATOM     13  C   UNL A   1      34.057  25.058  25.754  1.00  0.00     0.018 A 
BRANCH   9  14
ATOM     14  N   UNL A   1      34.508  21.499  24.869  1.00  0.00    -0.217 N 
ATOM     15  C   UNL A   1      33.913  19.404  24.706  1.00  0.00     0.151 A 
ATOM     16  N   UNL A   1      35.262  19.471  24.946  1.00  0.00    -0.126 NA
ATOM     17  C   UNL A   1      33.401  20.690  24.640  1.00  0.00     0.073 A 
ATOM     18  N   UNL A   1      35.625  20.747  24.937  1.00  0.00    -0.061 NA
ATOM     19  C   UNL A   1      32.060  21.215  24.284  1.00  0.00     0.069 C 
BRANCH  15  20
ATOM     20  C   UNL A   1      33.242  18.132  24.481  1.00  0.00     0.181 C 
ATOM     21  C   UNL A   1      33.948  17.104  23.627  1.00  0.00     0.095 C 
ATOM     22  O   UNL A   1      32.153  17.874  24.991  1.00  0.00    -0.293 OA
ENDBRANCH  15  20
ENDBRANCH   9  14
ENDBRANCH   6   8
ENDBRANCH   5   6
ENDBRANCH   4   5
ENDBRANCH   3   4
ENDBRANCH   2   3
ENDBRANCH   1   2
BRANCH   1  23
ATOM     23  C   UNL A   1      34.218  31.887  28.428  1.00  0.00     0.188 C 
BRANCH  23  24
ATOM     24  O   UNL A   1      34.528  33.237  28.094  1.00  0.00    -0.376 OA
BRANCH  24  25
ATOM     25  C   UNL A   1      33.529  34.250  28.140  1.00  0.00     0.202 C 
BRANCH  25  26
ATOM     26  C   UNL A   1      33.489  35.241  29.303  1.00  0.00     0.261 C 
BRANCH  26  27
ATOM     27  O   UNL A   1      32.902  34.733  30.494  1.00  0.00    -0.460 OA
BRANCH  27  28
ATOM     28  C   UNL A   1      33.330  35.339  31.621  1.00  0.00     0.338 C 
ATOM     29  O   UNL A   1      32.948  36.403  32.076  1.00  0.00    -0.246 OA
BRANCH  28  30
ATOM     30  C   UNL A   1      34.398  34.540  32.238  1.00  0.00     0.060 A 
ATOM     31  C   UNL A   1      35.548  35.230  32.631  1.00  0.00     0.016 A 
ATOM     32  C   UNL A   1      34.358  33.139  32.199  1.00  0.00     0.016 A 
ATOM     33  C   UNL A   1      36.725  34.529  32.770  1.00  0.00     0.010 A 
ATOM     34  C   UNL A   1      35.539  32.438  32.331  1.00  0.00     0.010 A 
ATOM     35  C   UNL A   1      36.721  33.154  32.518  1.00  0.00    -0.014 A 
BRANCH  35  36
ATOM     36  C   UNL A   1      38.008  32.520  32.305  1.00  0.00     0.031 A 
ATOM     37  C   UNL A   1      38.911  32.424  33.466  1.00  0.00     0.074 A 
ATOM     38  C   UNL A   1      38.322  31.982  31.112  1.00  0.00     0.049 A 
ATOM     39  N   UNL A   1      40.117  32.879  33.575  1.00  0.00    -0.248 NA
ATOM     40  C   UNL A   1      38.396  31.763  34.672  1.00  0.00     0.031 C 
ATOM     41  C   UNL A   1      37.428  31.739  29.975  1.00  0.00     0.029 A 
ATOM     42  N   UNL A   1      39.502  31.432  30.709  1.00  0.00    -0.354 N 
ATOM     43  C   UNL A   1      40.575  32.435  34.809  1.00  0.00     0.074 A 
ATOM     44  C   UNL A   1      39.450  31.838  35.484  1.00  0.00     0.031 C 
ATOM     45  C   UNL A   1      38.041  30.909  29.103  1.00  0.00     0.029 A 
ATOM     46  C   UNL A   1      39.399  30.661  29.563  1.00  0.00     0.049 A 
ATOM     47  H   UNL A   1      40.350  31.572  31.189  1.00  0.00     0.167 HD
ATOM     48  C   UNL A   1      41.899  32.412  35.118  1.00  0.00     0.037 A 
ATOM     49  C   UNL A   1      40.334  29.812  29.079  1.00  0.00     0.037 A 
ATOM     50  C   UNL A   1      42.677  33.278  34.277  1.00  0.00     0.049 A 
ATOM     51  C   UNL A   1      41.642  30.174  29.682  1.00  0.00     0.074 A 
ATOM     52  C   UNL A   1      42.673  34.635  34.020  1.00  0.00     0.029 A 
ATOM     53  N   UNL A   1      43.462  32.720  33.301  1.00  0.00    -0.354 N 
ATOM     54  N   UNL A   1      42.325  31.243  29.382  1.00  0.00    -0.248 NA
ATOM     55  C   UNL A   1      42.035  29.508  30.914  1.00  0.00     0.031 C 
ATOM     56  C   UNL A   1      43.065  34.762  32.655  1.00  0.00     0.029 A 
ATOM     57  C   UNL A   1      43.290  33.474  32.169  1.00  0.00     0.049 A 
ATOM     58  H   UNL A   1      44.040  31.929  33.396  1.00  0.00     0.167 HD
ATOM     59  C   UNL A   1      42.938  31.613  30.570  1.00  0.00     0.074 A 
ATOM     60  C   UNL A   1      42.828  30.447  31.436  1.00  0.00     0.031 C 
ATOM     61  C   UNL A   1      43.222  32.921  30.838  1.00  0.00     0.037 A 
BRANCH  48  62
ATOM     62  C   UNL A   1      42.515  31.364  35.998  1.00  0.00     0.064 A 
ATOM     63  C   UNL A   1      43.305  31.744  37.097  1.00  0.00     0.173 A 
ATOM     64  C   UNL A   1      42.578  30.001  35.632  1.00  0.00     0.173 A 
ATOM     65  F   UNL A   1      43.349  33.025  37.493  1.00  0.00    -0.203 F 
ATOM     66  C   UNL A   1      44.127  30.830  37.760  1.00  0.00     0.198 A 
ATOM     67  C   UNL A   1      43.355  29.081  36.330  1.00  0.00     0.198 A 
ATOM     68  F   UNL A   1      41.977  29.540  34.526  1.00  0.00    -0.203 F 
ATOM     69  F   UNL A   1      44.943  31.254  38.734  1.00  0.00    -0.200 F 
ATOM     70  C   UNL A   1      44.149  29.500  37.378  1.00  0.00     0.200 A 
ATOM     71  F   UNL A   1      43.383  27.802  35.929  1.00  0.00    -0.200 F 
ATOM     72  F   UNL A   1      44.970  28.633  37.983  1.00  0.00    -0.200 F 
ENDBRANCH  48  62
BRANCH  49  73
ATOM     73  C   UNL A   1      40.126  28.555  28.328  1.00  0.00     0.064 A 
ATOM     74  C   UNL A   1      40.763  28.332  27.098  1.00  0.00     0.173 A 
ATOM     75  C   UNL A   1      39.493  27.442  28.917  1.00  0.00     0.173 A 
ATOM     76  F   UNL A   1      41.432  29.324  26.494  1.00  0.00    -0.203 F 
ATOM     77  C   UNL A   1      40.778  27.068  26.501  1.00  0.00     0.198 A 
ATOM     78  C   UNL A   1      39.494  26.186  28.313  1.00  0.00     0.198 A 
ATOM     79  F   UNL A   1      38.941  27.526  30.136  1.00  0.00    -0.203 F 
ATOM     80  F   UNL A   1      41.451  26.879  25.356  1.00  0.00    -0.200 F 
ATOM     81  C   UNL A   1      40.149  25.996  27.110  1.00  0.00     0.200 A 
ATOM     82  F   UNL A   1      38.909  25.150  28.931  1.00  0.00    -0.200 F 
ATOM     83  F   UNL A   1      40.206  24.774  26.564  1.00  0.00    -0.200 F 
ENDBRANCH  49  73
BRANCH  61  84
ATOM     84  C   UNL A   1      43.168  33.891  29.696  1.00  0.00     0.064 A 
ATOM     85  C   UNL A   1      44.255  34.154  28.845  1.00  0.00     0.173 A 
ATOM     86  C   UNL A   1      41.939  34.486  29.380  1.00  0.00     0.173 A 
ATOM     87  F   UNL A   1      45.431  33.535  29.019  1.00  0.00    -0.203 F 
ATOM     88  C   UNL A   1      44.130  35.022  27.762  1.00  0.00     0.198 A 
ATOM     89  C   UNL A   1      41.807  35.324  28.276  1.00  0.00     0.198 A 
ATOM     90  F   UNL A   1      40.852  34.222  30.122  1.00  0.00    -0.203 F 
ATOM     91  F   UNL A   1      45.187  35.275  26.978  1.00  0.00    -0.200 F 
ATOM     92  C   UNL A   1      42.904  35.603  27.477  1.00  0.00     0.200 A 
ATOM     93  F   UNL A   1      40.610  35.844  27.973  1.00  0.00    -0.200 F 
ATOM     94  F   UNL A   1      42.775  36.412  26.416  1.00  0.00    -0.200 F 
ENDBRANCH  61  84
ENDBRANCH  35  36
ENDBRANCH  28  30
ENDBRANCH  27  28
ENDBRANCH  26  27
ENDBRANCH  25  26
ENDBRANCH  24  25
ENDBRANCH  23  24
ENDBRANCH   1  23
TORSDOF 19
ENDMDL
MODEL 3
REMARK VINA RESULT:     -11.0      1.094      2.100
REMARK SMILES CC(=O)c1nnn(-c2ccc(C(=O)OCCOCCOCCOC(=O)c3ccc(-c4c5nc(c(-c6c(F)c(F)c(F)c(F)c6F)c6ccc([nH]6)c(-c6c(F)c(F)c(F)c(F)c6F)c6nc(c(-c7c(F)c(F)c(F)c(F)c7F)c7ccc4[nH]7)C=C6)C=C5)cc3)cc2)c1C
REMARK SMILES IDX 18 1 17 2 16 3 15 4 14 5 12 6 13 7 11 8 8 9 9 10 90 11 10 12
REMARK SMILES IDX 89 13 7 14 4 15 5 16 91 17 6 18 92 19 2 20 1 21 3 22 19 23
REMARK SMILES IDX 20 24 21 25 22 26 23 27 24 28 25 29 26 30 27 31 88 32 28 33
REMARK SMILES IDX 87 34 29 35 30 36 31 37 81 38 32 39 86 40 80 41 82 42 33 43
REMARK SMILES IDX 85 44 79 45 78 46 34 48 66 49 46 50 65 51 47 52 50 53 64 54
REMARK SMILES IDX 83 55 48 56 49 57 63 59 84 60 51 61 35 62 36 63 44 64 37 65
REMARK SMILES IDX 38 66 42 67 45 68 39 69 40 70 43 71 41 72 67 73 68 74 76 75
REMARK SMILES IDX 69 76 70 77 74 78 77 79 71 80 72 81 75 82 73 83 52 84 53 85
REMARK SMILES IDX 61 86 54 87 55 88 59 89 62 90 56 91 57 92 60 93 58 94
REMARK H PARENT 82 47 50 58
REMARK Flexibility Score: inf
ROOT
ATOM      1  C   UNL A   1      39.257  22.577  26.498  1.00  0.00     0.188 C 
ENDROOT
BRANCH   1   2
ATOM      2  O   UNL A   1      38.126  22.593  25.647  1.00  0.00    -0.376 OA
BRANCH   2   3
ATOM      3  C   UNL A   1      37.299  23.748  25.707  1.00  0.00     0.202 C 
BRANCH   3   4
ATOM      4  C   UNL A   1      35.845  23.669  25.198  1.00  0.00     0.261 C 
BRANCH   4   5
ATOM      5  O   UNL A   1      35.019  24.812  25.450  1.00  0.00    -0.460 OA
BRANCH   5   6
ATOM      6  C   UNL A   1      33.765  24.585  25.899  1.00  0.00     0.338 C 
ATOM      7  O   UNL A   1      33.419  23.714  26.677  1.00  0.00    -0.246 OA
BRANCH   6   8
ATOM      8  C   UNL A   1      32.871  25.663  25.405  1.00  0.00     0.060 A 
ATOM      9  C   UNL A   1      31.343  27.818  24.535  1.00  0.00     0.067 A 
ATOM     10  C   UNL A   1      32.485  27.455  23.813  1.00  0.00     0.029 A 
ATOM     11  C   UNL A   1      30.892  27.032  25.603  1.00  0.00     0.029 A 
ATOM     12  C   UNL A   1      33.265  26.393  24.274  1.00  0.00     0.018 A 
ATOM     13  C   UNL A   1      31.653  25.947  26.035  1.00  0.00     0.018 A 
BRANCH   9  14
ATOM     14  N   UNL A   1      30.754  29.078  24.290  1.00  0.00    -0.217 N 
ATOM     15  C   UNL A   1      29.377  30.670  23.707  1.00  0.00     0.151 A 
ATOM     16  N   UNL A   1      30.278  31.164  24.617  1.00  0.00    -0.126 NA
ATOM     17  C   UNL A   1      29.649  29.330  23.484  1.00  0.00     0.073 A 
ATOM     18  N   UNL A   1      31.037  30.162  25.039  1.00  0.00    -0.061 NA
ATOM     19  C   UNL A   1      28.937  28.280  22.714  1.00  0.00     0.069 C 
BRANCH  15  20
ATOM     20  C   UNL A   1      28.290  31.489  23.190  1.00  0.00     0.181 C 
ATOM     21  C   UNL A   1      28.538  32.268  21.919  1.00  0.00     0.095 C 
ATOM     22  O   UNL A   1      27.190  31.528  23.738  1.00  0.00    -0.293 OA
ENDBRANCH  15  20
ENDBRANCH   9  14
ENDBRANCH   6   8
ENDBRANCH   5   6
ENDBRANCH   4   5
ENDBRANCH   3   4
ENDBRANCH   2   3
ENDBRANCH   1   2
BRANCH   1  23
ATOM     23  C   UNL A   1      40.299  21.499  26.132  1.00  0.00     0.188 C 
BRANCH  23  24
ATOM     24  O   UNL A   1      41.352  21.154  27.029  1.00  0.00    -0.376 OA
BRANCH  24  25
ATOM     25  C   UNL A   1      41.793  19.806  27.154  1.00  0.00     0.202 C 
BRANCH  25  26
ATOM     26  C   UNL A   1      42.915  19.275  26.262  1.00  0.00     0.261 C 
BRANCH  26  27
ATOM     27  O   UNL A   1      43.044  19.942  25.013  1.00  0.00    -0.460 OA
BRANCH  27  28
ATOM     28  C   UNL A   1      44.320  20.171  24.639  1.00  0.00     0.338 C 
ATOM     29  O   UNL A   1      45.120  19.357  24.211  1.00  0.00    -0.246 OA
BRANCH  28  30
ATOM     30  C   UNL A   1      44.656  21.583  24.868  1.00  0.00     0.060 A 
ATOM     31  C   UNL A   1      45.643  21.844  25.824  1.00  0.00     0.016 A 
ATOM     32  C   UNL A   1      43.855  22.604  24.339  1.00  0.00     0.016 A 
ATOM     33  C   UNL A   1      45.679  23.088  26.414  1.00  0.00     0.010 A 
ATOM     34  C   UNL A   1      43.886  23.848  24.936  1.00  0.00     0.010 A 
ATOM     35  C   UNL A   1      44.731  24.040  26.030  1.00  0.00    -0.014 A 
BRANCH  35  36
ATOM     36  C   UNL A   1      44.550  25.180  26.909  1.00  0.00     0.031 A 
ATOM     37  C   UNL A   1      45.629  26.184  26.939  1.00  0.00     0.074 A 
ATOM     38  C   UNL A   1      43.408  25.339  27.605  1.00  0.00     0.049 A 
ATOM     39  N   UNL A   1      46.308  26.591  27.962  1.00  0.00    -0.248 NA
ATOM     40  C   UNL A   1      46.025  26.792  25.662  1.00  0.00     0.031 C 
ATOM     41  C   UNL A   1      42.153  24.598  27.450  1.00  0.00     0.029 A 
ATOM     42  N   UNL A   1      43.102  26.288  28.533  1.00  0.00    -0.354 N 
ATOM     43  C   UNL A   1      47.118  27.616  27.491  1.00  0.00     0.074 A 
ATOM     44  C   UNL A   1      46.978  27.636  26.056  1.00  0.00     0.031 C 
ATOM     45  C   UNL A   1      41.170  25.259  28.100  1.00  0.00     0.029 A 
ATOM     46  C   UNL A   1      41.748  26.392  28.804  1.00  0.00     0.049 A 
ATOM     47  H   UNL A   1      43.783  26.848  28.973  1.00  0.00     0.167 HD
ATOM     48  C   UNL A   1      47.702  28.513  28.329  1.00  0.00     0.037 A 
ATOM     49  C   UNL A   1      41.139  27.390  29.485  1.00  0.00     0.037 A 
ATOM     50  C   UNL A   1      47.777  28.036  29.682  1.00  0.00     0.049 A 
ATOM     51  C   UNL A   1      42.168  28.097  30.287  1.00  0.00     0.074 A 
ATOM     52  C   UNL A   1      48.370  26.948  30.293  1.00  0.00     0.029 A 
ATOM     53  N   UNL A   1      46.920  28.560  30.615  1.00  0.00    -0.354 N 
ATOM     54  N   UNL A   1      42.749  27.607  31.345  1.00  0.00    -0.248 NA
ATOM     55  C   UNL A   1      42.830  29.247  29.689  1.00  0.00     0.031 C 
ATOM     56  C   UNL A   1      47.508  26.606  31.374  1.00  0.00     0.029 A 
ATOM     57  C   UNL A   1      46.446  27.510  31.359  1.00  0.00     0.049 A 
ATOM     58  H   UNL A   1      46.689  29.510  30.730  1.00  0.00     0.167 HD
ATOM     59  C   UNL A   1      44.041  28.109  31.302  1.00  0.00     0.074 A 
ATOM     60  C   UNL A   1      43.994  29.204  30.342  1.00  0.00     0.031 C 
ATOM     61  C   UNL A   1      45.087  27.409  31.832  1.00  0.00     0.037 A 
BRANCH  48  62
ATOM     62  C   UNL A   1      47.933  29.949  27.960  1.00  0.00     0.064 A 
ATOM     63  C   UNL A   1      46.850  30.759  27.577  1.00  0.00     0.173 A 
ATOM     64  C   UNL A   1      49.220  30.474  27.707  1.00  0.00     0.173 A 
ATOM     65  F   UNL A   1      45.589  30.329  27.733  1.00  0.00    -0.203 F 
ATOM     66  C   UNL A   1      47.044  31.994  26.952  1.00  0.00     0.198 A 
ATOM     67  C   UNL A   1      49.409  31.729  27.136  1.00  0.00     0.198 A 
ATOM     68  F   UNL A   1      50.328  29.747  27.905  1.00  0.00    -0.203 F 
ATOM     69  F   UNL A   1      45.987  32.687  26.508  1.00  0.00    -0.200 F 
ATOM     70  C   UNL A   1      48.322  32.478  26.735  1.00  0.00     0.200 A 
ATOM     71  F   UNL A   1      50.655  32.170  26.910  1.00  0.00    -0.200 F 
ATOM     72  F   UNL A   1      48.509  33.639  26.095  1.00  0.00    -0.200 F 
ENDBRANCH  48  62
BRANCH  49  73
ATOM     73  C   UNL A   1      39.775  27.927  29.291  1.00  0.00     0.064 A 
ATOM     74  C   UNL A   1      38.877  28.027  30.365  1.00  0.00     0.173 A 
ATOM     75  C   UNL A   1      39.404  28.584  28.101  1.00  0.00     0.173 A 
ATOM     76  F   UNL A   1      39.175  27.474  31.548  1.00  0.00    -0.203 F 
ATOM     77  C   UNL A   1      37.686  28.753  30.258  1.00  0.00     0.198 A 
ATOM     78  C   UNL A   1      38.209  29.294  27.989  1.00  0.00     0.198 A 
ATOM     79  F   UNL A   1      40.235  28.631  27.050  1.00  0.00    -0.203 F 
ATOM     80  F   UNL A   1      36.884  28.879  31.324  1.00  0.00    -0.200 F 
ATOM     81  C   UNL A   1      37.356  29.389  29.073  1.00  0.00     0.200 A 
ATOM     82  F   UNL A   1      37.920  29.932  26.847  1.00  0.00    -0.200 F 
ATOM     83  F   UNL A   1      36.241  30.127  28.985  1.00  0.00    -0.200 F 
ENDBRANCH  49  73
BRANCH  61  84
ATOM     84  C   UNL A   1      44.764  26.266  32.747  1.00  0.00     0.064 A 
ATOM     85  C   UNL A   1      44.579  26.405  34.133  1.00  0.00     0.173 A 
ATOM     86  C   UNL A   1      44.516  25.007  32.184  1.00  0.00     0.173 A 
ATOM     87  F   UNL A   1      44.690  27.603  34.726  1.00  0.00    -0.203 F 
ATOM     88  C   UNL A   1      44.223  25.316  34.926  1.00  0.00     0.198 A 
ATOM     89  C   UNL A   1      44.124  23.929  32.973  1.00  0.00     0.198 A 
ATOM     90  F   UNL A   1      44.616  24.830  30.857  1.00  0.00    -0.203 F 
ATOM     91  F   UNL A   1      44.075  25.469  36.250  1.00  0.00    -0.200 F 
ATOM     92  C   UNL A   1      43.991  24.080  34.344  1.00  0.00     0.200 A 
ATOM     93  F   UNL A   1      43.850  22.748  32.402  1.00  0.00    -0.200 F 
ATOM     94  F   UNL A   1      43.615  23.041  35.103  1.00  0.00    -0.200 F 
ENDBRANCH  61  84
ENDBRANCH  35  36
ENDBRANCH  28  30
ENDBRANCH  27  28
ENDBRANCH  26  27
ENDBRANCH  25  26
ENDBRANCH  24  25
ENDBRANCH  23  24
ENDBRANCH   1  23
TORSDOF 19
ENDMDL
