MODEL 1
REMARK VINA RESULT:     -11.5      0.000      0.000
REMARK SMILES Cc1ccc(S(=O)(=O)Nc2cc3c(cc2C(=O)OCCOCCOCCOC(=O)c2ccc(-c4c5nc(c(-c6c(F)c(F)c(F)c(F)c6F)c6ccc([nH]6)c(-c6c(F)c(F)c(F)c(F)c6F)c6nc(c(-c7c(F)c(F)c(F)c(F)c7F)c7ccc4[nH]7)C=C6)C=C5)cc2)OCCO3)s1
REMARK SMILES IDX 22 1 21 2 20 3 19 4 18 5 16 6 17 7 15 8 10 9 11 10 12 11
REMARK SMILES IDX 14 12 13 13 96 14 93 15 95 16 94 17 9 18 6 20 7 21 8 22 5 23
REMARK SMILES IDX 1 24 2 25 3 26 97 27 4 28 23 29 24 30 25 31 26 32 27 33
REMARK SMILES IDX 28 34 29 35 30 36 31 37 92 38 32 39 91 40 33 41 34 42 35 43
REMARK SMILES IDX 85 44 36 45 90 46 84 47 86 48 37 49 89 50 83 51 82 52 38 54
REMARK SMILES IDX 70 55 50 56 69 57 51 58 54 59 68 60 87 61 52 62 53 63 67 65
REMARK SMILES IDX 88 66 55 67 39 68 40 69 48 70 41 71 42 72 46 73 49 74 43 75
REMARK SMILES IDX 44 76 47 77 45 78 71 79 72 80 80 81 73 82 74 83 78 84 81 85
REMARK SMILES IDX 75 86 76 87 79 88 77 89 56 90 57 91 65 92 58 93 59 94 63 95
REMARK SMILES IDX 66 96 60 97 61 98 64 99 62 100
REMARK H PARENT 9 19 86 53 54 64
REMARK Flexibility Score: inf
ROOT
ATOM      1  C   UNL A   1      40.526  21.334  26.955  1.00  0.00     0.188 C 
ENDROOT
BRANCH   1   2
ATOM      2  O   UNL A   1      39.865  21.882  25.821  1.00  0.00    -0.376 OA
BRANCH   2   3
ATOM      3  C   UNL A   1      38.452  21.736  25.762  1.00  0.00     0.202 C 
BRANCH   3   4
ATOM      4  C   UNL A   1      37.647  23.029  25.917  1.00  0.00     0.261 C 
BRANCH   4   5
ATOM      5  O   UNL A   1      36.225  22.833  26.094  1.00  0.00    -0.460 OA
BRANCH   5   6
ATOM      6  C   UNL A   1      35.504  22.867  24.943  1.00  0.00     0.340 C 
ATOM      7  O   UNL A   1      35.495  23.772  24.121  1.00  0.00    -0.246 OA
BRANCH   6   8
ATOM      8  C   UNL A   1      34.603  21.700  24.800  1.00  0.00     0.088 A 
ATOM      9  C   UNL A   1      33.223  21.876  25.003  1.00  0.00     0.067 A 
ATOM     10  C   UNL A   1      32.392  20.780  25.239  1.00  0.00     0.078 A 
ATOM     11  C   UNL A   1      32.906  19.498  25.093  1.00  0.00     0.163 A 
ATOM     12  C   UNL A   1      35.119  20.407  24.659  1.00  0.00     0.068 A 
ATOM     13  C   UNL A   1      34.251  19.314  24.745  1.00  0.00     0.162 A 
ATOM     14  O   UNL A   1      31.999  18.477  25.198  1.00  0.00    -0.486 OA
ATOM     15  O   UNL A   1      34.772  18.078  24.461  1.00  0.00    -0.486 OA
ATOM     16  C   UNL A   1      32.628  17.193  25.178  1.00  0.00     0.271 C 
ATOM     17  C   UNL A   1      33.728  17.149  24.130  1.00  0.00     0.271 C 
BRANCH   9  18
ATOM     18  N   UNL A   1      32.618  23.135  24.689  1.00  0.00    -0.278 N 
ATOM     19  H   UNL A   1      32.529  23.470  23.768  1.00  0.00     0.180 HD
BRANCH  18  20
ATOM     20  S   UNL A   1      32.060  24.010  26.053  1.00  0.00     0.271 S 
ATOM     21  O   UNL A   1      32.709  23.437  27.203  1.00  0.00    -0.200 OA
ATOM     22  O   UNL A   1      30.612  24.054  25.948  1.00  0.00    -0.200 OA
BRANCH  20  23
ATOM     23  C   UNL A   1      32.558  25.732  25.947  1.00  0.00     0.140 A 
ATOM     24  C   UNL A   1      31.753  29.575  25.821  1.00  0.00     0.056 C 
ATOM     25  C   UNL A   1      32.344  28.208  25.882  1.00  0.00     0.003 A 
ATOM     26  C   UNL A   1      33.655  27.801  25.780  1.00  0.00     0.016 A 
ATOM     27  S   UNL A   1      31.323  26.874  26.100  1.00  0.00    -0.127 S 
ATOM     28  C   UNL A   1      33.771  26.373  25.763  1.00  0.00     0.034 A 
ENDBRANCH  20  23
ENDBRANCH  18  20
ENDBRANCH   9  18
ENDBRANCH   6   8
ENDBRANCH   5   6
ENDBRANCH   4   5
ENDBRANCH   3   4
ENDBRANCH   2   3
ENDBRANCH   1   2
BRANCH   1  29
ATOM     29  C   UNL A   1      41.771  20.491  26.685  1.00  0.00     0.188 C 
BRANCH  29  30
ATOM     30  O   UNL A   1      41.997  19.427  27.609  1.00  0.00    -0.376 OA
BRANCH  30  31
ATOM     31  C   UNL A   1      42.819  18.404  27.014  1.00  0.00     0.202 C 
BRANCH  31  32
ATOM     32  C   UNL A   1      43.083  18.653  25.522  1.00  0.00     0.261 C 
BRANCH  32  33
ATOM     33  O   UNL A   1      44.470  18.519  25.147  1.00  0.00    -0.460 OA
BRANCH  33  34
ATOM     34  C   UNL A   1      44.936  19.240  24.099  1.00  0.00     0.338 C 
ATOM     35  O   UNL A   1      45.254  18.820  22.999  1.00  0.00    -0.246 OA
BRANCH  34  36
ATOM     36  C   UNL A   1      44.968  20.672  24.498  1.00  0.00     0.060 A 
ATOM     37  C   UNL A   1      44.565  21.665  23.598  1.00  0.00     0.016 A 
ATOM     38  C   UNL A   1      45.395  21.032  25.780  1.00  0.00     0.016 A 
ATOM     39  C   UNL A   1      44.503  23.004  24.011  1.00  0.00     0.010 A 
ATOM     40  C   UNL A   1      45.393  22.375  26.170  1.00  0.00     0.010 A 
ATOM     41  C   UNL A   1      44.934  23.373  25.296  1.00  0.00    -0.014 A 
BRANCH  41  42
ATOM     42  C   UNL A   1      45.060  24.801  25.696  1.00  0.00     0.031 A 
ATOM     43  C   UNL A   1      46.413  25.454  25.635  1.00  0.00     0.074 A 
ATOM     44  C   UNL A   1      44.011  25.495  26.180  1.00  0.00     0.049 A 
ATOM     45  N   UNL A   1      46.779  26.650  26.024  1.00  0.00    -0.248 NA
ATOM     46  C   UNL A   1      47.503  24.648  25.066  1.00  0.00     0.031 C 
ATOM     47  C   UNL A   1      42.640  25.002  26.271  1.00  0.00     0.029 A 
ATOM     48  N   UNL A   1      43.945  26.764  26.709  1.00  0.00    -0.354 N 
ATOM     49  C   UNL A   1      48.132  26.743  25.731  1.00  0.00     0.074 A 
ATOM     50  C   UNL A   1      48.527  25.483  25.140  1.00  0.00     0.031 C 
ATOM     51  C   UNL A   1      41.868  25.948  26.834  1.00  0.00     0.029 A 
ATOM     52  C   UNL A   1      42.699  27.099  27.186  1.00  0.00     0.049 A 
ATOM     53  H   UNL A   1      44.716  27.375  26.743  1.00  0.00     0.167 HD
ATOM     54  C   UNL A   1      48.980  27.774  25.952  1.00  0.00     0.037 A 
ATOM     55  C   UNL A   1      42.285  28.191  27.860  1.00  0.00     0.037 A 
ATOM     56  C   UNL A   1      48.622  28.996  26.617  1.00  0.00     0.049 A 
ATOM     57  C   UNL A   1      43.280  29.277  28.200  1.00  0.00     0.074 A 
ATOM     58  C   UNL A   1      49.427  30.081  26.917  1.00  0.00     0.029 A 
ATOM     59  N   UNL A   1      47.361  29.281  27.117  1.00  0.00    -0.354 N 
ATOM     60  N   UNL A   1      44.548  29.372  27.885  1.00  0.00    -0.248 NA
ATOM     61  C   UNL A   1      42.784  30.402  29.009  1.00  0.00     0.031 C 
ATOM     62  C   UNL A   1      48.666  30.998  27.651  1.00  0.00     0.029 A 
ATOM     63  C   UNL A   1      47.374  30.510  27.756  1.00  0.00     0.049 A 
ATOM     64  H   UNL A   1      46.574  28.696  27.031  1.00  0.00     0.167 HD
ATOM     65  C   UNL A   1      44.992  30.569  28.433  1.00  0.00     0.074 A 
ATOM     66  C   UNL A   1      43.855  31.178  29.088  1.00  0.00     0.031 C 
ATOM     67  C   UNL A   1      46.234  31.112  28.400  1.00  0.00     0.037 A 
BRANCH  54  68
ATOM     68  C   UNL A   1      50.401  27.582  25.518  1.00  0.00     0.064 A 
ATOM     69  C   UNL A   1      50.786  27.750  24.179  1.00  0.00     0.173 A 
ATOM     70  C   UNL A   1      51.382  27.210  26.447  1.00  0.00     0.173 A 
ATOM     71  F   UNL A   1      49.877  28.084  23.251  1.00  0.00    -0.203 F 
ATOM     72  C   UNL A   1      52.102  27.525  23.783  1.00  0.00     0.198 A 
ATOM     73  C   UNL A   1      52.701  27.010  26.051  1.00  0.00     0.198 A 
ATOM     74  F   UNL A   1      51.061  27.033  27.737  1.00  0.00    -0.203 F 
ATOM     75  F   UNL A   1      52.439  27.639  22.491  1.00  0.00    -0.200 F 
ATOM     76  C   UNL A   1      53.058  27.159  24.719  1.00  0.00     0.200 A 
ATOM     77  F   UNL A   1      53.625  26.662  26.957  1.00  0.00    -0.200 F 
ATOM     78  F   UNL A   1      54.322  26.936  24.334  1.00  0.00    -0.200 F 
ENDBRANCH  54  68
BRANCH  55  79
ATOM     79  C   UNL A   1      40.870  28.317  28.304  1.00  0.00     0.064 A 
ATOM     80  C   UNL A   1      39.905  28.909  27.476  1.00  0.00     0.173 A 
ATOM     81  C   UNL A   1      40.466  27.909  29.584  1.00  0.00     0.173 A 
ATOM     82  F   UNL A   1      40.249  29.351  26.258  1.00  0.00    -0.203 F 
ATOM     83  C   UNL A   1      38.598  29.109  27.919  1.00  0.00     0.198 A 
ATOM     84  C   UNL A   1      39.150  28.083  30.015  1.00  0.00     0.198 A 
ATOM     85  F   UNL A   1      41.350  27.352  30.424  1.00  0.00    -0.203 F 
ATOM     86  F   UNL A   1      37.715  29.734  27.130  1.00  0.00    -0.200 F 
ATOM     87  C   UNL A   1      38.220  28.692  29.186  1.00  0.00     0.200 A 
ATOM     88  F   UNL A   1      38.789  27.677  31.240  1.00  0.00    -0.200 F 
ATOM     89  F   UNL A   1      36.967  28.892  29.615  1.00  0.00    -0.200 F 
ENDBRANCH  55  79
BRANCH  67  90
ATOM     90  C   UNL A   1      46.433  32.444  29.063  1.00  0.00     0.064 A 
ATOM     91  C   UNL A   1      46.859  32.549  30.395  1.00  0.00     0.173 A 
ATOM     92  C   UNL A   1      46.258  33.632  28.335  1.00  0.00     0.173 A 
ATOM     93  F   UNL A   1      47.028  31.445  31.138  1.00  0.00    -0.203 F 
ATOM     94  C   UNL A   1      47.089  33.793  30.977  1.00  0.00     0.198 A 
ATOM     95  C   UNL A   1      46.516  34.872  28.911  1.00  0.00     0.198 A 
ATOM     96  F   UNL A   1      45.858  33.588  27.055  1.00  0.00    -0.203 F 
ATOM     97  F   UNL A   1      47.462  33.871  32.263  1.00  0.00    -0.200 F 
ATOM     98  C   UNL A   1      46.927  34.953  30.233  1.00  0.00     0.200 A 
ATOM     99  F   UNL A   1      46.374  35.990  28.186  1.00  0.00    -0.200 F 
ATOM    100  F   UNL A   1      47.163  36.147  30.792  1.00  0.00    -0.200 F 
ENDBRANCH  67  90
ENDBRANCH  41  42
ENDBRANCH  34  36
ENDBRANCH  33  34
ENDBRANCH  32  33
ENDBRANCH  31  32
ENDBRANCH  30  31
ENDBRANCH  29  30
ENDBRANCH   1  29
TORSDOF 20
ENDMDL
MODEL 2
REMARK VINA RESULT:     -11.4      0.609      1.698
REMARK SMILES Cc1ccc(S(=O)(=O)Nc2cc3c(cc2C(=O)OCCOCCOCCOC(=O)c2ccc(-c4c5nc(c(-c6c(F)c(F)c(F)c(F)c6F)c6ccc([nH]6)c(-c6c(F)c(F)c(F)c(F)c6F)c6nc(c(-c7c(F)c(F)c(F)c(F)c7F)c7ccc4[nH]7)C=C6)C=C5)cc2)OCCO3)s1
REMARK SMILES IDX 22 1 21 2 20 3 19 4 18 5 16 6 17 7 15 8 10 9 11 10 12 11
REMARK SMILES IDX 14 12 13 13 96 14 93 15 95 16 94 17 9 18 6 20 7 21 8 22 5 23
REMARK SMILES IDX 1 24 2 25 3 26 97 27 4 28 23 29 24 30 25 31 26 32 27 33
REMARK SMILES IDX 28 34 29 35 30 36 31 37 92 38 32 39 91 40 33 41 34 42 35 43
REMARK SMILES IDX 85 44 36 45 90 46 84 47 86 48 37 49 89 50 83 51 82 52 38 54
REMARK SMILES IDX 70 55 50 56 69 57 51 58 54 59 68 60 87 61 52 62 53 63 67 65
REMARK SMILES IDX 88 66 55 67 39 68 40 69 48 70 41 71 42 72 46 73 49 74 43 75
REMARK SMILES IDX 44 76 47 77 45 78 71 79 72 80 80 81 73 82 74 83 78 84 81 85
REMARK SMILES IDX 75 86 76 87 79 88 77 89 56 90 57 91 65 92 58 93 59 94 63 95
REMARK SMILES IDX 66 96 60 97 61 98 64 99 62 100
REMARK H PARENT 9 19 86 53 54 64
REMARK Flexibility Score: inf
ROOT
ATOM      1  C   UNL A   1      40.889  21.546  26.309  1.00  0.00     0.188 C 
ENDROOT
BRANCH   1   2
ATOM      2  O   UNL A   1      39.942  22.599  26.437  1.00  0.00    -0.376 OA
BRANCH   2   3
ATOM      3  C   UNL A   1      38.593  22.301  26.102  1.00  0.00     0.202 C 
BRANCH   3   4
ATOM      4  C   UNL A   1      37.726  23.503  25.716  1.00  0.00     0.261 C 
BRANCH   4   5
ATOM      5  O   UNL A   1      36.509  23.164  25.013  1.00  0.00    -0.460 OA
BRANCH   5   6
ATOM      6  C   UNL A   1      35.461  22.853  25.819  1.00  0.00     0.340 C 
ATOM      7  O   UNL A   1      35.230  23.328  26.922  1.00  0.00    -0.246 OA
BRANCH   6   8
ATOM      8  C   UNL A   1      34.625  21.759  25.271  1.00  0.00     0.088 A 
ATOM      9  C   UNL A   1      33.241  21.963  25.133  1.00  0.00     0.067 A 
ATOM     10  C   UNL A   1      32.374  20.882  24.975  1.00  0.00     0.078 A 
ATOM     11  C   UNL A   1      32.904  19.614  24.773  1.00  0.00     0.163 A 
ATOM     12  C   UNL A   1      35.156  20.480  25.072  1.00  0.00     0.068 A 
ATOM     13  C   UNL A   1      34.292  19.425  24.761  1.00  0.00     0.162 A 
ATOM     14  O   UNL A   1      31.997  18.629  24.481  1.00  0.00    -0.486 OA
ATOM     15  O   UNL A   1      34.865  18.222  24.436  1.00  0.00    -0.486 OA
ATOM     16  C   UNL A   1      32.606  17.336  24.428  1.00  0.00     0.271 C 
ATOM     17  C   UNL A   1      33.942  17.398  23.707  1.00  0.00     0.271 C 
BRANCH   9  18
ATOM     18  N   UNL A   1      32.744  23.280  24.870  1.00  0.00    -0.278 N 
ATOM     19  H   UNL A   1      32.976  23.786  24.059  1.00  0.00     0.180 HD
BRANCH  18  20
ATOM     20  S   UNL A   1      31.709  23.900  26.087  1.00  0.00     0.271 S 
ATOM     21  O   UNL A   1      32.088  23.256  27.318  1.00  0.00    -0.200 OA
ATOM     22  O   UNL A   1      30.356  23.795  25.568  1.00  0.00    -0.200 OA
BRANCH  20  23
ATOM     23  C   UNL A   1      31.961  25.666  26.294  1.00  0.00     0.140 A 
ATOM     24  C   UNL A   1      34.232  28.871  26.283  1.00  0.00     0.056 C 
ATOM     25  C   UNL A   1      33.146  27.850  26.329  1.00  0.00     0.003 A 
ATOM     26  C   UNL A   1      31.821  27.978  26.676  1.00  0.00     0.016 A 
ATOM     27  S   UNL A   1      33.501  26.247  25.914  1.00  0.00    -0.127 S 
ATOM     28  C   UNL A   1      31.153  26.710  26.708  1.00  0.00     0.034 A 
ENDBRANCH  20  23
ENDBRANCH  18  20
ENDBRANCH   9  18
ENDBRANCH   6   8
ENDBRANCH   5   6
ENDBRANCH   4   5
ENDBRANCH   3   4
ENDBRANCH   2   3
ENDBRANCH   1   2
BRANCH   1  29
ATOM     29  C   UNL A   1      40.337  20.122  26.294  1.00  0.00     0.188 C 
BRANCH  29  30
ATOM     30  O   UNL A   1      41.199  19.140  25.721  1.00  0.00    -0.376 OA
BRANCH  30  31
ATOM     31  C   UNL A   1      42.421  19.035  26.478  1.00  0.00     0.202 C 
BRANCH  31  32
ATOM     32  C   UNL A   1      43.539  18.326  25.700  1.00  0.00     0.261 C 
BRANCH  32  33
ATOM     33  O   UNL A   1      43.752  18.857  24.376  1.00  0.00    -0.460 OA
BRANCH  33  34
ATOM     34  C   UNL A   1      44.966  19.373  24.065  1.00  0.00     0.338 C 
ATOM     35  O   UNL A   1      45.890  18.800  23.513  1.00  0.00    -0.246 OA
BRANCH  34  36
ATOM     36  C   UNL A   1      44.985  20.799  24.483  1.00  0.00     0.060 A 
ATOM     37  C   UNL A   1      44.535  21.797  23.611  1.00  0.00     0.016 A 
ATOM     38  C   UNL A   1      45.448  21.150  25.756  1.00  0.00     0.016 A 
ATOM     39  C   UNL A   1      44.463  23.129  24.045  1.00  0.00     0.010 A 
ATOM     40  C   UNL A   1      45.435  22.487  26.164  1.00  0.00     0.010 A 
ATOM     41  C   UNL A   1      44.930  23.488  25.320  1.00  0.00    -0.014 A 
BRANCH  41  42
ATOM     42  C   UNL A   1      45.043  24.913  25.736  1.00  0.00     0.031 A 
ATOM     43  C   UNL A   1      46.394  25.572  25.703  1.00  0.00     0.074 A 
ATOM     44  C   UNL A   1      43.984  25.598  26.211  1.00  0.00     0.049 A 
ATOM     45  N   UNL A   1      46.749  26.766  26.109  1.00  0.00    -0.248 NA
ATOM     46  C   UNL A   1      47.496  24.776  25.143  1.00  0.00     0.031 C 
ATOM     47  C   UNL A   1      42.614  25.098  26.275  1.00  0.00     0.029 A 
ATOM     48  N   UNL A   1      43.904  26.861  26.751  1.00  0.00    -0.354 N 
ATOM     49  C   UNL A   1      48.106  26.867  25.838  1.00  0.00     0.074 A 
ATOM     50  C   UNL A   1      48.515  25.615  25.241  1.00  0.00     0.031 C 
ATOM     51  C   UNL A   1      41.829  26.035  26.835  1.00  0.00     0.029 A 
ATOM     52  C   UNL A   1      42.649  27.186  27.211  1.00  0.00     0.049 A 
ATOM     53  H   UNL A   1      44.672  27.474  26.803  1.00  0.00     0.167 HD
ATOM     54  C   UNL A   1      48.946  27.900  26.082  1.00  0.00     0.037 A 
ATOM     55  C   UNL A   1      42.220  28.270  27.889  1.00  0.00     0.037 A 
ATOM     56  C   UNL A   1      48.572  29.113  26.754  1.00  0.00     0.049 A 
ATOM     57  C   UNL A   1      43.204  29.356  28.255  1.00  0.00     0.074 A 
ATOM     58  C   UNL A   1      49.367  30.199  27.077  1.00  0.00     0.029 A 
ATOM     59  N   UNL A   1      47.303  29.388  27.237  1.00  0.00    -0.354 N 
ATOM     60  N   UNL A   1      44.477  29.459  27.961  1.00  0.00    -0.248 NA
ATOM     61  C   UNL A   1      42.691  30.471  29.068  1.00  0.00     0.031 C 
ATOM     62  C   UNL A   1      48.591  31.105  27.808  1.00  0.00     0.029 A 
ATOM     63  C   UNL A   1      47.300  30.611  27.888  1.00  0.00     0.049 A 
ATOM     64  H   UNL A   1      46.519  28.800  27.132  1.00  0.00     0.167 HD
ATOM     65  C   UNL A   1      44.908  30.653  28.528  1.00  0.00     0.074 A 
ATOM     66  C   UNL A   1      43.758  31.251  29.171  1.00  0.00     0.031 C 
ATOM     67  C   UNL A   1      46.148  31.201  28.519  1.00  0.00     0.037 A 
BRANCH  54  68
ATOM     68  C   UNL A   1      50.374  27.717  25.669  1.00  0.00     0.064 A 
ATOM     69  C   UNL A   1      51.368  27.379  26.599  1.00  0.00     0.173 A 
ATOM     70  C   UNL A   1      50.753  27.898  24.331  1.00  0.00     0.173 A 
ATOM     71  F   UNL A   1      51.055  27.218  27.893  1.00  0.00    -0.203 F 
ATOM     72  C   UNL A   1      52.698  27.255  26.208  1.00  0.00     0.198 A 
ATOM     73  C   UNL A   1      52.081  27.749  23.940  1.00  0.00     0.198 A 
ATOM     74  F   UNL A   1      49.839  28.226  23.406  1.00  0.00    -0.203 F 
ATOM     75  F   UNL A   1      53.640  26.984  27.121  1.00  0.00    -0.200 F 
ATOM     76  C   UNL A   1      53.052  27.436  24.879  1.00  0.00     0.200 A 
ATOM     77  F   UNL A   1      52.421  27.919  22.655  1.00  0.00    -0.200 F 
ATOM     78  F   UNL A   1      54.335  27.324  24.505  1.00  0.00    -0.200 F 
ENDBRANCH  54  68
BRANCH  55  79
ATOM     79  C   UNL A   1      40.798  28.385  28.313  1.00  0.00     0.064 A 
ATOM     80  C   UNL A   1      39.839  28.962  27.467  1.00  0.00     0.173 A 
ATOM     81  C   UNL A   1      40.379  27.984  29.590  1.00  0.00     0.173 A 
ATOM     82  F   UNL A   1      40.196  29.398  26.249  1.00  0.00    -0.203 F 
ATOM     83  C   UNL A   1      38.524  29.152  27.890  1.00  0.00     0.198 A 
ATOM     84  C   UNL A   1      39.056  28.148  30.000  1.00  0.00     0.198 A 
ATOM     85  F   UNL A   1      41.257  27.442  30.446  1.00  0.00    -0.203 F 
ATOM     86  F   UNL A   1      37.646  29.763  27.083  1.00  0.00    -0.200 F 
ATOM     87  C   UNL A   1      38.132  28.741  29.154  1.00  0.00     0.200 A 
ATOM     88  F   UNL A   1      38.682  27.748  31.224  1.00  0.00    -0.200 F 
ATOM     89  F   UNL A   1      36.872  28.933  29.563  1.00  0.00    -0.200 F 
ENDBRANCH  55  79
BRANCH  67  90
ATOM     90  C   UNL A   1      46.330  32.528  29.199  1.00  0.00     0.064 A 
ATOM     91  C   UNL A   1      46.205  33.738  28.501  1.00  0.00     0.173 A 
ATOM     92  C   UNL A   1      46.568  32.590  30.581  1.00  0.00     0.173 A 
ATOM     93  F   UNL A   1      45.991  33.734  27.177  1.00  0.00    -0.203 F 
ATOM     94  C   UNL A   1      46.326  34.960  29.158  1.00  0.00     0.198 A 
ATOM     95  C   UNL A   1      46.660  33.813  31.240  1.00  0.00     0.198 A 
ATOM     96  F   UNL A   1      46.690  31.463  31.298  1.00  0.00    -0.203 F 
ATOM     97  F   UNL A   1      46.237  36.104  28.464  1.00  0.00    -0.200 F 
ATOM     98  C   UNL A   1      46.543  34.996  30.528  1.00  0.00     0.200 A 
ATOM     99  F   UNL A   1      46.854  33.846  32.565  1.00  0.00    -0.200 F 
ATOM    100  F   UNL A   1      46.644  36.173  31.160  1.00  0.00    -0.200 F 
ENDBRANCH  67  90
ENDBRANCH  41  42
ENDBRANCH  34  36
ENDBRANCH  33  34
ENDBRANCH  32  33
ENDBRANCH  31  32
ENDBRANCH  30  31
ENDBRANCH  29  30
ENDBRANCH   1  29
TORSDOF 20
ENDMDL
MODEL 3
REMARK VINA RESULT:     -11.4      6.785     12.315
REMARK SMILES Cc1ccc(S(=O)(=O)Nc2cc3c(cc2C(=O)OCCOCCOCCOC(=O)c2ccc(-c4c5nc(c(-c6c(F)c(F)c(F)c(F)c6F)c6ccc([nH]6)c(-c6c(F)c(F)c(F)c(F)c6F)c6nc(c(-c7c(F)c(F)c(F)c(F)c7F)c7ccc4[nH]7)C=C6)C=C5)cc2)OCCO3)s1
REMARK SMILES IDX 22 1 21 2 20 3 19 4 18 5 16 6 17 7 15 8 10 9 11 10 12 11
REMARK SMILES IDX 14 12 13 13 96 14 93 15 95 16 94 17 9 18 6 20 7 21 8 22 5 23
REMARK SMILES IDX 1 24 2 25 3 26 97 27 4 28 23 29 24 30 25 31 26 32 27 33
REMARK SMILES IDX 28 34 29 35 30 36 31 37 92 38 32 39 91 40 33 41 34 42 35 43
REMARK SMILES IDX 85 44 36 45 90 46 84 47 86 48 37 49 89 50 83 51 82 52 38 54
REMARK SMILES IDX 70 55 50 56 69 57 51 58 54 59 68 60 87 61 52 62 53 63 67 65
REMARK SMILES IDX 88 66 55 67 39 68 40 69 48 70 41 71 42 72 46 73 49 74 43 75
REMARK SMILES IDX 44 76 47 77 45 78 71 79 72 80 80 81 73 82 74 83 78 84 81 85
REMARK SMILES IDX 75 86 76 87 79 88 77 89 56 90 57 91 65 92 58 93 59 94 63 95
REMARK SMILES IDX 66 96 60 97 61 98 64 99 62 100
REMARK H PARENT 9 19 86 53 54 64
REMARK Flexibility Score: inf
ROOT
ATOM      1  C   UNL A   1      35.058  32.106  28.435  1.00  0.00     0.188 C 
ENDROOT
BRANCH   1   2
ATOM      2  O   UNL A   1      34.222  31.798  27.326  1.00  0.00    -0.376 OA
BRANCH   2   3
ATOM      3  C   UNL A   1      33.589  30.525  27.326  1.00  0.00     0.202 C 
BRANCH   3   4
ATOM      4  C   UNL A   1      32.997  30.081  25.985  1.00  0.00     0.261 C 
BRANCH   4   5
ATOM      5  O   UNL A   1      33.400  28.759  25.559  1.00  0.00    -0.460 OA
BRANCH   5   6
ATOM      6  C   UNL A   1      33.367  28.567  24.214  1.00  0.00     0.340 C 
ATOM      7  O   UNL A   1      33.657  29.389  23.357  1.00  0.00    -0.246 OA
BRANCH   6   8
ATOM      8  C   UNL A   1      32.829  27.237  23.842  1.00  0.00     0.088 A 
ATOM      9  C   UNL A   1      31.545  26.874  24.284  1.00  0.00     0.067 A 
ATOM     10  C   UNL A   1      31.141  25.539  24.281  1.00  0.00     0.078 A 
ATOM     11  C   UNL A   1      31.950  24.590  23.668  1.00  0.00     0.163 A 
ATOM     12  C   UNL A   1      33.643  26.278  23.230  1.00  0.00     0.068 A 
ATOM     13  C   UNL A   1      33.169  24.970  23.092  1.00  0.00     0.162 A 
ATOM     14  O   UNL A   1      31.423  23.329  23.576  1.00  0.00    -0.486 OA
ATOM     15  O   UNL A   1      33.938  24.099  22.363  1.00  0.00    -0.486 OA
ATOM     16  C   UNL A   1      32.368  22.386  23.064  1.00  0.00     0.271 C 
ATOM     17  C   UNL A   1      33.155  22.984  21.909  1.00  0.00     0.271 C 
BRANCH   9  18
ATOM     18  N   UNL A   1      30.550  27.886  24.471  1.00  0.00    -0.278 N 
ATOM     19  H   UNL A   1      30.469  28.409  25.301  1.00  0.00     0.180 HD
BRANCH  18  20
ATOM     20  S   UNL A   1      29.510  28.112  23.128  1.00  0.00     0.271 S 
ATOM     21  O   UNL A   1      28.297  27.394  23.421  1.00  0.00    -0.200 OA
ATOM     22  O   UNL A   1      30.297  27.809  21.945  1.00  0.00    -0.200 OA
BRANCH  20  23
ATOM     23  C   UNL A   1      29.087  29.846  22.939  1.00  0.00     0.140 A 
ATOM     24  C   UNL A   1      27.774  32.887  20.828  1.00  0.00     0.056 C 
ATOM     25  C   UNL A   1      28.268  31.929  21.857  1.00  0.00     0.003 A 
ATOM     26  C   UNL A   1      28.684  32.150  23.150  1.00  0.00     0.016 A 
ATOM     27  S   UNL A   1      28.381  30.284  21.468  1.00  0.00    -0.127 S 
ATOM     28  C   UNL A   1      29.205  30.959  23.753  1.00  0.00     0.034 A 
ENDBRANCH  20  23
ENDBRANCH  18  20
ENDBRANCH   9  18
ENDBRANCH   6   8
ENDBRANCH   5   6
ENDBRANCH   4   5
ENDBRANCH   3   4
ENDBRANCH   2   3
ENDBRANCH   1   2
BRANCH   1  29
ATOM     29  C   UNL A   1      34.499  33.082  29.469  1.00  0.00     0.188 C 
BRANCH  29  30
ATOM     30  O   UNL A   1      34.579  34.460  29.109  1.00  0.00    -0.376 OA
BRANCH  30  31
ATOM     31  C   UNL A   1      33.265  34.996  28.862  1.00  0.00     0.202 C 
BRANCH  31  32
ATOM     32  C   UNL A   1      32.903  36.140  29.821  1.00  0.00     0.261 C 
BRANCH  32  33
ATOM     33  O   UNL A   1      32.159  35.713  30.980  1.00  0.00    -0.460 OA
BRANCH  33  34
ATOM     34  C   UNL A   1      32.616  36.050  32.210  1.00  0.00     0.338 C 
ATOM     35  O   UNL A   1      32.157  36.894  32.961  1.00  0.00    -0.246 OA
BRANCH  34  36
ATOM     36  C   UNL A   1      33.778  35.180  32.529  1.00  0.00     0.060 A 
ATOM     37  C   UNL A   1      33.578  33.875  32.996  1.00  0.00     0.016 A 
ATOM     38  C   UNL A   1      35.081  35.660  32.357  1.00  0.00     0.016 A 
ATOM     39  C   UNL A   1      34.675  33.026  33.200  1.00  0.00     0.010 A 
ATOM     40  C   UNL A   1      36.175  34.832  32.622  1.00  0.00     0.010 A 
ATOM     41  C   UNL A   1      35.986  33.503  33.032  1.00  0.00    -0.014 A 
BRANCH  41  42
ATOM     42  C   UNL A   1      37.168  32.689  33.425  1.00  0.00     0.031 A 
ATOM     43  C   UNL A   1      37.858  32.992  34.725  1.00  0.00     0.074 A 
ATOM     44  C   UNL A   1      37.677  31.743  32.610  1.00  0.00     0.049 A 
ATOM     45  N   UNL A   1      38.957  32.482  35.224  1.00  0.00    -0.248 NA
ATOM     46  C   UNL A   1      37.228  34.012  35.577  1.00  0.00     0.031 C 
ATOM     47  C   UNL A   1      37.100  31.325  31.336  1.00  0.00     0.029 A 
ATOM     48  N   UNL A   1      38.813  30.977  32.729  1.00  0.00    -0.354 N 
ATOM     49  C   UNL A   1      39.138  33.107  36.450  1.00  0.00     0.074 A 
ATOM     50  C   UNL A   1      38.044  34.038  36.619  1.00  0.00     0.031 C 
ATOM     51  C   UNL A   1      37.889  30.389  30.781  1.00  0.00     0.029 A 
ATOM     52  C   UNL A   1      39.053  30.172  31.640  1.00  0.00     0.049 A 
ATOM     53  H   UNL A   1      39.400  31.002  33.519  1.00  0.00     0.167 HD
ATOM     54  C   UNL A   1      40.136  32.941  37.348  1.00  0.00     0.037 A 
ATOM     55  C   UNL A   1      40.106  29.381  31.352  1.00  0.00     0.037 A 
ATOM     56  C   UNL A   1      41.274  32.086  37.154  1.00  0.00     0.049 A 
ATOM     57  C   UNL A   1      41.266  29.304  32.318  1.00  0.00     0.074 A 
ATOM     58  C   UNL A   1      42.353  31.883  37.997  1.00  0.00     0.029 A 
ATOM     59  N   UNL A   1      41.498  31.317  36.023  1.00  0.00    -0.354 N 
ATOM     60  N   UNL A   1      41.409  29.870  33.491  1.00  0.00    -0.248 NA
ATOM     61  C   UNL A   1      42.421  28.490  31.907  1.00  0.00     0.031 C 
ATOM     62  C   UNL A   1      43.259  31.036  37.348  1.00  0.00     0.029 A 
ATOM     63  C   UNL A   1      42.716  30.665  36.129  1.00  0.00     0.049 A 
ATOM     64  H   UNL A   1      40.882  31.245  35.258  1.00  0.00     0.167 HD
ATOM     65  C   UNL A   1      42.651  29.463  33.965  1.00  0.00     0.074 A 
ATOM     66  C   UNL A   1      43.217  28.588  32.961  1.00  0.00     0.031 C 
ATOM     67  C   UNL A   1      43.268  29.790  35.127  1.00  0.00     0.037 A 
BRANCH  54  68
ATOM     68  C   UNL A   1      40.058  33.761  38.599  1.00  0.00     0.064 A 
ATOM     69  C   UNL A   1      39.296  33.345  39.701  1.00  0.00     0.173 A 
ATOM     70  C   UNL A   1      40.741  34.982  38.690  1.00  0.00     0.173 A 
ATOM     71  F   UNL A   1      38.609  32.194  39.651  1.00  0.00    -0.203 F 
ATOM     72  C   UNL A   1      39.198  34.139  40.841  1.00  0.00     0.198 A 
ATOM     73  C   UNL A   1      40.660  35.761  39.841  1.00  0.00     0.198 A 
ATOM     74  F   UNL A   1      41.479  35.424  37.661  1.00  0.00    -0.203 F 
ATOM     75  F   UNL A   1      38.423  33.749  41.861  1.00  0.00    -0.200 F 
ATOM     76  C   UNL A   1      39.883  35.343  40.911  1.00  0.00     0.200 A 
ATOM     77  F   UNL A   1      41.326  36.922  39.909  1.00  0.00    -0.200 F 
ATOM     78  F   UNL A   1      39.782  36.110  42.006  1.00  0.00    -0.200 F 
ENDBRANCH  54  68
BRANCH  55  79
ATOM     79  C   UNL A   1      40.154  28.616  30.075  1.00  0.00     0.064 A 
ATOM     80  C   UNL A   1      40.753  29.161  28.931  1.00  0.00     0.173 A 
ATOM     81  C   UNL A   1      39.549  27.356  29.954  1.00  0.00     0.173 A 
ATOM     82  F   UNL A   1      41.313  30.380  28.984  1.00  0.00    -0.203 F 
ATOM     83  C   UNL A   1      40.726  28.487  27.710  1.00  0.00     0.198 A 
ATOM     84  C   UNL A   1      39.548  26.670  28.739  1.00  0.00     0.198 A 
ATOM     85  F   UNL A   1      38.947  26.794  31.012  1.00  0.00    -0.203 F 
ATOM     86  F   UNL A   1      41.251  29.061  26.619  1.00  0.00    -0.200 F 
ATOM     87  C   UNL A   1      40.127  27.241  27.616  1.00  0.00     0.200 A 
ATOM     88  F   UNL A   1      38.969  25.464  28.654  1.00  0.00    -0.200 F 
ATOM     89  F   UNL A   1      40.092  26.598  26.442  1.00  0.00    -0.200 F 
ENDBRANCH  55  79
BRANCH  67  90
ATOM     90  C   UNL A   1      44.614  29.183  35.399  1.00  0.00     0.064 A 
ATOM     91  C   UNL A   1      44.748  27.947  36.048  1.00  0.00     0.173 A 
ATOM     92  C   UNL A   1      45.783  29.815  34.945  1.00  0.00     0.173 A 
ATOM     93  F   UNL A   1      43.664  27.308  36.513  1.00  0.00    -0.203 F 
ATOM     94  C   UNL A   1      46.002  27.374  36.245  1.00  0.00     0.198 A 
ATOM     95  C   UNL A   1      47.032  29.226  35.118  1.00  0.00     0.198 A 
ATOM     96  F   UNL A   1      45.711  30.996  34.312  1.00  0.00    -0.203 F 
ATOM     97  F   UNL A   1      46.109  26.208  36.899  1.00  0.00    -0.200 F 
ATOM     98  C   UNL A   1      47.142  28.009  35.772  1.00  0.00     0.200 A 
ATOM     99  F   UNL A   1      48.130  29.833  34.647  1.00  0.00    -0.200 F 
ATOM    100  F   UNL A   1      48.345  27.448  35.950  1.00  0.00    -0.200 F 
ENDBRANCH  67  90
ENDBRANCH  41  42
ENDBRANCH  34  36
ENDBRANCH  33  34
ENDBRANCH  32  33
ENDBRANCH  31  32
ENDBRANCH  30  31
ENDBRANCH  29  30
ENDBRANCH   1  29
TORSDOF 20
ENDMDL
