MODEL 1
REMARK VINA RESULT:     -11.4      0.000      0.000
REMARK SMILES CC(C)[C@@H](NC(=O)/C(=C\c1ccccc1F)NC(=O)c1ccccc1)C(=O)OCCOCCOCCOC(=O)c1ccc(-c2c3nc(c(-c4c(F)c(F)c(F)c(F)c4F)c4ccc([nH]4)c(-c4c(F)c(F)c(F)c(F)c4F)c4nc(c(-c5c(F)c(F)c(F)c(F)c5F)c5ccc2[nH]5)C=C4)C=C3)cc1
REMARK SMILES IDX 32 1 31 2 30 3 29 4 28 5 26 6 27 7 4 8 2 9 1 10 3 11 5 12
REMARK SMILES IDX 6 13 7 15 8 16 9 17 17 18 18 19 19 21 20 22 21 23 25 24
REMARK SMILES IDX 22 25 24 26 23 27 10 28 11 29 15 30 12 31 14 32 16 33 13 34
REMARK SMILES IDX 33 35 34 36 35 37 36 38 37 39 38 40 39 41 40 42 41 43 102 44
REMARK SMILES IDX 42 45 101 46 43 47 44 48 45 49 95 50 46 51 100 52 94 53
REMARK SMILES IDX 96 54 47 55 99 56 93 57 92 58 48 60 80 61 60 62 79 63 61 64
REMARK SMILES IDX 64 65 78 66 97 67 62 68 63 69 77 71 98 72 65 73 49 74 50 75
REMARK SMILES IDX 58 76 51 77 52 78 56 79 59 80 53 81 54 82 57 83 55 84 81 85
REMARK SMILES IDX 82 86 90 87 83 88 84 89 88 90 91 91 85 92 86 93 89 94 87 95
REMARK SMILES IDX 66 96 67 97 75 98 68 99 69 100 73 101 76 102 70 103 71 104
REMARK SMILES IDX 74 105 72 106
REMARK H PARENT 5 14 17 20 96 59 64 70
REMARK Flexibility Score: inf
ROOT
ATOM      1  C   UNL A   1      40.335  21.644  27.169  1.00  0.00     0.188 C 
ENDROOT
BRANCH   1   2
ATOM      2  O   UNL A   1      39.241  22.118  26.390  1.00  0.00    -0.376 OA
BRANCH   2   3
ATOM      3  C   UNL A   1      38.540  21.149  25.620  1.00  0.00     0.202 C 
BRANCH   3   4
ATOM      4  C   UNL A   1      37.679  21.755  24.488  1.00  0.00     0.261 C 
BRANCH   4   5
ATOM      5  O   UNL A   1      37.108  23.087  24.592  1.00  0.00    -0.462 OA
BRANCH   5   6
ATOM      6  C   UNL A   1      35.847  23.287  24.166  1.00  0.00     0.328 C 
ATOM      7  O   UNL A   1      35.541  23.289  22.979  1.00  0.00    -0.250 OA
BRANCH   6   8
ATOM      8  C   UNL A   1      34.792  23.517  25.268  1.00  0.00     0.195 C 
BRANCH   8   9
ATOM      9  C   UNL A   1      34.805  22.542  26.484  1.00  0.00     0.017 C 
ATOM     10  C   UNL A   1      33.775  22.967  27.552  1.00  0.00     0.010 C 
ATOM     11  C   UNL A   1      34.449  21.105  26.074  1.00  0.00     0.010 C 
ENDBRANCH   8   9
BRANCH   8  12
ATOM     12  N   UNL A   1      34.718  24.929  25.691  1.00  0.00    -0.337 N 
ATOM     13  C   UNL A   1      33.729  25.856  25.495  1.00  0.00     0.268 C 
ATOM     14  H   UNL A   1      35.501  25.255  26.191  1.00  0.00     0.164 HD
ATOM     15  O   UNL A   1      33.529  26.705  26.360  1.00  0.00    -0.268 OA
BRANCH  13  16
ATOM     16  C   UNL A   1      32.997  25.913  24.190  1.00  0.00     0.107 C 
ATOM     17  C   UNL A   1      31.865  25.194  24.024  1.00  0.00     0.043 C 
BRANCH  16  18
ATOM     18  N   UNL A   1      33.547  26.580  23.103  1.00  0.00    -0.317 N 
ATOM     19  C   UNL A   1      33.402  27.874  22.646  1.00  0.00     0.255 C 
ATOM     20  H   UNL A   1      34.153  26.028  22.558  1.00  0.00     0.170 HD
ATOM     21  O   UNL A   1      34.220  28.353  21.864  1.00  0.00    -0.269 OA
BRANCH  19  22
ATOM     22  C   UNL A   1      32.240  28.685  23.033  1.00  0.00     0.040 A 
ATOM     23  C   UNL A   1      31.184  28.821  22.128  1.00  0.00     0.014 A 
ATOM     24  C   UNL A   1      32.196  29.297  24.289  1.00  0.00     0.014 A 
ATOM     25  C   UNL A   1      30.040  29.517  22.516  1.00  0.00     0.001 A 
ATOM     26  C   UNL A   1      31.035  29.965  24.679  1.00  0.00     0.001 A 
ATOM     27  C   UNL A   1      29.957  30.068  23.797  1.00  0.00     0.000 A 
ENDBRANCH  19  22
ENDBRANCH  16  18
BRANCH  17  28
ATOM     28  C   UNL A   1      31.370  24.217  25.001  1.00  0.00     0.012 A 
ATOM     29  C   UNL A   1      30.654  24.697  26.106  1.00  0.00     0.011 A 
ATOM     30  C   UNL A   1      31.452  22.840  24.800  1.00  0.00     0.130 A 
ATOM     31  C   UNL A   1      29.913  23.820  26.897  1.00  0.00     0.001 A 
ATOM     32  C   UNL A   1      30.749  21.957  25.616  1.00  0.00     0.040 A 
ATOM     33  F   UNL A   1      32.186  22.346  23.793  1.00  0.00    -0.206 F 
ATOM     34  C   UNL A   1      29.951  22.451  26.648  1.00  0.00     0.003 A 
ENDBRANCH  17  28
ENDBRANCH  13  16
ENDBRANCH   8  12
ENDBRANCH   6   8
ENDBRANCH   5   6
ENDBRANCH   4   5
ENDBRANCH   3   4
ENDBRANCH   2   3
ENDBRANCH   1   2
BRANCH   1  35
ATOM     35  C   UNL A   1      40.918  20.339  26.623  1.00  0.00     0.188 C 
BRANCH  35  36
ATOM     36  O   UNL A   1      42.319  20.114  26.778  1.00  0.00    -0.376 OA
BRANCH  36  37
ATOM     37  C   UNL A   1      43.164  20.503  25.702  1.00  0.00     0.202 C 
BRANCH  37  38
ATOM     38  C   UNL A   1      43.748  21.918  25.777  1.00  0.00     0.261 C 
BRANCH  38  39
ATOM     39  O   UNL A   1      42.988  22.908  25.066  1.00  0.00    -0.460 OA
BRANCH  39  40
ATOM     40  C   UNL A   1      43.568  24.130  25.050  1.00  0.00     0.338 C 
ATOM     41  O   UNL A   1      44.559  24.479  24.416  1.00  0.00    -0.246 OA
BRANCH  40  42
ATOM     42  C   UNL A   1      42.790  25.091  25.846  1.00  0.00     0.060 A 
ATOM     43  C   UNL A   1      43.316  26.379  25.997  1.00  0.00     0.016 A 
ATOM     44  C   UNL A   1      41.655  24.702  26.561  1.00  0.00     0.016 A 
ATOM     45  C   UNL A   1      42.738  27.267  26.901  1.00  0.00     0.010 A 
ATOM     46  C   UNL A   1      41.079  25.596  27.473  1.00  0.00     0.010 A 
ATOM     47  C   UNL A   1      41.638  26.871  27.673  1.00  0.00    -0.014 A 
BRANCH  47  48
ATOM     48  C   UNL A   1      41.224  27.718  28.822  1.00  0.00     0.031 A 
ATOM     49  C   UNL A   1      42.059  27.693  30.073  1.00  0.00     0.074 A 
ATOM     50  C   UNL A   1      40.184  28.567  28.736  1.00  0.00     0.049 A 
ATOM     51  N   UNL A   1      41.855  28.282  31.223  1.00  0.00    -0.248 NA
ATOM     52  C   UNL A   1      43.304  26.910  30.010  1.00  0.00     0.031 C 
ATOM     53  C   UNL A   1      39.360  28.780  27.550  1.00  0.00     0.029 A 
ATOM     54  N   UNL A   1      39.655  29.420  29.674  1.00  0.00    -0.354 N 
ATOM     55  C   UNL A   1      42.930  27.925  32.025  1.00  0.00     0.074 A 
ATOM     56  C   UNL A   1      43.782  27.062  31.235  1.00  0.00     0.031 C 
ATOM     57  C   UNL A   1      38.427  29.707  27.829  1.00  0.00     0.029 A 
ATOM     58  C   UNL A   1      38.558  30.116  29.229  1.00  0.00     0.049 A 
ATOM     59  H   UNL A   1      40.027  29.524  30.580  1.00  0.00     0.167 HD
ATOM     60  C   UNL A   1      43.189  28.287  33.304  1.00  0.00     0.037 A 
ATOM     61  C   UNL A   1      37.738  30.961  29.884  1.00  0.00     0.037 A 
ATOM     62  C   UNL A   1      42.357  29.158  34.089  1.00  0.00     0.049 A 
ATOM     63  C   UNL A   1      37.985  31.267  31.339  1.00  0.00     0.074 A 
ATOM     64  C   UNL A   1      42.522  29.552  35.406  1.00  0.00     0.029 A 
ATOM     65  N   UNL A   1      41.207  29.779  33.627  1.00  0.00    -0.354 N 
ATOM     66  N   UNL A   1      38.964  30.870  32.116  1.00  0.00    -0.248 NA
ATOM     67  C   UNL A   1      37.004  32.132  32.014  1.00  0.00     0.031 C 
ATOM     68  C   UNL A   1      41.452  30.381  35.752  1.00  0.00     0.029 A 
ATOM     69  C   UNL A   1      40.645  30.542  34.638  1.00  0.00     0.049 A 
ATOM     70  H   UNL A   1      40.844  29.691  32.717  1.00  0.00     0.167 HD
ATOM     71  C   UNL A   1      38.728  31.447  33.358  1.00  0.00     0.074 A 
ATOM     72  C   UNL A   1      37.522  32.236  33.230  1.00  0.00     0.031 C 
ATOM     73  C   UNL A   1      39.447  31.329  34.501  1.00  0.00     0.037 A 
BRANCH  60  74
ATOM     74  C   UNL A   1      44.411  27.709  33.951  1.00  0.00     0.064 A 
ATOM     75  C   UNL A   1      44.338  26.483  34.628  1.00  0.00     0.173 A 
ATOM     76  C   UNL A   1      45.641  28.382  33.937  1.00  0.00     0.173 A 
ATOM     77  F   UNL A   1      43.183  25.802  34.668  1.00  0.00    -0.203 F 
ATOM     78  C   UNL A   1      45.450  25.957  35.278  1.00  0.00     0.198 A 
ATOM     79  C   UNL A   1      46.758  27.840  34.567  1.00  0.00     0.198 A 
ATOM     80  F   UNL A   1      45.765  29.548  33.286  1.00  0.00    -0.203 F 
ATOM     81  F   UNL A   1      45.349  24.795  35.939  1.00  0.00    -0.200 F 
ATOM     82  C   UNL A   1      46.659  26.633  35.243  1.00  0.00     0.200 A 
ATOM     83  F   UNL A   1      47.934  28.481  34.511  1.00  0.00    -0.200 F 
ATOM     84  F   UNL A   1      47.733  26.117  35.857  1.00  0.00    -0.200 F 
ENDBRANCH  60  74
BRANCH  61  85
ATOM     85  C   UNL A   1      36.576  31.561  29.177  1.00  0.00     0.064 A 
ATOM     86  C   UNL A   1      35.467  30.783  28.811  1.00  0.00     0.173 A 
ATOM     87  C   UNL A   1      36.543  32.928  28.870  1.00  0.00     0.173 A 
ATOM     88  F   UNL A   1      35.445  29.473  29.093  1.00  0.00    -0.203 F 
ATOM     89  C   UNL A   1      34.380  31.346  28.149  1.00  0.00     0.198 A 
ATOM     90  C   UNL A   1      35.442  33.496  28.232  1.00  0.00     0.198 A 
ATOM     91  F   UNL A   1      37.564  33.720  29.232  1.00  0.00    -0.203 F 
ATOM     92  F   UNL A   1      33.344  30.575  27.790  1.00  0.00    -0.200 F 
ATOM     93  C   UNL A   1      34.365  32.703  27.863  1.00  0.00     0.200 A 
ATOM     94  F   UNL A   1      35.417  34.813  27.988  1.00  0.00    -0.200 F 
ATOM     95  F   UNL A   1      33.309  33.249  27.246  1.00  0.00    -0.200 F 
ENDBRANCH  61  85
BRANCH  73  96
ATOM     96  C   UNL A   1      38.972  32.086  35.708  1.00  0.00     0.064 A 
ATOM     97  C   UNL A   1      39.342  33.426  35.900  1.00  0.00     0.173 A 
ATOM     98  C   UNL A   1      38.206  31.468  36.708  1.00  0.00     0.173 A 
ATOM     99  F   UNL A   1      40.082  34.061  34.979  1.00  0.00    -0.203 F 
ATOM    100  C   UNL A   1      38.974  34.115  37.052  1.00  0.00     0.198 A 
ATOM    101  C   UNL A   1      37.816  32.168  37.847  1.00  0.00     0.198 A 
ATOM    102  F   UNL A   1      37.816  30.192  36.567  1.00  0.00    -0.203 F 
ATOM    103  F   UNL A   1      39.365  35.385  37.227  1.00  0.00    -0.200 F 
ATOM    104  C   UNL A   1      38.207  33.488  38.023  1.00  0.00     0.200 A 
ATOM    105  F   UNL A   1      37.055  31.568  38.773  1.00  0.00    -0.200 F 
ATOM    106  F   UNL A   1      37.842  34.155  39.125  1.00  0.00    -0.200 F 
ENDBRANCH  73  96
ENDBRANCH  47  48
ENDBRANCH  40  42
ENDBRANCH  39  40
ENDBRANCH  38  39
ENDBRANCH  37  38
ENDBRANCH  36  37
ENDBRANCH  35  36
ENDBRANCH   1  35
TORSDOF 23
ENDMDL
MODEL 2
REMARK VINA RESULT:     -11.1      4.285      8.475
REMARK SMILES CC(C)[C@@H](NC(=O)/C(=C\c1ccccc1F)NC(=O)c1ccccc1)C(=O)OCCOCCOCCOC(=O)c1ccc(-c2c3nc(c(-c4c(F)c(F)c(F)c(F)c4F)c4ccc([nH]4)c(-c4c(F)c(F)c(F)c(F)c4F)c4nc(c(-c5c(F)c(F)c(F)c(F)c5F)c5ccc2[nH]5)C=C4)C=C3)cc1
REMARK SMILES IDX 32 1 31 2 30 3 29 4 28 5 26 6 27 7 4 8 2 9 1 10 3 11 5 12
REMARK SMILES IDX 6 13 7 15 8 16 9 17 17 18 18 19 19 21 20 22 21 23 25 24
REMARK SMILES IDX 22 25 24 26 23 27 10 28 11 29 15 30 12 31 14 32 16 33 13 34
REMARK SMILES IDX 33 35 34 36 35 37 36 38 37 39 38 40 39 41 40 42 41 43 102 44
REMARK SMILES IDX 42 45 101 46 43 47 44 48 45 49 95 50 46 51 100 52 94 53
REMARK SMILES IDX 96 54 47 55 99 56 93 57 92 58 48 60 80 61 60 62 79 63 61 64
REMARK SMILES IDX 64 65 78 66 97 67 62 68 63 69 77 71 98 72 65 73 49 74 50 75
REMARK SMILES IDX 58 76 51 77 52 78 56 79 59 80 53 81 54 82 57 83 55 84 81 85
REMARK SMILES IDX 82 86 90 87 83 88 84 89 88 90 91 91 85 92 86 93 89 94 87 95
REMARK SMILES IDX 66 96 67 97 75 98 68 99 69 100 73 101 76 102 70 103 71 104
REMARK SMILES IDX 74 105 72 106
REMARK H PARENT 5 14 17 20 96 59 64 70
REMARK Flexibility Score: inf
ROOT
ATOM      1  C   UNL A   1      32.862  20.396  25.532  1.00  0.00     0.188 C 
ENDROOT
BRANCH   1   2
ATOM      2  O   UNL A   1      32.046  21.121  24.618  1.00  0.00    -0.376 OA
BRANCH   2   3
ATOM      3  C   UNL A   1      32.260  20.867  23.235  1.00  0.00     0.202 C 
BRANCH   3   4
ATOM      4  C   UNL A   1      32.660  22.121  22.424  1.00  0.00     0.261 C 
BRANCH   4   5
ATOM      5  O   UNL A   1      32.281  23.458  22.849  1.00  0.00    -0.462 OA
BRANCH   5   6
ATOM      6  C   UNL A   1      33.241  24.393  22.979  1.00  0.00     0.328 C 
ATOM      7  O   UNL A   1      34.202  24.466  22.223  1.00  0.00    -0.250 OA
BRANCH   6   8
ATOM      8  C   UNL A   1      33.062  25.383  24.150  1.00  0.00     0.195 C 
BRANCH   8   9
ATOM      9  C   UNL A   1      33.937  25.153  25.419  1.00  0.00     0.017 C 
ATOM     10  C   UNL A   1      33.061  24.987  26.679  1.00  0.00     0.010 C 
ATOM     11  C   UNL A   1      34.792  23.882  25.306  1.00  0.00     0.010 C 
ENDBRANCH   8   9
BRANCH   8  12
ATOM     12  N   UNL A   1      33.089  26.790  23.706  1.00  0.00    -0.337 N 
ATOM     13  C   UNL A   1      32.677  27.925  24.353  1.00  0.00     0.268 C 
ATOM     14  H   UNL A   1      33.461  26.935  22.807  1.00  0.00     0.164 HD
ATOM     15  O   UNL A   1      33.285  28.975  24.159  1.00  0.00    -0.268 OA
BRANCH  13  16
ATOM     16  C   UNL A   1      31.425  27.911  25.175  1.00  0.00     0.107 C 
ATOM     17  C   UNL A   1      31.367  28.626  26.320  1.00  0.00     0.043 C 
BRANCH  16  18
ATOM     18  N   UNL A   1      30.378  27.059  24.849  1.00  0.00    -0.317 N 
ATOM     19  C   UNL A   1      29.438  27.097  23.840  1.00  0.00     0.255 C 
ATOM     20  H   UNL A   1      30.291  26.284  25.449  1.00  0.00     0.170 HD
ATOM     21  O   UNL A   1      28.808  26.087  23.536  1.00  0.00    -0.269 OA
BRANCH  19  22
ATOM     22  C   UNL A   1      29.125  28.356  23.148  1.00  0.00     0.040 A 
ATOM     23  C   UNL A   1      27.952  29.035  23.487  1.00  0.00     0.014 A 
ATOM     24  C   UNL A   1      29.995  28.861  22.178  1.00  0.00     0.014 A 
ATOM     25  C   UNL A   1      27.686  30.271  22.900  1.00  0.00     0.001 A 
ATOM     26  C   UNL A   1      29.737  30.113  21.619  1.00  0.00     0.001 A 
ATOM     27  C   UNL A   1      28.588  30.818  21.985  1.00  0.00     0.000 A 
ENDBRANCH  19  22
ENDBRANCH  16  18
BRANCH  17  28
ATOM     28  C   UNL A   1      32.524  29.310  26.912  1.00  0.00     0.012 A 
ATOM     29  C   UNL A   1      33.654  28.541  27.221  1.00  0.00     0.011 A 
ATOM     30  C   UNL A   1      32.598  30.696  27.037  1.00  0.00     0.130 A 
ATOM     31  C   UNL A   1      34.870  29.163  27.500  1.00  0.00     0.001 A 
ATOM     32  C   UNL A   1      33.802  31.319  27.360  1.00  0.00     0.040 A 
ATOM     33  F   UNL A   1      31.515  31.454  26.815  1.00  0.00    -0.206 F 
ATOM     34  C   UNL A   1      34.950  30.552  27.560  1.00  0.00     0.003 A 
ENDBRANCH  17  28
ENDBRANCH  13  16
ENDBRANCH   8  12
ENDBRANCH   6   8
ENDBRANCH   5   6
ENDBRANCH   4   5
ENDBRANCH   3   4
ENDBRANCH   2   3
ENDBRANCH   1   2
BRANCH   1  35
ATOM     35  C   UNL A   1      34.092  19.783  24.859  1.00  0.00     0.188 C 
BRANCH  35  36
ATOM     36  O   UNL A   1      35.340  20.462  24.994  1.00  0.00    -0.376 OA
BRANCH  36  37
ATOM     37  C   UNL A   1      36.520  19.667  24.969  1.00  0.00     0.202 C 
BRANCH  37  38
ATOM     38  C   UNL A   1      37.829  20.408  24.677  1.00  0.00     0.261 C 
BRANCH  38  39
ATOM     39  O   UNL A   1      38.146  21.442  25.621  1.00  0.00    -0.460 OA
BRANCH  39  40
ATOM     40  C   UNL A   1      39.355  21.289  26.209  1.00  0.00     0.338 C 
ATOM     41  O   UNL A   1      40.076  20.297  26.188  1.00  0.00    -0.246 OA
BRANCH  40  42
ATOM     42  C   UNL A   1      39.794  22.544  26.838  1.00  0.00     0.060 A 
ATOM     43  C   UNL A   1      39.276  23.738  26.326  1.00  0.00     0.016 A 
ATOM     44  C   UNL A   1      40.810  22.566  27.797  1.00  0.00     0.016 A 
ATOM     45  C   UNL A   1      39.805  24.960  26.736  1.00  0.00     0.010 A 
ATOM     46  C   UNL A   1      41.343  23.796  28.203  1.00  0.00     0.010 A 
ATOM     47  C   UNL A   1      40.866  24.999  27.648  1.00  0.00    -0.014 A 
BRANCH  47  48
ATOM     48  C   UNL A   1      41.597  26.277  27.848  1.00  0.00     0.031 A 
ATOM     49  C   UNL A   1      40.924  27.379  28.621  1.00  0.00     0.074 A 
ATOM     50  C   UNL A   1      42.869  26.435  27.440  1.00  0.00     0.049 A 
ATOM     51  N   UNL A   1      41.329  28.600  28.855  1.00  0.00    -0.248 NA
ATOM     52  C   UNL A   1      39.623  27.049  29.225  1.00  0.00     0.031 C 
ATOM     53  C   UNL A   1      43.682  25.415  26.785  1.00  0.00     0.029 A 
ATOM     54  N   UNL A   1      43.702  27.524  27.534  1.00  0.00    -0.354 N 
ATOM     55  C   UNL A   1      40.327  29.190  29.613  1.00  0.00     0.074 A 
ATOM     56  C   UNL A   1      39.290  28.198  29.794  1.00  0.00     0.031 C 
ATOM     57  C   UNL A   1      44.902  25.925  26.535  1.00  0.00     0.029 A 
ATOM     58  C   UNL A   1      44.937  27.322  26.968  1.00  0.00     0.049 A 
ATOM     59  H   UNL A   1      43.439  28.369  27.965  1.00  0.00     0.167 HD
ATOM     60  C   UNL A   1      40.277  30.446  30.118  1.00  0.00     0.037 A 
ATOM     61  C   UNL A   1      45.965  28.176  26.794  1.00  0.00     0.037 A 
ATOM     62  C   UNL A   1      41.311  31.431  29.958  1.00  0.00     0.049 A 
ATOM     63  C   UNL A   1      45.845  29.601  27.272  1.00  0.00     0.074 A 
ATOM     64  C   UNL A   1      41.330  32.742  30.405  1.00  0.00     0.029 A 
ATOM     65  N   UNL A   1      42.515  31.214  29.306  1.00  0.00    -0.354 N 
ATOM     66  N   UNL A   1      44.865  30.177  27.925  1.00  0.00    -0.248 NA
ATOM     67  C   UNL A   1      46.971  30.500  26.975  1.00  0.00     0.031 C 
ATOM     68  C   UNL A   1      42.530  33.328  29.991  1.00  0.00     0.029 A 
ATOM     69  C   UNL A   1      43.278  32.370  29.328  1.00  0.00     0.049 A 
ATOM     70  H   UNL A   1      42.787  30.365  28.891  1.00  0.00     0.167 HD
ATOM     71  C   UNL A   1      45.262  31.493  28.134  1.00  0.00     0.074 A 
ATOM     72  C   UNL A   1      46.579  31.629  27.551  1.00  0.00     0.031 C 
ATOM     73  C   UNL A   1      44.591  32.496  28.750  1.00  0.00     0.037 A 
BRANCH  60  74
ATOM     74  C   UNL A   1      39.039  30.839  30.867  1.00  0.00     0.064 A 
ATOM     75  C   UNL A   1      38.966  30.653  32.255  1.00  0.00     0.173 A 
ATOM     76  C   UNL A   1      37.914  31.359  30.211  1.00  0.00     0.173 A 
ATOM     77  F   UNL A   1      40.016  30.157  32.926  1.00  0.00    -0.203 F 
ATOM     78  C   UNL A   1      37.807  30.963  32.958  1.00  0.00     0.198 A 
ATOM     79  C   UNL A   1      36.765  31.693  30.922  1.00  0.00     0.198 A 
ATOM     80  F   UNL A   1      37.944  31.574  28.887  1.00  0.00    -0.203 F 
ATOM     81  F   UNL A   1      37.751  30.755  34.281  1.00  0.00    -0.200 F 
ATOM     82  C   UNL A   1      36.709  31.487  32.293  1.00  0.00     0.200 A 
ATOM     83  F   UNL A   1      35.714  32.224  30.282  1.00  0.00    -0.200 F 
ATOM     84  F   UNL A   1      35.598  31.800  32.974  1.00  0.00    -0.200 F 
ENDBRANCH  60  74
BRANCH  61  85
ATOM     85  C   UNL A   1      47.199  27.717  26.104  1.00  0.00     0.064 A 
ATOM     86  C   UNL A   1      48.290  27.210  26.825  1.00  0.00     0.173 A 
ATOM     87  C   UNL A   1      47.304  27.758  24.707  1.00  0.00     0.173 A 
ATOM     88  F   UNL A   1      48.235  27.138  28.163  1.00  0.00    -0.203 F 
ATOM     89  C   UNL A   1      49.445  26.781  26.177  1.00  0.00     0.198 A 
ATOM     90  C   UNL A   1      48.450  27.303  24.057  1.00  0.00     0.198 A 
ATOM     91  F   UNL A   1      46.273  28.201  23.971  1.00  0.00    -0.203 F 
ATOM     92  F   UNL A   1      50.482  26.323  26.893  1.00  0.00    -0.200 F 
ATOM     93  C   UNL A   1      49.523  26.823  24.793  1.00  0.00     0.200 A 
ATOM     94  F   UNL A   1      48.508  27.314  22.719  1.00  0.00    -0.200 F 
ATOM     95  F   UNL A   1      50.626  26.390  24.169  1.00  0.00    -0.200 F 
ENDBRANCH  61  85
BRANCH  73  96
ATOM     96  C   UNL A   1      45.270  33.832  28.854  1.00  0.00     0.064 A 
ATOM     97  C   UNL A   1      46.072  34.138  29.965  1.00  0.00     0.173 A 
ATOM     98  C   UNL A   1      45.075  34.832  27.891  1.00  0.00     0.173 A 
ATOM     99  F   UNL A   1      46.283  33.220  30.920  1.00  0.00    -0.203 F 
ATOM    100  C   UNL A   1      46.643  35.399  30.112  1.00  0.00     0.198 A 
ATOM    101  C   UNL A   1      45.671  36.084  28.027  1.00  0.00     0.198 A 
ATOM    102  F   UNL A   1      44.326  34.586  26.805  1.00  0.00    -0.203 F 
ATOM    103  F   UNL A   1      47.381  35.678  31.196  1.00  0.00    -0.200 F 
ATOM    104  C   UNL A   1      46.447  36.369  29.141  1.00  0.00     0.200 A 
ATOM    105  F   UNL A   1      45.498  37.013  27.077  1.00  0.00    -0.200 F 
ATOM    106  F   UNL A   1      47.007  37.578  29.277  1.00  0.00    -0.200 F 
ENDBRANCH  73  96
ENDBRANCH  47  48
ENDBRANCH  40  42
ENDBRANCH  39  40
ENDBRANCH  38  39
ENDBRANCH  37  38
ENDBRANCH  36  37
ENDBRANCH  35  36
ENDBRANCH   1  35
TORSDOF 23
ENDMDL
MODEL 3
REMARK VINA RESULT:     -10.7      4.338      8.696
REMARK SMILES CC(C)[C@@H](NC(=O)/C(=C\c1ccccc1F)NC(=O)c1ccccc1)C(=O)OCCOCCOCCOC(=O)c1ccc(-c2c3nc(c(-c4c(F)c(F)c(F)c(F)c4F)c4ccc([nH]4)c(-c4c(F)c(F)c(F)c(F)c4F)c4nc(c(-c5c(F)c(F)c(F)c(F)c5F)c5ccc2[nH]5)C=C4)C=C3)cc1
REMARK SMILES IDX 32 1 31 2 30 3 29 4 28 5 26 6 27 7 4 8 2 9 1 10 3 11 5 12
REMARK SMILES IDX 6 13 7 15 8 16 9 17 17 18 18 19 19 21 20 22 21 23 25 24
REMARK SMILES IDX 22 25 24 26 23 27 10 28 11 29 15 30 12 31 14 32 16 33 13 34
REMARK SMILES IDX 33 35 34 36 35 37 36 38 37 39 38 40 39 41 40 42 41 43 102 44
REMARK SMILES IDX 42 45 101 46 43 47 44 48 45 49 95 50 46 51 100 52 94 53
REMARK SMILES IDX 96 54 47 55 99 56 93 57 92 58 48 60 80 61 60 62 79 63 61 64
REMARK SMILES IDX 64 65 78 66 97 67 62 68 63 69 77 71 98 72 65 73 49 74 50 75
REMARK SMILES IDX 58 76 51 77 52 78 56 79 59 80 53 81 54 82 57 83 55 84 81 85
REMARK SMILES IDX 82 86 90 87 83 88 84 89 88 90 91 91 85 92 86 93 89 94 87 95
REMARK SMILES IDX 66 96 67 97 75 98 68 99 69 100 73 101 76 102 70 103 71 104
REMARK SMILES IDX 74 105 72 106
REMARK H PARENT 5 14 17 20 96 59 64 70
REMARK Flexibility Score: inf
ROOT
ATOM      1  C   UNL A   1      33.408  21.598  25.840  1.00  0.00     0.188 C 
ENDROOT
BRANCH   1   2
ATOM      2  O   UNL A   1      32.711  22.467  24.952  1.00  0.00    -0.376 OA
BRANCH   2   3
ATOM      3  C   UNL A   1      32.478  21.980  23.637  1.00  0.00     0.202 C 
BRANCH   3   4
ATOM      4  C   UNL A   1      32.895  22.968  22.522  1.00  0.00     0.261 C 
BRANCH   4   5
ATOM      5  O   UNL A   1      32.063  24.102  22.156  1.00  0.00    -0.462 OA
BRANCH   5   6
ATOM      6  C   UNL A   1      32.657  25.221  21.701  1.00  0.00     0.328 C 
ATOM      7  O   UNL A   1      33.123  25.312  20.572  1.00  0.00    -0.250 OA
BRANCH   6   8
ATOM      8  C   UNL A   1      32.719  26.401  22.694  1.00  0.00     0.195 C 
BRANCH   8   9
ATOM      9  C   UNL A   1      34.063  26.631  23.447  1.00  0.00     0.017 C 
ATOM     10  C   UNL A   1      34.241  28.114  23.836  1.00  0.00     0.010 C 
ATOM     11  C   UNL A   1      34.138  25.821  24.751  1.00  0.00     0.010 C 
ENDBRANCH   8   9
BRANCH   8  12
ATOM     12  N   UNL A   1      32.187  27.651  22.117  1.00  0.00    -0.337 N 
ATOM     13  C   UNL A   1      31.375  28.602  22.675  1.00  0.00     0.268 C 
ATOM     14  H   UNL A   1      32.458  27.828  21.187  1.00  0.00     0.164 HD
ATOM     15  O   UNL A   1      31.522  29.777  22.346  1.00  0.00    -0.268 OA
BRANCH  13  16
ATOM     16  C   UNL A   1      30.242  28.198  23.566  1.00  0.00     0.107 C 
ATOM     17  C   UNL A   1      29.085  28.896  23.540  1.00  0.00     0.043 C 
BRANCH  16  18
ATOM     18  N   UNL A   1      30.418  27.205  24.522  1.00  0.00    -0.317 N 
ATOM     19  C   UNL A   1      30.896  27.244  25.814  1.00  0.00     0.255 C 
ATOM     20  H   UNL A   1      30.151  26.307  24.220  1.00  0.00     0.170 HD
ATOM     21  O   UNL A   1      30.668  26.320  26.592  1.00  0.00    -0.269 OA
BRANCH  19  22
ATOM     22  C   UNL A   1      31.738  28.358  26.274  1.00  0.00     0.040 A 
ATOM     23  C   UNL A   1      32.870  28.073  27.042  1.00  0.00     0.014 A 
ATOM     24  C   UNL A   1      31.410  29.674  25.935  1.00  0.00     0.014 A 
ATOM     25  C   UNL A   1      33.721  29.112  27.412  1.00  0.00     0.001 A 
ATOM     26  C   UNL A   1      32.284  30.703  26.284  1.00  0.00     0.001 A 
ATOM     27  C   UNL A   1      33.441  30.421  27.014  1.00  0.00     0.000 A 
ENDBRANCH  19  22
ENDBRANCH  16  18
BRANCH  17  28
ATOM     28  C   UNL A   1      28.907  30.148  22.793  1.00  0.00     0.012 A 
ATOM     29  C   UNL A   1      28.479  30.063  21.462  1.00  0.00     0.011 A 
ATOM     30  C   UNL A   1      28.999  31.403  23.392  1.00  0.00     0.130 A 
ATOM     31  C   UNL A   1      28.010  31.199  20.803  1.00  0.00     0.001 A 
ATOM     32  C   UNL A   1      28.574  32.546  22.720  1.00  0.00     0.040 A 
ATOM     33  F   UNL A   1      29.470  31.523  24.642  1.00  0.00    -0.206 F 
ATOM     34  C   UNL A   1      28.047  32.440  21.433  1.00  0.00     0.003 A 
ENDBRANCH  17  28
ENDBRANCH  13  16
ENDBRANCH   8  12
ENDBRANCH   6   8
ENDBRANCH   5   6
ENDBRANCH   4   5
ENDBRANCH   3   4
ENDBRANCH   2   3
ENDBRANCH   1   2
BRANCH   1  35
ATOM     35  C   UNL A   1      34.336  20.631  25.102  1.00  0.00     0.188 C 
BRANCH  35  36
ATOM     36  O   UNL A   1      35.743  20.782  25.282  1.00  0.00    -0.376 OA
BRANCH  36  37
ATOM     37  C   UNL A   1      36.572  19.702  24.870  1.00  0.00     0.202 C 
BRANCH  37  38
ATOM     38  C   UNL A   1      38.083  19.955  24.906  1.00  0.00     0.261 C 
BRANCH  38  39
ATOM     39  O   UNL A   1      38.466  21.136  25.628  1.00  0.00    -0.460 OA
BRANCH  39  40
ATOM     40  C   UNL A   1      39.653  21.020  26.267  1.00  0.00     0.338 C 
ATOM     41  O   UNL A   1      40.386  20.037  26.311  1.00  0.00    -0.246 OA
BRANCH  40  42
ATOM     42  C   UNL A   1      40.053  22.302  26.867  1.00  0.00     0.060 A 
ATOM     43  C   UNL A   1      39.533  23.470  26.298  1.00  0.00     0.016 A 
ATOM     44  C   UNL A   1      41.037  22.373  27.855  1.00  0.00     0.016 A 
ATOM     45  C   UNL A   1      40.030  24.713  26.682  1.00  0.00     0.010 A 
ATOM     46  C   UNL A   1      41.537  23.625  28.236  1.00  0.00     0.010 A 
ATOM     47  C   UNL A   1      41.060  24.800  27.626  1.00  0.00    -0.014 A 
BRANCH  47  48
ATOM     48  C   UNL A   1      41.765  26.096  27.804  1.00  0.00     0.031 A 
ATOM     49  C   UNL A   1      41.083  27.185  28.587  1.00  0.00     0.074 A 
ATOM     50  C   UNL A   1      43.024  26.283  27.369  1.00  0.00     0.049 A 
ATOM     51  N   UNL A   1      41.464  28.417  28.808  1.00  0.00    -0.248 NA
ATOM     52  C   UNL A   1      39.803  26.828  29.221  1.00  0.00     0.031 C 
ATOM     53  C   UNL A   1      43.847  25.279  26.700  1.00  0.00     0.029 A 
ATOM     54  N   UNL A   1      43.833  27.391  27.440  1.00  0.00    -0.354 N 
ATOM     55  C   UNL A   1      40.465  28.986  29.585  1.00  0.00     0.074 A 
ATOM     56  C   UNL A   1      39.456  27.971  29.792  1.00  0.00     0.031 C 
ATOM     57  C   UNL A   1      45.048  25.816  26.422  1.00  0.00     0.029 A 
ATOM     58  C   UNL A   1      45.060  27.216  26.848  1.00  0.00     0.049 A 
ATOM     59  H   UNL A   1      43.559  28.232  27.873  1.00  0.00     0.167 HD
ATOM     60  C   UNL A   1      40.396  30.243  30.086  1.00  0.00     0.037 A 
ATOM     61  C   UNL A   1      46.064  28.093  26.649  1.00  0.00     0.037 A 
ATOM     62  C   UNL A   1      41.403  31.252  29.900  1.00  0.00     0.049 A 
ATOM     63  C   UNL A   1      45.920  29.517  27.123  1.00  0.00     0.074 A 
ATOM     64  C   UNL A   1      41.401  32.564  30.342  1.00  0.00     0.029 A 
ATOM     65  N   UNL A   1      42.597  31.060  29.223  1.00  0.00    -0.354 N 
ATOM     66  N   UNL A   1      44.941  30.072  27.796  1.00  0.00    -0.248 NA
ATOM     67  C   UNL A   1      47.018  30.441  26.799  1.00  0.00     0.031 C 
ATOM     68  C   UNL A   1      42.577  33.176  29.899  1.00  0.00     0.029 A 
ATOM     69  C   UNL A   1      43.333  32.234  29.223  1.00  0.00     0.049 A 
ATOM     70  H   UNL A   1      42.880  30.215  28.805  1.00  0.00     0.167 HD
ATOM     71  C   UNL A   1      45.311  31.398  27.990  1.00  0.00     0.074 A 
ATOM     72  C   UNL A   1      46.612  31.562  27.378  1.00  0.00     0.031 C 
ATOM     73  C   UNL A   1      44.631  32.388  28.617  1.00  0.00     0.037 A 
BRANCH  60  74
ATOM     74  C   UNL A   1      39.166  30.610  30.860  1.00  0.00     0.064 A 
ATOM     75  C   UNL A   1      39.133  30.445  32.252  1.00  0.00     0.173 A 
ATOM     76  C   UNL A   1      38.009  31.084  30.225  1.00  0.00     0.173 A 
ATOM     77  F   UNL A   1      40.215  29.994  32.904  1.00  0.00    -0.203 F 
ATOM     78  C   UNL A   1      37.983  30.732  32.980  1.00  0.00     0.198 A 
ATOM     79  C   UNL A   1      36.868  31.394  30.960  1.00  0.00     0.198 A 
ATOM     80  F   UNL A   1      37.999  31.276  28.897  1.00  0.00    -0.203 F 
ATOM     81  F   UNL A   1      37.968  30.544  34.307  1.00  0.00    -0.200 F 
ATOM     82  C   UNL A   1      36.854  31.210  32.334  1.00  0.00     0.200 A 
ATOM     83  F   UNL A   1      35.785  31.882  30.338  1.00  0.00    -0.200 F 
ATOM     84  F   UNL A   1      35.751  31.500  33.039  1.00  0.00    -0.200 F 
ENDBRANCH  60  74
BRANCH  61  85
ATOM     85  C   UNL A   1      47.293  27.660  25.933  1.00  0.00     0.064 A 
ATOM     86  C   UNL A   1      48.399  27.152  26.631  1.00  0.00     0.173 A 
ATOM     87  C   UNL A   1      47.378  27.727  24.536  1.00  0.00     0.173 A 
ATOM     88  F   UNL A   1      48.362  27.054  27.968  1.00  0.00    -0.203 F 
ATOM     89  C   UNL A   1      49.550  26.747  25.960  1.00  0.00     0.198 A 
ATOM     90  C   UNL A   1      48.520  27.297  23.864  1.00  0.00     0.198 A 
ATOM     91  F   UNL A   1      46.333  28.173  23.823  1.00  0.00    -0.203 F 
ATOM     92  F   UNL A   1      50.601  26.287  26.653  1.00  0.00    -0.200 F 
ATOM     93  C   UNL A   1      49.608  26.815  24.576  1.00  0.00     0.200 A 
ATOM     94  F   UNL A   1      48.560  27.332  22.525  1.00  0.00    -0.200 F 
ATOM     95  F   UNL A   1      50.707  26.405  23.929  1.00  0.00    -0.200 F 
ENDBRANCH  61  85
BRANCH  73  96
ATOM     96  C   UNL A   1      45.280  33.739  28.701  1.00  0.00     0.064 A 
ATOM     97  C   UNL A   1      46.067  34.083  29.812  1.00  0.00     0.173 A 
ATOM     98  C   UNL A   1      45.071  34.718  27.718  1.00  0.00     0.173 A 
ATOM     99  F   UNL A   1      46.290  33.188  30.785  1.00  0.00    -0.203 F 
ATOM    100  C   UNL A   1      46.610  35.359  29.939  1.00  0.00     0.198 A 
ATOM    101  C   UNL A   1      45.638  35.984  27.835  1.00  0.00     0.198 A 
ATOM    102  F   UNL A   1      44.336  34.436  26.632  1.00  0.00    -0.203 F 
ATOM    103  F   UNL A   1      47.333  35.674  31.023  1.00  0.00    -0.200 F 
ATOM    104  C   UNL A   1      46.399  36.307  28.949  1.00  0.00     0.200 A 
ATOM    105  F   UNL A   1      45.453  36.892  26.867  1.00  0.00    -0.200 F 
ATOM    106  F   UNL A   1      46.933  37.530  29.067  1.00  0.00    -0.200 F 
ENDBRANCH  73  96
ENDBRANCH  47  48
ENDBRANCH  40  42
ENDBRANCH  39  40
ENDBRANCH  38  39
ENDBRANCH  37  38
ENDBRANCH  36  37
ENDBRANCH  35  36
ENDBRANCH   1  35
TORSDOF 23
ENDMDL
