MODEL 1
REMARK VINA RESULT:     -11.1      0.000      0.000
REMARK SMILES CC(C)[C@H]([NH2+]C[C@H]1CC[C@@H](C(=O)OCCOCCOCCOC(=O)c2ccc(-c3c4nc(c(-c5c(F)c(F)c(F)c(F)c5F)c5ccc([nH]5)c(-c5c(F)c(F)c(F)c(F)c5F)c5nc(c(-c6c(F)c(F)c(F)c(F)c6F)c6ccc3[nH]6)C=C5)C=C4)cc2)CC1)c1ccccc1
REMARK SMILES IDX 17 1 16 2 15 3 14 4 13 5 11 6 12 7 10 8 7 9 8 10 89 11 9 12
REMARK SMILES IDX 88 13 6 14 5 15 4 18 2 19 1 20 3 21 90 22 91 23 95 24 92 25
REMARK SMILES IDX 94 26 93 27 18 28 19 29 20 30 21 31 22 32 23 33 24 34 25 35
REMARK SMILES IDX 26 36 87 37 27 38 86 39 28 40 29 41 30 42 80 43 31 44 85 45
REMARK SMILES IDX 79 46 81 47 32 48 84 49 78 50 77 51 33 53 65 54 45 55 64 56
REMARK SMILES IDX 46 57 49 58 63 59 82 60 47 61 48 62 62 64 83 65 50 66 34 67
REMARK SMILES IDX 35 68 43 69 36 70 37 71 41 72 44 73 38 74 39 75 42 76 40 77
REMARK SMILES IDX 66 78 67 79 75 80 68 81 69 82 73 83 76 84 70 85 71 86 74 87
REMARK SMILES IDX 72 88 51 89 52 90 60 91 53 92 54 93 58 94 61 95 55 96 56 97
REMARK SMILES IDX 59 98 57 99
REMARK H PARENT 5 16 5 17 81 52 49 63
REMARK Flexibility Score: inf
ROOT
ATOM      1  C   UNL A   1      34.312  22.942  26.877  1.00  0.00     0.188 C 
ENDROOT
BRANCH   1   2
ATOM      2  O   UNL A   1      33.251  23.888  26.858  1.00  0.00    -0.376 OA
BRANCH   2   3
ATOM      3  C   UNL A   1      31.915  23.419  27.001  1.00  0.00     0.202 C 
BRANCH   3   4
ATOM      4  C   UNL A   1      31.069  23.214  25.734  1.00  0.00     0.261 C 
BRANCH   4   5
ATOM      5  O   UNL A   1      31.779  22.814  24.538  1.00  0.00    -0.463 OA
BRANCH   5   6
ATOM      6  C   UNL A   1      31.652  23.627  23.457  1.00  0.00     0.309 C 
ATOM      7  O   UNL A   1      30.593  24.143  23.111  1.00  0.00    -0.252 OA
BRANCH   6   8
ATOM      8  C   UNL A   1      32.920  23.803  22.610  1.00  0.00     0.099 C 
ATOM      9  C   UNL A   1      33.602  26.694  22.407  1.00  0.00     0.044 C 
ATOM     10  C   UNL A   1      33.735  25.912  23.722  1.00  0.00     0.010 C 
ATOM     11  C   UNL A   1      32.657  26.032  21.389  1.00  0.00     0.010 C 
ATOM     12  C   UNL A   1      34.001  24.426  23.491  1.00  0.00     0.016 C 
ATOM     13  C   UNL A   1      32.903  24.534  21.264  1.00  0.00     0.016 C 
BRANCH   9  14
ATOM     14  C   UNL A   1      33.237  28.172  22.658  1.00  0.00     0.264 C 
BRANCH  14  15
ATOM     15  N   UNL A   1      31.845  28.503  22.352  1.00  0.00    -0.340 N 
ATOM     16  H   UNL A   1      31.847  29.016  21.470  1.00  0.00     0.346 HD
ATOM     17  H   UNL A   1      31.374  27.597  22.351  1.00  0.00     0.346 HD
BRANCH  15  18
ATOM     18  C   UNL A   1      31.058  29.316  23.333  1.00  0.00     0.216 C 
BRANCH  18  19
ATOM     19  C   UNL A   1      29.580  29.625  22.840  1.00  0.00     0.046 C 
ATOM     20  C   UNL A   1      28.495  28.553  22.897  1.00  0.00     0.014 C 
ATOM     21  C   UNL A   1      29.067  30.915  23.504  1.00  0.00     0.014 C 
ENDBRANCH  18  19
BRANCH  18  22
ATOM     22  C   UNL A   1      31.299  28.805  24.779  1.00  0.00     0.009 A 
ATOM     23  C   UNL A   1      30.940  27.512  25.190  1.00  0.00     0.010 A 
ATOM     24  C   UNL A   1      31.790  29.655  25.796  1.00  0.00     0.010 A 
ATOM     25  C   UNL A   1      31.220  27.033  26.478  1.00  0.00     0.001 A 
ATOM     26  C   UNL A   1      32.035  29.196  27.098  1.00  0.00     0.001 A 
ATOM     27  C   UNL A   1      31.784  27.872  27.429  1.00  0.00     0.000 A 
ENDBRANCH  18  22
ENDBRANCH  15  18
ENDBRANCH  14  15
ENDBRANCH   9  14
ENDBRANCH   6   8
ENDBRANCH   5   6
ENDBRANCH   4   5
ENDBRANCH   3   4
ENDBRANCH   2   3
ENDBRANCH   1   2
BRANCH   1  28
ATOM     28  C   UNL A   1      33.973  21.455  27.051  1.00  0.00     0.188 C 
BRANCH  28  29
ATOM     29  O   UNL A   1      34.060  20.702  25.861  1.00  0.00    -0.376 OA
BRANCH  29  30
ATOM     30  C   UNL A   1      35.030  21.094  24.910  1.00  0.00     0.202 C 
BRANCH  30  31
ATOM     31  C   UNL A   1      36.461  20.652  25.245  1.00  0.00     0.261 C 
BRANCH  31  32
ATOM     32  O   UNL A   1      37.399  21.717  25.493  1.00  0.00    -0.460 OA
BRANCH  32  33
ATOM     33  C   UNL A   1      38.624  21.365  25.941  1.00  0.00     0.338 C 
ATOM     34  O   UNL A   1      39.196  20.302  25.752  1.00  0.00    -0.246 OA
BRANCH  33  35
ATOM     35  C   UNL A   1      39.280  22.583  26.479  1.00  0.00     0.060 A 
ATOM     36  C   UNL A   1      38.751  23.837  26.142  1.00  0.00     0.016 A 
ATOM     37  C   UNL A   1      40.377  22.495  27.338  1.00  0.00     0.016 A 
ATOM     38  C   UNL A   1      39.341  25.006  26.629  1.00  0.00     0.010 A 
ATOM     39  C   UNL A   1      40.981  23.667  27.811  1.00  0.00     0.010 A 
ATOM     40  C   UNL A   1      40.489  24.929  27.430  1.00  0.00    -0.014 A 
BRANCH  40  41
ATOM     41  C   UNL A   1      41.297  26.153  27.680  1.00  0.00     0.031 A 
ATOM     42  C   UNL A   1      40.653  27.285  28.438  1.00  0.00     0.074 A 
ATOM     43  C   UNL A   1      42.579  26.258  27.284  1.00  0.00     0.049 A 
ATOM     44  N   UNL A   1      41.131  28.464  28.746  1.00  0.00    -0.248 NA
ATOM     45  C   UNL A   1      39.279  27.050  28.911  1.00  0.00     0.031 C 
ATOM     46  C   UNL A   1      43.338  25.226  26.582  1.00  0.00     0.029 A 
ATOM     47  N   UNL A   1      43.466  27.299  27.415  1.00  0.00    -0.354 N 
ATOM     48  C   UNL A   1      40.119  29.107  29.450  1.00  0.00     0.074 A 
ATOM     49  C   UNL A   1      38.987  28.208  29.482  1.00  0.00     0.031 C 
ATOM     50  C   UNL A   1      44.576  25.690  26.334  1.00  0.00     0.029 A 
ATOM     51  C   UNL A   1      44.687  27.063  26.830  1.00  0.00     0.049 A 
ATOM     52  H   UNL A   1      43.249  28.136  27.886  1.00  0.00     0.167 HD
ATOM     53  C   UNL A   1      40.136  30.327  30.035  1.00  0.00     0.037 A 
ATOM     54  C   UNL A   1      45.758  27.871  26.691  1.00  0.00     0.037 A 
ATOM     55  C   UNL A   1      41.255  31.231  29.998  1.00  0.00     0.049 A 
ATOM     56  C   UNL A   1      45.715  29.267  27.268  1.00  0.00     0.074 A 
ATOM     57  C   UNL A   1      41.364  32.495  30.550  1.00  0.00     0.029 A 
ATOM     58  N   UNL A   1      42.460  30.969  29.363  1.00  0.00    -0.354 N 
ATOM     59  N   UNL A   1      44.764  29.859  27.949  1.00  0.00    -0.248 NA
ATOM     60  C   UNL A   1      46.906  30.106  27.060  1.00  0.00     0.031 C 
ATOM     61  C   UNL A   1      42.613  33.019  30.205  1.00  0.00     0.029 A 
ATOM     62  C   UNL A   1      43.311  32.055  29.495  1.00  0.00     0.049 A 
ATOM     63  H   UNL A   1      42.679  30.133  28.890  1.00  0.00     0.167 HD
ATOM     64  C   UNL A   1      45.255  31.117  28.283  1.00  0.00     0.074 A 
ATOM     65  C   UNL A   1      46.596  31.196  27.746  1.00  0.00     0.031 C 
ATOM     66  C   UNL A   1      44.651  32.117  28.972  1.00  0.00     0.037 A 
BRANCH  53  67
ATOM     67  C   UNL A   1      38.893  30.765  30.757  1.00  0.00     0.064 A 
ATOM     68  C   UNL A   1      38.731  30.556  32.135  1.00  0.00     0.173 A 
ATOM     69  C   UNL A   1      37.866  31.430  30.070  1.00  0.00     0.173 A 
ATOM     70  F   UNL A   1      39.675  29.911  32.836  1.00  0.00    -0.203 F 
ATOM     71  C   UNL A   1      37.576  30.972  32.792  1.00  0.00     0.198 A 
ATOM     72  C   UNL A   1      36.728  31.875  30.736  1.00  0.00     0.198 A 
ATOM     73  F   UNL A   1      37.971  31.657  28.752  1.00  0.00    -0.203 F 
ATOM     74  F   UNL A   1      37.421  30.715  34.099  1.00  0.00    -0.200 F 
ATOM     75  C   UNL A   1      36.580  31.639  32.095  1.00  0.00     0.200 A 
ATOM     76  F   UNL A   1      35.773  32.531  30.064  1.00  0.00    -0.200 F 
ATOM     77  F   UNL A   1      35.473  32.047  32.730  1.00  0.00    -0.200 F 
ENDBRANCH  53  67
BRANCH  54  78
ATOM     78  C   UNL A   1      46.967  27.402  25.959  1.00  0.00     0.064 A 
ATOM     79  C   UNL A   1      48.056  26.838  26.639  1.00  0.00     0.173 A 
ATOM     80  C   UNL A   1      47.089  27.574  24.571  1.00  0.00     0.173 A 
ATOM     81  F   UNL A   1      48.006  26.681  27.971  1.00  0.00    -0.203 F 
ATOM     82  C   UNL A   1      49.229  26.495  25.969  1.00  0.00     0.198 A 
ATOM     83  C   UNL A   1      48.249  27.196  23.896  1.00  0.00     0.198 A 
ATOM     84  F   UNL A   1      46.083  28.117  23.870  1.00  0.00    -0.203 F 
ATOM     85  F   UNL A   1      50.280  26.027  26.657  1.00  0.00    -0.200 F 
ATOM     86  C   UNL A   1      49.324  26.671  24.596  1.00  0.00     0.200 A 
ATOM     87  F   UNL A   1      48.332  27.361  22.568  1.00  0.00    -0.200 F 
ATOM     88  F   UNL A   1      50.455  26.351  23.953  1.00  0.00    -0.200 F 
ENDBRANCH  54  78
BRANCH  66  89
ATOM     89  C   UNL A   1      45.452  33.362  29.237  1.00  0.00     0.064 A 
ATOM     90  C   UNL A   1      45.428  34.464  28.366  1.00  0.00     0.173 A 
ATOM     91  C   UNL A   1      46.237  33.466  30.397  1.00  0.00     0.173 A 
ATOM     92  F   UNL A   1      44.703  34.416  27.239  1.00  0.00    -0.203 F 
ATOM     93  C   UNL A   1      46.189  35.601  28.627  1.00  0.00     0.198 A 
ATOM     94  C   UNL A   1      46.967  34.619  30.673  1.00  0.00     0.198 A 
ATOM     95  F   UNL A   1      46.289  32.449  31.272  1.00  0.00    -0.203 F 
ATOM     96  F   UNL A   1      46.199  36.613  27.748  1.00  0.00    -0.200 F 
ATOM     97  C   UNL A   1      46.952  35.680  29.782  1.00  0.00     0.200 A 
ATOM     98  F   UNL A   1      47.688  34.701  31.800  1.00  0.00    -0.200 F 
ATOM     99  F   UNL A   1      47.681  36.777  30.032  1.00  0.00    -0.200 F 
ENDBRANCH  66  89
ENDBRANCH  40  41
ENDBRANCH  33  35
ENDBRANCH  32  33
ENDBRANCH  31  32
ENDBRANCH  30  31
ENDBRANCH  29  30
ENDBRANCH  28  29
ENDBRANCH   1  28
TORSDOF 22
ENDMDL
MODEL 2
REMARK VINA RESULT:     -10.7      3.326      8.327
REMARK SMILES CC(C)[C@H]([NH2+]C[C@H]1CC[C@@H](C(=O)OCCOCCOCCOC(=O)c2ccc(-c3c4nc(c(-c5c(F)c(F)c(F)c(F)c5F)c5ccc([nH]5)c(-c5c(F)c(F)c(F)c(F)c5F)c5nc(c(-c6c(F)c(F)c(F)c(F)c6F)c6ccc3[nH]6)C=C5)C=C4)cc2)CC1)c1ccccc1
REMARK SMILES IDX 17 1 16 2 15 3 14 4 13 5 11 6 12 7 10 8 7 9 8 10 89 11 9 12
REMARK SMILES IDX 88 13 6 14 5 15 4 18 2 19 1 20 3 21 90 22 91 23 95 24 92 25
REMARK SMILES IDX 94 26 93 27 18 28 19 29 20 30 21 31 22 32 23 33 24 34 25 35
REMARK SMILES IDX 26 36 87 37 27 38 86 39 28 40 29 41 30 42 80 43 31 44 85 45
REMARK SMILES IDX 79 46 81 47 32 48 84 49 78 50 77 51 33 53 65 54 45 55 64 56
REMARK SMILES IDX 46 57 49 58 63 59 82 60 47 61 48 62 62 64 83 65 50 66 34 67
REMARK SMILES IDX 35 68 43 69 36 70 37 71 41 72 44 73 38 74 39 75 42 76 40 77
REMARK SMILES IDX 66 78 67 79 75 80 68 81 69 82 73 83 76 84 70 85 71 86 74 87
REMARK SMILES IDX 72 88 51 89 52 90 60 91 53 92 54 93 58 94 61 95 55 96 56 97
REMARK SMILES IDX 59 98 57 99
REMARK H PARENT 5 16 5 17 81 52 49 63
REMARK Flexibility Score: inf
ROOT
ATOM      1  C   UNL A   1      34.361  34.063  29.080  1.00  0.00     0.188 C 
ENDROOT
BRANCH   1   2
ATOM      2  O   UNL A   1      33.866  33.180  28.082  1.00  0.00    -0.376 OA
BRANCH   2   3
ATOM      3  C   UNL A   1      34.474  31.901  27.939  1.00  0.00     0.202 C 
BRANCH   3   4
ATOM      4  C   UNL A   1      33.580  30.695  27.607  1.00  0.00     0.261 C 
BRANCH   4   5
ATOM      5  O   UNL A   1      34.195  29.617  26.863  1.00  0.00    -0.463 OA
BRANCH   5   6
ATOM      6  C   UNL A   1      33.457  29.075  25.859  1.00  0.00     0.309 C 
ATOM      7  O   UNL A   1      33.944  28.552  24.861  1.00  0.00    -0.252 OA
BRANCH   6   8
ATOM      8  C   UNL A   1      31.937  29.235  25.996  1.00  0.00     0.099 C 
ATOM      9  C   UNL A   1      30.562  26.937  24.694  1.00  0.00     0.044 C 
ATOM     10  C   UNL A   1      31.374  26.779  25.987  1.00  0.00     0.010 C 
ATOM     11  C   UNL A   1      30.920  28.200  23.892  1.00  0.00     0.010 C 
ATOM     12  C   UNL A   1      31.404  28.061  26.816  1.00  0.00     0.016 C 
ATOM     13  C   UNL A   1      31.028  29.434  24.779  1.00  0.00     0.016 C 
BRANCH   9  14
ATOM     14  C   UNL A   1      30.623  25.664  23.824  1.00  0.00     0.264 C 
BRANCH  14  15
ATOM     15  N   UNL A   1      31.921  24.988  23.848  1.00  0.00    -0.340 N 
ATOM     16  H   UNL A   1      32.363  25.159  22.945  1.00  0.00     0.346 HD
ATOM     17  H   UNL A   1      32.386  25.382  24.666  1.00  0.00     0.346 HD
BRANCH  15  18
ATOM     18  C   UNL A   1      31.966  23.510  24.086  1.00  0.00     0.216 C 
BRANCH  18  19
ATOM     19  C   UNL A   1      32.150  22.671  22.750  1.00  0.00     0.046 C 
ATOM     20  C   UNL A   1      33.281  22.988  21.774  1.00  0.00     0.014 C 
ATOM     21  C   UNL A   1      32.156  21.166  23.074  1.00  0.00     0.014 C 
ENDBRANCH  18  19
BRANCH  18  22
ATOM     22  C   UNL A   1      32.841  23.187  25.328  1.00  0.00     0.009 A 
ATOM     23  C   UNL A   1      34.220  23.445  25.364  1.00  0.00     0.010 A 
ATOM     24  C   UNL A   1      32.316  22.507  26.450  1.00  0.00     0.010 A 
ATOM     25  C   UNL A   1      34.992  23.213  26.512  1.00  0.00     0.001 A 
ATOM     26  C   UNL A   1      33.091  22.234  27.586  1.00  0.00     0.001 A 
ATOM     27  C   UNL A   1      34.423  22.622  27.631  1.00  0.00     0.000 A 
ENDBRANCH  18  22
ENDBRANCH  15  18
ENDBRANCH  14  15
ENDBRANCH   9  14
ENDBRANCH   6   8
ENDBRANCH   5   6
ENDBRANCH   4   5
ENDBRANCH   3   4
ENDBRANCH   2   3
ENDBRANCH   1   2
BRANCH   1  28
ATOM     28  C   UNL A   1      33.443  35.178  29.601  1.00  0.00     0.188 C 
BRANCH  28  29
ATOM     29  O   UNL A   1      33.073  35.033  30.954  1.00  0.00    -0.376 OA
BRANCH  29  30
ATOM     30  C   UNL A   1      34.111  34.901  31.905  1.00  0.00     0.202 C 
BRANCH  30  31
ATOM     31  C   UNL A   1      34.024  33.637  32.770  1.00  0.00     0.261 C 
BRANCH  31  32
ATOM     32  O   UNL A   1      34.908  32.563  32.393  1.00  0.00    -0.460 OA
BRANCH  32  33
ATOM     33  C   UNL A   1      36.022  32.395  33.140  1.00  0.00     0.338 C 
ATOM     34  O   UNL A   1      36.138  32.599  34.339  1.00  0.00    -0.246 OA
BRANCH  33  35
ATOM     35  C   UNL A   1      37.016  31.664  32.316  1.00  0.00     0.060 A 
ATOM     36  C   UNL A   1      37.987  30.887  32.964  1.00  0.00     0.016 A 
ATOM     37  C   UNL A   1      36.972  31.708  30.921  1.00  0.00     0.016 A 
ATOM     38  C   UNL A   1      38.940  30.184  32.221  1.00  0.00     0.010 A 
ATOM     39  C   UNL A   1      37.939  31.019  30.177  1.00  0.00     0.010 A 
ATOM     40  C   UNL A   1      38.950  30.284  30.823  1.00  0.00    -0.014 A 
BRANCH  40  41
ATOM     41  C   UNL A   1      40.135  29.810  30.059  1.00  0.00     0.031 A 
ATOM     42  C   UNL A   1      41.250  30.791  29.801  1.00  0.00     0.074 A 
ATOM     43  C   UNL A   1      40.250  28.540  29.631  1.00  0.00     0.049 A 
ATOM     44  N   UNL A   1      42.363  30.635  29.130  1.00  0.00    -0.248 NA
ATOM     45  C   UNL A   1      41.081  32.133  30.383  1.00  0.00     0.031 C 
ATOM     46  C   UNL A   1      39.272  27.479  29.848  1.00  0.00     0.029 A 
ATOM     47  N   UNL A   1      41.253  27.933  28.912  1.00  0.00    -0.354 N 
ATOM     48  C   UNL A   1      43.025  31.854  29.213  1.00  0.00     0.074 A 
ATOM     49  C   UNL A   1      42.169  32.753  29.955  1.00  0.00     0.031 C 
ATOM     50  C   UNL A   1      39.716  26.351  29.264  1.00  0.00     0.029 A 
ATOM     51  C   UNL A   1      40.994  26.618  28.604  1.00  0.00     0.049 A 
ATOM     52  H   UNL A   1      42.079  28.395  28.643  1.00  0.00     0.167 HD
ATOM     53  C   UNL A   1      44.244  32.193  28.730  1.00  0.00     0.037 A 
ATOM     54  C   UNL A   1      41.699  25.744  27.857  1.00  0.00     0.037 A 
ATOM     55  C   UNL A   1      45.095  31.307  27.981  1.00  0.00     0.049 A 
ATOM     56  C   UNL A   1      43.012  26.177  27.247  1.00  0.00     0.074 A 
ATOM     57  C   UNL A   1      46.342  31.562  27.439  1.00  0.00     0.029 A 
ATOM     58  N   UNL A   1      44.781  29.995  27.659  1.00  0.00    -0.354 N 
ATOM     59  N   UNL A   1      43.640  27.324  27.346  1.00  0.00    -0.248 NA
ATOM     60  C   UNL A   1      43.718  25.183  26.422  1.00  0.00     0.031 C 
ATOM     61  C   UNL A   1      46.760  30.422  26.745  1.00  0.00     0.029 A 
ATOM     62  C   UNL A   1      45.803  29.434  26.910  1.00  0.00     0.049 A 
ATOM     63  H   UNL A   1      43.954  29.531  27.924  1.00  0.00     0.167 HD
ATOM     64  C   UNL A   1      44.826  27.176  26.634  1.00  0.00     0.074 A 
ATOM     65  C   UNL A   1      44.839  25.822  26.124  1.00  0.00     0.031 C 
ATOM     66  C   UNL A   1      45.815  28.079  26.422  1.00  0.00     0.037 A 
BRANCH  53  67
ATOM     67  C   UNL A   1      44.725  33.593  28.987  1.00  0.00     0.064 A 
ATOM     68  C   UNL A   1      44.495  34.629  28.069  1.00  0.00     0.173 A 
ATOM     69  C   UNL A   1      45.395  33.909  30.177  1.00  0.00     0.173 A 
ATOM     70  F   UNL A   1      43.873  34.377  26.907  1.00  0.00    -0.203 F 
ATOM     71  C   UNL A   1      44.941  35.923  28.323  1.00  0.00     0.198 A 
ATOM     72  C   UNL A   1      45.811  35.211  30.443  1.00  0.00     0.198 A 
ATOM     73  F   UNL A   1      45.640  32.956  31.090  1.00  0.00    -0.203 F 
ATOM     74  F   UNL A   1      44.755  36.886  27.408  1.00  0.00    -0.200 F 
ATOM     75  C   UNL A   1      45.590  36.215  29.512  1.00  0.00     0.200 A 
ATOM     76  F   UNL A   1      46.424  35.494  31.600  1.00  0.00    -0.200 F 
ATOM     77  F   UNL A   1      46.011  37.463  29.759  1.00  0.00    -0.200 F 
ENDBRANCH  53  67
BRANCH  54  78
ATOM     78  C   UNL A   1      41.182  24.368  27.617  1.00  0.00     0.064 A 
ATOM     79  C   UNL A   1      41.808  23.247  28.182  1.00  0.00     0.173 A 
ATOM     80  C   UNL A   1      40.093  24.139  26.761  1.00  0.00     0.173 A 
ATOM     81  F   UNL A   1      42.873  23.406  28.981  1.00  0.00    -0.203 F 
ATOM     82  C   UNL A   1      41.389  21.953  27.875  1.00  0.00     0.198 A 
ATOM     83  C   UNL A   1      39.651  22.847  26.484  1.00  0.00     0.198 A 
ATOM     84  F   UNL A   1      39.462  25.173  26.186  1.00  0.00    -0.203 F 
ATOM     85  F   UNL A   1      42.053  20.900  28.370  1.00  0.00    -0.200 F 
ATOM     86  C   UNL A   1      40.308  21.754  27.029  1.00  0.00     0.200 A 
ATOM     87  F   UNL A   1      38.601  22.660  25.673  1.00  0.00    -0.200 F 
ATOM     88  F   UNL A   1      39.911  20.510  26.726  1.00  0.00    -0.200 F 
ENDBRANCH  54  78
BRANCH  66  89
ATOM     89  C   UNL A   1      47.024  27.620  25.653  1.00  0.00     0.064 A 
ATOM     90  C   UNL A   1      47.118  27.760  24.259  1.00  0.00     0.173 A 
ATOM     91  C   UNL A   1      48.118  27.053  26.326  1.00  0.00     0.173 A 
ATOM     92  F   UNL A   1      46.099  28.286  23.564  1.00  0.00    -0.203 F 
ATOM     93  C   UNL A   1      48.242  27.315  23.568  1.00  0.00     0.198 A 
ATOM     94  C   UNL A   1      49.256  26.644  25.636  1.00  0.00     0.198 A 
ATOM     95  F   UNL A   1      48.089  26.905  27.660  1.00  0.00    -0.203 F 
ATOM     96  F   UNL A   1      48.282  27.403  22.230  1.00  0.00    -0.200 F 
ATOM     97  C   UNL A   1      49.312  26.763  24.257  1.00  0.00     0.200 A 
ATOM     98  F   UNL A   1      50.296  26.129  26.306  1.00  0.00    -0.200 F 
ATOM     99  F   UNL A   1      50.395  26.339  23.589  1.00  0.00    -0.200 F 
ENDBRANCH  66  89
ENDBRANCH  40  41
ENDBRANCH  33  35
ENDBRANCH  32  33
ENDBRANCH  31  32
ENDBRANCH  30  31
ENDBRANCH  29  30
ENDBRANCH  28  29
ENDBRANCH   1  28
TORSDOF 22
ENDMDL
MODEL 3
REMARK VINA RESULT:     -10.7      0.523      2.370
REMARK SMILES CC(C)[C@H]([NH2+]C[C@H]1CC[C@@H](C(=O)OCCOCCOCCOC(=O)c2ccc(-c3c4nc(c(-c5c(F)c(F)c(F)c(F)c5F)c5ccc([nH]5)c(-c5c(F)c(F)c(F)c(F)c5F)c5nc(c(-c6c(F)c(F)c(F)c(F)c6F)c6ccc3[nH]6)C=C5)C=C4)cc2)CC1)c1ccccc1
REMARK SMILES IDX 17 1 16 2 15 3 14 4 13 5 11 6 12 7 10 8 7 9 8 10 89 11 9 12
REMARK SMILES IDX 88 13 6 14 5 15 4 18 2 19 1 20 3 21 90 22 91 23 95 24 92 25
REMARK SMILES IDX 94 26 93 27 18 28 19 29 20 30 21 31 22 32 23 33 24 34 25 35
REMARK SMILES IDX 26 36 87 37 27 38 86 39 28 40 29 41 30 42 80 43 31 44 85 45
REMARK SMILES IDX 79 46 81 47 32 48 84 49 78 50 77 51 33 53 65 54 45 55 64 56
REMARK SMILES IDX 46 57 49 58 63 59 82 60 47 61 48 62 62 64 83 65 50 66 34 67
REMARK SMILES IDX 35 68 43 69 36 70 37 71 41 72 44 73 38 74 39 75 42 76 40 77
REMARK SMILES IDX 66 78 67 79 75 80 68 81 69 82 73 83 76 84 70 85 71 86 74 87
REMARK SMILES IDX 72 88 51 89 52 90 60 91 53 92 54 93 58 94 61 95 55 96 56 97
REMARK SMILES IDX 59 98 57 99
REMARK H PARENT 5 16 5 17 81 52 49 63
REMARK Flexibility Score: inf
ROOT
ATOM      1  C   UNL A   1      34.426  22.953  26.630  1.00  0.00     0.188 C 
ENDROOT
BRANCH   1   2
ATOM      2  O   UNL A   1      33.279  23.788  26.713  1.00  0.00    -0.376 OA
BRANCH   2   3
ATOM      3  C   UNL A   1      32.002  23.181  26.875  1.00  0.00     0.202 C 
BRANCH   3   4
ATOM      4  C   UNL A   1      31.151  22.917  25.622  1.00  0.00     0.261 C 
BRANCH   4   5
ATOM      5  O   UNL A   1      31.869  22.646  24.395  1.00  0.00    -0.463 OA
BRANCH   5   6
ATOM      6  C   UNL A   1      31.683  23.526  23.377  1.00  0.00     0.309 C 
ATOM      7  O   UNL A   1      30.607  24.060  23.124  1.00  0.00    -0.252 OA
BRANCH   6   8
ATOM      8  C   UNL A   1      32.903  23.760  22.475  1.00  0.00     0.099 C 
ATOM      9  C   UNL A   1      33.529  26.669  22.362  1.00  0.00     0.044 C 
ATOM     10  C   UNL A   1      33.741  25.835  23.633  1.00  0.00     0.010 C 
ATOM     11  C   UNL A   1      32.543  26.034  21.366  1.00  0.00     0.010 C 
ATOM     12  C   UNL A   1      34.018  24.365  23.325  1.00  0.00     0.016 C 
ATOM     13  C   UNL A   1      32.805  24.547  21.165  1.00  0.00     0.016 C 
BRANCH   9  14
ATOM     14  C   UNL A   1      33.155  28.128  22.694  1.00  0.00     0.264 C 
BRANCH  14  15
ATOM     15  N   UNL A   1      33.243  28.457  24.118  1.00  0.00    -0.340 N 
ATOM     16  H   UNL A   1      34.019  27.917  24.501  1.00  0.00     0.346 HD
ATOM     17  H   UNL A   1      33.346  29.472  24.127  1.00  0.00     0.346 HD
BRANCH  15  18
ATOM     18  C   UNL A   1      32.057  28.207  24.997  1.00  0.00     0.216 C 
BRANCH  18  19
ATOM     19  C   UNL A   1      32.261  28.735  26.481  1.00  0.00     0.046 C 
ATOM     20  C   UNL A   1      31.404  28.203  27.627  1.00  0.00     0.014 C 
ATOM     21  C   UNL A   1      33.749  28.646  26.867  1.00  0.00     0.014 C 
ENDBRANCH  18  19
BRANCH  18  22
ATOM     22  C   UNL A   1      30.741  28.528  24.237  1.00  0.00     0.009 A 
ATOM     23  C   UNL A   1      29.888  27.525  23.753  1.00  0.00     0.010 A 
ATOM     24  C   UNL A   1      30.388  29.851  23.887  1.00  0.00     0.010 A 
ATOM     25  C   UNL A   1      28.669  27.821  23.125  1.00  0.00     0.001 A 
ATOM     26  C   UNL A   1      29.191  30.154  23.224  1.00  0.00     0.001 A 
ATOM     27  C   UNL A   1      28.312  29.138  22.875  1.00  0.00     0.000 A 
ENDBRANCH  18  22
ENDBRANCH  15  18
ENDBRANCH  14  15
ENDBRANCH   9  14
ENDBRANCH   6   8
ENDBRANCH   5   6
ENDBRANCH   4   5
ENDBRANCH   3   4
ENDBRANCH   2   3
ENDBRANCH   1   2
BRANCH   1  28
ATOM     28  C   UNL A   1      34.256  21.441  26.835  1.00  0.00     0.188 C 
BRANCH  28  29
ATOM     29  O   UNL A   1      34.520  20.671  25.683  1.00  0.00    -0.376 OA
BRANCH  29  30
ATOM     30  C   UNL A   1      35.427  21.202  24.736  1.00  0.00     0.202 C 
BRANCH  30  31
ATOM     31  C   UNL A   1      36.897  20.853  25.001  1.00  0.00     0.261 C 
BRANCH  31  32
ATOM     32  O   UNL A   1      37.578  21.703  25.944  1.00  0.00    -0.460 OA
BRANCH  32  33
ATOM     33  C   UNL A   1      38.898  21.480  26.131  1.00  0.00     0.338 C 
ATOM     34  O   UNL A   1      39.538  20.512  25.750  1.00  0.00    -0.246 OA
BRANCH  33  35
ATOM     35  C   UNL A   1      39.503  22.734  26.645  1.00  0.00     0.060 A 
ATOM     36  C   UNL A   1      38.962  23.961  26.234  1.00  0.00     0.016 A 
ATOM     37  C   UNL A   1      40.565  22.707  27.551  1.00  0.00     0.016 A 
ATOM     38  C   UNL A   1      39.505  25.162  26.697  1.00  0.00     0.010 A 
ATOM     39  C   UNL A   1      41.122  23.911  27.999  1.00  0.00     0.010 A 
ATOM     40  C   UNL A   1      40.619  25.145  27.547  1.00  0.00    -0.014 A 
BRANCH  40  41
ATOM     41  C   UNL A   1      41.389  26.396  27.779  1.00  0.00     0.031 A 
ATOM     42  C   UNL A   1      40.708  27.521  28.515  1.00  0.00     0.074 A 
ATOM     43  C   UNL A   1      42.669  26.533  27.386  1.00  0.00     0.049 A 
ATOM     44  N   UNL A   1      41.149  28.719  28.805  1.00  0.00    -0.248 NA
ATOM     45  C   UNL A   1      39.339  27.253  28.986  1.00  0.00     0.031 C 
ATOM     46  C   UNL A   1      43.462  25.513  26.706  1.00  0.00     0.029 A 
ATOM     47  N   UNL A   1      43.524  27.603  27.504  1.00  0.00    -0.354 N 
ATOM     48  C   UNL A   1      40.115  29.343  29.494  1.00  0.00     0.074 A 
ATOM     49  C   UNL A   1      39.010  28.411  29.536  1.00  0.00     0.031 C 
ATOM     50  C   UNL A   1      44.687  26.010  26.455  1.00  0.00     0.029 A 
ATOM     51  C   UNL A   1      44.755  27.393  26.927  1.00  0.00     0.049 A 
ATOM     52  H   UNL A   1      43.280  28.441  27.959  1.00  0.00     0.167 HD
ATOM     53  C   UNL A   1      40.092  30.573  30.058  1.00  0.00     0.037 A 
ATOM     54  C   UNL A   1      45.801  28.231  26.779  1.00  0.00     0.037 A 
ATOM     55  C   UNL A   1      41.184  31.509  30.009  1.00  0.00     0.049 A 
ATOM     56  C   UNL A   1      45.714  29.634  27.332  1.00  0.00     0.074 A 
ATOM     57  C   UNL A   1      41.252  32.785  30.540  1.00  0.00     0.029 A 
ATOM     58  N   UNL A   1      42.399  31.273  29.385  1.00  0.00    -0.354 N 
ATOM     59  N   UNL A   1      44.741  30.209  27.999  1.00  0.00    -0.248 NA
ATOM     60  C   UNL A   1      46.880  30.505  27.115  1.00  0.00     0.031 C 
ATOM     61  C   UNL A   1      42.487  33.340  30.191  1.00  0.00     0.029 A 
ATOM     62  C   UNL A   1      43.216  32.386  29.501  1.00  0.00     0.049 A 
ATOM     63  H   UNL A   1      42.646  30.436  28.926  1.00  0.00     0.167 HD
ATOM     64  C   UNL A   1      45.194  31.487  28.313  1.00  0.00     0.074 A 
ATOM     65  C   UNL A   1      46.534  31.597  27.781  1.00  0.00     0.031 C 
ATOM     66  C   UNL A   1      44.556  32.480  28.982  1.00  0.00     0.037 A 
BRANCH  53  67
ATOM     67  C   UNL A   1      38.833  30.986  30.766  1.00  0.00     0.064 A 
ATOM     68  C   UNL A   1      37.749  31.546  30.073  1.00  0.00     0.173 A 
ATOM     69  C   UNL A   1      38.697  30.791  32.148  1.00  0.00     0.173 A 
ATOM     70  F   UNL A   1      37.834  31.769  28.753  1.00  0.00    -0.203 F 
ATOM     71  C   UNL A   1      36.586  31.918  30.742  1.00  0.00     0.198 A 
ATOM     72  C   UNL A   1      37.520  31.133  32.809  1.00  0.00     0.198 A 
ATOM     73  F   UNL A   1      39.702  30.258  32.859  1.00  0.00    -0.203 F 
ATOM     74  F   UNL A   1      35.583  32.498  30.067  1.00  0.00    -0.200 F 
ATOM     75  C   UNL A   1      36.469  31.703  32.106  1.00  0.00     0.200 A 
ATOM     76  F   UNL A   1      37.403  30.911  34.125  1.00  0.00    -0.200 F 
ATOM     77  F   UNL A   1      35.345  32.054  32.747  1.00  0.00    -0.200 F 
ENDBRANCH  53  67
BRANCH  54  78
ATOM     78  C   UNL A   1      47.027  27.787  26.060  1.00  0.00     0.064 A 
ATOM     79  C   UNL A   1      47.085  27.778  24.658  1.00  0.00     0.173 A 
ATOM     80  C   UNL A   1      48.142  27.295  26.757  1.00  0.00     0.173 A 
ATOM     81  F   UNL A   1      46.035  28.206  23.942  1.00  0.00    -0.203 F 
ATOM     82  C   UNL A   1      48.192  27.265  23.983  1.00  0.00     0.198 A 
ATOM     83  C   UNL A   1      49.263  26.817  26.082  1.00  0.00     0.198 A 
ATOM     84  F   UNL A   1      48.138  27.271  28.098  1.00  0.00    -0.203 F 
ATOM     85  F   UNL A   1      48.188  27.200  22.645  1.00  0.00    -0.200 F 
ATOM     86  C   UNL A   1      49.282  26.788  24.696  1.00  0.00     0.200 A 
ATOM     87  F   UNL A   1      50.318  26.365  26.775  1.00  0.00    -0.200 F 
ATOM     88  F   UNL A   1      50.342  26.286  24.047  1.00  0.00    -0.200 F 
ENDBRANCH  54  78
BRANCH  66  89
ATOM     89  C   UNL A   1      45.319  33.753  29.230  1.00  0.00     0.064 A 
ATOM     90  C   UNL A   1      46.124  33.930  30.366  1.00  0.00     0.173 A 
ATOM     91  C   UNL A   1      45.264  34.804  28.300  1.00  0.00     0.173 A 
ATOM     92  F   UNL A   1      46.206  32.963  31.292  1.00  0.00    -0.203 F 
ATOM     93  C   UNL A   1      46.810  35.123  30.581  1.00  0.00     0.198 A 
ATOM     94  C   UNL A   1      45.981  35.980  28.498  1.00  0.00     0.198 A 
ATOM     95  F   UNL A   1      44.520  34.686  27.189  1.00  0.00    -0.203 F 
ATOM     96  F   UNL A   1      47.522  35.292  31.704  1.00  0.00    -0.200 F 
ATOM     97  C   UNL A   1      46.743  36.144  29.644  1.00  0.00     0.200 A 
ATOM     98  F   UNL A   1      45.931  36.958  27.583  1.00  0.00    -0.200 F 
ATOM     99  F   UNL A   1      47.408  37.290  29.851  1.00  0.00    -0.200 F 
ENDBRANCH  66  89
ENDBRANCH  40  41
ENDBRANCH  33  35
ENDBRANCH  32  33
ENDBRANCH  31  32
ENDBRANCH  30  31
ENDBRANCH  29  30
ENDBRANCH  28  29
ENDBRANCH   1  28
TORSDOF 22
ENDMDL
