MODEL 1
REMARK VINA RESULT:     -12.6      0.000      0.000
REMARK SMILES Cc1c(CC(=O)OCCOCCOCCOC(=O)c2ccc(-c3c4nc(c(-c5c(F)c(F)c(F)c(F)c5F)c5ccc([nH]5)c(-c5c(F)c(F)c(F)c(F)c5F)c5nc(c(-c6c(F)c(F)c(F)c(F)c6F)c6ccc3[nH]6)C=C5)C=C4)cc2)cccc1-c1ccn(C(F)F)c(=O)c1
REMARK SMILES IDX 11 1 10 2 9 3 8 4 7 5 5 6 6 7 4 8 3 9 1 10 2 11 85 12 82 13
REMARK SMILES IDX 84 14 83 15 86 16 87 17 95 18 88 19 93 20 89 21 94 22 90 23
REMARK SMILES IDX 91 24 92 25 12 26 13 27 14 28 15 29 16 30 17 31 18 32 19 33
REMARK SMILES IDX 20 34 81 35 21 36 80 37 22 38 23 39 24 40 74 41 25 42 79 43
REMARK SMILES IDX 73 44 75 45 26 46 78 47 72 48 71 49 27 51 59 52 39 53 58 54
REMARK SMILES IDX 40 55 43 56 57 57 76 58 41 59 42 60 56 62 77 63 44 64 28 65
REMARK SMILES IDX 29 66 37 67 30 68 31 69 35 70 38 71 32 72 33 73 36 74 34 75
REMARK SMILES IDX 60 76 61 77 69 78 62 79 63 80 67 81 70 82 64 83 65 84 68 85
REMARK SMILES IDX 66 86 45 87 46 88 54 89 47 90 48 91 52 92 55 93 49 94 50 95
REMARK SMILES IDX 53 96 51 97
REMARK H PARENT 75 50 43 61
REMARK Flexibility Score: inf
ROOT
ATOM      1  C   UNL A   1      36.655  22.321  25.952  1.00  0.00     0.188 C 
ENDROOT
BRANCH   1   2
ATOM      2  O   UNL A   1      35.496  22.848  25.256  1.00  0.00    -0.376 OA
BRANCH   2   3
ATOM      3  C   UNL A   1      35.381  23.000  23.830  1.00  0.00     0.202 C 
BRANCH   3   4
ATOM      4  C   UNL A   1      33.988  23.551  23.025  1.00  0.00     0.261 C 
BRANCH   4   5
ATOM      5  O   UNL A   1      33.770  24.908  22.037  1.00  0.00    -0.463 OA
BRANCH   5   6
ATOM      6  C   UNL A   1      32.840  25.475  21.109  1.00  0.00     0.310 C 
ATOM      7  O   UNL A   1      32.904  25.578  19.880  1.00  0.00    -0.252 OA
BRANCH   6   8
ATOM      8  C   UNL A   1      31.519  25.984  21.561  1.00  0.00     0.158 C 
BRANCH   8   9
ATOM      9  C   UNL A   1      31.428  26.227  23.003  1.00  0.00    -0.033 A 
ATOM     10  C   UNL A   1      32.644  28.458  22.720  1.00  0.00     0.045 C 
ATOM     11  C   UNL A   1      32.036  27.354  23.573  1.00  0.00    -0.039 A 
ATOM     12  C   UNL A   1      31.980  27.449  24.966  1.00  0.00    -0.015 A 
ATOM     13  C   UNL A   1      30.740  25.271  23.755  1.00  0.00     0.004 A 
ATOM     14  C   UNL A   1      31.334  26.462  25.732  1.00  0.00     0.009 A 
ATOM     15  C   UNL A   1      30.700  25.383  25.125  1.00  0.00     0.001 A 
BRANCH  12  16
ATOM     16  C   UNL A   1      32.589  28.604  25.620  1.00  0.00    -0.011 A 
ATOM     17  C   UNL A   1      33.901  28.526  26.221  1.00  0.00     0.027 A 
ATOM     18  C   UNL A   1      31.812  29.681  25.816  1.00  0.00     0.080 A 
ATOM     19  C   UNL A   1      34.331  29.515  27.007  1.00  0.00     0.095 A 
ATOM     20  C   UNL A   1      32.301  30.806  26.648  1.00  0.00     0.255 A 
ATOM     21  N   UNL A   1      33.550  30.633  27.226  1.00  0.00    -0.258 N 
ATOM     22  O   UNL A   1      31.571  31.783  26.790  1.00  0.00    -0.269 OA
BRANCH  21  23
ATOM     23  C   UNL A   1      34.026  31.695  28.068  1.00  0.00     0.451 C 
ATOM     24  F   UNL A   1      34.641  31.199  29.167  1.00  0.00    -0.185 F 
ATOM     25  F   UNL A   1      34.908  32.483  27.407  1.00  0.00    -0.185 F 
ENDBRANCH  21  23
ENDBRANCH  12  16
ENDBRANCH   8   9
ENDBRANCH   6   8
ENDBRANCH   5   6
ENDBRANCH   4   5
ENDBRANCH   3   4
ENDBRANCH   2   3
ENDBRANCH   1   2
BRANCH   1  26
ATOM     26  C   UNL A   1      37.642  21.305  25.360  1.00  0.00     0.188 C 
BRANCH  26  27
ATOM     27  O   UNL A   1      38.972  21.621  25.734  1.00  0.00    -0.376 OA
BRANCH  27  28
ATOM     28  C   UNL A   1      39.794  20.515  26.090  1.00  0.00     0.202 C 
BRANCH  28  29
ATOM     29  C   UNL A   1      41.287  20.884  26.248  1.00  0.00     0.261 C 
BRANCH  29  30
ATOM     30  O   UNL A   1      41.605  22.097  25.520  1.00  0.00    -0.460 OA
BRANCH  30  31
ATOM     31  C   UNL A   1      42.339  23.058  26.169  1.00  0.00     0.338 C 
ATOM     32  O   UNL A   1      43.417  22.864  26.711  1.00  0.00    -0.246 OA
BRANCH  31  33
ATOM     33  C   UNL A   1      41.521  24.309  26.332  1.00  0.00     0.060 A 
ATOM     34  C   UNL A   1      41.803  25.588  25.826  1.00  0.00     0.016 A 
ATOM     35  C   UNL A   1      40.622  24.279  27.338  1.00  0.00     0.016 A 
ATOM     36  C   UNL A   1      41.324  26.809  26.481  1.00  0.00     0.010 A 
ATOM     37  C   UNL A   1      40.460  25.460  28.054  1.00  0.00     0.010 A 
ATOM     38  C   UNL A   1      40.700  26.810  27.734  1.00  0.00    -0.014 A 
BRANCH  38  39
ATOM     39  C   UNL A   1      40.517  28.089  28.769  1.00  0.00     0.031 A 
ATOM     40  C   UNL A   1      39.454  29.420  28.921  1.00  0.00     0.074 A 
ATOM     41  C   UNL A   1      41.473  28.120  29.729  1.00  0.00     0.049 A 
ATOM     42  N   UNL A   1      39.745  30.518  29.606  1.00  0.00    -0.248 NA
ATOM     43  C   UNL A   1      38.102  29.713  28.301  1.00  0.00     0.031 C 
ATOM     44  C   UNL A   1      41.535  28.947  30.930  1.00  0.00     0.029 A 
ATOM     45  N   UNL A   1      42.726  27.483  29.706  1.00  0.00    -0.354 N 
ATOM     46  C   UNL A   1      38.640  31.375  29.610  1.00  0.00     0.074 A 
ATOM     47  C   UNL A   1      37.795  30.962  28.576  1.00  0.00     0.031 C 
ATOM     48  C   UNL A   1      42.819  29.070  31.296  1.00  0.00     0.029 A 
ATOM     49  C   UNL A   1      43.622  28.395  30.296  1.00  0.00     0.049 A 
ATOM     50  H   UNL A   1      42.933  26.588  29.351  1.00  0.00     0.167 HD
ATOM     51  C   UNL A   1      38.385  32.341  30.529  1.00  0.00     0.037 A 
ATOM     52  C   UNL A   1      44.643  28.921  29.564  1.00  0.00     0.037 A 
ATOM     53  C   UNL A   1      39.624  32.756  31.126  1.00  0.00     0.049 A 
ATOM     54  C   UNL A   1      44.576  30.430  29.435  1.00  0.00     0.074 A 
ATOM     55  C   UNL A   1      40.287  32.500  32.305  1.00  0.00     0.029 A 
ATOM     56  N   UNL A   1      40.548  33.309  30.261  1.00  0.00    -0.354 N 
ATOM     57  N   UNL A   1      43.712  31.193  30.048  1.00  0.00    -0.248 NA
ATOM     58  C   UNL A   1      45.428  31.188  28.514  1.00  0.00     0.031 C 
ATOM     59  C   UNL A   1      41.679  32.730  32.053  1.00  0.00     0.029 A 
ATOM     60  C   UNL A   1      41.828  33.186  30.752  1.00  0.00     0.049 A 
ATOM     61  H   UNL A   1      40.321  33.738  29.404  1.00  0.00     0.167 HD
ATOM     62  C   UNL A   1      43.795  32.459  29.538  1.00  0.00     0.074 A 
ATOM     63  C   UNL A   1      44.898  32.417  28.599  1.00  0.00     0.031 C 
ATOM     64  C   UNL A   1      42.930  33.463  29.850  1.00  0.00     0.037 A 
BRANCH  51  65
ATOM     65  C   UNL A   1      36.987  32.889  30.833  1.00  0.00     0.064 A 
ATOM     66  C   UNL A   1      36.362  33.782  29.944  1.00  0.00     0.173 A 
ATOM     67  C   UNL A   1      36.254  32.676  32.037  1.00  0.00     0.173 A 
ATOM     68  F   UNL A   1      36.958  34.129  28.794  1.00  0.00    -0.203 F 
ATOM     69  C   UNL A   1      35.118  34.377  30.216  1.00  0.00     0.198 A 
ATOM     70  C   UNL A   1      34.978  33.202  32.270  1.00  0.00     0.198 A 
ATOM     71  F   UNL A   1      36.764  32.018  33.087  1.00  0.00    -0.203 F 
ATOM     72  F   UNL A   1      34.608  35.274  29.362  1.00  0.00    -0.200 F 
ATOM     73  C   UNL A   1      34.415  34.067  31.366  1.00  0.00     0.200 A 
ATOM     74  F   UNL A   1      34.325  32.888  33.400  1.00  0.00    -0.200 F 
ATOM     75  F   UNL A   1      33.224  34.629  31.620  1.00  0.00    -0.200 F 
ENDBRANCH  51  65
BRANCH  52  76
ATOM     76  C   UNL A   1      45.211  27.953  28.574  1.00  0.00     0.064 A 
ATOM     77  C   UNL A   1      45.944  26.851  29.074  1.00  0.00     0.173 A 
ATOM     78  C   UNL A   1      44.821  27.892  27.231  1.00  0.00     0.173 A 
ATOM     79  F   UNL A   1      46.346  26.837  30.356  1.00  0.00    -0.203 F 
ATOM     80  C   UNL A   1      46.164  25.705  28.313  1.00  0.00     0.198 A 
ATOM     81  C   UNL A   1      45.077  26.754  26.457  1.00  0.00     0.198 A 
ATOM     82  F   UNL A   1      44.067  28.859  26.691  1.00  0.00    -0.203 F 
ATOM     83  F   UNL A   1      46.732  24.628  28.873  1.00  0.00    -0.200 F 
ATOM     84  C   UNL A   1      45.719  25.653  27.007  1.00  0.00     0.200 A 
ATOM     85  F   UNL A   1      44.585  26.673  25.211  1.00  0.00    -0.200 F 
ATOM     86  F   UNL A   1      45.835  24.520  26.301  1.00  0.00    -0.200 F 
ENDBRANCH  52  76
BRANCH  64  87
ATOM     87  C   UNL A   1      43.100  34.825  29.265  1.00  0.00     0.064 A 
ATOM     88  C   UNL A   1      43.383  35.916  30.097  1.00  0.00     0.173 A 
ATOM     89  C   UNL A   1      42.862  35.097  27.905  1.00  0.00     0.173 A 
ATOM     90  F   UNL A   1      43.629  35.728  31.401  1.00  0.00    -0.203 F 
ATOM     91  C   UNL A   1      43.412  37.216  29.598  1.00  0.00     0.198 A 
ATOM     92  C   UNL A   1      42.850  36.401  27.418  1.00  0.00     0.198 A 
ATOM     93  F   UNL A   1      42.639  34.103  27.031  1.00  0.00    -0.203 F 
ATOM     94  F   UNL A   1      43.710  38.235  30.416  1.00  0.00    -0.200 F 
ATOM     95  C   UNL A   1      43.124  37.460  28.265  1.00  0.00     0.200 A 
ATOM     96  F   UNL A   1      42.563  36.628  26.128  1.00  0.00    -0.200 F 
ATOM     97  F   UNL A   1      43.114  38.715  27.796  1.00  0.00    -0.200 F 
ENDBRANCH  64  87
ENDBRANCH  38  39
ENDBRANCH  31  33
ENDBRANCH  30  31
ENDBRANCH  29  30
ENDBRANCH  28  29
ENDBRANCH  27  28
ENDBRANCH  26  27
ENDBRANCH   1  26
TORSDOF 20
ENDMDL
MODEL 2
REMARK VINA RESULT:     -12.0      2.995      4.634
REMARK SMILES Cc1c(CC(=O)OCCOCCOCCOC(=O)c2ccc(-c3c4nc(c(-c5c(F)c(F)c(F)c(F)c5F)c5ccc([nH]5)c(-c5c(F)c(F)c(F)c(F)c5F)c5nc(c(-c6c(F)c(F)c(F)c(F)c6F)c6ccc3[nH]6)C=C5)C=C4)cc2)cccc1-c1ccn(C(F)F)c(=O)c1
REMARK SMILES IDX 11 1 10 2 9 3 8 4 7 5 5 6 6 7 4 8 3 9 1 10 2 11 85 12 82 13
REMARK SMILES IDX 84 14 83 15 86 16 87 17 95 18 88 19 93 20 89 21 94 22 90 23
REMARK SMILES IDX 91 24 92 25 12 26 13 27 14 28 15 29 16 30 17 31 18 32 19 33
REMARK SMILES IDX 20 34 81 35 21 36 80 37 22 38 23 39 24 40 74 41 25 42 79 43
REMARK SMILES IDX 73 44 75 45 26 46 78 47 72 48 71 49 27 51 59 52 39 53 58 54
REMARK SMILES IDX 40 55 43 56 57 57 76 58 41 59 42 60 56 62 77 63 44 64 28 65
REMARK SMILES IDX 29 66 37 67 30 68 31 69 35 70 38 71 32 72 33 73 36 74 34 75
REMARK SMILES IDX 60 76 61 77 69 78 62 79 63 80 67 81 70 82 64 83 65 84 68 85
REMARK SMILES IDX 66 86 45 87 46 88 54 89 47 90 48 91 52 92 55 93 49 94 50 95
REMARK SMILES IDX 53 96 51 97
REMARK H PARENT 75 50 43 61
REMARK Flexibility Score: inf
ROOT
ATOM      1  C   UNL A   1      36.874  22.773  25.634  1.00  0.00     0.188 C 
ENDROOT
BRANCH   1   2
ATOM      2  O   UNL A   1      35.724  23.188  24.853  1.00  0.00    -0.376 OA
BRANCH   2   3
ATOM      3  C   UNL A   1      35.072  24.467  24.947  1.00  0.00     0.202 C 
BRANCH   3   4
ATOM      4  C   UNL A   1      33.924  24.884  26.129  1.00  0.00     0.261 C 
BRANCH   4   5
ATOM      5  O   UNL A   1      32.674  26.025  26.075  1.00  0.00    -0.463 OA
BRANCH   5   6
ATOM      6  C   UNL A   1      31.436  26.292  25.410  1.00  0.00     0.310 C 
ATOM      7  O   UNL A   1      30.871  27.366  25.180  1.00  0.00    -0.252 OA
BRANCH   6   8
ATOM      8  C   UNL A   1      30.648  25.197  24.786  1.00  0.00     0.158 C 
BRANCH   8   9
ATOM      9  C   UNL A   1      31.430  24.309  23.923  1.00  0.00    -0.033 A 
ATOM     10  C   UNL A   1      30.785  22.305  25.373  1.00  0.00     0.045 C 
ATOM     11  C   UNL A   1      31.573  22.952  24.243  1.00  0.00    -0.039 A 
ATOM     12  C   UNL A   1      32.418  22.206  23.416  1.00  0.00    -0.015 A 
ATOM     13  C   UNL A   1      32.032  24.895  22.806  1.00  0.00     0.004 A 
ATOM     14  C   UNL A   1      33.067  22.804  22.321  1.00  0.00     0.009 A 
ATOM     15  C   UNL A   1      32.861  24.143  22.007  1.00  0.00     0.001 A 
BRANCH  12  16
ATOM     16  C   UNL A   1      32.603  20.785  23.692  1.00  0.00    -0.011 A 
ATOM     17  C   UNL A   1      33.386  20.332  24.819  1.00  0.00     0.027 A 
ATOM     18  C   UNL A   1      32.185  19.917  22.758  1.00  0.00     0.080 A 
ATOM     19  C   UNL A   1      33.730  19.046  24.913  1.00  0.00     0.095 A 
ATOM     20  C   UNL A   1      32.522  18.477  22.880  1.00  0.00     0.255 A 
ATOM     21  N   UNL A   1      33.315  18.132  23.964  1.00  0.00    -0.258 N 
ATOM     22  O   UNL A   1      32.108  17.709  22.017  1.00  0.00    -0.269 OA
BRANCH  21  23
ATOM     23  C   UNL A   1      33.685  16.749  24.080  1.00  0.00     0.451 C 
ATOM     24  F   UNL A   1      35.024  16.596  23.947  1.00  0.00    -0.185 F 
ATOM     25  F   UNL A   1      33.318  16.245  25.283  1.00  0.00    -0.185 F 
ENDBRANCH  21  23
ENDBRANCH  12  16
ENDBRANCH   8   9
ENDBRANCH   6   8
ENDBRANCH   5   6
ENDBRANCH   4   5
ENDBRANCH   3   4
ENDBRANCH   2   3
ENDBRANCH   1   2
BRANCH   1  26
ATOM     26  C   UNL A   1      37.751  21.554  25.317  1.00  0.00     0.188 C 
BRANCH  26  27
ATOM     27  O   UNL A   1      39.096  21.791  25.694  1.00  0.00    -0.376 OA
BRANCH  27  28
ATOM     28  C   UNL A   1      39.828  20.649  26.128  1.00  0.00     0.202 C 
BRANCH  28  29
ATOM     29  C   UNL A   1      41.357  20.877  26.165  1.00  0.00     0.261 C 
BRANCH  29  30
ATOM     30  O   UNL A   1      41.713  22.134  25.536  1.00  0.00    -0.460 OA
BRANCH  30  31
ATOM     31  C   UNL A   1      42.344  23.078  26.306  1.00  0.00     0.338 C 
ATOM     32  O   UNL A   1      43.375  22.890  26.936  1.00  0.00    -0.246 OA
BRANCH  31  33
ATOM     33  C   UNL A   1      41.462  24.286  26.466  1.00  0.00     0.060 A 
ATOM     34  C   UNL A   1      41.649  25.561  25.907  1.00  0.00     0.016 A 
ATOM     35  C   UNL A   1      40.610  24.240  27.510  1.00  0.00     0.016 A 
ATOM     36  C   UNL A   1      41.129  26.775  26.543  1.00  0.00     0.010 A 
ATOM     37  C   UNL A   1      40.410  25.434  28.194  1.00  0.00     0.010 A 
ATOM     38  C   UNL A   1      40.558  26.783  27.822  1.00  0.00    -0.014 A 
BRANCH  38  39
ATOM     39  C   UNL A   1      40.346  28.085  28.822  1.00  0.00     0.031 A 
ATOM     40  C   UNL A   1      39.312  29.446  28.885  1.00  0.00     0.074 A 
ATOM     41  C   UNL A   1      41.240  28.107  29.841  1.00  0.00     0.049 A 
ATOM     42  N   UNL A   1      39.589  30.547  29.570  1.00  0.00    -0.248 NA
ATOM     43  C   UNL A   1      38.011  29.763  28.176  1.00  0.00     0.031 C 
ATOM     44  C   UNL A   1      41.249  28.953  31.030  1.00  0.00     0.029 A 
ATOM     45  N   UNL A   1      42.473  27.438  29.907  1.00  0.00    -0.354 N 
ATOM     46  C   UNL A   1      38.510  31.433  29.490  1.00  0.00     0.074 A 
ATOM     47  C   UNL A   1      37.721  31.025  28.411  1.00  0.00     0.031 C 
ATOM     48  C   UNL A   1      42.510  29.049  31.475  1.00  0.00     0.029 A 
ATOM     49  C   UNL A   1      43.355  28.336  30.538  1.00  0.00     0.049 A 
ATOM     50  H   UNL A   1      42.678  26.532  29.581  1.00  0.00     0.167 HD
ATOM     51  C   UNL A   1      38.224  32.421  30.375  1.00  0.00     0.037 A 
ATOM     52  C   UNL A   1      44.435  28.822  29.865  1.00  0.00     0.037 A 
ATOM     53  C   UNL A   1      39.434  32.814  31.043  1.00  0.00     0.049 A 
ATOM     54  C   UNL A   1      44.417  30.329  29.707  1.00  0.00     0.074 A 
ATOM     55  C   UNL A   1      40.014  32.562  32.266  1.00  0.00     0.029 A 
ATOM     56  N   UNL A   1      40.426  33.328  30.230  1.00  0.00    -0.354 N 
ATOM     57  N   UNL A   1      43.538  31.125  30.253  1.00  0.00    -0.248 NA
ATOM     58  C   UNL A   1      45.346  31.049  28.831  1.00  0.00     0.031 C 
ATOM     59  C   UNL A   1      41.424  32.751  32.099  1.00  0.00     0.029 A 
ATOM     60  C   UNL A   1      41.668  33.179  30.803  1.00  0.00     0.049 A 
ATOM     61  H   UNL A   1      40.265  33.747  29.354  1.00  0.00     0.167 HD
ATOM     62  C   UNL A   1      43.687  32.380  29.729  1.00  0.00     0.074 A 
ATOM     63  C   UNL A   1      44.845  32.292  28.862  1.00  0.00     0.031 C 
ATOM     64  C   UNL A   1      42.832  33.412  29.969  1.00  0.00     0.037 A 
BRANCH  51  65
ATOM     65  C   UNL A   1      36.825  33.012  30.582  1.00  0.00     0.064 A 
ATOM     66  C   UNL A   1      36.273  33.886  29.628  1.00  0.00     0.173 A 
ATOM     67  C   UNL A   1      36.022  32.858  31.749  1.00  0.00     0.173 A 
ATOM     68  F   UNL A   1      36.940  34.178  28.503  1.00  0.00    -0.203 F 
ATOM     69  C   UNL A   1      35.030  34.519  29.810  1.00  0.00     0.198 A 
ATOM     70  C   UNL A   1      34.748  33.420  31.891  1.00  0.00     0.198 A 
ATOM     71  F   UNL A   1      36.456  32.226  32.848  1.00  0.00    -0.203 F 
ATOM     72  F   UNL A   1      34.591  35.396  28.898  1.00  0.00    -0.200 F 
ATOM     73  C   UNL A   1      34.257  34.266  30.928  1.00  0.00     0.200 A 
ATOM     74  F   UNL A   1      34.025  33.162  32.993  1.00  0.00    -0.200 F 
ATOM     75  F   UNL A   1      33.068  34.862  31.095  1.00  0.00    -0.200 F 
ENDBRANCH  51  65
BRANCH  52  76
ATOM     76  C   UNL A   1      45.037  27.822  28.928  1.00  0.00     0.064 A 
ATOM     77  C   UNL A   1      44.678  27.897  27.562  1.00  0.00     0.173 A 
ATOM     78  C   UNL A   1      46.144  27.026  29.245  1.00  0.00     0.173 A 
ATOM     79  F   UNL A   1      43.630  28.648  27.183  1.00  0.00    -0.203 F 
ATOM     80  C   UNL A   1      45.451  27.311  26.563  1.00  0.00     0.198 A 
ATOM     81  C   UNL A   1      46.898  26.406  28.241  1.00  0.00     0.198 A 
ATOM     82  F   UNL A   1      46.597  26.951  30.504  1.00  0.00    -0.203 F 
ATOM     83  F   UNL A   1      45.158  27.531  25.273  1.00  0.00    -0.200 F 
ATOM     84  C   UNL A   1      46.570  26.575  26.903  1.00  0.00     0.200 A 
ATOM     85  F   UNL A   1      48.023  25.751  28.564  1.00  0.00    -0.200 F 
ATOM     86  F   UNL A   1      47.377  26.096  25.947  1.00  0.00    -0.200 F 
ENDBRANCH  52  76
BRANCH  64  87
ATOM     87  C   UNL A   1      43.075  34.759  29.374  1.00  0.00     0.064 A 
ATOM     88  C   UNL A   1      43.433  35.835  30.196  1.00  0.00     0.173 A 
ATOM     89  C   UNL A   1      42.838  35.037  28.016  1.00  0.00     0.173 A 
ATOM     90  F   UNL A   1      43.683  35.638  31.499  1.00  0.00    -0.203 F 
ATOM     91  C   UNL A   1      43.534  37.128  29.690  1.00  0.00     0.198 A 
ATOM     92  C   UNL A   1      42.897  36.337  27.521  1.00  0.00     0.198 A 
ATOM     93  F   UNL A   1      42.545  34.054  27.150  1.00  0.00    -0.203 F 
ATOM     94  F   UNL A   1      43.901  38.131  30.499  1.00  0.00    -0.200 F 
ATOM     95  C   UNL A   1      43.244  37.382  28.359  1.00  0.00     0.200 A 
ATOM     96  F   UNL A   1      42.609  36.574  26.233  1.00  0.00    -0.200 F 
ATOM     97  F   UNL A   1      43.304  38.633  27.883  1.00  0.00    -0.200 F 
ENDBRANCH  64  87
ENDBRANCH  38  39
ENDBRANCH  31  33
ENDBRANCH  30  31
ENDBRANCH  29  30
ENDBRANCH  28  29
ENDBRANCH  27  28
ENDBRANCH  26  27
ENDBRANCH   1  26
TORSDOF 20
ENDMDL
MODEL 3
REMARK VINA RESULT:     -11.6      1.332      2.122
REMARK SMILES Cc1c(CC(=O)OCCOCCOCCOC(=O)c2ccc(-c3c4nc(c(-c5c(F)c(F)c(F)c(F)c5F)c5ccc([nH]5)c(-c5c(F)c(F)c(F)c(F)c5F)c5nc(c(-c6c(F)c(F)c(F)c(F)c6F)c6ccc3[nH]6)C=C5)C=C4)cc2)cccc1-c1ccn(C(F)F)c(=O)c1
REMARK SMILES IDX 11 1 10 2 9 3 8 4 7 5 5 6 6 7 4 8 3 9 1 10 2 11 85 12 82 13
REMARK SMILES IDX 84 14 83 15 86 16 87 17 95 18 88 19 93 20 89 21 94 22 90 23
REMARK SMILES IDX 91 24 92 25 12 26 13 27 14 28 15 29 16 30 17 31 18 32 19 33
REMARK SMILES IDX 20 34 81 35 21 36 80 37 22 38 23 39 24 40 74 41 25 42 79 43
REMARK SMILES IDX 73 44 75 45 26 46 78 47 72 48 71 49 27 51 59 52 39 53 58 54
REMARK SMILES IDX 40 55 43 56 57 57 76 58 41 59 42 60 56 62 77 63 44 64 28 65
REMARK SMILES IDX 29 66 37 67 30 68 31 69 35 70 38 71 32 72 33 73 36 74 34 75
REMARK SMILES IDX 60 76 61 77 69 78 62 79 63 80 67 81 70 82 64 83 65 84 68 85
REMARK SMILES IDX 66 86 45 87 46 88 54 89 47 90 48 91 52 92 55 93 49 94 50 95
REMARK SMILES IDX 53 96 51 97
REMARK H PARENT 75 50 43 61
REMARK Flexibility Score: inf
ROOT
ATOM      1  C   UNL A   1      38.644  22.348  26.183  1.00  0.00     0.188 C 
ENDROOT
BRANCH   1   2
ATOM      2  O   UNL A   1      37.446  22.919  25.600  1.00  0.00    -0.376 OA
BRANCH   2   3
ATOM      3  C   UNL A   1      36.173  22.256  25.498  1.00  0.00     0.202 C 
BRANCH   3   4
ATOM      4  C   UNL A   1      34.798  22.909  24.740  1.00  0.00     0.261 C 
BRANCH   4   5
ATOM      5  O   UNL A   1      33.297  22.198  24.413  1.00  0.00    -0.463 OA
BRANCH   5   6
ATOM      6  C   UNL A   1      31.924  22.257  24.811  1.00  0.00     0.310 C 
ATOM      7  O   UNL A   1      31.292  21.541  25.594  1.00  0.00    -0.252 OA
BRANCH   6   8
ATOM      8  C   UNL A   1      31.034  23.349  24.339  1.00  0.00     0.158 C 
BRANCH   8   9
ATOM      9  C   UNL A   1      31.737  24.575  23.952  1.00  0.00    -0.033 A 
ATOM     10  C   UNL A   1      31.552  25.457  26.344  1.00  0.00     0.045 C 
ATOM     11  C   UNL A   1      31.909  25.616  24.874  1.00  0.00    -0.039 A 
ATOM     12  C   UNL A   1      32.504  26.783  24.385  1.00  0.00    -0.015 A 
ATOM     13  C   UNL A   1      32.186  24.645  22.631  1.00  0.00     0.004 A 
ATOM     14  C   UNL A   1      32.910  26.879  23.042  1.00  0.00     0.009 A 
ATOM     15  C   UNL A   1      32.766  25.804  22.170  1.00  0.00     0.001 A 
BRANCH  12  16
ATOM     16  C   UNL A   1      32.717  27.903  25.297  1.00  0.00    -0.011 A 
ATOM     17  C   UNL A   1      31.763  28.983  25.402  1.00  0.00     0.027 A 
ATOM     18  C   UNL A   1      33.918  27.993  25.890  1.00  0.00     0.080 A 
ATOM     19  C   UNL A   1      32.090  30.096  26.061  1.00  0.00     0.095 A 
ATOM     20  C   UNL A   1      34.272  29.206  26.666  1.00  0.00     0.255 A 
ATOM     21  N   UNL A   1      33.320  30.215  26.679  1.00  0.00    -0.258 N 
ATOM     22  O   UNL A   1      35.371  29.247  27.211  1.00  0.00    -0.269 OA
BRANCH  21  23
ATOM     23  C   UNL A   1      33.659  31.415  27.393  1.00  0.00     0.451 C 
ATOM     24  F   UNL A   1      32.618  32.282  27.398  1.00  0.00    -0.185 F 
ATOM     25  F   UNL A   1      33.989  31.141  28.677  1.00  0.00    -0.185 F 
ENDBRANCH  21  23
ENDBRANCH  12  16
ENDBRANCH   8   9
ENDBRANCH   6   8
ENDBRANCH   5   6
ENDBRANCH   4   5
ENDBRANCH   3   4
ENDBRANCH   2   3
ENDBRANCH   1   2
BRANCH   1  26
ATOM     26  C   UNL A   1      39.248  20.992  25.788  1.00  0.00     0.188 C 
BRANCH  26  27
ATOM     27  O   UNL A   1      40.275  20.618  26.691  1.00  0.00    -0.376 OA
BRANCH  27  28
ATOM     28  C   UNL A   1      41.247  19.713  26.179  1.00  0.00     0.202 C 
BRANCH  28  29
ATOM     29  C   UNL A   1      42.665  20.324  26.084  1.00  0.00     0.261 C 
BRANCH  29  30
ATOM     30  O   UNL A   1      42.631  21.622  25.442  1.00  0.00    -0.460 OA
BRANCH  30  31
ATOM     31  C   UNL A   1      43.227  22.674  26.092  1.00  0.00     0.338 C 
ATOM     32  O   UNL A   1      44.355  22.652  26.565  1.00  0.00    -0.246 OA
BRANCH  31  33
ATOM     33  C   UNL A   1      42.217  23.755  26.358  1.00  0.00     0.060 A 
ATOM     34  C   UNL A   1      42.139  25.020  25.753  1.00  0.00     0.016 A 
ATOM     35  C   UNL A   1      41.541  23.635  27.519  1.00  0.00     0.016 A 
ATOM     36  C   UNL A   1      41.550  26.176  26.436  1.00  0.00     0.010 A 
ATOM     37  C   UNL A   1      41.276  24.817  28.202  1.00  0.00     0.010 A 
ATOM     38  C   UNL A   1      41.177  26.158  27.785  1.00  0.00    -0.014 A 
BRANCH  38  39
ATOM     39  C   UNL A   1      40.930  27.457  28.781  1.00  0.00     0.031 A 
ATOM     40  C   UNL A   1      39.900  28.822  28.808  1.00  0.00     0.074 A 
ATOM     41  C   UNL A   1      41.784  27.473  29.834  1.00  0.00     0.049 A 
ATOM     42  N   UNL A   1      40.155  29.920  29.506  1.00  0.00    -0.248 NA
ATOM     43  C   UNL A   1      38.629  29.147  28.049  1.00  0.00     0.031 C 
ATOM     44  C   UNL A   1      41.749  28.315  31.025  1.00  0.00     0.029 A 
ATOM     45  N   UNL A   1      43.011  26.798  29.946  1.00  0.00    -0.354 N 
ATOM     46  C   UNL A   1      39.083  30.811  29.387  1.00  0.00     0.074 A 
ATOM     47  C   UNL A   1      38.335  30.409  28.277  1.00  0.00     0.031 C 
ATOM     48  C   UNL A   1      42.992  28.404  31.519  1.00  0.00     0.029 A 
ATOM     49  C   UNL A   1      43.871  27.690  30.614  1.00  0.00     0.049 A 
ATOM     50  H   UNL A   1      43.225  25.892  29.625  1.00  0.00     0.167 HD
ATOM     51  C   UNL A   1      38.767  31.797  30.263  1.00  0.00     0.037 A 
ATOM     52  C   UNL A   1      44.978  28.175  29.985  1.00  0.00     0.037 A 
ATOM     53  C   UNL A   1      39.950  32.184  30.980  1.00  0.00     0.049 A 
ATOM     54  C   UNL A   1      44.973  29.682  29.832  1.00  0.00     0.074 A 
ATOM     55  C   UNL A   1      40.481  31.925  32.223  1.00  0.00     0.029 A 
ATOM     56  N   UNL A   1      40.976  32.696  30.207  1.00  0.00    -0.354 N 
ATOM     57  N   UNL A   1      44.076  30.480  30.345  1.00  0.00    -0.248 NA
ATOM     58  C   UNL A   1      45.938  30.400  28.995  1.00  0.00     0.031 C 
ATOM     59  C   UNL A   1      41.898  32.109  32.113  1.00  0.00     0.029 A 
ATOM     60  C   UNL A   1      42.194  32.540  30.829  1.00  0.00     0.049 A 
ATOM     61  H   UNL A   1      40.851  33.118  29.327  1.00  0.00     0.167 HD
ATOM     62  C   UNL A   1      44.250  31.736  29.831  1.00  0.00     0.074 A 
ATOM     63  C   UNL A   1      45.441  31.646  29.010  1.00  0.00     0.031 C 
ATOM     64  C   UNL A   1      43.391  32.770  30.041  1.00  0.00     0.037 A 
BRANCH  51  65
ATOM     65  C   UNL A   1      37.363  32.393  30.417  1.00  0.00     0.064 A 
ATOM     66  C   UNL A   1      36.876  33.320  29.478  1.00  0.00     0.173 A 
ATOM     67  C   UNL A   1      36.490  32.191  31.526  1.00  0.00     0.173 A 
ATOM     68  F   UNL A   1      37.611  33.660  28.409  1.00  0.00    -0.203 F 
ATOM     69  C   UNL A   1      35.630  33.957  29.617  1.00  0.00     0.198 A 
ATOM     70  C   UNL A   1      35.215  32.760  31.621  1.00  0.00     0.198 A 
ATOM     71  F   UNL A   1      36.854  31.500  32.615  1.00  0.00    -0.203 F 
ATOM     72  F   UNL A   1      35.252  34.884  28.726  1.00  0.00    -0.200 F 
ATOM     73  C   UNL A   1      34.789  33.658  30.674  1.00  0.00     0.200 A 
ATOM     74  F   UNL A   1      34.426  32.456  32.664  1.00  0.00    -0.200 F 
ATOM     75  F   UNL A   1      33.598  34.259  30.801  1.00  0.00    -0.200 F 
ENDBRANCH  51  65
BRANCH  52  76
ATOM     76  C   UNL A   1      45.613  27.175  29.070  1.00  0.00     0.064 A 
ATOM     77  C   UNL A   1      45.282  27.234  27.695  1.00  0.00     0.173 A 
ATOM     78  C   UNL A   1      46.722  26.395  29.417  1.00  0.00     0.173 A 
ATOM     79  F   UNL A   1      44.234  27.970  27.288  1.00  0.00    -0.203 F 
ATOM     80  C   UNL A   1      46.084  26.651  26.718  1.00  0.00     0.198 A 
ATOM     81  C   UNL A   1      47.505  25.777  28.434  1.00  0.00     0.198 A 
ATOM     82  F   UNL A   1      47.149  26.335  30.685  1.00  0.00    -0.203 F 
ATOM     83  F   UNL A   1      45.816  26.857  25.421  1.00  0.00    -0.200 F 
ATOM     84  C   UNL A   1      47.204  25.932  27.088  1.00  0.00     0.200 A 
ATOM     85  F   UNL A   1      48.631  25.138  28.786  1.00  0.00    -0.200 F 
ATOM     86  F   UNL A   1      48.037  25.455  26.153  1.00  0.00    -0.200 F 
ENDBRANCH  52  76
BRANCH  64  87
ATOM     87  C   UNL A   1      43.662  34.118  29.460  1.00  0.00     0.064 A 
ATOM     88  C   UNL A   1      43.926  35.205  30.304  1.00  0.00     0.173 A 
ATOM     89  C   UNL A   1      43.543  34.384  28.085  1.00  0.00     0.173 A 
ATOM     90  F   UNL A   1      44.062  35.021  31.625  1.00  0.00    -0.203 F 
ATOM     91  C   UNL A   1      44.049  36.497  29.799  1.00  0.00     0.198 A 
ATOM     92  C   UNL A   1      43.623  35.682  27.587  1.00  0.00     0.198 A 
ATOM     93  F   UNL A   1      43.346  33.391  27.203  1.00  0.00    -0.203 F 
ATOM     94  F   UNL A   1      44.325  37.512  30.630  1.00  0.00    -0.200 F 
ATOM     95  C   UNL A   1      43.875  36.739  28.445  1.00  0.00     0.200 A 
ATOM     96  F   UNL A   1      43.447  35.907  26.277  1.00  0.00    -0.200 F 
ATOM     97  F   UNL A   1      43.955  37.988  27.968  1.00  0.00    -0.200 F 
ENDBRANCH  64  87
ENDBRANCH  38  39
ENDBRANCH  31  33
ENDBRANCH  30  31
ENDBRANCH  29  30
ENDBRANCH  28  29
ENDBRANCH  27  28
ENDBRANCH  26  27
ENDBRANCH   1  26
TORSDOF 20
ENDMDL
