MODEL 1
REMARK VINA RESULT:     -10.8      0.000      0.000
REMARK SMILES CCOC(=O)C1=NN(c2cc(F)cc(F)c2)[C@@H](C(=O)OCCOCCOCCOC(=O)c2ccc(-c3c4nc(c(-c5c(F)c(F)c(F)c(F)c5F)c5ccc([nH]5)c(-c5c(F)c(F)c(F)c(F)c5F)c5nc(c(-c6c(F)c(F)c(F)c(F)c6F)c6ccc3[nH]6)C=C5)C=C4)cc2)C1
REMARK SMILES IDX 24 1 23 2 22 3 21 4 20 5 18 6 19 7 17 8 6 9 7 10 95 11 8 12
REMARK SMILES IDX 4 13 5 14 3 15 2 16 1 17 9 18 10 19 16 20 11 21 14 22 12 23
REMARK SMILES IDX 13 24 15 25 25 26 26 27 27 28 28 29 29 30 30 31 31 32 32 33
REMARK SMILES IDX 33 34 94 35 34 36 93 37 35 38 36 39 37 40 87 41 38 42 92 43
REMARK SMILES IDX 86 44 88 45 39 46 91 47 85 48 84 49 40 51 72 52 52 53 71 54
REMARK SMILES IDX 53 55 56 56 70 57 89 58 54 59 55 60 69 62 90 63 57 64 41 65
REMARK SMILES IDX 42 66 50 67 43 68 44 69 48 70 51 71 45 72 46 73 49 74 47 75
REMARK SMILES IDX 73 76 74 77 82 78 75 79 76 80 80 81 83 82 77 83 78 84 81 85
REMARK SMILES IDX 79 86 58 87 59 88 67 89 60 90 61 91 65 92 68 93 62 94 63 95
REMARK SMILES IDX 66 96 64 97
REMARK H PARENT 88 50 56 61
REMARK Flexibility Score: inf
ROOT
ATOM      1  C   UNL A   1      30.816  27.704  22.886  1.00  0.00     0.188 C 
ENDROOT
BRANCH   1   2
ATOM      2  O   UNL A   1      32.013  27.520  22.136  1.00  0.00    -0.376 OA
BRANCH   2   3
ATOM      3  C   UNL A   1      32.775  26.324  22.289  1.00  0.00     0.202 C 
BRANCH   3   4
ATOM      4  C   UNL A   1      32.231  24.992  21.744  1.00  0.00     0.261 C 
BRANCH   4   5
ATOM      5  O   UNL A   1      33.263  24.045  21.440  1.00  0.00    -0.462 OA
BRANCH   5   6
ATOM      6  C   UNL A   1      33.689  23.263  22.476  1.00  0.00     0.331 C 
ATOM      7  O   UNL A   1      34.858  23.119  22.802  1.00  0.00    -0.250 OA
BRANCH   6   8
ATOM      8  C   UNL A   1      32.480  22.615  23.147  1.00  0.00     0.224 C 
ATOM      9  C   UNL A   1      32.692  20.758  24.458  1.00  0.00     0.148 C 
ATOM     10  N   UNL A   1      32.605  21.719  25.326  1.00  0.00    -0.169 NA
ATOM     11  C   UNL A   1      32.536  21.110  23.016  1.00  0.00     0.105 C 
ATOM     12  N   UNL A   1      32.437  22.837  24.587  1.00  0.00    -0.250 N 
BRANCH   9  13
ATOM     13  C   UNL A   1      32.958  19.336  24.826  1.00  0.00     0.354 C 
ATOM     14  O   UNL A   1      32.154  18.617  25.386  1.00  0.00    -0.245 OA
BRANCH  13  15
ATOM     15  O   UNL A   1      34.209  19.060  24.405  1.00  0.00    -0.461 OA
BRANCH  15  16
ATOM     16  C   UNL A   1      34.546  17.673  24.356  1.00  0.00     0.230 C 
ATOM     17  C   UNL A   1      33.900  17.042  23.138  1.00  0.00     0.049 C 
ENDBRANCH  15  16
ENDBRANCH  13  15
ENDBRANCH   9  13
BRANCH  12  18
ATOM     18  C   UNL A   1      32.304  24.075  25.185  1.00  0.00     0.066 A 
ATOM     19  C   UNL A   1      33.430  24.836  25.513  1.00  0.00     0.067 A 
ATOM     20  C   UNL A   1      31.034  24.591  25.472  1.00  0.00     0.067 A 
ATOM     21  C   UNL A   1      33.277  26.093  26.085  1.00  0.00     0.128 A 
ATOM     22  C   UNL A   1      30.903  25.840  26.062  1.00  0.00     0.128 A 
ATOM     23  F   UNL A   1      34.364  26.820  26.371  1.00  0.00    -0.207 F 
ATOM     24  C   UNL A   1      32.018  26.604  26.356  1.00  0.00     0.078 A 
ATOM     25  F   UNL A   1      29.685  26.321  26.344  1.00  0.00    -0.207 F 
ENDBRANCH  12  18
ENDBRANCH   6   8
ENDBRANCH   5   6
ENDBRANCH   4   5
ENDBRANCH   3   4
ENDBRANCH   2   3
ENDBRANCH   1   2
BRANCH   1  26
ATOM     26  C   UNL A   1      30.479  29.090  23.478  1.00  0.00     0.188 C 
BRANCH  26  27
ATOM     27  O   UNL A   1      31.447  29.571  24.376  1.00  0.00    -0.376 OA
BRANCH  27  28
ATOM     28  C   UNL A   1      31.031  30.483  25.378  1.00  0.00     0.202 C 
BRANCH  28  29
ATOM     29  C   UNL A   1      31.827  30.746  26.680  1.00  0.00     0.261 C 
BRANCH  29  30
ATOM     30  O   UNL A   1      33.246  30.955  26.595  1.00  0.00    -0.460 OA
BRANCH  30  31
ATOM     31  C   UNL A   1      33.784  31.855  27.453  1.00  0.00     0.338 C 
ATOM     32  O   UNL A   1      33.243  32.847  27.908  1.00  0.00    -0.246 OA
BRANCH  31  33
ATOM     33  C   UNL A   1      35.094  31.350  27.926  1.00  0.00     0.060 A 
ATOM     34  C   UNL A   1      35.251  29.976  28.150  1.00  0.00     0.016 A 
ATOM     35  C   UNL A   1      36.144  32.229  28.194  1.00  0.00     0.016 A 
ATOM     36  C   UNL A   1      36.458  29.481  28.655  1.00  0.00     0.010 A 
ATOM     37  C   UNL A   1      37.342  31.735  28.729  1.00  0.00     0.010 A 
ATOM     38  C   UNL A   1      37.499  30.362  28.983  1.00  0.00    -0.014 A 
BRANCH  38  39
ATOM     39  C   UNL A   1      38.686  29.865  29.729  1.00  0.00     0.031 A 
ATOM     40  C   UNL A   1      38.899  30.326  31.142  1.00  0.00     0.074 A 
ATOM     41  C   UNL A   1      39.571  29.021  29.167  1.00  0.00     0.049 A 
ATOM     42  N   UNL A   1      39.880  30.052  31.964  1.00  0.00    -0.248 NA
ATOM     43  C   UNL A   1      37.890  31.243  31.692  1.00  0.00     0.031 C 
ATOM     44  C   UNL A   1      39.495  28.530  27.799  1.00  0.00     0.029 A 
ATOM     45  N   UNL A   1      40.697  28.418  29.680  1.00  0.00    -0.354 N 
ATOM     46  C   UNL A   1      39.623  30.785  33.114  1.00  0.00     0.074 A 
ATOM     47  C   UNL A   1      38.395  31.515  32.886  1.00  0.00     0.031 C 
ATOM     48  C   UNL A   1      40.496  27.657  27.595  1.00  0.00     0.029 A 
ATOM     49  C   UNL A   1      41.295  27.535  28.811  1.00  0.00     0.049 A 
ATOM     50  H   UNL A   1      41.042  28.601  30.583  1.00  0.00     0.167 HD
ATOM     51  C   UNL A   1      40.358  30.853  34.248  1.00  0.00     0.037 A 
ATOM     52  C   UNL A   1      42.354  26.716  28.979  1.00  0.00     0.037 A 
ATOM     53  C   UNL A   1      41.587  30.136  34.467  1.00  0.00     0.049 A 
ATOM     54  C   UNL A   1      43.140  26.798  30.264  1.00  0.00     0.074 A 
ATOM     55  C   UNL A   1      42.418  30.173  35.573  1.00  0.00     0.029 A 
ATOM     56  N   UNL A   1      42.162  29.253  33.565  1.00  0.00    -0.354 N 
ATOM     57  N   UNL A   1      42.898  27.503  31.341  1.00  0.00    -0.248 NA
ATOM     58  C   UNL A   1      44.378  26.005  30.339  1.00  0.00     0.031 C 
ATOM     59  C   UNL A   1      43.516  29.346  35.325  1.00  0.00     0.029 A 
ATOM     60  C   UNL A   1      43.341  28.746  34.089  1.00  0.00     0.049 A 
ATOM     61  H   UNL A   1      41.787  29.019  32.685  1.00  0.00     0.167 HD
ATOM     62  C   UNL A   1      43.947  27.246  32.213  1.00  0.00     0.074 A 
ATOM     63  C   UNL A   1      44.809  26.283  31.561  1.00  0.00     0.031 C 
ATOM     64  C   UNL A   1      44.188  27.782  33.434  1.00  0.00     0.037 A 
BRANCH  51  65
ATOM     65  C   UNL A   1      39.873  31.762  35.336  1.00  0.00     0.064 A 
ATOM     66  C   UNL A   1      38.885  31.329  36.234  1.00  0.00     0.173 A 
ATOM     67  C   UNL A   1      40.334  33.081  35.451  1.00  0.00     0.173 A 
ATOM     68  F   UNL A   1      38.410  30.076  36.165  1.00  0.00    -0.203 F 
ATOM     69  C   UNL A   1      38.361  32.191  37.193  1.00  0.00     0.198 A 
ATOM     70  C   UNL A   1      39.829  33.931  36.432  1.00  0.00     0.198 A 
ATOM     71  F   UNL A   1      41.291  33.535  34.628  1.00  0.00    -0.203 F 
ATOM     72  F   UNL A   1      37.392  31.767  38.016  1.00  0.00    -0.200 F 
ATOM     73  C   UNL A   1      38.836  33.490  37.293  1.00  0.00     0.200 A 
ATOM     74  F   UNL A   1      40.308  35.178  36.545  1.00  0.00    -0.200 F 
ATOM     75  F   UNL A   1      38.338  34.316  38.223  1.00  0.00    -0.200 F 
ENDBRANCH  51  65
BRANCH  52  76
ATOM     76  C   UNL A   1      42.736  25.730  27.926  1.00  0.00     0.064 A 
ATOM     77  C   UNL A   1      42.165  24.451  27.855  1.00  0.00     0.173 A 
ATOM     78  C   UNL A   1      43.682  26.066  26.943  1.00  0.00     0.173 A 
ATOM     79  F   UNL A   1      41.243  24.076  28.753  1.00  0.00    -0.203 F 
ATOM     80  C   UNL A   1      42.545  23.541  26.868  1.00  0.00     0.198 A 
ATOM     81  C   UNL A   1      44.030  25.172  25.933  1.00  0.00     0.198 A 
ATOM     82  F   UNL A   1      44.236  27.289  26.938  1.00  0.00    -0.203 F 
ATOM     83  F   UNL A   1      42.009  22.313  26.852  1.00  0.00    -0.200 F 
ATOM     84  C   UNL A   1      43.471  23.905  25.903  1.00  0.00     0.200 A 
ATOM     85  F   UNL A   1      44.892  25.545  24.976  1.00  0.00    -0.200 F 
ATOM     86  F   UNL A   1      43.810  23.041  24.936  1.00  0.00    -0.200 F 
ENDBRANCH  52  76
BRANCH  64  87
ATOM     87  C   UNL A   1      45.428  27.344  34.160  1.00  0.00     0.064 A 
ATOM     88  C   UNL A   1      45.386  26.260  35.050  1.00  0.00     0.173 A 
ATOM     89  C   UNL A   1      46.633  28.052  34.044  1.00  0.00     0.173 A 
ATOM     90  F   UNL A   1      44.255  25.556  35.207  1.00  0.00    -0.203 F 
ATOM     91  C   UNL A   1      46.501  25.912  35.808  1.00  0.00     0.198 A 
ATOM     92  C   UNL A   1      47.754  27.683  34.781  1.00  0.00     0.198 A 
ATOM     93  F   UNL A   1      46.728  29.090  33.199  1.00  0.00    -0.203 F 
ATOM     94  F   UNL A   1      46.427  24.898  36.681  1.00  0.00    -0.200 F 
ATOM     95  C   UNL A   1      47.685  26.621  35.670  1.00  0.00     0.200 A 
ATOM     96  F   UNL A   1      48.904  28.354  34.630  1.00  0.00    -0.200 F 
ATOM     97  F   UNL A   1      48.759  26.281  36.396  1.00  0.00    -0.200 F 
ENDBRANCH  64  87
ENDBRANCH  38  39
ENDBRANCH  31  33
ENDBRANCH  30  31
ENDBRANCH  29  30
ENDBRANCH  28  29
ENDBRANCH  27  28
ENDBRANCH  26  27
ENDBRANCH   1  26
TORSDOF 21
ENDMDL
MODEL 2
REMARK VINA RESULT:     -10.6      1.875      7.597
REMARK SMILES CCOC(=O)C1=NN(c2cc(F)cc(F)c2)[C@@H](C(=O)OCCOCCOCCOC(=O)c2ccc(-c3c4nc(c(-c5c(F)c(F)c(F)c(F)c5F)c5ccc([nH]5)c(-c5c(F)c(F)c(F)c(F)c5F)c5nc(c(-c6c(F)c(F)c(F)c(F)c6F)c6ccc3[nH]6)C=C5)C=C4)cc2)C1
REMARK SMILES IDX 24 1 23 2 22 3 21 4 20 5 18 6 19 7 17 8 6 9 7 10 95 11 8 12
REMARK SMILES IDX 4 13 5 14 3 15 2 16 1 17 9 18 10 19 16 20 11 21 14 22 12 23
REMARK SMILES IDX 13 24 15 25 25 26 26 27 27 28 28 29 29 30 30 31 31 32 32 33
REMARK SMILES IDX 33 34 94 35 34 36 93 37 35 38 36 39 37 40 87 41 38 42 92 43
REMARK SMILES IDX 86 44 88 45 39 46 91 47 85 48 84 49 40 51 72 52 52 53 71 54
REMARK SMILES IDX 53 55 56 56 70 57 89 58 54 59 55 60 69 62 90 63 57 64 41 65
REMARK SMILES IDX 42 66 50 67 43 68 44 69 48 70 51 71 45 72 46 73 49 74 47 75
REMARK SMILES IDX 73 76 74 77 82 78 75 79 76 80 80 81 83 82 77 83 78 84 81 85
REMARK SMILES IDX 79 86 58 87 59 88 67 89 60 90 61 91 65 92 68 93 62 94 63 95
REMARK SMILES IDX 66 96 64 97
REMARK H PARENT 88 50 56 61
REMARK Flexibility Score: inf
ROOT
ATOM      1  C   UNL A   1      33.603  27.052  22.839  1.00  0.00     0.188 C 
ENDROOT
BRANCH   1   2
ATOM      2  O   UNL A   1      33.088  25.762  23.152  1.00  0.00    -0.376 OA
BRANCH   2   3
ATOM      3  C   UNL A   1      32.528  24.947  22.123  1.00  0.00     0.202 C 
BRANCH   3   4
ATOM      4  C   UNL A   1      33.279  23.692  21.644  1.00  0.00     0.261 C 
BRANCH   4   5
ATOM      5  O   UNL A   1      33.500  22.736  22.688  1.00  0.00    -0.462 OA
BRANCH   5   6
ATOM      6  C   UNL A   1      34.742  22.739  23.256  1.00  0.00     0.331 C 
ATOM      7  O   UNL A   1      35.776  23.005  22.661  1.00  0.00    -0.250 OA
BRANCH   6   8
ATOM      8  C   UNL A   1      34.622  22.365  24.731  1.00  0.00     0.224 C 
ATOM      9  C   UNL A   1      32.844  23.039  25.996  1.00  0.00     0.148 C 
ATOM     10  N   UNL A   1      32.545  21.811  25.705  1.00  0.00    -0.169 NA
ATOM     11  C   UNL A   1      34.173  23.554  25.552  1.00  0.00     0.105 C 
ATOM     12  N   UNL A   1      33.597  21.361  24.986  1.00  0.00    -0.250 N 
BRANCH   9  13
ATOM     13  C   UNL A   1      31.926  23.961  26.729  1.00  0.00     0.354 C 
ATOM     14  O   UNL A   1      31.978  25.172  26.656  1.00  0.00    -0.245 OA
BRANCH  13  15
ATOM     15  O   UNL A   1      31.077  23.179  27.428  1.00  0.00    -0.461 OA
BRANCH  15  16
ATOM     16  C   UNL A   1      29.949  22.694  26.697  1.00  0.00     0.230 C 
ATOM     17  C   UNL A   1      28.754  22.601  27.624  1.00  0.00     0.049 C 
ENDBRANCH  15  16
ENDBRANCH  13  15
ENDBRANCH   9  13
BRANCH  12  18
ATOM     18  C   UNL A   1      33.629  20.069  24.500  1.00  0.00     0.066 A 
ATOM     19  C   UNL A   1      34.652  19.190  24.869  1.00  0.00     0.067 A 
ATOM     20  C   UNL A   1      32.633  19.615  23.626  1.00  0.00     0.067 A 
ATOM     21  C   UNL A   1      34.651  17.884  24.395  1.00  0.00     0.128 A 
ATOM     22  C   UNL A   1      32.661  18.312  23.149  1.00  0.00     0.128 A 
ATOM     23  F   UNL A   1      35.625  17.048  24.777  1.00  0.00    -0.207 F 
ATOM     24  C   UNL A   1      33.656  17.436  23.541  1.00  0.00     0.078 A 
ATOM     25  F   UNL A   1      31.710  17.891  22.305  1.00  0.00    -0.207 F 
ENDBRANCH  12  18
ENDBRANCH   6   8
ENDBRANCH   5   6
ENDBRANCH   4   5
ENDBRANCH   3   4
ENDBRANCH   2   3
ENDBRANCH   1   2
BRANCH   1  26
ATOM     26  C   UNL A   1      32.706  28.301  22.993  1.00  0.00     0.188 C 
BRANCH  26  27
ATOM     27  O   UNL A   1      31.738  28.180  24.005  1.00  0.00    -0.376 OA
BRANCH  27  28
ATOM     28  C   UNL A   1      32.064  28.658  25.299  1.00  0.00     0.202 C 
BRANCH  28  29
ATOM     29  C   UNL A   1      32.249  30.157  25.637  1.00  0.00     0.261 C 
BRANCH  29  30
ATOM     30  O   UNL A   1      32.406  30.543  27.012  1.00  0.00    -0.460 OA
BRANCH  30  31
ATOM     31  C   UNL A   1      33.123  31.668  27.254  1.00  0.00     0.338 C 
ATOM     32  O   UNL A   1      32.728  32.817  27.180  1.00  0.00    -0.246 OA
BRANCH  31  33
ATOM     33  C   UNL A   1      34.438  31.290  27.822  1.00  0.00     0.060 A 
ATOM     34  C   UNL A   1      34.683  29.947  28.136  1.00  0.00     0.016 A 
ATOM     35  C   UNL A   1      35.404  32.261  28.091  1.00  0.00     0.016 A 
ATOM     36  C   UNL A   1      35.892  29.574  28.730  1.00  0.00     0.010 A 
ATOM     37  C   UNL A   1      36.603  31.890  28.715  1.00  0.00     0.010 A 
ATOM     38  C   UNL A   1      36.846  30.549  29.058  1.00  0.00    -0.014 A 
BRANCH  38  39
ATOM     39  C   UNL A   1      38.023  30.186  29.892  1.00  0.00     0.031 A 
ATOM     40  C   UNL A   1      39.123  29.370  29.277  1.00  0.00     0.074 A 
ATOM     41  C   UNL A   1      38.120  30.564  31.180  1.00  0.00     0.049 A 
ATOM     42  N   UNL A   1      40.219  28.910  29.825  1.00  0.00    -0.248 NA
ATOM     43  C   UNL A   1      38.952  28.998  27.864  1.00  0.00     0.031 C 
ATOM     44  C   UNL A   1      37.108  31.324  31.899  1.00  0.00     0.029 A 
ATOM     45  N   UNL A   1      39.121  30.374  32.105  1.00  0.00    -0.354 N 
ATOM     46  C   UNL A   1      40.851  28.169  28.836  1.00  0.00     0.074 A 
ATOM     47  C   UNL A   1      40.020  28.240  27.654  1.00  0.00     0.031 C 
ATOM     48  C   UNL A   1      37.561  31.585  33.137  1.00  0.00     0.029 A 
ATOM     49  C   UNL A   1      38.887  31.001  33.307  1.00  0.00     0.049 A 
ATOM     50  H   UNL A   1      39.926  29.839  31.925  1.00  0.00     0.167 HD
ATOM     51  C   UNL A   1      42.012  27.478  28.917  1.00  0.00     0.037 A 
ATOM     52  C   UNL A   1      39.657  31.103  34.411  1.00  0.00     0.037 A 
ATOM     53  C   UNL A   1      42.831  27.396  30.099  1.00  0.00     0.049 A 
ATOM     54  C   UNL A   1      40.958  30.340  34.463  1.00  0.00     0.074 A 
ATOM     55  C   UNL A   1      44.006  26.689  30.282  1.00  0.00     0.029 A 
ATOM     56  N   UNL A   1      42.563  28.043  31.296  1.00  0.00    -0.354 N 
ATOM     57  N   UNL A   1      41.542  29.631  33.529  1.00  0.00    -0.248 NA
ATOM     58  C   UNL A   1      41.684  30.350  35.743  1.00  0.00     0.031 C 
ATOM     59  C   UNL A   1      44.428  26.873  31.601  1.00  0.00     0.029 A 
ATOM     60  C   UNL A   1      43.548  27.743  32.224  1.00  0.00     0.049 A 
ATOM     61  H   UNL A   1      41.790  28.630  31.461  1.00  0.00     0.167 HD
ATOM     62  C   UNL A   1      42.693  29.110  34.104  1.00  0.00     0.074 A 
ATOM     63  C   UNL A   1      42.753  29.620  35.458  1.00  0.00     0.031 C 
ATOM     64  C   UNL A   1      43.603  28.262  33.567  1.00  0.00     0.037 A 
BRANCH  51  65
ATOM     65  C   UNL A   1      42.455  26.721  27.702  1.00  0.00     0.064 A 
ATOM     66  C   UNL A   1      41.954  25.435  27.446  1.00  0.00     0.173 A 
ATOM     67  C   UNL A   1      43.423  27.236  26.829  1.00  0.00     0.173 A 
ATOM     68  F   UNL A   1      41.027  24.896  28.253  1.00  0.00    -0.203 F 
ATOM     69  C   UNL A   1      42.423  24.685  26.371  1.00  0.00     0.198 A 
ATOM     70  C   UNL A   1      43.866  26.494  25.737  1.00  0.00     0.198 A 
ATOM     71  F   UNL A   1      43.918  28.468  27.021  1.00  0.00    -0.203 F 
ATOM     72  F   UNL A   1      41.956  23.445  26.167  1.00  0.00    -0.200 F 
ATOM     73  C   UNL A   1      43.375  25.216  25.516  1.00  0.00     0.200 A 
ATOM     74  F   UNL A   1      44.767  27.020  24.895  1.00  0.00    -0.200 F 
ATOM     75  F   UNL A   1      43.819  24.498  24.476  1.00  0.00    -0.200 F 
ENDBRANCH  51  65
BRANCH  52  76
ATOM     76  C   UNL A   1      39.247  31.968  35.556  1.00  0.00     0.064 A 
ATOM     77  C   UNL A   1      38.402  31.508  36.576  1.00  0.00     0.173 A 
ATOM     78  C   UNL A   1      39.720  33.287  35.659  1.00  0.00     0.173 A 
ATOM     79  F   UNL A   1      37.930  30.254  36.544  1.00  0.00    -0.203 F 
ATOM     80  C   UNL A   1      38.022  32.338  37.631  1.00  0.00     0.198 A 
ATOM     81  C   UNL A   1      39.375  34.101  36.736  1.00  0.00     0.198 A 
ATOM     82  F   UNL A   1      40.562  33.770  34.732  1.00  0.00    -0.203 F 
ATOM     83  F   UNL A   1      37.182  31.880  38.569  1.00  0.00    -0.200 F 
ATOM     84  C   UNL A   1      38.516  33.630  37.715  1.00  0.00     0.200 A 
ATOM     85  F   UNL A   1      39.891  35.334  36.835  1.00  0.00    -0.200 F 
ATOM     86  F   UNL A   1      38.176  34.414  38.748  1.00  0.00    -0.200 F 
ENDBRANCH  52  76
BRANCH  64  87
ATOM     87  C   UNL A   1      44.753  27.828  34.430  1.00  0.00     0.064 A 
ATOM     88  C   UNL A   1      44.636  26.700  35.256  1.00  0.00     0.173 A 
ATOM     89  C   UNL A   1      45.935  28.579  34.507  1.00  0.00     0.173 A 
ATOM     90  F   UNL A   1      43.522  25.954  35.230  1.00  0.00    -0.203 F 
ATOM     91  C   UNL A   1      45.654  26.350  36.139  1.00  0.00     0.198 A 
ATOM     92  C   UNL A   1      46.963  28.208  35.369  1.00  0.00     0.198 A 
ATOM     93  F   UNL A   1      46.100  29.660  33.730  1.00  0.00    -0.203 F 
ATOM     94  F   UNL A   1      45.505  25.291  36.947  1.00  0.00    -0.200 F 
ATOM     95  C   UNL A   1      46.818  27.102  36.192  1.00  0.00     0.200 A 
ATOM     96  F   UNL A   1      48.097  28.922  35.402  1.00  0.00    -0.200 F 
ATOM     97  F   UNL A   1      47.801  26.759  37.037  1.00  0.00    -0.200 F 
ENDBRANCH  64  87
ENDBRANCH  38  39
ENDBRANCH  31  33
ENDBRANCH  30  31
ENDBRANCH  29  30
ENDBRANCH  28  29
ENDBRANCH  27  28
ENDBRANCH  26  27
ENDBRANCH   1  26
TORSDOF 21
ENDMDL
MODEL 3
REMARK VINA RESULT:     -10.5      3.022      5.648
REMARK SMILES CCOC(=O)C1=NN(c2cc(F)cc(F)c2)[C@@H](C(=O)OCCOCCOCCOC(=O)c2ccc(-c3c4nc(c(-c5c(F)c(F)c(F)c(F)c5F)c5ccc([nH]5)c(-c5c(F)c(F)c(F)c(F)c5F)c5nc(c(-c6c(F)c(F)c(F)c(F)c6F)c6ccc3[nH]6)C=C5)C=C4)cc2)C1
REMARK SMILES IDX 24 1 23 2 22 3 21 4 20 5 18 6 19 7 17 8 6 9 7 10 95 11 8 12
REMARK SMILES IDX 4 13 5 14 3 15 2 16 1 17 9 18 10 19 16 20 11 21 14 22 12 23
REMARK SMILES IDX 13 24 15 25 25 26 26 27 27 28 28 29 29 30 30 31 31 32 32 33
REMARK SMILES IDX 33 34 94 35 34 36 93 37 35 38 36 39 37 40 87 41 38 42 92 43
REMARK SMILES IDX 86 44 88 45 39 46 91 47 85 48 84 49 40 51 72 52 52 53 71 54
REMARK SMILES IDX 53 55 56 56 70 57 89 58 54 59 55 60 69 62 90 63 57 64 41 65
REMARK SMILES IDX 42 66 50 67 43 68 44 69 48 70 51 71 45 72 46 73 49 74 47 75
REMARK SMILES IDX 73 76 74 77 82 78 75 79 76 80 80 81 83 82 77 83 78 84 81 85
REMARK SMILES IDX 79 86 58 87 59 88 67 89 60 90 61 91 65 92 68 93 62 94 63 95
REMARK SMILES IDX 66 96 64 97
REMARK H PARENT 88 50 56 61
REMARK Flexibility Score: inf
ROOT
ATOM      1  C   UNL A   1      35.183  31.882  28.120  1.00  0.00     0.188 C 
ENDROOT
BRANCH   1   2
ATOM      2  O   UNL A   1      34.126  31.463  27.262  1.00  0.00    -0.376 OA
BRANCH   2   3
ATOM      3  C   UNL A   1      33.659  30.116  27.310  1.00  0.00     0.202 C 
BRANCH   3   4
ATOM      4  C   UNL A   1      34.408  29.016  26.536  1.00  0.00     0.261 C 
BRANCH   4   5
ATOM      5  O   UNL A   1      33.618  28.422  25.498  1.00  0.00    -0.462 OA
BRANCH   5   6
ATOM      6  C   UNL A   1      33.035  27.223  25.795  1.00  0.00     0.331 C 
ATOM      7  O   UNL A   1      33.644  26.226  26.156  1.00  0.00    -0.250 OA
BRANCH   6   8
ATOM      8  C   UNL A   1      31.524  27.337  25.608  1.00  0.00     0.224 C 
ATOM      9  C   UNL A   1      30.611  27.997  23.622  1.00  0.00     0.148 C 
ATOM     10  N   UNL A   1      30.474  26.707  23.592  1.00  0.00    -0.169 NA
ATOM     11  C   UNL A   1      31.170  28.606  24.865  1.00  0.00     0.105 C 
ATOM     12  N   UNL A   1      30.969  26.279  24.774  1.00  0.00    -0.250 N 
BRANCH   9  13
ATOM     13  C   UNL A   1      30.260  28.891  22.479  1.00  0.00     0.354 C 
ATOM     14  O   UNL A   1      31.030  29.684  21.976  1.00  0.00    -0.245 OA
BRANCH  13  15
ATOM     15  O   UNL A   1      28.980  28.615  22.156  1.00  0.00    -0.461 OA
BRANCH  15  16
ATOM     16  C   UNL A   1      28.043  29.659  22.424  1.00  0.00     0.230 C 
ATOM     17  C   UNL A   1      28.027  30.629  21.259  1.00  0.00     0.049 C 
ENDBRANCH  15  16
ENDBRANCH  13  15
ENDBRANCH   9  13
BRANCH  12  18
ATOM     18  C   UNL A   1      30.985  24.937  25.097  1.00  0.00     0.066 A 
ATOM     19  C   UNL A   1      30.285  24.461  26.210  1.00  0.00     0.067 A 
ATOM     20  C   UNL A   1      31.704  24.027  24.313  1.00  0.00     0.067 A 
ATOM     21  C   UNL A   1      30.286  23.102  26.503  1.00  0.00     0.128 A 
ATOM     22  C   UNL A   1      31.709  22.676  24.634  1.00  0.00     0.128 A 
ATOM     23  F   UNL A   1      29.592  22.659  27.558  1.00  0.00    -0.207 F 
ATOM     24  C   UNL A   1      30.989  22.204  25.716  1.00  0.00     0.078 A 
ATOM     25  F   UNL A   1      32.409  21.815  23.884  1.00  0.00    -0.207 F 
ENDBRANCH  12  18
ENDBRANCH   6   8
ENDBRANCH   5   6
ENDBRANCH   4   5
ENDBRANCH   3   4
ENDBRANCH   2   3
ENDBRANCH   1   2
BRANCH   1  26
ATOM     26  C   UNL A   1      35.545  33.380  28.227  1.00  0.00     0.188 C 
BRANCH  26  27
ATOM     27  O   UNL A   1      34.759  34.086  29.154  1.00  0.00    -0.376 OA
BRANCH  27  28
ATOM     28  C   UNL A   1      34.107  35.265  28.714  1.00  0.00     0.202 C 
BRANCH  28  29
ATOM     29  C   UNL A   1      32.962  35.953  29.495  1.00  0.00     0.261 C 
BRANCH  29  30
ATOM     30  O   UNL A   1      32.326  35.236  30.566  1.00  0.00    -0.460 OA
BRANCH  30  31
ATOM     31  C   UNL A   1      32.519  35.713  31.821  1.00  0.00     0.338 C 
ATOM     32  O   UNL A   1      31.779  36.451  32.445  1.00  0.00    -0.246 OA
BRANCH  31  33
ATOM     33  C   UNL A   1      33.696  35.039  32.418  1.00  0.00     0.060 A 
ATOM     34  C   UNL A   1      34.917  35.725  32.471  1.00  0.00     0.016 A 
ATOM     35  C   UNL A   1      33.609  33.724  32.876  1.00  0.00     0.016 A 
ATOM     36  C   UNL A   1      36.057  35.089  32.972  1.00  0.00     0.010 A 
ATOM     37  C   UNL A   1      34.760  33.078  33.350  1.00  0.00     0.010 A 
ATOM     38  C   UNL A   1      35.994  33.749  33.381  1.00  0.00    -0.014 A 
BRANCH  38  39
ATOM     39  C   UNL A   1      37.246  33.009  33.695  1.00  0.00     0.031 A 
ATOM     40  C   UNL A   1      37.889  33.210  35.036  1.00  0.00     0.074 A 
ATOM     41  C   UNL A   1      37.814  32.173  32.806  1.00  0.00     0.049 A 
ATOM     42  N   UNL A   1      38.998  32.699  35.509  1.00  0.00    -0.248 NA
ATOM     43  C   UNL A   1      37.210  34.133  35.958  1.00  0.00     0.031 C 
ATOM     44  C   UNL A   1      37.309  31.921  31.465  1.00  0.00     0.029 A 
ATOM     45  N   UNL A   1      38.930  31.374  32.903  1.00  0.00    -0.354 N 
ATOM     46  C   UNL A   1      39.166  33.261  36.766  1.00  0.00     0.074 A 
ATOM     47  C   UNL A   1      38.046  34.151  36.986  1.00  0.00     0.031 C 
ATOM     48  C   UNL A   1      38.077  30.986  30.881  1.00  0.00     0.029 A 
ATOM     49  C   UNL A   1      39.138  30.581  31.798  1.00  0.00     0.049 A 
ATOM     50  H   UNL A   1      39.523  31.369  33.687  1.00  0.00     0.167 HD
ATOM     51  C   UNL A   1      40.174  33.064  37.647  1.00  0.00     0.037 A 
ATOM     52  C   UNL A   1      40.068  29.633  31.558  1.00  0.00     0.037 A 
ATOM     53  C   UNL A   1      41.295  32.189  37.420  1.00  0.00     0.049 A 
ATOM     54  C   UNL A   1      41.167  29.418  32.569  1.00  0.00     0.074 A 
ATOM     55  C   UNL A   1      42.382  31.954  38.243  1.00  0.00     0.029 A 
ATOM     56  N   UNL A   1      41.471  31.404  36.290  1.00  0.00    -0.354 N 
ATOM     57  N   UNL A   1      41.325  29.963  33.750  1.00  0.00    -0.248 NA
ATOM     58  C   UNL A   1      42.246  28.491  32.193  1.00  0.00     0.031 C 
ATOM     59  C   UNL A   1      43.238  31.060  37.595  1.00  0.00     0.029 A 
ATOM     60  C   UNL A   1      42.656  30.691  36.394  1.00  0.00     0.049 A 
ATOM     61  H   UNL A   1      40.848  31.357  35.530  1.00  0.00     0.167 HD
ATOM     62  C   UNL A   1      42.515  29.454  34.252  1.00  0.00     0.074 A 
ATOM     63  C   UNL A   1      43.019  28.519  33.269  1.00  0.00     0.031 C 
ATOM     64  C   UNL A   1      43.146  29.756  35.413  1.00  0.00     0.037 A 
BRANCH  51  65
ATOM     65  C   UNL A   1      40.135  33.834  38.932  1.00  0.00     0.064 A 
ATOM     66  C   UNL A   1      40.870  35.022  39.069  1.00  0.00     0.173 A 
ATOM     67  C   UNL A   1      39.425  33.367  40.046  1.00  0.00     0.173 A 
ATOM     68  F   UNL A   1      41.566  35.511  38.031  1.00  0.00    -0.203 F 
ATOM     69  C   UNL A   1      40.914  35.701  40.283  1.00  0.00     0.198 A 
ATOM     70  C   UNL A   1      39.447  34.066  41.251  1.00  0.00     0.198 A 
ATOM     71  F   UNL A   1      38.692  32.247  39.959  1.00  0.00    -0.203 F 
ATOM     72  F   UNL A   1      41.652  36.813  40.401  1.00  0.00    -0.200 F 
ATOM     73  C   UNL A   1      40.199  35.224  41.372  1.00  0.00     0.200 A 
ATOM     74  F   UNL A   1      38.734  33.619  42.294  1.00  0.00    -0.200 F 
ATOM     75  F   UNL A   1      40.234  35.884  42.537  1.00  0.00    -0.200 F 
ENDBRANCH  51  65
BRANCH  52  76
ATOM     76  C   UNL A   1      40.007  28.793  30.325  1.00  0.00     0.064 A 
ATOM     77  C   UNL A   1      39.370  27.543  30.302  1.00  0.00     0.173 A 
ATOM     78  C   UNL A   1      40.578  29.246  29.124  1.00  0.00     0.173 A 
ATOM     79  F   UNL A   1      38.791  27.063  31.411  1.00  0.00    -0.203 F 
ATOM     80  C   UNL A   1      39.335  26.770  29.141  1.00  0.00     0.198 A 
ATOM     81  C   UNL A   1      40.504  28.491  27.954  1.00  0.00     0.198 A 
ATOM     82  F   UNL A   1      41.168  30.450  29.076  1.00  0.00    -0.203 F 
ATOM     83  F   UNL A   1      38.753  25.563  29.163  1.00  0.00    -0.200 F 
ATOM     84  C   UNL A   1      39.894  27.248  27.967  1.00  0.00     0.200 A 
ATOM     85  F   UNL A   1      41.007  28.979  26.811  1.00  0.00    -0.200 F 
ATOM     86  F   UNL A   1      39.829  26.518  26.845  1.00  0.00    -0.200 F 
ENDBRANCH  52  76
BRANCH  64  87
ATOM     87  C   UNL A   1      44.452  29.071  35.700  1.00  0.00     0.064 A 
ATOM     88  C   UNL A   1      44.484  27.885  36.449  1.00  0.00     0.173 A 
ATOM     89  C   UNL A   1      45.675  29.637  35.312  1.00  0.00     0.173 A 
ATOM     90  F   UNL A   1      43.342  27.310  36.854  1.00  0.00    -0.203 F 
ATOM     91  C   UNL A   1      45.693  27.300  36.812  1.00  0.00     0.198 A 
ATOM     92  C   UNL A   1      46.882  29.032  35.651  1.00  0.00     0.198 A 
ATOM     93  F   UNL A   1      45.698  30.765  34.586  1.00  0.00    -0.203 F 
ATOM     94  F   UNL A   1      45.701  26.189  37.561  1.00  0.00    -0.200 F 
ATOM     95  C   UNL A   1      46.892  27.872  36.410  1.00  0.00     0.200 A 
ATOM     96  F   UNL A   1      48.038  29.573  35.243  1.00  0.00    -0.200 F 
ATOM     97  F   UNL A   1      48.055  27.303  36.754  1.00  0.00    -0.200 F 
ENDBRANCH  64  87
ENDBRANCH  38  39
ENDBRANCH  31  33
ENDBRANCH  30  31
ENDBRANCH  29  30
ENDBRANCH  28  29
ENDBRANCH  27  28
ENDBRANCH  26  27
ENDBRANCH   1  26
TORSDOF 21
ENDMDL
