MODEL 1
REMARK VINA RESULT:     -11.4      0.000      0.000
REMARK SMILES Cc1nn(CC(=O)OCCOCCOCCOC(=O)c2ccc(-c3c4nc(c(-c5c(F)c(F)c(F)c(F)c5F)c5ccc([nH]5)c(-c5c(F)c(F)c(F)c(F)c5F)c5nc(c(-c6c(F)c(F)c(F)c(F)c6F)c6ccc3[nH]6)C=C5)C=C4)cc2)c(C)c1S(=O)(=O)N1CCC(C)(C)C1
REMARK SMILES IDX 12 1 11 2 10 3 9 4 8 5 6 6 7 7 5 8 4 9 1 10 2 11 3 12 85 13
REMARK SMILES IDX 83 14 84 15 86 16 87 17 88 18 89 19 90 20 95 21 91 22 92 23
REMARK SMILES IDX 93 24 94 25 13 26 14 27 15 28 16 29 17 30 18 31 19 32 20 33
REMARK SMILES IDX 21 34 82 35 22 36 81 37 23 38 24 39 25 40 75 41 26 42 80 43
REMARK SMILES IDX 74 44 76 45 27 46 79 47 73 48 72 49 28 51 60 52 40 53 59 54
REMARK SMILES IDX 41 55 44 56 58 57 77 58 42 59 43 60 57 62 78 63 45 64 29 65
REMARK SMILES IDX 30 66 38 67 31 68 32 69 36 70 39 71 33 72 34 73 37 74 35 75
REMARK SMILES IDX 61 76 62 77 70 78 63 79 64 80 68 81 71 82 65 83 66 84 69 85
REMARK SMILES IDX 67 86 46 87 47 88 55 89 48 90 49 91 53 92 56 93 50 94 51 95
REMARK SMILES IDX 54 96 52 97
REMARK H PARENT 76 50 44 61
REMARK Flexibility Score: inf
ROOT
ATOM      1  C   UNL A   1      33.052  30.701  27.236  1.00  0.00     0.188 C 
ENDROOT
BRANCH   1   2
ATOM      2  O   UNL A   1      32.747  29.502  26.543  1.00  0.00    -0.376 OA
BRANCH   2   3
ATOM      3  C   UNL A   1      33.589  28.379  26.814  1.00  0.00     0.202 C 
BRANCH   3   4
ATOM      4  C   UNL A   1      33.782  27.303  25.712  1.00  0.00     0.261 C 
BRANCH   4   5
ATOM      5  O   UNL A   1      32.575  26.934  24.992  1.00  0.00    -0.462 OA
BRANCH   5   6
ATOM      6  C   UNL A   1      32.664  26.735  23.656  1.00  0.00     0.327 C 
ATOM      7  O   UNL A   1      32.994  27.622  22.871  1.00  0.00    -0.250 OA
BRANCH   6   8
ATOM      8  C   UNL A   1      32.516  25.306  23.185  1.00  0.00     0.266 C 
BRANCH   8   9
ATOM      9  N   UNL A   1      33.475  24.303  23.643  1.00  0.00    -0.257 N 
ATOM     10  C   UNL A   1      36.651  22.938  23.084  1.00  0.00     0.070 C 
ATOM     11  C   UNL A   1      35.257  23.137  23.519  1.00  0.00     0.080 A 
ATOM     12  N   UNL A   1      34.570  24.097  22.890  1.00  0.00    -0.176 NA
ATOM     13  C   UNL A   1      34.450  22.505  24.483  1.00  0.00     0.126 A 
ATOM     14  C   UNL A   1      33.283  23.271  24.532  1.00  0.00     0.056 A 
ATOM     15  C   UNL A   1      32.034  23.108  25.314  1.00  0.00     0.068 C 
BRANCH  13  16
ATOM     16  S   UNL A   1      34.764  21.072  25.401  1.00  0.00     0.246 S 
ATOM     17  O   UNL A   1      36.176  20.841  25.170  1.00  0.00    -0.207 OA
ATOM     18  O   UNL A   1      34.258  21.419  26.712  1.00  0.00    -0.207 OA
BRANCH  16  19
ATOM     19  N   UNL A   1      33.933  19.724  24.889  1.00  0.00    -0.197 NA
ATOM     20  C   UNL A   1      32.566  19.772  24.381  1.00  0.00     0.103 C 
ATOM     21  C   UNL A   1      34.591  18.440  24.630  1.00  0.00     0.109 C 
ATOM     22  C   UNL A   1      32.476  18.587  23.423  1.00  0.00     0.024 C 
ATOM     23  C   UNL A   1      33.523  17.575  23.922  1.00  0.00    -0.020 C 
ATOM     24  C   UNL A   1      32.878  16.581  24.898  1.00  0.00     0.012 C 
ATOM     25  C   UNL A   1      34.139  16.798  22.751  1.00  0.00     0.012 C 
ENDBRANCH  16  19
ENDBRANCH  13  16
ENDBRANCH   8   9
ENDBRANCH   6   8
ENDBRANCH   5   6
ENDBRANCH   4   5
ENDBRANCH   3   4
ENDBRANCH   2   3
ENDBRANCH   1   2
BRANCH   1  26
ATOM     26  C   UNL A   1      34.529  30.988  27.529  1.00  0.00     0.188 C 
BRANCH  26  27
ATOM     27  O   UNL A   1      34.849  32.349  27.724  1.00  0.00    -0.376 OA
BRANCH  27  28
ATOM     28  C   UNL A   1      33.963  33.399  28.077  1.00  0.00     0.202 C 
BRANCH  28  29
ATOM     29  C   UNL A   1      34.239  34.392  29.202  1.00  0.00     0.261 C 
BRANCH  29  30
ATOM     30  O   UNL A   1      33.465  34.165  30.351  1.00  0.00    -0.460 OA
BRANCH  30  31
ATOM     31  C   UNL A   1      33.608  35.063  31.335  1.00  0.00     0.338 C 
ATOM     32  O   UNL A   1      33.107  36.184  31.410  1.00  0.00    -0.246 OA
BRANCH  31  33
ATOM     33  C   UNL A   1      34.514  34.463  32.319  1.00  0.00     0.060 A 
ATOM     34  C   UNL A   1      35.626  35.218  32.676  1.00  0.00     0.016 A 
ATOM     35  C   UNL A   1      34.433  33.074  32.524  1.00  0.00     0.016 A 
ATOM     36  C   UNL A   1      36.799  34.535  32.813  1.00  0.00     0.010 A 
ATOM     37  C   UNL A   1      35.607  32.393  32.613  1.00  0.00     0.010 A 
ATOM     38  C   UNL A   1      36.770  33.150  32.610  1.00  0.00    -0.014 A 
BRANCH  38  39
ATOM     39  C   UNL A   1      38.017  32.499  32.333  1.00  0.00     0.031 A 
ATOM     40  C   UNL A   1      38.860  32.389  33.527  1.00  0.00     0.074 A 
ATOM     41  C   UNL A   1      38.286  32.023  31.105  1.00  0.00     0.049 A 
ATOM     42  N   UNL A   1      39.960  33.015  33.767  1.00  0.00    -0.248 NA
ATOM     43  C   UNL A   1      38.300  31.666  34.678  1.00  0.00     0.031 C 
ATOM     44  C   UNL A   1      37.380  31.856  29.963  1.00  0.00     0.029 A 
ATOM     45  N   UNL A   1      39.445  31.485  30.655  1.00  0.00    -0.354 N 
ATOM     46  C   UNL A   1      40.338  32.599  35.036  1.00  0.00     0.074 A 
ATOM     47  C   UNL A   1      39.189  31.967  35.622  1.00  0.00     0.031 C 
ATOM     48  C   UNL A   1      37.967  31.050  29.048  1.00  0.00     0.029 A 
ATOM     49  C   UNL A   1      39.320  30.753  29.486  1.00  0.00     0.049 A 
ATOM     50  H   UNL A   1      40.304  31.604  31.120  1.00  0.00     0.167 HD
ATOM     51  C   UNL A   1      41.652  32.546  35.372  1.00  0.00     0.037 A 
ATOM     52  C   UNL A   1      40.249  29.885  29.015  1.00  0.00     0.037 A 
ATOM     53  C   UNL A   1      42.439  33.391  34.506  1.00  0.00     0.049 A 
ATOM     54  C   UNL A   1      41.538  30.209  29.690  1.00  0.00     0.074 A 
ATOM     55  C   UNL A   1      42.445  34.745  34.226  1.00  0.00     0.029 A 
ATOM     56  N   UNL A   1      43.140  32.796  33.484  1.00  0.00    -0.354 N 
ATOM     57  N   UNL A   1      42.216  31.304  29.476  1.00  0.00    -0.248 NA
ATOM     58  C   UNL A   1      41.825  29.540  30.954  1.00  0.00     0.031 C 
ATOM     59  C   UNL A   1      42.750  34.841  32.836  1.00  0.00     0.029 A 
ATOM     60  C   UNL A   1      42.958  33.549  32.353  1.00  0.00     0.049 A 
ATOM     61  H   UNL A   1      43.678  31.974  33.553  1.00  0.00     0.167 HD
ATOM     62  C   UNL A   1      42.691  31.682  30.726  1.00  0.00     0.074 A 
ATOM     63  C   UNL A   1      42.487  30.517  31.581  1.00  0.00     0.031 C 
ATOM     64  C   UNL A   1      42.927  32.995  31.020  1.00  0.00     0.037 A 
BRANCH  51  65
ATOM     65  C   UNL A   1      42.249  31.419  36.181  1.00  0.00     0.064 A 
ATOM     66  C   UNL A   1      43.133  31.749  37.226  1.00  0.00     0.173 A 
ATOM     67  C   UNL A   1      42.248  30.058  35.798  1.00  0.00     0.173 A 
ATOM     68  F   UNL A   1      43.216  33.009  37.679  1.00  0.00    -0.203 F 
ATOM     69  C   UNL A   1      44.027  30.818  37.757  1.00  0.00     0.198 A 
ATOM     70  C   UNL A   1      43.103  29.120  36.368  1.00  0.00     0.198 A 
ATOM     71  F   UNL A   1      41.508  29.584  34.790  1.00  0.00    -0.203 F 
ATOM     72  F   UNL A   1      44.947  31.216  38.643  1.00  0.00    -0.200 F 
ATOM     73  C   UNL A   1      44.020  29.508  37.317  1.00  0.00     0.200 A 
ATOM     74  F   UNL A   1      43.085  27.856  35.919  1.00  0.00    -0.200 F 
ATOM     75  F   UNL A   1      44.926  28.631  37.769  1.00  0.00    -0.200 F 
ENDBRANCH  51  65
BRANCH  52  76
ATOM     76  C   UNL A   1      40.010  28.594  28.328  1.00  0.00     0.064 A 
ATOM     77  C   UNL A   1      40.598  28.322  27.082  1.00  0.00     0.173 A 
ATOM     78  C   UNL A   1      39.422  27.500  28.994  1.00  0.00     0.173 A 
ATOM     79  F   UNL A   1      41.221  29.297  26.406  1.00  0.00    -0.203 F 
ATOM     80  C   UNL A   1      40.614  27.030  26.546  1.00  0.00     0.198 A 
ATOM     81  C   UNL A   1      39.429  26.214  28.453  1.00  0.00     0.198 A 
ATOM     82  F   UNL A   1      38.911  27.633  30.226  1.00  0.00    -0.203 F 
ATOM     83  F   UNL A   1      41.239  26.798  25.383  1.00  0.00    -0.200 F 
ATOM     84  C   UNL A   1      40.038  25.976  27.235  1.00  0.00     0.200 A 
ATOM     85  F   UNL A   1      38.900  25.197  29.148  1.00  0.00    -0.200 F 
ATOM     86  F   UNL A   1      40.104  24.729  26.748  1.00  0.00    -0.200 F 
ENDBRANCH  52  76
BRANCH  64  87
ATOM     87  C   UNL A   1      42.916  33.976  29.882  1.00  0.00     0.064 A 
ATOM     88  C   UNL A   1      44.020  34.215  29.044  1.00  0.00     0.173 A 
ATOM     89  C   UNL A   1      41.700  34.579  29.536  1.00  0.00     0.173 A 
ATOM     90  F   UNL A   1      45.187  33.592  29.249  1.00  0.00    -0.203 F 
ATOM     91  C   UNL A   1      43.918  35.058  27.940  1.00  0.00     0.198 A 
ATOM     92  C   UNL A   1      41.592  35.391  28.410  1.00  0.00     0.198 A 
ATOM     93  F   UNL A   1      40.599  34.340  30.265  1.00  0.00    -0.203 F 
ATOM     94  F   UNL A   1      44.988  35.280  27.160  1.00  0.00    -0.200 F 
ATOM     95  C   UNL A   1      42.702  35.639  27.618  1.00  0.00     0.200 A 
ATOM     96  F   UNL A   1      40.402  35.908  28.074  1.00  0.00    -0.200 F 
ATOM     97  F   UNL A   1      42.592  36.413  26.529  1.00  0.00    -0.200 F 
ENDBRANCH  64  87
ENDBRANCH  38  39
ENDBRANCH  31  33
ENDBRANCH  30  31
ENDBRANCH  29  30
ENDBRANCH  28  29
ENDBRANCH  27  28
ENDBRANCH  26  27
ENDBRANCH   1  26
TORSDOF 20
ENDMDL
MODEL 2
REMARK VINA RESULT:     -11.4      3.640      9.247
REMARK SMILES Cc1nn(CC(=O)OCCOCCOCCOC(=O)c2ccc(-c3c4nc(c(-c5c(F)c(F)c(F)c(F)c5F)c5ccc([nH]5)c(-c5c(F)c(F)c(F)c(F)c5F)c5nc(c(-c6c(F)c(F)c(F)c(F)c6F)c6ccc3[nH]6)C=C5)C=C4)cc2)c(C)c1S(=O)(=O)N1CCC(C)(C)C1
REMARK SMILES IDX 12 1 11 2 10 3 9 4 8 5 6 6 7 7 5 8 4 9 1 10 2 11 3 12 85 13
REMARK SMILES IDX 83 14 84 15 86 16 87 17 88 18 89 19 90 20 95 21 91 22 92 23
REMARK SMILES IDX 93 24 94 25 13 26 14 27 15 28 16 29 17 30 18 31 19 32 20 33
REMARK SMILES IDX 21 34 82 35 22 36 81 37 23 38 24 39 25 40 75 41 26 42 80 43
REMARK SMILES IDX 74 44 76 45 27 46 79 47 73 48 72 49 28 51 60 52 40 53 59 54
REMARK SMILES IDX 41 55 44 56 58 57 77 58 42 59 43 60 57 62 78 63 45 64 29 65
REMARK SMILES IDX 30 66 38 67 31 68 32 69 36 70 39 71 33 72 34 73 37 74 35 75
REMARK SMILES IDX 61 76 62 77 70 78 63 79 64 80 68 81 71 82 65 83 66 84 69 85
REMARK SMILES IDX 67 86 46 87 47 88 55 89 48 90 49 91 53 92 56 93 50 94 51 95
REMARK SMILES IDX 54 96 52 97
REMARK H PARENT 76 50 44 61
REMARK Flexibility Score: inf
ROOT
ATOM      1  C   UNL A   1      43.047  18.630  26.123  1.00  0.00     0.188 C 
ENDROOT
BRANCH   1   2
ATOM      2  O   UNL A   1      41.880  19.425  26.005  1.00  0.00    -0.376 OA
BRANCH   2   3
ATOM      3  C   UNL A   1      41.336  19.943  27.221  1.00  0.00     0.202 C 
BRANCH   3   4
ATOM      4  C   UNL A   1      40.838  21.412  27.256  1.00  0.00     0.261 C 
BRANCH   4   5
ATOM      5  O   UNL A   1      40.190  21.873  26.040  1.00  0.00    -0.462 OA
BRANCH   5   6
ATOM      6  C   UNL A   1      38.943  22.390  26.137  1.00  0.00     0.327 C 
ATOM      7  O   UNL A   1      38.726  23.541  26.510  1.00  0.00    -0.250 OA
BRANCH   6   8
ATOM      8  C   UNL A   1      37.824  21.535  25.586  1.00  0.00     0.266 C 
BRANCH   8   9
ATOM      9  N   UNL A   1      36.492  22.116  25.438  1.00  0.00    -0.257 N 
ATOM     10  C   UNL A   1      33.357  22.469  26.959  1.00  0.00     0.070 C 
ATOM     11  C   UNL A   1      34.448  22.420  25.969  1.00  0.00     0.080 A 
ATOM     12  N   UNL A   1      35.556  21.768  26.339  1.00  0.00    -0.176 NA
ATOM     13  C   UNL A   1      34.583  22.916  24.659  1.00  0.00     0.126 A 
ATOM     14  C   UNL A   1      35.920  22.688  24.325  1.00  0.00     0.056 A 
ATOM     15  C   UNL A   1      36.677  22.945  23.077  1.00  0.00     0.068 C 
BRANCH  13  16
ATOM     16  S   UNL A   1      33.385  23.621  23.630  1.00  0.00     0.246 S 
ATOM     17  O   UNL A   1      34.018  23.594  22.327  1.00  0.00    -0.207 OA
ATOM     18  O   UNL A   1      32.211  22.823  23.918  1.00  0.00    -0.207 OA
BRANCH  16  19
ATOM     19  N   UNL A   1      33.008  25.203  23.985  1.00  0.00    -0.197 NA
ATOM     20  C   UNL A   1      31.660  25.750  23.871  1.00  0.00     0.103 C 
ATOM     21  C   UNL A   1      33.921  26.089  24.713  1.00  0.00     0.109 C 
ATOM     22  C   UNL A   1      31.620  26.876  24.900  1.00  0.00     0.024 C 
ATOM     23  C   UNL A   1      33.079  27.338  25.061  1.00  0.00    -0.020 C 
ATOM     24  C   UNL A   1      33.379  28.496  24.098  1.00  0.00     0.012 C 
ATOM     25  C   UNL A   1      33.355  27.798  26.498  1.00  0.00     0.012 C 
ENDBRANCH  16  19
ENDBRANCH  13  16
ENDBRANCH   8   9
ENDBRANCH   6   8
ENDBRANCH   5   6
ENDBRANCH   4   5
ENDBRANCH   3   4
ENDBRANCH   2   3
ENDBRANCH   1   2
BRANCH   1  26
ATOM     26  C   UNL A   1      44.119  18.785  25.038  1.00  0.00     0.188 C 
BRANCH  26  27
ATOM     27  O   UNL A   1      44.108  20.020  24.356  1.00  0.00    -0.376 OA
BRANCH  27  28
ATOM     28  C   UNL A   1      44.517  21.283  24.856  1.00  0.00     0.202 C 
BRANCH  28  29
ATOM     29  C   UNL A   1      44.061  22.612  24.260  1.00  0.00     0.261 C 
BRANCH  29  30
ATOM     30  O   UNL A   1      43.063  23.251  25.013  1.00  0.00    -0.460 OA
BRANCH  30  31
ATOM     31  C   UNL A   1      43.284  24.542  25.293  1.00  0.00     0.338 C 
ATOM     32  O   UNL A   1      44.199  25.255  24.885  1.00  0.00    -0.246 OA
BRANCH  31  33
ATOM     33  C   UNL A   1      42.225  24.955  26.220  1.00  0.00     0.060 A 
ATOM     34  C   UNL A   1      41.254  25.808  25.707  1.00  0.00     0.016 A 
ATOM     35  C   UNL A   1      42.463  24.806  27.598  1.00  0.00     0.016 A 
ATOM     36  C   UNL A   1      40.847  26.820  26.527  1.00  0.00     0.010 A 
ATOM     37  C   UNL A   1      42.098  25.838  28.404  1.00  0.00     0.010 A 
ATOM     38  C   UNL A   1      41.419  26.889  27.802  1.00  0.00    -0.014 A 
BRANCH  38  39
ATOM     39  C   UNL A   1      41.335  28.142  28.495  1.00  0.00     0.031 A 
ATOM     40  C   UNL A   1      42.484  29.006  28.213  1.00  0.00     0.074 A 
ATOM     41  C   UNL A   1      40.267  28.437  29.256  1.00  0.00     0.049 A 
ATOM     42  N   UNL A   1      43.429  29.339  29.022  1.00  0.00    -0.248 NA
ATOM     43  C   UNL A   1      42.724  29.364  26.807  1.00  0.00     0.031 C 
ATOM     44  C   UNL A   1      38.980  27.737  29.347  1.00  0.00     0.029 A 
ATOM     45  N   UNL A   1      40.084  29.516  30.053  1.00  0.00    -0.354 N 
ATOM     46  C   UNL A   1      44.287  30.127  28.266  1.00  0.00     0.074 A 
ATOM     47  C   UNL A   1      43.931  29.919  26.890  1.00  0.00     0.031 C 
ATOM     48  C   UNL A   1      38.084  28.541  29.967  1.00  0.00     0.029 A 
ATOM     49  C   UNL A   1      38.766  29.743  30.416  1.00  0.00     0.049 A 
ATOM     50  H   UNL A   1      40.824  30.093  30.348  1.00  0.00     0.167 HD
ATOM     51  C   UNL A   1      45.013  31.108  28.860  1.00  0.00     0.037 A 
ATOM     52  C   UNL A   1      38.297  30.902  30.940  1.00  0.00     0.037 A 
ATOM     53  C   UNL A   1      45.138  30.868  30.278  1.00  0.00     0.049 A 
ATOM     54  C   UNL A   1      39.472  31.658  31.460  1.00  0.00     0.074 A 
ATOM     55  C   UNL A   1      45.678  29.847  31.039  1.00  0.00     0.029 A 
ATOM     56  N   UNL A   1      44.323  31.576  31.129  1.00  0.00    -0.354 N 
ATOM     57  N   UNL A   1      40.176  31.286  32.494  1.00  0.00    -0.248 NA
ATOM     58  C   UNL A   1      40.151  32.565  30.542  1.00  0.00     0.031 C 
ATOM     59  C   UNL A   1      44.818  29.725  32.170  1.00  0.00     0.029 A 
ATOM     60  C   UNL A   1      43.829  30.703  32.063  1.00  0.00     0.049 A 
ATOM     61  H   UNL A   1      44.129  32.540  31.076  1.00  0.00     0.167 HD
ATOM     62  C   UNL A   1      41.493  31.564  32.150  1.00  0.00     0.074 A 
ATOM     63  C   UNL A   1      41.407  32.423  30.973  1.00  0.00     0.031 C 
ATOM     64  C   UNL A   1      42.524  30.834  32.668  1.00  0.00     0.037 A 
BRANCH  51  65
ATOM     65  C   UNL A   1      45.222  32.468  28.237  1.00  0.00     0.064 A 
ATOM     66  C   UNL A   1      44.088  33.262  27.985  1.00  0.00     0.173 A 
ATOM     67  C   UNL A   1      46.412  32.893  27.602  1.00  0.00     0.173 A 
ATOM     68  F   UNL A   1      42.904  32.959  28.538  1.00  0.00    -0.203 F 
ATOM     69  C   UNL A   1      44.118  34.321  27.076  1.00  0.00     0.198 A 
ATOM     70  C   UNL A   1      46.450  33.984  26.739  1.00  0.00     0.198 A 
ATOM     71  F   UNL A   1      47.567  32.225  27.693  1.00  0.00    -0.203 F 
ATOM     72  F   UNL A   1      42.981  34.952  26.759  1.00  0.00    -0.200 F 
ATOM     73  C   UNL A   1      45.296  34.672  26.444  1.00  0.00     0.200 A 
ATOM     74  F   UNL A   1      47.602  34.300  26.130  1.00  0.00    -0.200 F 
ATOM     75  F   UNL A   1      45.312  35.638  25.516  1.00  0.00    -0.200 F 
ENDBRANCH  51  65
BRANCH  52  76
ATOM     76  C   UNL A   1      36.986  31.541  30.682  1.00  0.00     0.064 A 
ATOM     77  C   UNL A   1      36.062  31.733  31.722  1.00  0.00     0.173 A 
ATOM     78  C   UNL A   1      36.717  32.218  29.475  1.00  0.00     0.173 A 
ATOM     79  F   UNL A   1      36.269  31.166  32.919  1.00  0.00    -0.203 F 
ATOM     80  C   UNL A   1      34.949  32.567  31.569  1.00  0.00     0.198 A 
ATOM     81  C   UNL A   1      35.601  33.040  29.320  1.00  0.00     0.198 A 
ATOM     82  F   UNL A   1      37.580  32.171  28.450  1.00  0.00    -0.203 F 
ATOM     83  F   UNL A   1      34.123  32.775  32.604  1.00  0.00    -0.200 F 
ATOM     84  C   UNL A   1      34.724  33.226  30.372  1.00  0.00     0.200 A 
ATOM     85  F   UNL A   1      35.417  33.700  28.169  1.00  0.00    -0.200 F 
ATOM     86  F   UNL A   1      33.690  34.070  30.244  1.00  0.00    -0.200 F 
ENDBRANCH  52  76
BRANCH  64  87
ATOM     87  C   UNL A   1      42.216  29.910  33.813  1.00  0.00     0.064 A 
ATOM     88  C   UNL A   1      41.758  28.591  33.653  1.00  0.00     0.173 A 
ATOM     89  C   UNL A   1      42.543  30.327  35.110  1.00  0.00     0.173 A 
ATOM     90  F   UNL A   1      41.525  28.087  32.434  1.00  0.00    -0.203 F 
ATOM     91  C   UNL A   1      41.591  27.747  34.748  1.00  0.00     0.198 A 
ATOM     92  C   UNL A   1      42.411  29.469  36.198  1.00  0.00     0.198 A 
ATOM     93  F   UNL A   1      43.040  31.556  35.316  1.00  0.00    -0.203 F 
ATOM     94  F   UNL A   1      41.142  26.494  34.572  1.00  0.00    -0.200 F 
ATOM     95  C   UNL A   1      41.926  28.183  36.020  1.00  0.00     0.200 A 
ATOM     96  F   UNL A   1      42.785  29.879  37.418  1.00  0.00    -0.200 F 
ATOM     97  F   UNL A   1      41.809  27.357  37.069  1.00  0.00    -0.200 F 
ENDBRANCH  64  87
ENDBRANCH  38  39
ENDBRANCH  31  33
ENDBRANCH  30  31
ENDBRANCH  29  30
ENDBRANCH  28  29
ENDBRANCH  27  28
ENDBRANCH  26  27
ENDBRANCH   1  26
TORSDOF 20
ENDMDL
MODEL 3
REMARK VINA RESULT:     -11.4      4.556     10.291
REMARK SMILES Cc1nn(CC(=O)OCCOCCOCCOC(=O)c2ccc(-c3c4nc(c(-c5c(F)c(F)c(F)c(F)c5F)c5ccc([nH]5)c(-c5c(F)c(F)c(F)c(F)c5F)c5nc(c(-c6c(F)c(F)c(F)c(F)c6F)c6ccc3[nH]6)C=C5)C=C4)cc2)c(C)c1S(=O)(=O)N1CCC(C)(C)C1
REMARK SMILES IDX 12 1 11 2 10 3 9 4 8 5 6 6 7 7 5 8 4 9 1 10 2 11 3 12 85 13
REMARK SMILES IDX 83 14 84 15 86 16 87 17 88 18 89 19 90 20 95 21 91 22 92 23
REMARK SMILES IDX 93 24 94 25 13 26 14 27 15 28 16 29 17 30 18 31 19 32 20 33
REMARK SMILES IDX 21 34 82 35 22 36 81 37 23 38 24 39 25 40 75 41 26 42 80 43
REMARK SMILES IDX 74 44 76 45 27 46 79 47 73 48 72 49 28 51 60 52 40 53 59 54
REMARK SMILES IDX 41 55 44 56 58 57 77 58 42 59 43 60 57 62 78 63 45 64 29 65
REMARK SMILES IDX 30 66 38 67 31 68 32 69 36 70 39 71 33 72 34 73 37 74 35 75
REMARK SMILES IDX 61 76 62 77 70 78 63 79 64 80 68 81 71 82 65 83 66 84 69 85
REMARK SMILES IDX 67 86 46 87 47 88 55 89 48 90 49 91 53 92 56 93 50 94 51 95
REMARK SMILES IDX 54 96 52 97
REMARK H PARENT 76 50 44 61
REMARK Flexibility Score: inf
ROOT
ATOM      1  C   UNL A   1      40.260  21.230  26.831  1.00  0.00     0.188 C 
ENDROOT
BRANCH   1   2
ATOM      2  O   UNL A   1      39.592  22.322  26.222  1.00  0.00    -0.376 OA
BRANCH   2   3
ATOM      3  C   UNL A   1      38.266  22.074  25.751  1.00  0.00     0.202 C 
BRANCH   3   4
ATOM      4  C   UNL A   1      37.352  23.281  25.409  1.00  0.00     0.261 C 
BRANCH   4   5
ATOM      5  O   UNL A   1      36.017  22.935  24.954  1.00  0.00    -0.462 OA
BRANCH   5   6
ATOM      6  C   UNL A   1      35.737  23.067  23.636  1.00  0.00     0.327 C 
ATOM      7  O   UNL A   1      36.604  23.038  22.765  1.00  0.00    -0.250 OA
BRANCH   6   8
ATOM      8  C   UNL A   1      34.272  23.071  23.264  1.00  0.00     0.266 C 
BRANCH   8   9
ATOM      9  N   UNL A   1      33.303  23.646  24.195  1.00  0.00    -0.257 N 
ATOM     10  C   UNL A   1      30.843  22.890  26.570  1.00  0.00     0.070 C 
ATOM     11  C   UNL A   1      31.670  23.583  25.565  1.00  0.00     0.080 A 
ATOM     12  N   UNL A   1      32.436  22.808  24.791  1.00  0.00    -0.176 NA
ATOM     13  C   UNL A   1      31.828  24.937  25.217  1.00  0.00     0.126 A 
ATOM     14  C   UNL A   1      32.886  24.952  24.305  1.00  0.00     0.056 A 
ATOM     15  C   UNL A   1      33.508  26.060  23.542  1.00  0.00     0.068 C 
BRANCH  13  16
ATOM     16  S   UNL A   1      30.915  26.312  25.737  1.00  0.00     0.246 S 
ATOM     17  O   UNL A   1      29.747  25.713  26.352  1.00  0.00    -0.207 OA
ATOM     18  O   UNL A   1      31.882  27.058  26.515  1.00  0.00    -0.207 OA
BRANCH  16  19
ATOM     19  N   UNL A   1      30.395  27.305  24.508  1.00  0.00    -0.197 NA
ATOM     20  C   UNL A   1      29.294  26.963  23.614  1.00  0.00     0.103 C 
ATOM     21  C   UNL A   1      30.795  28.712  24.404  1.00  0.00     0.109 C 
ATOM     22  C   UNL A   1      28.719  28.311  23.187  1.00  0.00     0.024 C 
ATOM     23  C   UNL A   1      29.882  29.311  23.309  1.00  0.00    -0.020 C 
ATOM     24  C   UNL A   1      30.625  29.428  21.970  1.00  0.00     0.012 C 
ATOM     25  C   UNL A   1      29.374  30.698  23.722  1.00  0.00     0.012 C 
ENDBRANCH  16  19
ENDBRANCH  13  16
ENDBRANCH   8   9
ENDBRANCH   6   8
ENDBRANCH   5   6
ENDBRANCH   4   5
ENDBRANCH   3   4
ENDBRANCH   2   3
ENDBRANCH   1   2
BRANCH   1  26
ATOM     26  C   UNL A   1      41.686  20.926  26.359  1.00  0.00     0.188 C 
BRANCH  26  27
ATOM     27  O   UNL A   1      41.916  19.591  25.961  1.00  0.00    -0.376 OA
BRANCH  27  28
ATOM     28  C   UNL A   1      43.158  18.908  25.917  1.00  0.00     0.202 C 
BRANCH  28  29
ATOM     29  C   UNL A   1      44.155  19.046  24.770  1.00  0.00     0.261 C 
BRANCH  29  30
ATOM     30  O   UNL A   1      44.296  20.364  24.306  1.00  0.00    -0.460 OA
BRANCH  30  31
ATOM     31  C   UNL A   1      45.370  21.027  24.756  1.00  0.00     0.338 C 
ATOM     32  O   UNL A   1      46.344  20.566  25.348  1.00  0.00    -0.246 OA
BRANCH  31  33
ATOM     33  C   UNL A   1      45.156  22.440  24.429  1.00  0.00     0.060 A 
ATOM     34  C   UNL A   1      46.245  23.286  24.606  1.00  0.00     0.016 A 
ATOM     35  C   UNL A   1      43.830  22.902  24.354  1.00  0.00     0.016 A 
ATOM     36  C   UNL A   1      45.975  24.509  25.149  1.00  0.00     0.010 A 
ATOM     37  C   UNL A   1      43.559  24.100  24.938  1.00  0.00     0.010 A 
ATOM     38  C   UNL A   1      44.641  24.804  25.448  1.00  0.00    -0.014 A 
BRANCH  38  39
ATOM     39  C   UNL A   1      44.394  25.866  26.381  1.00  0.00     0.031 A 
ATOM     40  C   UNL A   1      45.384  26.941  26.266  1.00  0.00     0.074 A 
ATOM     41  C   UNL A   1      43.327  25.831  27.196  1.00  0.00     0.049 A 
ATOM     42  N   UNL A   1      46.301  27.253  27.116  1.00  0.00    -0.248 NA
ATOM     43  C   UNL A   1      45.506  27.602  24.959  1.00  0.00     0.031 C 
ATOM     44  C   UNL A   1      42.168  24.932  27.158  1.00  0.00     0.029 A 
ATOM     45  N   UNL A   1      43.014  26.689  28.196  1.00  0.00    -0.354 N 
ATOM     46  C   UNL A   1      46.994  28.300  26.526  1.00  0.00     0.074 A 
ATOM     47  C   UNL A   1      46.617  28.314  25.140  1.00  0.00     0.031 C 
ATOM     48  C   UNL A   1      41.186  25.444  27.937  1.00  0.00     0.029 A 
ATOM     49  C   UNL A   1      41.694  26.627  28.612  1.00  0.00     0.049 A 
ATOM     50  H   UNL A   1      43.669  27.306  28.594  1.00  0.00     0.167 HD
ATOM     51  C   UNL A   1      47.585  29.247  27.298  1.00  0.00     0.037 A 
ATOM     52  C   UNL A   1      41.075  27.570  29.364  1.00  0.00     0.037 A 
ATOM     53  C   UNL A   1      47.806  28.755  28.636  1.00  0.00     0.049 A 
ATOM     54  C   UNL A   1      42.141  28.385  30.013  1.00  0.00     0.074 A 
ATOM     55  C   UNL A   1      48.528  27.704  29.170  1.00  0.00     0.029 A 
ATOM     56  N   UNL A   1      46.928  29.143  29.621  1.00  0.00    -0.354 N 
ATOM     57  N   UNL A   1      42.937  27.933  30.944  1.00  0.00    -0.248 NA
ATOM     58  C   UNL A   1      42.633  29.552  29.290  1.00  0.00     0.031 C 
ATOM     59  C   UNL A   1      47.745  27.225  30.262  1.00  0.00     0.029 A 
ATOM     60  C   UNL A   1      46.615  28.035  30.366  1.00  0.00     0.049 A 
ATOM     61  H   UNL A   1      46.586  30.055  29.765  1.00  0.00     0.167 HD
ATOM     62  C   UNL A   1      44.180  28.480  30.649  1.00  0.00     0.074 A 
ATOM     63  C   UNL A   1      43.913  29.530  29.670  1.00  0.00     0.031 C 
ATOM     64  C   UNL A   1      45.331  27.835  30.998  1.00  0.00     0.037 A 
BRANCH  51  65
ATOM     65  C   UNL A   1      47.557  30.719  26.959  1.00  0.00     0.064 A 
ATOM     66  C   UNL A   1      48.748  31.455  27.101  1.00  0.00     0.173 A 
ATOM     67  C   UNL A   1      46.382  31.493  26.810  1.00  0.00     0.173 A 
ATOM     68  F   UNL A   1      49.925  30.828  27.244  1.00  0.00    -0.203 F 
ATOM     69  C   UNL A   1      48.747  32.847  27.207  1.00  0.00     0.198 A 
ATOM     70  C   UNL A   1      46.392  32.884  26.861  1.00  0.00     0.198 A 
ATOM     71  F   UNL A   1      45.161  30.956  26.715  1.00  0.00    -0.203 F 
ATOM     72  F   UNL A   1      49.886  33.489  27.488  1.00  0.00    -0.200 F 
ATOM     73  C   UNL A   1      47.567  33.558  27.100  1.00  0.00     0.200 A 
ATOM     74  F   UNL A   1      45.234  33.553  26.764  1.00  0.00    -0.200 F 
ATOM     75  F   UNL A   1      47.551  34.886  27.276  1.00  0.00    -0.200 F 
ENDBRANCH  51  65
BRANCH  52  76
ATOM     76  C   UNL A   1      39.671  28.031  29.254  1.00  0.00     0.064 A 
ATOM     77  C   UNL A   1      38.846  28.101  30.388  1.00  0.00     0.173 A 
ATOM     78  C   UNL A   1      39.189  28.664  28.091  1.00  0.00     0.173 A 
ATOM     79  F   UNL A   1      39.252  27.567  31.549  1.00  0.00    -0.203 F 
ATOM     80  C   UNL A   1      37.624  28.781  30.364  1.00  0.00     0.198 A 
ATOM     81  C   UNL A   1      37.965  29.333  28.065  1.00  0.00     0.198 A 
ATOM     82  F   UNL A   1      39.937  28.730  26.980  1.00  0.00    -0.203 F 
ATOM     83  F   UNL A   1      36.893  28.880  31.483  1.00  0.00    -0.200 F 
ATOM     84  C   UNL A   1      37.189  29.403  29.206  1.00  0.00     0.200 A 
ATOM     85  F   UNL A   1      37.574  29.961  26.948  1.00  0.00    -0.200 F 
ATOM     86  F   UNL A   1      36.045  30.103  29.199  1.00  0.00    -0.200 F 
ENDBRANCH  52  76
BRANCH  64  87
ATOM     87  C   UNL A   1      45.218  26.667  31.937  1.00  0.00     0.064 A 
ATOM     88  C   UNL A   1      45.249  26.783  33.338  1.00  0.00     0.173 A 
ATOM     89  C   UNL A   1      44.914  25.409  31.400  1.00  0.00     0.173 A 
ATOM     90  F   UNL A   1      45.429  27.972  33.926  1.00  0.00    -0.203 F 
ATOM     91  C   UNL A   1      45.033  25.678  34.158  1.00  0.00     0.198 A 
ATOM     92  C   UNL A   1      44.661  24.315  32.223  1.00  0.00     0.198 A 
ATOM     93  F   UNL A   1      44.813  25.253  30.071  1.00  0.00    -0.203 F 
ATOM     94  F   UNL A   1      45.078  25.811  35.493  1.00  0.00    -0.200 F 
ATOM     95  C   UNL A   1      44.730  24.446  33.600  1.00  0.00     0.200 A 
ATOM     96  F   UNL A   1      44.318  23.139  31.679  1.00  0.00    -0.200 F 
ATOM     97  F   UNL A   1      44.476  23.393  34.389  1.00  0.00    -0.200 F 
ENDBRANCH  64  87
ENDBRANCH  38  39
ENDBRANCH  31  33
ENDBRANCH  30  31
ENDBRANCH  29  30
ENDBRANCH  28  29
ENDBRANCH  27  28
ENDBRANCH  26  27
ENDBRANCH   1  26
TORSDOF 20
ENDMDL
