MODEL 1
REMARK VINA RESULT:     -10.8      0.000      0.000
REMARK SMILES C[C@H](NC(=O)N1CC[C@H](C(=O)OCCOCCOCCOC(=O)c2ccc(-c3c4nc(c(-c5c(F)c(F)c(F)c(F)c5F)c5ccc([nH]5)c(-c5c(F)c(F)c(F)c(F)c5F)c5nc(c(-c6c(F)c(F)c(F)c(F)c6F)c6ccc3[nH]6)C=C5)C=C4)cc2)[C@@H]1C)[C@@H]1CCCO1
REMARK SMILES IDX 16 1 15 2 14 3 13 4 12 5 10 6 11 7 9 8 6 9 7 10 87 11 8 12
REMARK SMILES IDX 88 13 4 14 3 15 5 17 2 18 1 19 89 20 90 21 93 22 91 23 92 24
REMARK SMILES IDX 17 25 18 26 19 27 20 28 21 29 22 30 23 31 24 32 25 33 86 34
REMARK SMILES IDX 26 35 85 36 27 37 28 38 29 39 79 40 30 41 84 42 78 43 80 44
REMARK SMILES IDX 31 45 83 46 77 47 76 48 32 50 64 51 44 52 63 53 45 54 48 55
REMARK SMILES IDX 62 56 81 57 46 58 47 59 61 61 82 62 49 63 33 64 34 65 42 66
REMARK SMILES IDX 35 67 36 68 40 69 43 70 37 71 38 72 41 73 39 74 65 75 66 76
REMARK SMILES IDX 74 77 67 78 68 79 72 80 75 81 69 82 70 83 73 84 71 85 50 86
REMARK SMILES IDX 51 87 59 88 52 89 53 90 57 91 60 92 54 93 55 94 58 95 56 96
REMARK H PARENT 3 16 80 49 48 60
REMARK Flexibility Score: inf
ROOT
ATOM      1  C   UNL A   1      39.905  21.304  26.254  1.00  0.00     0.188 C 
ENDROOT
BRANCH   1   2
ATOM      2  O   UNL A   1      39.571  22.664  26.499  1.00  0.00    -0.376 OA
BRANCH   2   3
ATOM      3  C   UNL A   1      38.286  23.096  26.060  1.00  0.00     0.202 C 
BRANCH   3   4
ATOM      4  C   UNL A   1      37.262  22.002  25.733  1.00  0.00     0.261 C 
BRANCH   4   5
ATOM      5  O   UNL A   1      36.237  22.401  24.808  1.00  0.00    -0.463 OA
BRANCH   5   6
ATOM      6  C   UNL A   1      35.096  21.662  24.844  1.00  0.00     0.311 C 
ATOM      7  O   UNL A   1      35.044  20.439  24.909  1.00  0.00    -0.252 OA
BRANCH   6   8
ATOM      8  C   UNL A   1      33.849  22.503  24.755  1.00  0.00     0.123 C 
ATOM      9  N   UNL A   1      31.977  22.973  26.082  1.00  0.00    -0.321 N 
ATOM     10  C   UNL A   1      31.608  21.790  25.346  1.00  0.00     0.122 C 
ATOM     11  C   UNL A   1      33.429  23.126  26.098  1.00  0.00     0.098 C 
ATOM     12  C   UNL A   1      32.583  21.830  24.186  1.00  0.00     0.039 C 
ATOM     13  C   UNL A   1      34.015  22.454  27.345  1.00  0.00     0.032 C 
BRANCH   9  14
ATOM     14  C   UNL A   1      31.060  23.659  26.797  1.00  0.00     0.317 C 
ATOM     15  N   UNL A   1      31.028  25.006  26.727  1.00  0.00    -0.333 N 
ATOM     16  H   UNL A   1      30.675  25.437  27.538  1.00  0.00     0.165 HD
ATOM     17  O   UNL A   1      30.196  23.095  27.469  1.00  0.00    -0.249 OA
BRANCH  15  18
ATOM     18  C   UNL A   1      31.421  25.963  25.668  1.00  0.00     0.109 C 
ATOM     19  C   UNL A   1      30.252  26.559  24.869  1.00  0.00     0.034 C 
BRANCH  18  20
ATOM     20  C   UNL A   1      32.188  27.160  26.289  1.00  0.00     0.140 C 
ATOM     21  C   UNL A   1      31.444  27.987  27.328  1.00  0.00     0.036 C 
ATOM     22  O   UNL A   1      32.600  28.074  25.248  1.00  0.00    -0.376 OA
ATOM     23  C   UNL A   1      32.108  29.334  27.167  1.00  0.00     0.031 C 
ATOM     24  C   UNL A   1      32.298  29.408  25.669  1.00  0.00     0.160 C 
ENDBRANCH  18  20
ENDBRANCH  15  18
ENDBRANCH   9  14
ENDBRANCH   6   8
ENDBRANCH   5   6
ENDBRANCH   4   5
ENDBRANCH   3   4
ENDBRANCH   2   3
ENDBRANCH   1   2
BRANCH   1  25
ATOM     25  C   UNL A   1      41.393  20.961  26.188  1.00  0.00     0.188 C 
BRANCH  25  26
ATOM     26  O   UNL A   1      41.752  19.830  25.402  1.00  0.00    -0.376 OA
BRANCH  26  27
ATOM     27  C   UNL A   1      42.325  18.739  26.142  1.00  0.00     0.202 C 
BRANCH  27  28
ATOM     28  C   UNL A   1      43.760  18.322  25.747  1.00  0.00     0.261 C 
BRANCH  28  29
ATOM     29  O   UNL A   1      44.099  18.558  24.359  1.00  0.00    -0.460 OA
BRANCH  29  30
ATOM     30  C   UNL A   1      45.211  19.287  24.106  1.00  0.00     0.338 C 
ATOM     31  O   UNL A   1      46.109  18.989  23.337  1.00  0.00    -0.246 OA
BRANCH  30  32
ATOM     32  C   UNL A   1      45.039  20.645  24.699  1.00  0.00     0.060 A 
ATOM     33  C   UNL A   1      44.564  21.671  23.867  1.00  0.00     0.016 A 
ATOM     34  C   UNL A   1      45.253  20.905  26.057  1.00  0.00     0.016 A 
ATOM     35  C   UNL A   1      44.362  22.960  24.371  1.00  0.00     0.010 A 
ATOM     36  C   UNL A   1      45.061  22.199  26.560  1.00  0.00     0.010 A 
ATOM     37  C   UNL A   1      44.655  23.244  25.711  1.00  0.00    -0.014 A 
BRANCH  37  38
ATOM     38  C   UNL A   1      44.780  24.660  26.153  1.00  0.00     0.031 A 
ATOM     39  C   UNL A   1      46.131  25.318  26.032  1.00  0.00     0.074 A 
ATOM     40  C   UNL A   1      43.738  25.377  26.612  1.00  0.00     0.049 A 
ATOM     41  N   UNL A   1      46.506  26.530  26.356  1.00  0.00    -0.248 NA
ATOM     42  C   UNL A   1      47.204  24.490  25.460  1.00  0.00     0.031 C 
ATOM     43  C   UNL A   1      42.365  24.898  26.739  1.00  0.00     0.029 A 
ATOM     44  N   UNL A   1      43.684  26.678  27.059  1.00  0.00    -0.354 N 
ATOM     45  C   UNL A   1      47.853  26.608  26.027  1.00  0.00     0.074 A 
ATOM     46  C   UNL A   1      48.240  25.312  25.515  1.00  0.00     0.031 C 
ATOM     47  C   UNL A   1      41.603  25.891  27.234  1.00  0.00     0.029 A 
ATOM     48  C   UNL A   1      42.438  27.066  27.485  1.00  0.00     0.049 A 
ATOM     49  H   UNL A   1      44.467  27.275  27.072  1.00  0.00     0.167 HD
ATOM     50  C   UNL A   1      48.694  27.664  26.124  1.00  0.00     0.037 A 
ATOM     51  C   UNL A   1      42.026  28.231  28.028  1.00  0.00     0.037 A 
ATOM     52  C   UNL A   1      48.329  28.955  26.642  1.00  0.00     0.049 A 
ATOM     53  C   UNL A   1      43.007  29.362  28.225  1.00  0.00     0.074 A 
ATOM     54  C   UNL A   1      49.120  30.083  26.780  1.00  0.00     0.029 A 
ATOM     55  N   UNL A   1      47.070  29.289  27.115  1.00  0.00    -0.354 N 
ATOM     56  N   UNL A   1      44.272  29.434  27.893  1.00  0.00    -0.248 NA
ATOM     57  C   UNL A   1      42.495  30.579  28.877  1.00  0.00     0.031 C 
ATOM     58  C   UNL A   1      48.352  31.084  27.385  1.00  0.00     0.029 A 
ATOM     59  C   UNL A   1      47.069  30.598  27.570  1.00  0.00     0.049 A 
ATOM     60  H   UNL A   1      46.292  28.685  27.126  1.00  0.00     0.167 HD
ATOM     61  C   UNL A   1      44.695  30.708  28.258  1.00  0.00     0.074 A 
ATOM     62  C   UNL A   1      43.549  31.380  28.832  1.00  0.00     0.031 C 
ATOM     63  C   UNL A   1      45.922  31.269  28.126  1.00  0.00     0.037 A 
BRANCH  50  64
ATOM     64  C   UNL A   1      50.111  27.449  25.683  1.00  0.00     0.064 A 
ATOM     65  C   UNL A   1      51.125  27.130  26.599  1.00  0.00     0.173 A 
ATOM     66  C   UNL A   1      50.457  27.557  24.329  1.00  0.00     0.173 A 
ATOM     67  F   UNL A   1      50.848  27.035  27.908  1.00  0.00    -0.203 F 
ATOM     68  C   UNL A   1      52.441  26.958  26.176  1.00  0.00     0.198 A 
ATOM     69  C   UNL A   1      51.767  27.354  23.907  1.00  0.00     0.198 A 
ATOM     70  F   UNL A   1      49.523  27.859  23.413  1.00  0.00    -0.203 F 
ATOM     71  F   UNL A   1      53.404  26.710  27.075  1.00  0.00    -0.200 F 
ATOM     72  C   UNL A   1      52.760  27.064  24.831  1.00  0.00     0.200 A 
ATOM     73  F   UNL A   1      52.072  27.447  22.605  1.00  0.00    -0.200 F 
ATOM     74  F   UNL A   1      54.026  26.898  24.426  1.00  0.00    -0.200 F 
ENDBRANCH  50  64
BRANCH  51  75
ATOM     75  C   UNL A   1      40.606  28.403  28.440  1.00  0.00     0.064 A 
ATOM     76  C   UNL A   1      39.668  28.983  27.573  1.00  0.00     0.173 A 
ATOM     77  C   UNL A   1      40.171  28.043  29.723  1.00  0.00     0.173 A 
ATOM     78  F   UNL A   1      40.043  29.380  26.349  1.00  0.00    -0.203 F 
ATOM     79  C   UNL A   1      38.354  29.210  27.981  1.00  0.00     0.198 A 
ATOM     80  C   UNL A   1      38.851  28.245  30.120  1.00  0.00     0.198 A 
ATOM     81  F   UNL A   1      41.033  27.498  30.596  1.00  0.00    -0.203 F 
ATOM     82  F   UNL A   1      37.493  29.815  27.153  1.00  0.00    -0.200 F 
ATOM     83  C   UNL A   1      37.946  28.836  29.253  1.00  0.00     0.200 A 
ATOM     84  F   UNL A   1      38.460  27.880  31.349  1.00  0.00    -0.200 F 
ATOM     85  F   UNL A   1      36.685  29.060  29.646  1.00  0.00    -0.200 F 
ENDBRANCH  51  75
BRANCH  63  86
ATOM     86  C   UNL A   1      46.090  32.699  28.561  1.00  0.00     0.064 A 
ATOM     87  C   UNL A   1      46.523  33.035  29.851  1.00  0.00     0.173 A 
ATOM     88  C   UNL A   1      45.858  33.746  27.655  1.00  0.00     0.173 A 
ATOM     89  F   UNL A   1      46.748  32.074  30.760  1.00  0.00    -0.203 F 
ATOM     90  C   UNL A   1      46.695  34.367  30.227  1.00  0.00     0.198 A 
ATOM     91  C   UNL A   1      46.060  35.075  28.023  1.00  0.00     0.198 A 
ATOM     92  F   UNL A   1      45.451  33.482  26.404  1.00  0.00    -0.203 F 
ATOM     93  F   UNL A   1      47.065  34.665  31.479  1.00  0.00    -0.200 F 
ATOM     94  C   UNL A   1      46.470  35.384  29.310  1.00  0.00     0.200 A 
ATOM     95  F   UNL A   1      45.856  36.054  27.132  1.00  0.00    -0.200 F 
ATOM     96  F   UNL A   1      46.643  36.663  29.671  1.00  0.00    -0.200 F 
ENDBRANCH  63  86
ENDBRANCH  37  38
ENDBRANCH  30  32
ENDBRANCH  29  30
ENDBRANCH  28  29
ENDBRANCH  27  28
ENDBRANCH  26  27
ENDBRANCH  25  26
ENDBRANCH   1  25
TORSDOF 20
ENDMDL
MODEL 2
REMARK VINA RESULT:     -10.4      0.712      2.099
REMARK SMILES C[C@H](NC(=O)N1CC[C@H](C(=O)OCCOCCOCCOC(=O)c2ccc(-c3c4nc(c(-c5c(F)c(F)c(F)c(F)c5F)c5ccc([nH]5)c(-c5c(F)c(F)c(F)c(F)c5F)c5nc(c(-c6c(F)c(F)c(F)c(F)c6F)c6ccc3[nH]6)C=C5)C=C4)cc2)[C@@H]1C)[C@@H]1CCCO1
REMARK SMILES IDX 16 1 15 2 14 3 13 4 12 5 10 6 11 7 9 8 6 9 7 10 87 11 8 12
REMARK SMILES IDX 88 13 4 14 3 15 5 17 2 18 1 19 89 20 90 21 93 22 91 23 92 24
REMARK SMILES IDX 17 25 18 26 19 27 20 28 21 29 22 30 23 31 24 32 25 33 86 34
REMARK SMILES IDX 26 35 85 36 27 37 28 38 29 39 79 40 30 41 84 42 78 43 80 44
REMARK SMILES IDX 31 45 83 46 77 47 76 48 32 50 64 51 44 52 63 53 45 54 48 55
REMARK SMILES IDX 62 56 81 57 46 58 47 59 61 61 82 62 49 63 33 64 34 65 42 66
REMARK SMILES IDX 35 67 36 68 40 69 43 70 37 71 38 72 41 73 39 74 65 75 66 76
REMARK SMILES IDX 74 77 67 78 68 79 72 80 75 81 69 82 70 83 73 84 71 85 50 86
REMARK SMILES IDX 51 87 59 88 52 89 53 90 57 91 60 92 54 93 55 94 58 95 56 96
REMARK H PARENT 3 16 80 49 48 60
REMARK Flexibility Score: inf
ROOT
ATOM      1  C   UNL A   1      40.233  21.964  27.017  1.00  0.00     0.188 C 
ENDROOT
BRANCH   1   2
ATOM      2  O   UNL A   1      39.575  22.054  25.759  1.00  0.00    -0.376 OA
BRANCH   2   3
ATOM      3  C   UNL A   1      38.378  21.297  25.608  1.00  0.00     0.202 C 
BRANCH   3   4
ATOM      4  C   UNL A   1      37.055  22.066  25.710  1.00  0.00     0.261 C 
BRANCH   4   5
ATOM      5  O   UNL A   1      36.203  21.944  24.558  1.00  0.00    -0.463 OA
BRANCH   5   6
ATOM      6  C   UNL A   1      35.029  21.291  24.766  1.00  0.00     0.311 C 
ATOM      7  O   UNL A   1      34.917  20.105  25.057  1.00  0.00    -0.252 OA
BRANCH   6   8
ATOM      8  C   UNL A   1      33.823  22.173  24.564  1.00  0.00     0.123 C 
ATOM      9  N   UNL A   1      31.969  22.885  25.805  1.00  0.00    -0.321 N 
ATOM     10  C   UNL A   1      31.548  21.641  25.210  1.00  0.00     0.122 C 
ATOM     11  C   UNL A   1      33.426  22.971  25.818  1.00  0.00     0.098 C 
ATOM     12  C   UNL A   1      32.530  21.497  24.065  1.00  0.00     0.039 C 
ATOM     13  C   UNL A   1      33.973  22.426  27.143  1.00  0.00     0.032 C 
BRANCH   9  14
ATOM     14  C   UNL A   1      31.082  23.694  26.423  1.00  0.00     0.317 C 
ATOM     15  N   UNL A   1      30.883  24.945  25.960  1.00  0.00    -0.333 N 
ATOM     16  H   UNL A   1      30.593  25.582  26.652  1.00  0.00     0.165 HD
ATOM     17  O   UNL A   1      30.388  23.308  27.364  1.00  0.00    -0.249 OA
BRANCH  15  18
ATOM     18  C   UNL A   1      31.015  25.548  24.615  1.00  0.00     0.109 C 
ATOM     19  C   UNL A   1      30.370  24.740  23.478  1.00  0.00     0.034 C 
BRANCH  18  20
ATOM     20  C   UNL A   1      30.351  26.950  24.591  1.00  0.00     0.140 C 
ATOM     21  C   UNL A   1      29.828  27.439  23.247  1.00  0.00     0.036 C 
ATOM     22  O   UNL A   1      31.287  27.946  25.060  1.00  0.00    -0.376 OA
ATOM     23  C   UNL A   1      29.939  28.937  23.412  1.00  0.00     0.031 C 
ATOM     24  C   UNL A   1      31.238  29.068  24.173  1.00  0.00     0.160 C 
ENDBRANCH  18  20
ENDBRANCH  15  18
ENDBRANCH   9  14
ENDBRANCH   6   8
ENDBRANCH   5   6
ENDBRANCH   4   5
ENDBRANCH   3   4
ENDBRANCH   2   3
ENDBRANCH   1   2
BRANCH   1  25
ATOM     25  C   UNL A   1      41.282  20.864  27.169  1.00  0.00     0.188 C 
BRANCH  25  26
ATOM     26  O   UNL A   1      41.885  20.387  25.971  1.00  0.00    -0.376 OA
BRANCH  26  27
ATOM     27  C   UNL A   1      42.083  18.965  25.921  1.00  0.00     0.202 C 
BRANCH  27  28
ATOM     28  C   UNL A   1      43.504  18.483  25.549  1.00  0.00     0.261 C 
BRANCH  28  29
ATOM     29  O   UNL A   1      43.955  18.886  24.234  1.00  0.00    -0.460 OA
BRANCH  29  30
ATOM     30  C   UNL A   1      45.143  19.529  24.154  1.00  0.00     0.338 C 
ATOM     31  O   UNL A   1      46.111  19.179  23.500  1.00  0.00    -0.246 OA
BRANCH  30  32
ATOM     32  C   UNL A   1      44.999  20.881  24.768  1.00  0.00     0.060 A 
ATOM     33  C   UNL A   1      44.525  21.924  23.958  1.00  0.00     0.016 A 
ATOM     34  C   UNL A   1      45.239  21.120  26.126  1.00  0.00     0.016 A 
ATOM     35  C   UNL A   1      44.349  23.209  24.482  1.00  0.00     0.010 A 
ATOM     36  C   UNL A   1      45.071  22.409  26.649  1.00  0.00     0.010 A 
ATOM     37  C   UNL A   1      44.667  23.471  25.821  1.00  0.00    -0.014 A 
BRANCH  37  38
ATOM     38  C   UNL A   1      44.817  24.879  26.280  1.00  0.00     0.031 A 
ATOM     39  C   UNL A   1      46.181  25.513  26.169  1.00  0.00     0.074 A 
ATOM     40  C   UNL A   1      43.788  25.610  26.745  1.00  0.00     0.049 A 
ATOM     41  N   UNL A   1      46.579  26.713  26.509  1.00  0.00    -0.248 NA
ATOM     42  C   UNL A   1      47.240  24.670  25.591  1.00  0.00     0.031 C 
ATOM     43  C   UNL A   1      42.406  25.157  26.863  1.00  0.00     0.029 A 
ATOM     44  N   UNL A   1      43.759  26.907  27.207  1.00  0.00    -0.354 N 
ATOM     45  C   UNL A   1      47.927  26.769  26.183  1.00  0.00     0.074 A 
ATOM     46  C   UNL A   1      48.291  25.471  25.657  1.00  0.00     0.031 C 
ATOM     47  C   UNL A   1      41.662  26.158  27.368  1.00  0.00     0.029 A 
ATOM     48  C   UNL A   1      42.519  27.314  27.635  1.00  0.00     0.049 A 
ATOM     49  H   UNL A   1      44.553  27.488  27.229  1.00  0.00     0.167 HD
ATOM     50  C   UNL A   1      48.789  27.807  26.295  1.00  0.00     0.037 A 
ATOM     51  C   UNL A   1      42.128  28.480  28.190  1.00  0.00     0.037 A 
ATOM     52  C   UNL A   1      48.447  29.099  26.827  1.00  0.00     0.049 A 
ATOM     53  C   UNL A   1      43.130  29.590  28.403  1.00  0.00     0.074 A 
ATOM     54  C   UNL A   1      49.259  30.210  26.981  1.00  0.00     0.029 A 
ATOM     55  N   UNL A   1      47.194  29.451  27.301  1.00  0.00    -0.354 N 
ATOM     56  N   UNL A   1      44.397  29.641  28.075  1.00  0.00    -0.248 NA
ATOM     57  C   UNL A   1      42.640  30.809  29.069  1.00  0.00     0.031 C 
ATOM     58  C   UNL A   1      48.510  31.219  27.595  1.00  0.00     0.029 A 
ATOM     59  C   UNL A   1      47.216  30.755  27.772  1.00  0.00     0.049 A 
ATOM     60  H   UNL A   1      46.404  28.863  27.303  1.00  0.00     0.167 HD
ATOM     61  C   UNL A   1      44.844  30.903  28.456  1.00  0.00     0.074 A 
ATOM     62  C   UNL A   1      43.710  31.589  29.036  1.00  0.00     0.031 C 
ATOM     63  C   UNL A   1      46.082  31.441  28.333  1.00  0.00     0.037 A 
BRANCH  50  64
ATOM     64  C   UNL A   1      50.202  27.570  25.855  1.00  0.00     0.064 A 
ATOM     65  C   UNL A   1      50.591  27.730  24.516  1.00  0.00     0.173 A 
ATOM     66  C   UNL A   1      51.180  27.185  26.782  1.00  0.00     0.173 A 
ATOM     67  F   UNL A   1      49.688  28.077  23.586  1.00  0.00    -0.203 F 
ATOM     68  C   UNL A   1      51.902  27.481  24.118  1.00  0.00     0.198 A 
ATOM     69  C   UNL A   1      52.496  26.967  26.387  1.00  0.00     0.198 A 
ATOM     70  F   UNL A   1      50.859  27.020  28.075  1.00  0.00    -0.203 F 
ATOM     71  F   UNL A   1      52.239  27.584  22.825  1.00  0.00    -0.200 F 
ATOM     72  C   UNL A   1      52.855  27.106  25.054  1.00  0.00     0.200 A 
ATOM     73  F   UNL A   1      53.418  26.615  27.293  1.00  0.00    -0.200 F 
ATOM     74  F   UNL A   1      54.116  26.868  24.670  1.00  0.00    -0.200 F 
ENDBRANCH  50  64
BRANCH  51  75
ATOM     75  C   UNL A   1      40.711  28.675  28.601  1.00  0.00     0.064 A 
ATOM     76  C   UNL A   1      40.281  28.341  29.894  1.00  0.00     0.173 A 
ATOM     77  C   UNL A   1      39.749  29.147  27.697  1.00  0.00     0.173 A 
ATOM     78  F   UNL A   1      41.155  27.848  30.784  1.00  0.00    -0.203 F 
ATOM     79  C   UNL A   1      38.941  28.455  30.260  1.00  0.00     0.198 A 
ATOM     80  C   UNL A   1      38.414  29.288  28.074  1.00  0.00     0.198 A 
ATOM     81  F   UNL A   1      40.104  29.467  26.444  1.00  0.00    -0.203 F 
ATOM     82  F   UNL A   1      38.549  28.077  31.484  1.00  0.00    -0.200 F 
ATOM     83  C   UNL A   1      38.010  28.934  29.351  1.00  0.00     0.200 A 
ATOM     84  F   UNL A   1      37.517  29.753  27.192  1.00  0.00    -0.200 F 
ATOM     85  F   UNL A   1      36.721  29.039  29.702  1.00  0.00    -0.200 F 
ENDBRANCH  51  75
BRANCH  63  86
ATOM     86  C   UNL A   1      46.276  32.862  28.785  1.00  0.00     0.064 A 
ATOM     87  C   UNL A   1      46.051  33.950  27.930  1.00  0.00     0.173 A 
ATOM     88  C   UNL A   1      46.647  33.138  30.111  1.00  0.00     0.173 A 
ATOM     89  F   UNL A   1      45.706  33.743  26.650  1.00  0.00    -0.203 F 
ATOM     90  C   UNL A   1      46.214  35.260  28.377  1.00  0.00     0.198 A 
ATOM     91  C   UNL A   1      46.779  34.449  30.564  1.00  0.00     0.198 A 
ATOM     92  F   UNL A   1      46.865  32.136  30.976  1.00  0.00    -0.203 F 
ATOM     93  F   UNL A   1      46.038  36.283  27.528  1.00  0.00    -0.200 F 
ATOM     94  C   UNL A   1      46.570  35.508  29.695  1.00  0.00     0.200 A 
ATOM     95  F   UNL A   1      47.109  34.686  31.840  1.00  0.00    -0.200 F 
ATOM     96  F   UNL A   1      46.719  36.769  30.124  1.00  0.00    -0.200 F 
ENDBRANCH  63  86
ENDBRANCH  37  38
ENDBRANCH  30  32
ENDBRANCH  29  30
ENDBRANCH  28  29
ENDBRANCH  27  28
ENDBRANCH  26  27
ENDBRANCH  25  26
ENDBRANCH   1  25
TORSDOF 20
ENDMDL
MODEL 3
REMARK VINA RESULT:     -10.3      2.451      8.017
REMARK SMILES C[C@H](NC(=O)N1CC[C@H](C(=O)OCCOCCOCCOC(=O)c2ccc(-c3c4nc(c(-c5c(F)c(F)c(F)c(F)c5F)c5ccc([nH]5)c(-c5c(F)c(F)c(F)c(F)c5F)c5nc(c(-c6c(F)c(F)c(F)c(F)c6F)c6ccc3[nH]6)C=C5)C=C4)cc2)[C@@H]1C)[C@@H]1CCCO1
REMARK SMILES IDX 16 1 15 2 14 3 13 4 12 5 10 6 11 7 9 8 6 9 7 10 87 11 8 12
REMARK SMILES IDX 88 13 4 14 3 15 5 17 2 18 1 19 89 20 90 21 93 22 91 23 92 24
REMARK SMILES IDX 17 25 18 26 19 27 20 28 21 29 22 30 23 31 24 32 25 33 86 34
REMARK SMILES IDX 26 35 85 36 27 37 28 38 29 39 79 40 30 41 84 42 78 43 80 44
REMARK SMILES IDX 31 45 83 46 77 47 76 48 32 50 64 51 44 52 63 53 45 54 48 55
REMARK SMILES IDX 62 56 81 57 46 58 47 59 61 61 82 62 49 63 33 64 34 65 42 66
REMARK SMILES IDX 35 67 36 68 40 69 43 70 37 71 38 72 41 73 39 74 65 75 66 76
REMARK SMILES IDX 74 77 67 78 68 79 72 80 75 81 69 82 70 83 73 84 71 85 50 86
REMARK SMILES IDX 51 87 59 88 52 89 53 90 57 91 60 92 54 93 55 94 58 95 56 96
REMARK H PARENT 3 16 80 49 48 60
REMARK Flexibility Score: inf
ROOT
ATOM      1  C   UNL A   1      34.428  21.904  26.275  1.00  0.00     0.188 C 
ENDROOT
BRANCH   1   2
ATOM      2  O   UNL A   1      33.249  22.461  25.708  1.00  0.00    -0.376 OA
BRANCH   2   3
ATOM      3  C   UNL A   1      32.692  21.776  24.590  1.00  0.00     0.202 C 
BRANCH   3   4
ATOM      4  C   UNL A   1      32.607  22.557  23.272  1.00  0.00     0.261 C 
BRANCH   4   5
ATOM      5  O   UNL A   1      33.098  23.906  23.345  1.00  0.00    -0.463 OA
BRANCH   5   6
ATOM      6  C   UNL A   1      32.787  24.699  22.285  1.00  0.00     0.311 C 
ATOM      7  O   UNL A   1      33.333  24.665  21.188  1.00  0.00    -0.252 OA
BRANCH   6   8
ATOM      8  C   UNL A   1      31.696  25.692  22.595  1.00  0.00     0.123 C 
ATOM      9  N   UNL A   1      31.432  27.632  23.879  1.00  0.00    -0.321 N 
ATOM     10  C   UNL A   1      31.141  26.554  24.791  1.00  0.00     0.122 C 
ATOM     11  C   UNL A   1      32.202  27.138  22.742  1.00  0.00     0.098 C 
ATOM     12  C   UNL A   1      30.826  25.419  23.839  1.00  0.00     0.039 C 
ATOM     13  C   UNL A   1      33.702  27.283  23.020  1.00  0.00     0.032 C 
BRANCH   9  14
ATOM     14  C   UNL A   1      31.174  28.915  24.216  1.00  0.00     0.317 C 
ATOM     15  N   UNL A   1      30.291  29.631  23.490  1.00  0.00    -0.333 N 
ATOM     16  H   UNL A   1      30.465  30.600  23.498  1.00  0.00     0.165 HD
ATOM     17  O   UNL A   1      31.668  29.443  25.212  1.00  0.00    -0.249 OA
BRANCH  15  18
ATOM     18  C   UNL A   1      29.112  29.246  22.682  1.00  0.00     0.109 C 
ATOM     19  C   UNL A   1      28.195  28.201  23.335  1.00  0.00     0.034 C 
BRANCH  18  20
ATOM     20  C   UNL A   1      28.230  30.491  22.398  1.00  0.00     0.140 C 
ATOM     21  C   UNL A   1      28.245  31.032  20.975  1.00  0.00     0.036 C 
ATOM     22  O   UNL A   1      28.624  31.581  23.261  1.00  0.00    -0.376 OA
ATOM     23  C   UNL A   1      27.938  32.493  21.209  1.00  0.00     0.031 C 
ATOM     24  C   UNL A   1      28.715  32.773  22.475  1.00  0.00     0.160 C 
ENDBRANCH  18  20
ENDBRANCH  15  18
ENDBRANCH   9  14
ENDBRANCH   6   8
ENDBRANCH   5   6
ENDBRANCH   4   5
ENDBRANCH   3   4
ENDBRANCH   2   3
ENDBRANCH   1   2
BRANCH   1  25
ATOM     25  C   UNL A   1      35.282  21.024  25.364  1.00  0.00     0.188 C 
BRANCH  25  26
ATOM     26  O   UNL A   1      36.655  20.887  25.715  1.00  0.00    -0.376 OA
BRANCH  26  27
ATOM     27  C   UNL A   1      37.480  20.289  24.700  1.00  0.00     0.202 C 
BRANCH  27  28
ATOM     28  C   UNL A   1      38.730  19.527  25.195  1.00  0.00     0.261 C 
BRANCH  28  29
ATOM     29  O   UNL A   1      39.563  20.265  26.119  1.00  0.00    -0.460 OA
BRANCH  29  30
ATOM     30  C   UNL A   1      40.874  19.934  26.176  1.00  0.00     0.338 C 
ATOM     31  O   UNL A   1      41.371  18.887  25.797  1.00  0.00    -0.246 OA
BRANCH  30  32
ATOM     32  C   UNL A   1      41.663  21.155  26.514  1.00  0.00     0.060 A 
ATOM     33  C   UNL A   1      41.931  21.410  27.868  1.00  0.00     0.016 A 
ATOM     34  C   UNL A   1      42.206  21.995  25.535  1.00  0.00     0.016 A 
ATOM     35  C   UNL A   1      42.683  22.527  28.247  1.00  0.00     0.010 A 
ATOM     36  C   UNL A   1      42.952  23.119  25.915  1.00  0.00     0.010 A 
ATOM     37  C   UNL A   1      43.159  23.416  27.274  1.00  0.00    -0.014 A 
BRANCH  37  38
ATOM     38  C   UNL A   1      43.642  24.764  27.682  1.00  0.00     0.031 A 
ATOM     39  C   UNL A   1      42.609  25.809  28.019  1.00  0.00     0.074 A 
ATOM     40  C   UNL A   1      44.947  25.068  27.798  1.00  0.00     0.049 A 
ATOM     41  N   UNL A   1      42.765  27.055  28.387  1.00  0.00    -0.248 NA
ATOM     42  C   UNL A   1      41.203  25.381  27.930  1.00  0.00     0.031 C 
ATOM     43  C   UNL A   1      46.059  24.153  27.558  1.00  0.00     0.029 A 
ATOM     44  N   UNL A   1      45.554  26.251  28.156  1.00  0.00    -0.354 N 
ATOM     45  C   UNL A   1      41.484  27.557  28.575  1.00  0.00     0.074 A 
ATOM     46  C   UNL A   1      40.560  26.494  28.242  1.00  0.00     0.031 C 
ATOM     47  C   UNL A   1      47.215  24.809  27.772  1.00  0.00     0.029 A 
ATOM     48  C   UNL A   1      46.926  26.197  28.136  1.00  0.00     0.049 A 
ATOM     49  H   UNL A   1      45.051  27.060  28.401  1.00  0.00     0.167 HD
ATOM     50  C   UNL A   1      41.103  28.784  28.999  1.00  0.00     0.037 A 
ATOM     51  C   UNL A   1      47.840  27.161  28.373  1.00  0.00     0.037 A 
ATOM     52  C   UNL A   1      42.007  29.855  29.322  1.00  0.00     0.049 A 
ATOM     53  C   UNL A   1      47.389  28.555  28.744  1.00  0.00     0.074 A 
ATOM     54  C   UNL A   1      41.707  31.134  29.758  1.00  0.00     0.029 A 
ATOM     55  N   UNL A   1      43.387  29.776  29.235  1.00  0.00    -0.354 N 
ATOM     56  N   UNL A   1      46.178  29.013  28.938  1.00  0.00    -0.248 NA
ATOM     57  C   UNL A   1      48.444  29.566  28.928  1.00  0.00     0.031 C 
ATOM     58  C   UNL A   1      42.905  31.846  29.886  1.00  0.00     0.029 A 
ATOM     59  C   UNL A   1      43.953  30.991  29.585  1.00  0.00     0.049 A 
ATOM     60  H   UNL A   1      43.892  28.974  28.965  1.00  0.00     0.167 HD
ATOM     61  C   UNL A   1      46.325  30.349  29.302  1.00  0.00     0.074 A 
ATOM     62  C   UNL A   1      47.746  30.626  29.308  1.00  0.00     0.031 C 
ATOM     63  C   UNL A   1      45.368  31.259  29.606  1.00  0.00     0.037 A 
BRANCH  50  64
ATOM     64  C   UNL A   1      39.630  29.039  29.110  1.00  0.00     0.064 A 
ATOM     65  C   UNL A   1      38.863  29.419  27.997  1.00  0.00     0.173 A 
ATOM     66  C   UNL A   1      38.975  28.896  30.342  1.00  0.00     0.173 A 
ATOM     67  F   UNL A   1      39.447  29.590  26.801  1.00  0.00    -0.203 F 
ATOM     68  C   UNL A   1      37.501  29.677  28.122  1.00  0.00     0.198 A 
ATOM     69  C   UNL A   1      37.607  29.124  30.456  1.00  0.00     0.198 A 
ATOM     70  F   UNL A   1      39.662  28.533  31.436  1.00  0.00    -0.203 F 
ATOM     71  F   UNL A   1      36.800  30.095  27.059  1.00  0.00    -0.200 F 
ATOM     72  C   UNL A   1      36.873  29.524  29.349  1.00  0.00     0.200 A 
ATOM     73  F   UNL A   1      36.999  28.966  31.640  1.00  0.00    -0.200 F 
ATOM     74  F   UNL A   1      35.561  29.772  29.468  1.00  0.00    -0.200 F 
ENDBRANCH  50  64
BRANCH  51  75
ATOM     75  C   UNL A   1      49.293  26.859  28.262  1.00  0.00     0.064 A 
ATOM     76  C   UNL A   1      49.935  26.847  27.016  1.00  0.00     0.173 A 
ATOM     77  C   UNL A   1      50.055  26.524  29.391  1.00  0.00     0.173 A 
ATOM     78  F   UNL A   1      49.241  27.122  25.902  1.00  0.00    -0.203 F 
ATOM     79  C   UNL A   1      51.280  26.495  26.901  1.00  0.00     0.198 A 
ATOM     80  C   UNL A   1      51.406  26.200  29.278  1.00  0.00     0.198 A 
ATOM     81  F   UNL A   1      49.485  26.506  30.605  1.00  0.00    -0.203 F 
ATOM     82  F   UNL A   1      51.854  26.438  25.692  1.00  0.00    -0.200 F 
ATOM     83  C   UNL A   1      52.014  26.177  28.033  1.00  0.00     0.200 A 
ATOM     84  F   UNL A   1      52.113  25.895  30.375  1.00  0.00    -0.200 F 
ATOM     85  F   UNL A   1      53.305  25.834  27.921  1.00  0.00    -0.200 F 
ENDBRANCH  51  75
BRANCH  63  86
ATOM     86  C   UNL A   1      45.815  32.633  30.023  1.00  0.00     0.064 A 
ATOM     87  C   UNL A   1      45.966  33.676  29.098  1.00  0.00     0.173 A 
ATOM     88  C   UNL A   1      46.050  32.921  31.377  1.00  0.00     0.173 A 
ATOM     89  F   UNL A   1      45.765  33.454  27.790  1.00  0.00    -0.203 F 
ATOM     90  C   UNL A   1      46.359  34.949  29.509  1.00  0.00     0.198 A 
ATOM     91  C   UNL A   1      46.413  34.201  31.789  1.00  0.00     0.198 A 
ATOM     92  F   UNL A   1      45.912  31.963  32.307  1.00  0.00    -0.203 F 
ATOM     93  F   UNL A   1      46.541  35.918  28.602  1.00  0.00    -0.200 F 
ATOM     94  C   UNL A   1      46.574  35.212  30.855  1.00  0.00     0.200 A 
ATOM     95  F   UNL A   1      46.606  34.455  33.090  1.00  0.00    -0.200 F 
ATOM     96  F   UNL A   1      46.944  36.438  31.248  1.00  0.00    -0.200 F 
ENDBRANCH  63  86
ENDBRANCH  37  38
ENDBRANCH  30  32
ENDBRANCH  29  30
ENDBRANCH  28  29
ENDBRANCH  27  28
ENDBRANCH  26  27
ENDBRANCH  25  26
ENDBRANCH   1  25
TORSDOF 20
ENDMDL
