MODEL 1
REMARK VINA RESULT:     -11.3      0.000      0.000
REMARK SMILES Cc1nccc(CNC(=O)N2CC[C@@H](C(=O)OCCOCCOCCOC(=O)c3ccc(-c4c5nc(c(-c6c(F)c(F)c(F)c(F)c6F)c6ccc([nH]6)c(-c6c(F)c(F)c(F)c(F)c6F)c6nc(c(-c7c(F)c(F)c(F)c(F)c7F)c7ccc4[nH]7)C=C6)C=C5)cc3)[C@H]2C)n1
REMARK SMILES IDX 21 1 20 2 19 3 18 4 17 5 15 6 16 7 14 8 11 9 12 10 92 11
REMARK SMILES IDX 13 12 93 13 9 14 8 15 10 17 7 18 6 19 1 20 2 21 3 22 94 23
REMARK SMILES IDX 4 24 5 25 22 26 23 27 24 28 25 29 26 30 27 31 28 32 29 33
REMARK SMILES IDX 30 34 91 35 31 36 90 37 32 38 33 39 34 40 84 41 35 42 89 43
REMARK SMILES IDX 83 44 85 45 36 46 88 47 82 48 81 49 37 51 69 52 49 53 68 54
REMARK SMILES IDX 50 55 53 56 67 57 86 58 51 59 52 60 66 62 87 63 54 64 38 65
REMARK SMILES IDX 39 66 47 67 40 68 41 69 45 70 48 71 42 72 43 73 46 74 44 75
REMARK SMILES IDX 70 76 71 77 79 78 72 79 73 80 77 81 80 82 74 83 75 84 78 85
REMARK SMILES IDX 76 86 55 87 56 88 64 89 57 90 58 91 62 92 65 93 59 94 60 95
REMARK SMILES IDX 63 96 61 97
REMARK H PARENT 8 16 85 50 53 61
REMARK Flexibility Score: inf
ROOT
ATOM      1  C   UNL A   1      40.090  22.008  27.055  1.00  0.00     0.188 C 
ENDROOT
BRANCH   1   2
ATOM      2  O   UNL A   1      39.465  21.902  25.785  1.00  0.00    -0.376 OA
BRANCH   2   3
ATOM      3  C   UNL A   1      38.055  21.675  25.755  1.00  0.00     0.202 C 
BRANCH   3   4
ATOM      4  C   UNL A   1      37.321  21.809  24.411  1.00  0.00     0.261 C 
BRANCH   4   5
ATOM      5  O   UNL A   1      36.051  21.120  24.399  1.00  0.00    -0.463 OA
BRANCH   5   6
ATOM      6  C   UNL A   1      34.980  21.813  24.841  1.00  0.00     0.311 C 
ATOM      7  O   UNL A   1      34.393  21.566  25.891  1.00  0.00    -0.252 OA
BRANCH   6   8
ATOM      8  C   UNL A   1      34.615  23.021  23.994  1.00  0.00     0.123 C 
ATOM      9  N   UNL A   1      33.174  24.648  23.029  1.00  0.00    -0.321 N 
ATOM     10  C   UNL A   1      34.042  25.317  23.988  1.00  0.00     0.122 C 
ATOM     11  C   UNL A   1      33.311  23.167  23.163  1.00  0.00     0.098 C 
ATOM     12  C   UNL A   1      34.538  24.237  24.916  1.00  0.00     0.039 C 
ATOM     13  C   UNL A   1      32.083  22.517  23.797  1.00  0.00     0.032 C 
BRANCH   9  14
ATOM     14  C   UNL A   1      32.667  25.449  22.050  1.00  0.00     0.317 C 
ATOM     15  N   UNL A   1      31.497  26.087  22.130  1.00  0.00    -0.332 N 
ATOM     16  H   UNL A   1      31.205  26.445  21.260  1.00  0.00     0.165 HD
ATOM     17  O   UNL A   1      33.307  25.670  21.015  1.00  0.00    -0.249 OA
BRANCH  15  18
ATOM     18  C   UNL A   1      30.554  26.376  23.187  1.00  0.00     0.174 C 
BRANCH  18  19
ATOM     19  C   UNL A   1      30.934  27.543  24.077  1.00  0.00     0.063 A 
ATOM     20  C   UNL A   1      31.583  27.974  27.672  1.00  0.00     0.089 C 
ATOM     21  C   UNL A   1      31.459  28.266  26.209  1.00  0.00     0.125 A 
ATOM     22  N   UNL A   1      31.756  29.512  25.803  1.00  0.00    -0.242 NA
ATOM     23  N   UNL A   1      31.061  27.266  25.397  1.00  0.00    -0.236 NA
ATOM     24  C   UNL A   1      31.620  29.752  24.489  1.00  0.00     0.115 A 
ATOM     25  C   UNL A   1      31.202  28.806  23.582  1.00  0.00     0.046 A 
ENDBRANCH  18  19
ENDBRANCH  15  18
ENDBRANCH   9  14
ENDBRANCH   6   8
ENDBRANCH   5   6
ENDBRANCH   4   5
ENDBRANCH   3   4
ENDBRANCH   2   3
ENDBRANCH   1   2
BRANCH   1  26
ATOM     26  C   UNL A   1      41.424  21.281  27.269  1.00  0.00     0.188 C 
BRANCH  26  27
ATOM     27  O   UNL A   1      42.057  20.781  26.119  1.00  0.00    -0.376 OA
BRANCH  27  28
ATOM     28  C   UNL A   1      43.371  21.179  25.754  1.00  0.00     0.202 C 
BRANCH  28  29
ATOM     29  C   UNL A   1      43.739  22.237  24.688  1.00  0.00     0.261 C 
BRANCH  29  30
ATOM     30  O   UNL A   1      43.181  23.549  24.802  1.00  0.00    -0.460 OA
BRANCH  30  31
ATOM     31  C   UNL A   1      44.027  24.544  25.157  1.00  0.00     0.338 C 
ATOM     32  O   UNL A   1      45.091  24.831  24.631  1.00  0.00    -0.246 OA
BRANCH  31  33
ATOM     33  C   UNL A   1      43.292  25.418  26.101  1.00  0.00     0.060 A 
ATOM     34  C   UNL A   1      43.604  26.788  26.130  1.00  0.00     0.016 A 
ATOM     35  C   UNL A   1      42.258  24.915  26.893  1.00  0.00     0.016 A 
ATOM     36  C   UNL A   1      42.909  27.649  26.979  1.00  0.00     0.010 A 
ATOM     37  C   UNL A   1      41.580  25.773  27.762  1.00  0.00     0.010 A 
ATOM     38  C   UNL A   1      41.929  27.136  27.837  1.00  0.00    -0.014 A 
BRANCH  38  39
ATOM     39  C   UNL A   1      41.459  27.946  28.986  1.00  0.00     0.031 A 
ATOM     40  C   UNL A   1      42.203  27.804  30.287  1.00  0.00     0.074 A 
ATOM     41  C   UNL A   1      40.418  28.792  28.894  1.00  0.00     0.049 A 
ATOM     42  N   UNL A   1      41.948  28.323  31.459  1.00  0.00    -0.248 NA
ATOM     43  C   UNL A   1      43.400  26.946  30.255  1.00  0.00     0.031 C 
ATOM     44  C   UNL A   1      39.652  29.065  27.683  1.00  0.00     0.029 A 
ATOM     45  N   UNL A   1      39.824  29.570  29.856  1.00  0.00    -0.354 N 
ATOM     46  C   UNL A   1      42.941  27.844  32.304  1.00  0.00     0.074 A 
ATOM     47  C   UNL A   1      43.780  26.964  31.522  1.00  0.00     0.031 C 
ATOM     48  C   UNL A   1      38.674  29.942  27.978  1.00  0.00     0.029 A 
ATOM     49  C   UNL A   1      38.726  30.260  29.405  1.00  0.00     0.049 A 
ATOM     50  H   UNL A   1      40.153  29.628  30.783  1.00  0.00     0.167 HD
ATOM     51  C   UNL A   1      43.143  28.119  33.614  1.00  0.00     0.037 A 
ATOM     52  C   UNL A   1      37.852  31.036  30.078  1.00  0.00     0.037 A 
ATOM     53  C   UNL A   1      42.304  28.989  34.394  1.00  0.00     0.049 A 
ATOM     54  C   UNL A   1      38.044  31.258  31.560  1.00  0.00     0.074 A 
ATOM     55  C   UNL A   1      42.422  29.334  35.727  1.00  0.00     0.029 A 
ATOM     56  N   UNL A   1      41.182  29.645  33.907  1.00  0.00    -0.354 N 
ATOM     57  N   UNL A   1      38.988  30.811  32.353  1.00  0.00    -0.248 NA
ATOM     58  C   UNL A   1      37.045  32.098  32.238  1.00  0.00     0.031 C 
ATOM     59  C   UNL A   1      41.336  30.149  36.065  1.00  0.00     0.029 A 
ATOM     60  C   UNL A   1      40.584  30.373  34.923  1.00  0.00     0.049 A 
ATOM     61  H   UNL A   1      40.858  29.597  32.979  1.00  0.00     0.167 HD
ATOM     62  C   UNL A   1      38.724  31.350  33.608  1.00  0.00     0.074 A 
ATOM     63  C   UNL A   1      37.533  32.162  33.468  1.00  0.00     0.031 C 
ATOM     64  C   UNL A   1      39.410  31.195  34.768  1.00  0.00     0.037 A 
BRANCH  51  65
ATOM     65  C   UNL A   1      44.299  27.438  34.290  1.00  0.00     0.064 A 
ATOM     66  C   UNL A   1      45.570  28.031  34.361  1.00  0.00     0.173 A 
ATOM     67  C   UNL A   1      44.131  26.176  34.878  1.00  0.00     0.173 A 
ATOM     68  F   UNL A   1      45.790  29.228  33.798  1.00  0.00    -0.203 F 
ATOM     69  C   UNL A   1      46.636  27.369  34.964  1.00  0.00     0.198 A 
ATOM     70  C   UNL A   1      45.190  25.534  35.513  1.00  0.00     0.198 A 
ATOM     71  F   UNL A   1      42.939  25.564  34.838  1.00  0.00    -0.203 F 
ATOM     72  F   UNL A   1      47.854  27.926  34.964  1.00  0.00    -0.200 F 
ATOM     73  C   UNL A   1      46.444  26.125  35.546  1.00  0.00     0.200 A 
ATOM     74  F   UNL A   1      44.999  24.337  36.086  1.00  0.00    -0.200 F 
ATOM     75  F   UNL A   1      47.470  25.490  36.129  1.00  0.00    -0.200 F 
ENDBRANCH  51  65
BRANCH  52  76
ATOM     76  C   UNL A   1      36.708  31.665  29.365  1.00  0.00     0.064 A 
ATOM     77  C   UNL A   1      36.687  33.044  29.107  1.00  0.00     0.173 A 
ATOM     78  C   UNL A   1      35.598  30.911  28.958  1.00  0.00     0.173 A 
ATOM     79  F   UNL A   1      37.710  33.815  29.503  1.00  0.00    -0.203 F 
ATOM     80  C   UNL A   1      35.592  33.646  28.489  1.00  0.00     0.198 A 
ATOM     81  C   UNL A   1      34.517  31.509  28.311  1.00  0.00     0.198 A 
ATOM     82  F   UNL A   1      35.562  29.590  29.185  1.00  0.00    -0.203 F 
ATOM     83  F   UNL A   1      35.575  34.974  28.307  1.00  0.00    -0.200 F 
ATOM     84  C   UNL A   1      34.511  32.877  28.086  1.00  0.00     0.200 A 
ATOM     85  F   UNL A   1      33.478  30.761  27.915  1.00  0.00    -0.200 F 
ATOM     86  F   UNL A   1      33.459  33.457  27.493  1.00  0.00    -0.200 F 
ENDBRANCH  52  76
BRANCH  64  87
ATOM     87  C   UNL A   1      38.939  31.969  35.968  1.00  0.00     0.064 A 
ATOM     88  C   UNL A   1      38.127  31.395  36.958  1.00  0.00     0.173 A 
ATOM     89  C   UNL A   1      39.345  33.302  36.149  1.00  0.00     0.173 A 
ATOM     90  F   UNL A   1      37.701  30.130  36.832  1.00  0.00    -0.203 F 
ATOM     91  C   UNL A   1      37.714  32.135  38.064  1.00  0.00     0.198 A 
ATOM     92  C   UNL A   1      38.962  34.026  37.275  1.00  0.00     0.198 A 
ATOM     93  F   UNL A   1      40.132  33.899  35.240  1.00  0.00    -0.203 F 
ATOM     94  F   UNL A   1      36.892  31.583  38.967  1.00  0.00    -0.200 F 
ATOM     95  C   UNL A   1      38.137  33.445  38.225  1.00  0.00     0.200 A 
ATOM     96  F   UNL A   1      39.390  35.285  37.437  1.00  0.00    -0.200 F 
ATOM     97  F   UNL A   1      37.745  34.152  39.295  1.00  0.00    -0.200 F 
ENDBRANCH  64  87
ENDBRANCH  38  39
ENDBRANCH  31  33
ENDBRANCH  30  31
ENDBRANCH  29  30
ENDBRANCH  28  29
ENDBRANCH  27  28
ENDBRANCH  26  27
ENDBRANCH   1  26
TORSDOF 20
ENDMDL
MODEL 2
REMARK VINA RESULT:     -11.1      0.714      2.089
REMARK SMILES Cc1nccc(CNC(=O)N2CC[C@@H](C(=O)OCCOCCOCCOC(=O)c3ccc(-c4c5nc(c(-c6c(F)c(F)c(F)c(F)c6F)c6ccc([nH]6)c(-c6c(F)c(F)c(F)c(F)c6F)c6nc(c(-c7c(F)c(F)c(F)c(F)c7F)c7ccc4[nH]7)C=C6)C=C5)cc3)[C@H]2C)n1
REMARK SMILES IDX 21 1 20 2 19 3 18 4 17 5 15 6 16 7 14 8 11 9 12 10 92 11
REMARK SMILES IDX 13 12 93 13 9 14 8 15 10 17 7 18 6 19 1 20 2 21 3 22 94 23
REMARK SMILES IDX 4 24 5 25 22 26 23 27 24 28 25 29 26 30 27 31 28 32 29 33
REMARK SMILES IDX 30 34 91 35 31 36 90 37 32 38 33 39 34 40 84 41 35 42 89 43
REMARK SMILES IDX 83 44 85 45 36 46 88 47 82 48 81 49 37 51 69 52 49 53 68 54
REMARK SMILES IDX 50 55 53 56 67 57 86 58 51 59 52 60 66 62 87 63 54 64 38 65
REMARK SMILES IDX 39 66 47 67 40 68 41 69 45 70 48 71 42 72 43 73 46 74 44 75
REMARK SMILES IDX 70 76 71 77 79 78 72 79 73 80 77 81 80 82 74 83 75 84 78 85
REMARK SMILES IDX 76 86 55 87 56 88 64 89 57 90 58 91 62 92 65 93 59 94 60 95
REMARK SMILES IDX 63 96 61 97
REMARK H PARENT 8 16 85 50 53 61
REMARK Flexibility Score: inf
ROOT
ATOM      1  C   UNL A   1      39.936  21.873  26.915  1.00  0.00     0.188 C 
ENDROOT
BRANCH   1   2
ATOM      2  O   UNL A   1      39.257  21.623  25.694  1.00  0.00    -0.376 OA
BRANCH   2   3
ATOM      3  C   UNL A   1      37.828  21.649  25.711  1.00  0.00     0.202 C 
BRANCH   3   4
ATOM      4  C   UNL A   1      37.097  22.425  24.605  1.00  0.00     0.261 C 
BRANCH   4   5
ATOM      5  O   UNL A   1      35.927  21.732  24.117  1.00  0.00    -0.463 OA
BRANCH   5   6
ATOM      6  C   UNL A   1      34.731  22.305  24.372  1.00  0.00     0.311 C 
ATOM      7  O   UNL A   1      33.867  21.795  25.078  1.00  0.00    -0.252 OA
BRANCH   6   8
ATOM      8  C   UNL A   1      34.571  23.709  23.810  1.00  0.00     0.123 C 
ATOM      9  N   UNL A   1      33.389  25.609  23.003  1.00  0.00    -0.321 N 
ATOM     10  C   UNL A   1      34.006  25.959  24.276  1.00  0.00     0.122 C 
ATOM     11  C   UNL A   1      33.497  24.137  22.772  1.00  0.00     0.098 C 
ATOM     12  C   UNL A   1      34.275  24.651  24.976  1.00  0.00     0.039 C 
ATOM     13  C   UNL A   1      32.157  23.418  22.918  1.00  0.00     0.032 C 
BRANCH   9  14
ATOM     14  C   UNL A   1      33.123  26.661  22.180  1.00  0.00     0.317 C 
ATOM     15  N   UNL A   1      31.913  27.202  22.017  1.00  0.00    -0.332 N 
ATOM     16  H   UNL A   1      31.874  27.806  21.240  1.00  0.00     0.165 HD
ATOM     17  O   UNL A   1      34.028  27.218  21.549  1.00  0.00    -0.249 OA
BRANCH  15  18
ATOM     18  C   UNL A   1      30.645  27.111  22.706  1.00  0.00     0.174 C 
BRANCH  18  19
ATOM     19  C   UNL A   1      30.748  26.915  24.205  1.00  0.00     0.063 A 
ATOM     20  C   UNL A   1      30.294  24.078  26.500  1.00  0.00     0.089 C 
ATOM     21  C   UNL A   1      30.615  25.445  25.984  1.00  0.00     0.125 A 
ATOM     22  N   UNL A   1      31.027  26.359  26.878  1.00  0.00    -0.242 NA
ATOM     23  N   UNL A   1      30.473  25.670  24.662  1.00  0.00    -0.236 NA
ATOM     24  C   UNL A   1      31.291  27.583  26.392  1.00  0.00     0.115 A 
ATOM     25  C   UNL A   1      31.158  27.919  25.064  1.00  0.00     0.046 A 
ENDBRANCH  18  19
ENDBRANCH  15  18
ENDBRANCH   9  14
ENDBRANCH   6   8
ENDBRANCH   5   6
ENDBRANCH   4   5
ENDBRANCH   3   4
ENDBRANCH   2   3
ENDBRANCH   1   2
BRANCH   1  26
ATOM     26  C   UNL A   1      41.314  21.232  27.121  1.00  0.00     0.188 C 
BRANCH  26  27
ATOM     27  O   UNL A   1      41.974  20.779  25.967  1.00  0.00    -0.376 OA
BRANCH  27  28
ATOM     28  C   UNL A   1      43.352  21.040  25.742  1.00  0.00     0.202 C 
BRANCH  28  29
ATOM     29  C   UNL A   1      43.933  22.124  24.803  1.00  0.00     0.261 C 
BRANCH  29  30
ATOM     30  O   UNL A   1      43.351  23.430  24.822  1.00  0.00    -0.460 OA
BRANCH  30  31
ATOM     31  C   UNL A   1      44.166  24.457  25.158  1.00  0.00     0.338 C 
ATOM     32  O   UNL A   1      45.213  24.776  24.616  1.00  0.00    -0.246 OA
BRANCH  31  33
ATOM     33  C   UNL A   1      43.413  25.313  26.105  1.00  0.00     0.060 A 
ATOM     34  C   UNL A   1      43.606  26.704  26.052  1.00  0.00     0.016 A 
ATOM     35  C   UNL A   1      42.475  24.765  26.982  1.00  0.00     0.016 A 
ATOM     36  C   UNL A   1      42.889  27.546  26.901  1.00  0.00     0.010 A 
ATOM     37  C   UNL A   1      41.776  25.606  27.851  1.00  0.00     0.010 A 
ATOM     38  C   UNL A   1      42.008  26.996  27.841  1.00  0.00    -0.014 A 
BRANCH  38  39
ATOM     39  C   UNL A   1      41.537  27.821  28.979  1.00  0.00     0.031 A 
ATOM     40  C   UNL A   1      42.305  27.727  30.270  1.00  0.00     0.074 A 
ATOM     41  C   UNL A   1      40.475  28.639  28.884  1.00  0.00     0.049 A 
ATOM     42  N   UNL A   1      42.055  28.267  31.435  1.00  0.00    -0.248 NA
ATOM     43  C   UNL A   1      43.521  26.898  30.239  1.00  0.00     0.031 C 
ATOM     44  C   UNL A   1      39.683  28.866  27.680  1.00  0.00     0.029 A 
ATOM     45  N   UNL A   1      39.877  29.426  29.838  1.00  0.00    -0.354 N 
ATOM     46  C   UNL A   1      43.072  27.831  32.274  1.00  0.00     0.074 A 
ATOM     47  C   UNL A   1      43.920  26.954  31.499  1.00  0.00     0.031 C 
ATOM     48  C   UNL A   1      38.689  29.726  27.970  1.00  0.00     0.029 A 
ATOM     49  C   UNL A   1      38.756  30.078  29.388  1.00  0.00     0.049 A 
ATOM     50  H   UNL A   1      40.219  29.513  30.758  1.00  0.00     0.167 HD
ATOM     51  C   UNL A   1      43.288  28.142  33.574  1.00  0.00     0.037 A 
ATOM     52  C   UNL A   1      37.874  30.849  30.057  1.00  0.00     0.037 A 
ATOM     53  C   UNL A   1      42.440  29.010  34.347  1.00  0.00     0.049 A 
ATOM     54  C   UNL A   1      38.083  31.109  31.531  1.00  0.00     0.074 A 
ATOM     55  C   UNL A   1      42.570  29.388  35.670  1.00  0.00     0.029 A 
ATOM     56  N   UNL A   1      41.295  29.627  33.864  1.00  0.00    -0.354 N 
ATOM     57  N   UNL A   1      39.050  30.704  32.318  1.00  0.00    -0.248 NA
ATOM     58  C   UNL A   1      37.075  31.941  32.205  1.00  0.00     0.031 C 
ATOM     59  C   UNL A   1      41.471  30.185  36.006  1.00  0.00     0.029 A 
ATOM     60  C   UNL A   1      40.696  30.365  34.872  1.00  0.00     0.049 A 
ATOM     61  H   UNL A   1      40.958  29.550  32.942  1.00  0.00     0.167 HD
ATOM     62  C   UNL A   1      38.792  31.266  33.565  1.00  0.00     0.074 A 
ATOM     63  C   UNL A   1      37.580  32.045  33.425  1.00  0.00     0.031 C 
ATOM     64  C   UNL A   1      39.500  31.154  34.717  1.00  0.00     0.037 A 
BRANCH  51  65
ATOM     65  C   UNL A   1      44.470  27.505  34.246  1.00  0.00     0.064 A 
ATOM     66  C   UNL A   1      44.381  26.251  34.872  1.00  0.00     0.173 A 
ATOM     67  C   UNL A   1      45.712  28.158  34.261  1.00  0.00     0.173 A 
ATOM     68  F   UNL A   1      43.213  25.593  34.903  1.00  0.00    -0.203 F 
ATOM     69  C   UNL A   1      45.481  25.693  35.517  1.00  0.00     0.198 A 
ATOM     70  C   UNL A   1      46.819  27.579  34.875  1.00  0.00     0.198 A 
ATOM     71  F   UNL A   1      45.853  29.358  33.680  1.00  0.00    -0.203 F 
ATOM     72  F   UNL A   1      45.356  24.525  36.162  1.00  0.00    -0.200 F 
ATOM     73  C   UNL A   1      46.701  26.353  35.511  1.00  0.00     0.200 A 
ATOM     74  F   UNL A   1      48.000  28.213  34.857  1.00  0.00    -0.200 F 
ATOM     75  F   UNL A   1      47.760  25.813  36.130  1.00  0.00    -0.200 F 
ENDBRANCH  51  65
BRANCH  52  76
ATOM     76  C   UNL A   1      36.704  31.434  29.348  1.00  0.00     0.064 A 
ATOM     77  C   UNL A   1      35.629  30.630  28.943  1.00  0.00     0.173 A 
ATOM     78  C   UNL A   1      36.651  32.799  29.030  1.00  0.00     0.173 A 
ATOM     79  F   UNL A   1      35.645  29.313  29.196  1.00  0.00    -0.203 F 
ATOM     80  C   UNL A   1      34.557  31.163  28.229  1.00  0.00     0.198 A 
ATOM     81  C   UNL A   1      35.563  33.337  28.343  1.00  0.00     0.198 A 
ATOM     82  F   UNL A   1      37.655  33.612  29.387  1.00  0.00    -0.203 F 
ATOM     83  F   UNL A   1      33.571  30.360  27.805  1.00  0.00    -0.200 F 
ATOM     84  C   UNL A   1      34.522  32.518  27.935  1.00  0.00     0.200 A 
ATOM     85  F   UNL A   1      35.529  34.649  28.070  1.00  0.00    -0.200 F 
ATOM     86  F   UNL A   1      33.492  33.030  27.249  1.00  0.00    -0.200 F 
ENDBRANCH  52  76
BRANCH  64  87
ATOM     87  C   UNL A   1      39.028  31.945  35.906  1.00  0.00     0.064 A 
ATOM     88  C   UNL A   1      39.385  33.288  36.101  1.00  0.00     0.173 A 
ATOM     89  C   UNL A   1      38.166  31.355  36.845  1.00  0.00     0.173 A 
ATOM     90  F   UNL A   1      40.214  33.898  35.241  1.00  0.00    -0.203 F 
ATOM     91  C   UNL A   1      38.925  33.998  37.208  1.00  0.00     0.198 A 
ATOM     92  C   UNL A   1      37.677  32.080  37.929  1.00  0.00     0.198 A 
ATOM     93  F   UNL A   1      37.782  30.078  36.703  1.00  0.00    -0.203 F 
ATOM     94  F   UNL A   1      39.325  35.262  37.404  1.00  0.00    -0.200 F 
ATOM     95  C   UNL A   1      38.066  33.397  38.115  1.00  0.00     0.200 A 
ATOM     96  F   UNL A   1      36.831  31.501  38.792  1.00  0.00    -0.200 F 
ATOM     97  F   UNL A   1      37.617  34.086  39.175  1.00  0.00    -0.200 F 
ENDBRANCH  64  87
ENDBRANCH  38  39
ENDBRANCH  31  33
ENDBRANCH  30  31
ENDBRANCH  29  30
ENDBRANCH  28  29
ENDBRANCH  27  28
ENDBRANCH  26  27
ENDBRANCH   1  26
TORSDOF 20
ENDMDL
MODEL 3
REMARK VINA RESULT:     -11.0      4.883      7.546
REMARK SMILES Cc1nccc(CNC(=O)N2CC[C@@H](C(=O)OCCOCCOCCOC(=O)c3ccc(-c4c5nc(c(-c6c(F)c(F)c(F)c(F)c6F)c6ccc([nH]6)c(-c6c(F)c(F)c(F)c(F)c6F)c6nc(c(-c7c(F)c(F)c(F)c(F)c7F)c7ccc4[nH]7)C=C6)C=C5)cc3)[C@H]2C)n1
REMARK SMILES IDX 21 1 20 2 19 3 18 4 17 5 15 6 16 7 14 8 11 9 12 10 92 11
REMARK SMILES IDX 13 12 93 13 9 14 8 15 10 17 7 18 6 19 1 20 2 21 3 22 94 23
REMARK SMILES IDX 4 24 5 25 22 26 23 27 24 28 25 29 26 30 27 31 28 32 29 33
REMARK SMILES IDX 30 34 91 35 31 36 90 37 32 38 33 39 34 40 84 41 35 42 89 43
REMARK SMILES IDX 83 44 85 45 36 46 88 47 82 48 81 49 37 51 69 52 49 53 68 54
REMARK SMILES IDX 50 55 53 56 67 57 86 58 51 59 52 60 66 62 87 63 54 64 38 65
REMARK SMILES IDX 39 66 47 67 40 68 41 69 45 70 48 71 42 72 43 73 46 74 44 75
REMARK SMILES IDX 70 76 71 77 79 78 72 79 73 80 77 81 80 82 74 83 75 84 78 85
REMARK SMILES IDX 76 86 55 87 56 88 64 89 57 90 58 91 62 92 65 93 59 94 60 95
REMARK SMILES IDX 63 96 61 97
REMARK H PARENT 8 16 85 50 53 61
REMARK Flexibility Score: inf
ROOT
ATOM      1  C   UNL A   1      40.792  21.452  26.177  1.00  0.00     0.188 C 
ENDROOT
BRANCH   1   2
ATOM      2  O   UNL A   1      39.413  21.755  26.032  1.00  0.00    -0.376 OA
BRANCH   2   3
ATOM      3  C   UNL A   1      38.957  23.023  26.507  1.00  0.00     0.202 C 
BRANCH   3   4
ATOM      4  C   UNL A   1      37.777  23.693  25.785  1.00  0.00     0.261 C 
BRANCH   4   5
ATOM      5  O   UNL A   1      36.497  23.302  26.330  1.00  0.00    -0.463 OA
BRANCH   5   6
ATOM      6  C   UNL A   1      35.676  22.608  25.513  1.00  0.00     0.311 C 
ATOM      7  O   UNL A   1      36.071  21.863  24.622  1.00  0.00    -0.252 OA
BRANCH   6   8
ATOM      8  C   UNL A   1      34.200  22.720  25.858  1.00  0.00     0.123 C 
ATOM      9  N   UNL A   1      31.997  23.610  25.736  1.00  0.00    -0.321 N 
ATOM     10  C   UNL A   1      31.981  22.267  25.170  1.00  0.00     0.122 C 
ATOM     11  C   UNL A   1      33.407  24.051  25.960  1.00  0.00     0.098 C 
ATOM     12  C   UNL A   1      33.409  21.964  24.792  1.00  0.00     0.039 C 
ATOM     13  C   UNL A   1      33.851  25.128  24.972  1.00  0.00     0.032 C 
BRANCH   9  14
ATOM     14  C   UNL A   1      30.799  24.053  26.206  1.00  0.00     0.317 C 
ATOM     15  N   UNL A   1      30.034  24.957  25.586  1.00  0.00    -0.332 N 
ATOM     16  H   UNL A   1      29.318  25.303  26.167  1.00  0.00     0.165 HD
ATOM     17  O   UNL A   1      30.317  23.597  27.250  1.00  0.00    -0.249 OA
BRANCH  15  18
ATOM     18  C   UNL A   1      30.007  25.549  24.268  1.00  0.00     0.174 C 
BRANCH  18  19
ATOM     19  C   UNL A   1      30.397  27.013  24.219  1.00  0.00     0.063 A 
ATOM     20  C   UNL A   1      29.576  29.856  22.036  1.00  0.00     0.089 C 
ATOM     21  C   UNL A   1      30.142  29.054  23.165  1.00  0.00     0.125 A 
ATOM     22  N   UNL A   1      30.889  29.708  24.071  1.00  0.00    -0.242 NA
ATOM     23  N   UNL A   1      29.866  27.735  23.203  1.00  0.00    -0.236 NA
ATOM     24  C   UNL A   1      31.399  28.963  25.064  1.00  0.00     0.115 A 
ATOM     25  C   UNL A   1      31.193  27.607  25.181  1.00  0.00     0.046 A 
ENDBRANCH  18  19
ENDBRANCH  15  18
ENDBRANCH   9  14
ENDBRANCH   6   8
ENDBRANCH   5   6
ENDBRANCH   4   5
ENDBRANCH   3   4
ENDBRANCH   2   3
ENDBRANCH   1   2
BRANCH   1  26
ATOM     26  C   UNL A   1      41.272  20.894  27.523  1.00  0.00     0.188 C 
BRANCH  26  27
ATOM     27  O   UNL A   1      41.798  19.591  27.511  1.00  0.00    -0.376 OA
BRANCH  27  28
ATOM     28  C   UNL A   1      41.964  18.862  26.303  1.00  0.00     0.202 C 
BRANCH  28  29
ATOM     29  C   UNL A   1      43.300  18.318  25.744  1.00  0.00     0.261 C 
BRANCH  29  30
ATOM     30  O   UNL A   1      43.690  18.690  24.419  1.00  0.00    -0.460 OA
BRANCH  30  31
ATOM     31  C   UNL A   1      44.888  19.308  24.286  1.00  0.00     0.338 C 
ATOM     32  O   UNL A   1      45.860  18.905  23.666  1.00  0.00    -0.246 OA
BRANCH  31  33
ATOM     33  C   UNL A   1      44.712  20.698  24.767  1.00  0.00     0.060 A 
ATOM     34  C   UNL A   1      44.372  21.693  23.835  1.00  0.00     0.016 A 
ATOM     35  C   UNL A   1      44.805  21.007  26.125  1.00  0.00     0.016 A 
ATOM     36  C   UNL A   1      44.162  23.006  24.254  1.00  0.00     0.010 A 
ATOM     37  C   UNL A   1      44.620  22.328  26.541  1.00  0.00     0.010 A 
ATOM     38  C   UNL A   1      44.337  23.340  25.603  1.00  0.00    -0.014 A 
BRANCH  38  39
ATOM     39  C   UNL A   1      44.490  24.761  25.996  1.00  0.00     0.031 A 
ATOM     40  C   UNL A   1      45.849  25.385  25.831  1.00  0.00     0.074 A 
ATOM     41  C   UNL A   1      43.466  25.490  26.473  1.00  0.00     0.049 A 
ATOM     42  N   UNL A   1      46.274  26.572  26.179  1.00  0.00    -0.248 NA
ATOM     43  C   UNL A   1      46.872  24.543  25.190  1.00  0.00     0.031 C 
ATOM     44  C   UNL A   1      42.092  25.026  26.627  1.00  0.00     0.029 A 
ATOM     45  N   UNL A   1      43.440  26.786  26.928  1.00  0.00    -0.354 N 
ATOM     46  C   UNL A   1      47.613  26.611  25.812  1.00  0.00     0.074 A 
ATOM     47  C   UNL A   1      47.941  25.320  25.251  1.00  0.00     0.031 C 
ATOM     48  C   UNL A   1      41.354  26.020  27.156  1.00  0.00     0.029 A 
ATOM     49  C   UNL A   1      42.215  27.174  27.411  1.00  0.00     0.049 A 
ATOM     50  H   UNL A   1      44.226  27.380  26.910  1.00  0.00     0.167 HD
ATOM     51  C   UNL A   1      48.492  27.636  25.924  1.00  0.00     0.037 A 
ATOM     52  C   UNL A   1      41.845  28.323  28.013  1.00  0.00     0.037 A 
ATOM     53  C   UNL A   1      48.166  28.918  26.489  1.00  0.00     0.049 A 
ATOM     54  C   UNL A   1      42.865  29.421  28.210  1.00  0.00     0.074 A 
ATOM     55  C   UNL A   1      48.982  30.022  26.648  1.00  0.00     0.029 A 
ATOM     56  N   UNL A   1      46.922  29.263  26.997  1.00  0.00    -0.354 N 
ATOM     57  N   UNL A   1      44.126  29.458  27.855  1.00  0.00    -0.248 NA
ATOM     58  C   UNL A   1      42.402  30.639  28.892  1.00  0.00     0.031 C 
ATOM     59  C   UNL A   1      48.251  31.015  27.308  1.00  0.00     0.029 A 
ATOM     60  C   UNL A   1      46.956  30.556  27.492  1.00  0.00     0.049 A 
ATOM     61  H   UNL A   1      46.132  28.675  27.005  1.00  0.00     0.167 HD
ATOM     62  C   UNL A   1      44.594  30.715  28.226  1.00  0.00     0.074 A 
ATOM     63  C   UNL A   1      43.477  31.411  28.831  1.00  0.00     0.031 C 
ATOM     64  C   UNL A   1      45.832  31.247  28.073  1.00  0.00     0.037 A 
BRANCH  51  65
ATOM     65  C   UNL A   1      49.897  27.390  25.457  1.00  0.00     0.064 A 
ATOM     66  C   UNL A   1      50.932  27.077  26.352  1.00  0.00     0.173 A 
ATOM     67  C   UNL A   1      50.213  27.466  24.092  1.00  0.00     0.173 A 
ATOM     68  F   UNL A   1      50.689  27.011  27.670  1.00  0.00    -0.203 F 
ATOM     69  C   UNL A   1      52.235  26.884  25.901  1.00  0.00     0.198 A 
ATOM     70  C   UNL A   1      51.509  27.235  23.641  1.00  0.00     0.198 A 
ATOM     71  F   UNL A   1      49.262  27.762  23.193  1.00  0.00    -0.203 F 
ATOM     72  F   UNL A   1      53.219  26.650  26.781  1.00  0.00    -0.200 F 
ATOM     73  C   UNL A   1      52.521  26.956  24.546  1.00  0.00     0.200 A 
ATOM     74  F   UNL A   1      51.780  27.292  22.330  1.00  0.00    -0.200 F 
ATOM     75  F   UNL A   1      53.776  26.767  24.113  1.00  0.00    -0.200 F 
ENDBRANCH  51  65
BRANCH  52  76
ATOM     76  C   UNL A   1      40.444  28.504  28.482  1.00  0.00     0.064 A 
ATOM     77  C   UNL A   1      39.455  29.007  27.625  1.00  0.00     0.173 A 
ATOM     78  C   UNL A   1      40.073  28.213  29.802  1.00  0.00     0.173 A 
ATOM     79  F   UNL A   1      39.766  29.330  26.360  1.00  0.00    -0.203 F 
ATOM     80  C   UNL A   1      38.156  29.230  28.075  1.00  0.00     0.198 A 
ATOM     81  C   UNL A   1      38.765  28.407  30.243  1.00  0.00     0.198 A 
ATOM     82  F   UNL A   1      40.981  27.737  30.667  1.00  0.00    -0.203 F 
ATOM     83  F   UNL A   1      37.245  29.765  27.249  1.00  0.00    -0.200 F 
ATOM     84  C   UNL A   1      37.810  28.924  29.382  1.00  0.00     0.200 A 
ATOM     85  F   UNL A   1      38.433  28.100  31.505  1.00  0.00    -0.200 F 
ATOM     86  F   UNL A   1      36.560  29.140  29.815  1.00  0.00    -0.200 F 
ENDBRANCH  52  76
BRANCH  64  87
ATOM     87  C   UNL A   1      46.037  32.675  28.499  1.00  0.00     0.064 A 
ATOM     88  C   UNL A   1      46.482  33.016  29.785  1.00  0.00     0.173 A 
ATOM     89  C   UNL A   1      45.824  33.719  27.583  1.00  0.00     0.173 A 
ATOM     90  F   UNL A   1      46.691  32.060  30.702  1.00  0.00    -0.203 F 
ATOM     91  C   UNL A   1      46.672  34.348  30.148  1.00  0.00     0.198 A 
ATOM     92  C   UNL A   1      46.052  35.046  27.938  1.00  0.00     0.198 A 
ATOM     93  F   UNL A   1      45.411  33.451  26.336  1.00  0.00    -0.203 F 
ATOM     94  F   UNL A   1      47.041  34.652  31.399  1.00  0.00    -0.200 F 
ATOM     95  C   UNL A   1      46.464  35.360  29.223  1.00  0.00     0.200 A 
ATOM     96  F   UNL A   1      45.870  36.019  27.035  1.00  0.00    -0.200 F 
ATOM     97  F   UNL A   1      46.657  36.640  29.572  1.00  0.00    -0.200 F 
ENDBRANCH  64  87
ENDBRANCH  38  39
ENDBRANCH  31  33
ENDBRANCH  30  31
ENDBRANCH  29  30
ENDBRANCH  28  29
ENDBRANCH  27  28
ENDBRANCH  26  27
ENDBRANCH   1  26
TORSDOF 20
ENDMDL
