MODEL 1
REMARK VINA RESULT:     -12.6      0.000      0.000
REMARK SMILES O=C(N[C@@H](Cc1ccccc1)C(=O)OCCOCCOCCOC(=O)c1ccc(-c2c3nc(c(-c4c(F)c(F)c(F)c(F)c4F)c4ccc([nH]4)c(-c4c(F)c(F)c(F)c(F)c4F)c4nc(c(-c5c(F)c(F)c(F)c(F)c5F)c5ccc2[nH]5)C=C4)C=C3)cc1)c1ccc2noc(-c3ccccc3)c2c1
REMARK SMILES IDX 18 1 17 2 16 3 15 4 14 5 12 6 13 7 4 8 3 9 1 10 2 11 89 13
REMARK SMILES IDX 90 14 103 15 91 16 102 17 92 18 95 19 93 20 94 21 96 22
REMARK SMILES IDX 97 23 101 24 98 25 100 26 99 27 5 28 6 29 7 30 11 31 8 32
REMARK SMILES IDX 10 33 9 34 19 35 20 36 21 37 22 38 23 39 24 40 25 41 26 42
REMARK SMILES IDX 27 43 88 44 28 45 87 46 29 47 30 48 31 49 81 50 32 51 86 52
REMARK SMILES IDX 80 53 82 54 33 55 85 56 79 57 78 58 34 60 66 61 46 62 65 63
REMARK SMILES IDX 47 64 50 65 64 66 83 67 48 68 49 69 63 71 84 72 51 73 35 74
REMARK SMILES IDX 36 75 44 76 37 77 38 78 42 79 45 80 39 81 40 82 43 83 41 84
REMARK SMILES IDX 67 85 68 86 76 87 69 88 70 89 74 90 77 91 71 92 72 93 75 94
REMARK SMILES IDX 73 95 52 96 53 97 61 98 54 99 55 100 59 101 62 102 56 103
REMARK SMILES IDX 57 104 60 105 58 106
REMARK H PARENT 3 12 82 59 50 70
REMARK Flexibility Score: inf
ROOT
ATOM      1  C   UNL A   1      34.400  32.275  28.434  1.00  0.00     0.188 C 
ENDROOT
BRANCH   1   2
ATOM      2  O   UNL A   1      34.289  31.367  27.346  1.00  0.00    -0.376 OA
BRANCH   2   3
ATOM      3  C   UNL A   1      34.526  29.986  27.591  1.00  0.00     0.202 C 
BRANCH   3   4
ATOM      4  C   UNL A   1      34.091  28.965  26.528  1.00  0.00     0.261 C 
BRANCH   4   5
ATOM      5  O   UNL A   1      33.303  29.486  25.434  1.00  0.00    -0.462 OA
BRANCH   5   6
ATOM      6  C   UNL A   1      33.373  28.829  24.243  1.00  0.00     0.329 C 
ATOM      7  O   UNL A   1      34.367  28.232  23.843  1.00  0.00    -0.250 OA
BRANCH   6   8
ATOM      8  C   UNL A   1      32.124  29.024  23.353  1.00  0.00     0.197 C 
BRANCH   8   9
ATOM      9  N   UNL A   1      31.873  27.996  22.336  1.00  0.00    -0.338 N 
ATOM     10  O   UNL A   1      31.446  25.996  21.414  1.00  0.00    -0.269 OA
ATOM     11  C   UNL A   1      31.599  26.657  22.440  1.00  0.00     0.252 C 
ATOM     12  H   UNL A   1      31.907  28.329  21.410  1.00  0.00     0.164 HD
BRANCH  11  13
ATOM     13  C   UNL A   1      31.497  25.948  23.744  1.00  0.00     0.040 A 
ATOM     14  C   UNL A   1      30.379  26.093  24.632  1.00  0.00     0.016 A 
ATOM     15  C   UNL A   1      32.558  25.060  24.004  1.00  0.00     0.028 A 
ATOM     16  C   UNL A   1      30.262  25.413  25.878  1.00  0.00     0.033 A 
ATOM     17  C   UNL A   1      32.423  24.437  25.238  1.00  0.00     0.050 A 
ATOM     18  C   UNL A   1      31.346  24.562  26.171  1.00  0.00     0.114 A 
ATOM     19  C   UNL A   1      33.366  23.649  25.833  1.00  0.00     0.174 A 
ATOM     20  N   UNL A   1      31.604  23.783  27.238  1.00  0.00    -0.079 NA
ATOM     21  O   UNL A   1      32.867  23.220  27.026  1.00  0.00    -0.355 OA
BRANCH  19  22
ATOM     22  C   UNL A   1      34.739  23.336  25.490  1.00  0.00     0.021 A 
ATOM     23  C   UNL A   1      35.810  24.146  25.867  1.00  0.00     0.012 A 
ATOM     24  C   UNL A   1      34.996  22.091  24.889  1.00  0.00     0.012 A 
ATOM     25  C   UNL A   1      37.120  23.682  25.702  1.00  0.00     0.001 A 
ATOM     26  C   UNL A   1      36.298  21.628  24.733  1.00  0.00     0.001 A 
ATOM     27  C   UNL A   1      37.361  22.419  25.154  1.00  0.00     0.000 A 
ENDBRANCH  19  22
ENDBRANCH  11  13
ENDBRANCH   8   9
BRANCH   8  28
ATOM     28  C   UNL A   1      30.883  29.237  24.248  1.00  0.00     0.072 C 
BRANCH  28  29
ATOM     29  C   UNL A   1      29.702  29.954  23.622  1.00  0.00    -0.045 A 
ATOM     30  C   UNL A   1      29.443  31.295  23.941  1.00  0.00     0.004 A 
ATOM     31  C   UNL A   1      28.810  29.298  22.763  1.00  0.00     0.004 A 
ATOM     32  C   UNL A   1      28.352  31.964  23.378  1.00  0.00     0.000 A 
ATOM     33  C   UNL A   1      27.750  29.979  22.162  1.00  0.00     0.000 A 
ATOM     34  C   UNL A   1      27.520  31.313  22.471  1.00  0.00     0.000 A 
ENDBRANCH  28  29
ENDBRANCH   8  28
ENDBRANCH   6   8
ENDBRANCH   5   6
ENDBRANCH   4   5
ENDBRANCH   3   4
ENDBRANCH   2   3
ENDBRANCH   1   2
BRANCH   1  35
ATOM     35  C   UNL A   1      34.300  33.791  28.164  1.00  0.00     0.188 C 
BRANCH  35  36
ATOM     36  O   UNL A   1      33.392  34.468  28.998  1.00  0.00    -0.376 OA
BRANCH  36  37
ATOM     37  C   UNL A   1      33.262  35.866  28.839  1.00  0.00     0.202 C 
BRANCH  37  38
ATOM     38  C   UNL A   1      33.029  36.780  30.058  1.00  0.00     0.261 C 
BRANCH  38  39
ATOM     39  O   UNL A   1      32.136  36.306  31.079  1.00  0.00    -0.460 OA
BRANCH  39  40
ATOM     40  C   UNL A   1      32.568  36.363  32.365  1.00  0.00     0.338 C 
ATOM     41  O   UNL A   1      32.066  36.968  33.284  1.00  0.00    -0.246 OA
BRANCH  40  42
ATOM     42  C   UNL A   1      33.665  35.373  32.504  1.00  0.00     0.060 A 
ATOM     43  C   UNL A   1      33.360  34.052  32.869  1.00  0.00     0.016 A 
ATOM     44  C   UNL A   1      34.986  35.745  32.247  1.00  0.00     0.016 A 
ATOM     45  C   UNL A   1      34.380  33.101  32.978  1.00  0.00     0.010 A 
ATOM     46  C   UNL A   1      36.005  34.801  32.391  1.00  0.00     0.010 A 
ATOM     47  C   UNL A   1      35.711  33.477  32.772  1.00  0.00    -0.014 A 
BRANCH  47  48
ATOM     48  C   UNL A   1      36.826  32.590  33.187  1.00  0.00     0.031 A 
ATOM     49  C   UNL A   1      37.469  32.868  34.515  1.00  0.00     0.074 A 
ATOM     50  C   UNL A   1      37.290  31.595  32.410  1.00  0.00     0.049 A 
ATOM     51  N   UNL A   1      38.593  32.422  35.010  1.00  0.00    -0.248 NA
ATOM     52  C   UNL A   1      36.742  33.792  35.401  1.00  0.00     0.031 C 
ATOM     53  C   UNL A   1      36.699  31.154  31.150  1.00  0.00     0.029 A 
ATOM     54  N   UNL A   1      38.396  30.792  32.565  1.00  0.00    -0.354 N 
ATOM     55  C   UNL A   1      38.722  33.033  36.250  1.00  0.00     0.074 A 
ATOM     56  C   UNL A   1      37.567  33.884  36.431  1.00  0.00     0.031 C 
ATOM     57  C   UNL A   1      37.466  30.178  30.629  1.00  0.00     0.029 A 
ATOM     58  C   UNL A   1      38.635  29.974  31.486  1.00  0.00     0.049 A 
ATOM     59  H   UNL A   1      38.962  30.803  33.369  1.00  0.00     0.167 HD
ATOM     60  C   UNL A   1      39.722  32.903  37.152  1.00  0.00     0.037 A 
ATOM     61  C   UNL A   1      39.702  29.197  31.205  1.00  0.00     0.037 A 
ATOM     62  C   UNL A   1      40.870  32.060  36.962  1.00  0.00     0.049 A 
ATOM     63  C   UNL A   1      40.865  29.155  32.171  1.00  0.00     0.074 A 
ATOM     64  C   UNL A   1      41.950  31.870  37.805  1.00  0.00     0.029 A 
ATOM     65  N   UNL A   1      41.089  31.270  35.843  1.00  0.00    -0.354 N 
ATOM     66  N   UNL A   1      41.006  29.759  33.327  1.00  0.00    -0.248 NA
ATOM     67  C   UNL A   1      42.027  28.338  31.786  1.00  0.00     0.031 C 
ATOM     68  C   UNL A   1      42.852  31.015  37.169  1.00  0.00     0.029 A 
ATOM     69  C   UNL A   1      42.300  30.612  35.964  1.00  0.00     0.049 A 
ATOM     70  H   UNL A   1      40.475  31.191  35.078  1.00  0.00     0.167 HD
ATOM     71  C   UNL A   1      42.241  29.358  33.824  1.00  0.00     0.074 A 
ATOM     72  C   UNL A   1      42.817  28.464  32.843  1.00  0.00     0.031 C 
ATOM     73  C   UNL A   1      42.842  29.695  34.992  1.00  0.00     0.037 A 
BRANCH  60  74
ATOM     74  C   UNL A   1      39.646  33.741  38.394  1.00  0.00     0.064 A 
ATOM     75  C   UNL A   1      40.300  34.977  38.499  1.00  0.00     0.173 A 
ATOM     76  C   UNL A   1      38.891  33.301  39.492  1.00  0.00     0.173 A 
ATOM     77  F   UNL A   1      41.050  35.433  37.485  1.00  0.00    -0.203 F 
ATOM     78  C   UNL A   1      40.226  35.728  39.669  1.00  0.00     0.198 A 
ATOM     79  C   UNL A   1      38.790  34.071  40.648  1.00  0.00     0.198 A 
ATOM     80  F   UNL A   1      38.246  32.126  39.444  1.00  0.00    -0.203 F 
ATOM     81  F   UNL A   1      40.906  36.878  39.769  1.00  0.00    -0.200 F 
ATOM     82  C   UNL A   1      39.465  35.278  40.739  1.00  0.00     0.200 A 
ATOM     83  F   UNL A   1      38.044  33.641  41.673  1.00  0.00    -0.200 F 
ATOM     84  F   UNL A   1      39.389  36.005  41.862  1.00  0.00    -0.200 F 
ENDBRANCH  60  74
BRANCH  61  85
ATOM     85  C   UNL A   1      39.761  28.429  29.929  1.00  0.00     0.064 A 
ATOM     86  C   UNL A   1      39.240  27.129  29.841  1.00  0.00     0.173 A 
ATOM     87  C   UNL A   1      40.378  28.957  28.785  1.00  0.00     0.173 A 
ATOM     88  F   UNL A   1      38.669  26.563  30.915  1.00  0.00    -0.203 F 
ATOM     89  C   UNL A   1      39.356  26.382  28.670  1.00  0.00     0.198 A 
ATOM     90  C   UNL A   1      40.464  28.222  27.604  1.00  0.00     0.198 A 
ATOM     91  F   UNL A   1      40.905  30.190  28.813  1.00  0.00    -0.203 F 
ATOM     92  F   UNL A   1      38.903  25.121  28.635  1.00  0.00    -0.200 F 
ATOM     93  C   UNL A   1      39.961  26.931  27.550  1.00  0.00     0.200 A 
ATOM     94  F   UNL A   1      41.043  28.760  26.522  1.00  0.00    -0.200 F 
ATOM     95  F   UNL A   1      40.074  26.212  26.425  1.00  0.00    -0.200 F 
ENDBRANCH  61  85
BRANCH  73  96
ATOM     96  C   UNL A   1      44.153  29.045  35.332  1.00  0.00     0.064 A 
ATOM     97  C   UNL A   1      44.224  27.822  36.012  1.00  0.00     0.173 A 
ATOM     98  C   UNL A   1      45.353  29.609  34.868  1.00  0.00     0.173 A 
ATOM     99  F   UNL A   1      43.109  27.247  36.486  1.00  0.00    -0.203 F 
ATOM    100  C   UNL A   1      45.448  27.189  36.218  1.00  0.00     0.198 A 
ATOM    101  C   UNL A   1      46.570  28.958  35.048  1.00  0.00     0.198 A 
ATOM    102  F   UNL A   1      45.339  30.775  34.203  1.00  0.00    -0.203 F 
ATOM    103  F   UNL A   1      45.497  26.031  36.892  1.00  0.00    -0.200 F 
ATOM    104  C   UNL A   1      46.617  27.750  35.724  1.00  0.00     0.200 A 
ATOM    105  F   UNL A   1      47.694  29.493  34.551  1.00  0.00    -0.200 F 
ATOM    106  F   UNL A   1      47.789  27.125  35.899  1.00  0.00    -0.200 F 
ENDBRANCH  73  96
ENDBRANCH  47  48
ENDBRANCH  40  42
ENDBRANCH  39  40
ENDBRANCH  38  39
ENDBRANCH  37  38
ENDBRANCH  36  37
ENDBRANCH  35  36
ENDBRANCH   1  35
TORSDOF 22
ENDMDL
MODEL 2
REMARK VINA RESULT:     -12.4      0.818      2.058
REMARK SMILES O=C(N[C@@H](Cc1ccccc1)C(=O)OCCOCCOCCOC(=O)c1ccc(-c2c3nc(c(-c4c(F)c(F)c(F)c(F)c4F)c4ccc([nH]4)c(-c4c(F)c(F)c(F)c(F)c4F)c4nc(c(-c5c(F)c(F)c(F)c(F)c5F)c5ccc2[nH]5)C=C4)C=C3)cc1)c1ccc2noc(-c3ccccc3)c2c1
REMARK SMILES IDX 18 1 17 2 16 3 15 4 14 5 12 6 13 7 4 8 3 9 1 10 2 11 89 13
REMARK SMILES IDX 90 14 103 15 91 16 102 17 92 18 95 19 93 20 94 21 96 22
REMARK SMILES IDX 97 23 101 24 98 25 100 26 99 27 5 28 6 29 7 30 11 31 8 32
REMARK SMILES IDX 10 33 9 34 19 35 20 36 21 37 22 38 23 39 24 40 25 41 26 42
REMARK SMILES IDX 27 43 88 44 28 45 87 46 29 47 30 48 31 49 81 50 32 51 86 52
REMARK SMILES IDX 80 53 82 54 33 55 85 56 79 57 78 58 34 60 66 61 46 62 65 63
REMARK SMILES IDX 47 64 50 65 64 66 83 67 48 68 49 69 63 71 84 72 51 73 35 74
REMARK SMILES IDX 36 75 44 76 37 77 38 78 42 79 45 80 39 81 40 82 43 83 41 84
REMARK SMILES IDX 67 85 68 86 76 87 69 88 70 89 74 90 77 91 71 92 72 93 75 94
REMARK SMILES IDX 73 95 52 96 53 97 61 98 54 99 55 100 59 101 62 102 56 103
REMARK SMILES IDX 57 104 60 105 58 106
REMARK H PARENT 3 12 82 59 50 70
REMARK Flexibility Score: inf
ROOT
ATOM      1  C   UNL A   1      34.334  31.906  28.334  1.00  0.00     0.188 C 
ENDROOT
BRANCH   1   2
ATOM      2  O   UNL A   1      34.576  31.028  27.243  1.00  0.00    -0.376 OA
BRANCH   2   3
ATOM      3  C   UNL A   1      34.287  29.645  27.410  1.00  0.00     0.202 C 
BRANCH   3   4
ATOM      4  C   UNL A   1      33.088  29.049  26.656  1.00  0.00     0.261 C 
BRANCH   4   5
ATOM      5  O   UNL A   1      33.054  29.287  25.231  1.00  0.00    -0.462 OA
BRANCH   5   6
ATOM      6  C   UNL A   1      33.182  28.206  24.412  1.00  0.00     0.329 C 
ATOM      7  O   UNL A   1      34.037  27.337  24.546  1.00  0.00    -0.250 OA
BRANCH   6   8
ATOM      8  C   UNL A   1      32.237  28.239  23.190  1.00  0.00     0.197 C 
BRANCH   8   9
ATOM      9  N   UNL A   1      32.703  27.556  21.977  1.00  0.00    -0.338 N 
ATOM     10  O   UNL A   1      33.277  25.905  20.571  1.00  0.00    -0.269 OA
ATOM     11  C   UNL A   1      32.834  26.225  21.672  1.00  0.00     0.252 C 
ATOM     12  H   UNL A   1      32.970  28.164  21.250  1.00  0.00     0.164 HD
BRANCH  11  13
ATOM     13  C   UNL A   1      32.485  25.137  22.624  1.00  0.00     0.040 A 
ATOM     14  C   UNL A   1      31.133  24.784  22.952  1.00  0.00     0.016 A 
ATOM     15  C   UNL A   1      33.593  24.426  23.122  1.00  0.00     0.028 A 
ATOM     16  C   UNL A   1      30.782  23.737  23.853  1.00  0.00     0.033 A 
ATOM     17  C   UNL A   1      33.214  23.433  24.015  1.00  0.00     0.050 A 
ATOM     18  C   UNL A   1      31.888  23.055  24.397  1.00  0.00     0.114 A 
ATOM     19  C   UNL A   1      34.067  22.688  24.778  1.00  0.00     0.174 A 
ATOM     20  N   UNL A   1      31.963  22.043  25.281  1.00  0.00    -0.079 NA
ATOM     21  O   UNL A   1      33.323  21.820  25.519  1.00  0.00    -0.355 OA
BRANCH  19  22
ATOM     22  C   UNL A   1      35.497  22.760  25.002  1.00  0.00     0.021 A 
ATOM     23  C   UNL A   1      36.094  23.805  25.706  1.00  0.00     0.012 A 
ATOM     24  C   UNL A   1      36.276  21.652  24.623  1.00  0.00     0.012 A 
ATOM     25  C   UNL A   1      37.439  23.708  26.080  1.00  0.00     0.001 A 
ATOM     26  C   UNL A   1      37.610  21.553  25.002  1.00  0.00     0.001 A 
ATOM     27  C   UNL A   1      38.188  22.577  25.745  1.00  0.00     0.000 A 
ENDBRANCH  19  22
ENDBRANCH  11  13
ENDBRANCH   8   9
BRANCH   8  28
ATOM     28  C   UNL A   1      30.837  27.739  23.607  1.00  0.00     0.072 C 
BRANCH  28  29
ATOM     29  C   UNL A   1      29.688  28.720  23.468  1.00  0.00    -0.045 A 
ATOM     30  C   UNL A   1      28.407  28.261  23.131  1.00  0.00     0.004 A 
ATOM     31  C   UNL A   1      29.875  30.102  23.612  1.00  0.00     0.004 A 
ATOM     32  C   UNL A   1      27.343  29.156  22.990  1.00  0.00     0.000 A 
ATOM     33  C   UNL A   1      28.803  30.991  23.521  1.00  0.00     0.000 A 
ATOM     34  C   UNL A   1      27.535  30.517  23.208  1.00  0.00     0.000 A 
ENDBRANCH  28  29
ENDBRANCH   8  28
ENDBRANCH   6   8
ENDBRANCH   5   6
ENDBRANCH   4   5
ENDBRANCH   3   4
ENDBRANCH   2   3
ENDBRANCH   1   2
BRANCH   1  35
ATOM     35  C   UNL A   1      34.162  33.415  28.064  1.00  0.00     0.188 C 
BRANCH  35  36
ATOM     36  O   UNL A   1      33.452  34.104  29.064  1.00  0.00    -0.376 OA
BRANCH  36  37
ATOM     37  C   UNL A   1      33.066  35.438  28.803  1.00  0.00     0.202 C 
BRANCH  37  38
ATOM     38  C   UNL A   1      32.965  36.467  29.947  1.00  0.00     0.261 C 
BRANCH  38  39
ATOM     39  O   UNL A   1      32.052  36.179  31.018  1.00  0.00    -0.460 OA
BRANCH  39  40
ATOM     40  C   UNL A   1      32.512  36.315  32.287  1.00  0.00     0.338 C 
ATOM     41  O   UNL A   1      32.028  36.973  33.180  1.00  0.00    -0.246 OA
BRANCH  40  42
ATOM     42  C   UNL A   1      33.618  35.340  32.461  1.00  0.00     0.060 A 
ATOM     43  C   UNL A   1      33.326  34.036  32.893  1.00  0.00     0.016 A 
ATOM     44  C   UNL A   1      34.933  35.707  32.172  1.00  0.00     0.016 A 
ATOM     45  C   UNL A   1      34.353  33.098  33.036  1.00  0.00     0.010 A 
ATOM     46  C   UNL A   1      35.961  34.777  32.349  1.00  0.00     0.010 A 
ATOM     47  C   UNL A   1      35.680  33.472  32.796  1.00  0.00    -0.014 A 
BRANCH  47  48
ATOM     48  C   UNL A   1      36.804  32.612  33.241  1.00  0.00     0.031 A 
ATOM     49  C   UNL A   1      37.415  32.915  34.579  1.00  0.00     0.074 A 
ATOM     50  C   UNL A   1      37.306  31.622  32.481  1.00  0.00     0.049 A 
ATOM     51  N   UNL A   1      38.539  32.498  35.100  1.00  0.00    -0.248 NA
ATOM     52  C   UNL A   1      36.651  33.829  35.443  1.00  0.00     0.031 C 
ATOM     53  C   UNL A   1      36.750  31.158  31.214  1.00  0.00     0.029 A 
ATOM     54  N   UNL A   1      38.426  30.845  32.664  1.00  0.00    -0.354 N 
ATOM     55  C   UNL A   1      38.630  33.121  36.337  1.00  0.00     0.074 A 
ATOM     56  C   UNL A   1      37.453  33.948  36.488  1.00  0.00     0.031 C 
ATOM     57  C   UNL A   1      37.548  30.195  30.716  1.00  0.00     0.029 A 
ATOM     58  C   UNL A   1      38.703  30.023  31.598  1.00  0.00     0.049 A 
ATOM     59  H   UNL A   1      38.975  30.874  33.480  1.00  0.00     0.167 HD
ATOM     60  C   UNL A   1      39.614  33.020  37.260  1.00  0.00     0.037 A 
ATOM     61  C   UNL A   1      39.792  29.268  31.344  1.00  0.00     0.037 A 
ATOM     62  C   UNL A   1      40.783  32.200  37.099  1.00  0.00     0.049 A 
ATOM     63  C   UNL A   1      40.937  29.259  32.333  1.00  0.00     0.074 A 
ATOM     64  C   UNL A   1      41.850  32.041  37.965  1.00  0.00     0.029 A 
ATOM     65  N   UNL A   1      41.042  31.407  35.991  1.00  0.00    -0.354 N 
ATOM     66  N   UNL A   1      41.041  29.875  33.487  1.00  0.00    -0.248 NA
ATOM     67  C   UNL A   1      42.124  28.465  31.978  1.00  0.00     0.031 C 
ATOM     68  C   UNL A   1      42.783  31.202  37.354  1.00  0.00     0.029 A 
ATOM     69  C   UNL A   1      42.264  30.776  36.141  1.00  0.00     0.049 A 
ATOM     70  H   UNL A   1      40.445  31.308  35.215  1.00  0.00     0.167 HD
ATOM     71  C   UNL A   1      42.275  29.505  34.011  1.00  0.00     0.074 A 
ATOM     72  C   UNL A   1      42.889  28.616  33.050  1.00  0.00     0.031 C 
ATOM     73  C   UNL A   1      42.845  29.865  35.188  1.00  0.00     0.037 A 
BRANCH  60  74
ATOM     74  C   UNL A   1      39.494  33.866  38.493  1.00  0.00     0.064 A 
ATOM     75  C   UNL A   1      38.827  33.415  39.641  1.00  0.00     0.173 A 
ATOM     76  C   UNL A   1      40.070  35.144  38.526  1.00  0.00     0.173 A 
ATOM     77  F   UNL A   1      38.243  32.208  39.654  1.00  0.00    -0.203 F 
ATOM     78  C   UNL A   1      38.716  34.226  40.768  1.00  0.00     0.198 A 
ATOM     79  C   UNL A   1      39.988  35.939  39.666  1.00  0.00     0.198 A 
ATOM     80  F   UNL A   1      40.719  35.624  37.454  1.00  0.00    -0.203 F 
ATOM     81  F   UNL A   1      38.025  33.799  41.833  1.00  0.00    -0.200 F 
ATOM     82  C   UNL A   1      39.303  35.483  40.782  1.00  0.00     0.200 A 
ATOM     83  F   UNL A   1      40.567  37.146  39.682  1.00  0.00    -0.200 F 
ATOM     84  F   UNL A   1      39.200  36.260  41.869  1.00  0.00    -0.200 F 
ENDBRANCH  60  74
BRANCH  61  85
ATOM     85  C   UNL A   1      39.894  28.492  30.076  1.00  0.00     0.064 A 
ATOM     86  C   UNL A   1      40.506  29.039  28.938  1.00  0.00     0.173 A 
ATOM     87  C   UNL A   1      39.341  27.207  29.958  1.00  0.00     0.173 A 
ATOM     88  F   UNL A   1      41.020  30.277  28.986  1.00  0.00    -0.203 F 
ATOM     89  C   UNL A   1      40.541  28.343  27.730  1.00  0.00     0.198 A 
ATOM     90  C   UNL A   1      39.406  26.499  28.759  1.00  0.00     0.198 A 
ATOM     91  F   UNL A   1      38.733  26.638  31.008  1.00  0.00    -0.203 F 
ATOM     92  F   UNL A   1      41.078  28.916  26.645  1.00  0.00    -0.200 F 
ATOM     93  C   UNL A   1      39.997  27.071  27.643  1.00  0.00     0.200 A 
ATOM     94  F   UNL A   1      38.886  25.266  28.683  1.00  0.00    -0.200 F 
ATOM     95  F   UNL A   1      40.029  26.403  26.482  1.00  0.00    -0.200 F 
ENDBRANCH  61  85
BRANCH  73  96
ATOM     96  C   UNL A   1      44.163  29.246  35.559  1.00  0.00     0.064 A 
ATOM     97  C   UNL A   1      45.386  29.857  35.251  1.00  0.00     0.173 A 
ATOM     98  C   UNL A   1      44.191  28.074  36.334  1.00  0.00     0.173 A 
ATOM     99  F   UNL A   1      45.415  30.971  34.504  1.00  0.00    -0.203 F 
ATOM    100  C   UNL A   1      46.589  29.316  35.700  1.00  0.00     0.198 A 
ATOM    101  C   UNL A   1      45.392  27.555  36.808  1.00  0.00     0.198 A 
ATOM    102  F   UNL A   1      43.048  27.455  36.665  1.00  0.00    -0.203 F 
ATOM    103  F   UNL A   1      47.749  29.902  35.374  1.00  0.00    -0.200 F 
ATOM    104  C   UNL A   1      46.590  28.175  36.489  1.00  0.00     0.200 A 
ATOM    105  F   UNL A   1      45.387  26.465  37.588  1.00  0.00    -0.200 F 
ATOM    106  F   UNL A   1      47.746  27.674  36.945  1.00  0.00    -0.200 F 
ENDBRANCH  73  96
ENDBRANCH  47  48
ENDBRANCH  40  42
ENDBRANCH  39  40
ENDBRANCH  38  39
ENDBRANCH  37  38
ENDBRANCH  36  37
ENDBRANCH  35  36
ENDBRANCH   1  35
TORSDOF 22
ENDMDL
MODEL 3
REMARK VINA RESULT:     -12.3      6.487     12.447
REMARK SMILES O=C(N[C@@H](Cc1ccccc1)C(=O)OCCOCCOCCOC(=O)c1ccc(-c2c3nc(c(-c4c(F)c(F)c(F)c(F)c4F)c4ccc([nH]4)c(-c4c(F)c(F)c(F)c(F)c4F)c4nc(c(-c5c(F)c(F)c(F)c(F)c5F)c5ccc2[nH]5)C=C4)C=C3)cc1)c1ccc2noc(-c3ccccc3)c2c1
REMARK SMILES IDX 18 1 17 2 16 3 15 4 14 5 12 6 13 7 4 8 3 9 1 10 2 11 89 13
REMARK SMILES IDX 90 14 103 15 91 16 102 17 92 18 95 19 93 20 94 21 96 22
REMARK SMILES IDX 97 23 101 24 98 25 100 26 99 27 5 28 6 29 7 30 11 31 8 32
REMARK SMILES IDX 10 33 9 34 19 35 20 36 21 37 22 38 23 39 24 40 25 41 26 42
REMARK SMILES IDX 27 43 88 44 28 45 87 46 29 47 30 48 31 49 81 50 32 51 86 52
REMARK SMILES IDX 80 53 82 54 33 55 85 56 79 57 78 58 34 60 66 61 46 62 65 63
REMARK SMILES IDX 47 64 50 65 64 66 83 67 48 68 49 69 63 71 84 72 51 73 35 74
REMARK SMILES IDX 36 75 44 76 37 77 38 78 42 79 45 80 39 81 40 82 43 83 41 84
REMARK SMILES IDX 67 85 68 86 76 87 69 88 70 89 74 90 77 91 71 92 72 93 75 94
REMARK SMILES IDX 73 95 52 96 53 97 61 98 54 99 55 100 59 101 62 102 56 103
REMARK SMILES IDX 57 104 60 105 58 106
REMARK H PARENT 3 12 82 59 50 70
REMARK Flexibility Score: inf
ROOT
ATOM      1  C   UNL A   1      39.299  21.979  26.338  1.00  0.00     0.188 C 
ENDROOT
BRANCH   1   2
ATOM      2  O   UNL A   1      38.163  22.825  26.461  1.00  0.00    -0.376 OA
BRANCH   2   3
ATOM      3  C   UNL A   1      37.711  23.522  25.307  1.00  0.00     0.202 C 
BRANCH   3   4
ATOM      4  C   UNL A   1      36.250  23.343  24.865  1.00  0.00     0.261 C 
BRANCH   4   5
ATOM      5  O   UNL A   1      35.648  22.066  25.173  1.00  0.00    -0.462 OA
BRANCH   5   6
ATOM      6  C   UNL A   1      34.731  22.032  26.181  1.00  0.00     0.329 C 
ATOM      7  O   UNL A   1      34.770  22.752  27.173  1.00  0.00    -0.250 OA
BRANCH   6   8
ATOM      8  C   UNL A   1      33.698  20.891  26.040  1.00  0.00     0.197 C 
BRANCH   8   9
ATOM      9  N   UNL A   1      32.282  21.270  26.114  1.00  0.00    -0.338 N 
ATOM     10  O   UNL A   1      30.359  22.346  25.694  1.00  0.00    -0.269 OA
ATOM     11  C   UNL A   1      31.551  22.204  25.426  1.00  0.00     0.252 C 
ATOM     12  H   UNL A   1      31.763  20.761  26.778  1.00  0.00     0.164 HD
BRANCH  11  13
ATOM     13  C   UNL A   1      32.135  23.079  24.376  1.00  0.00     0.040 A 
ATOM     14  C   UNL A   1      32.607  22.585  23.114  1.00  0.00     0.016 A 
ATOM     15  C   UNL A   1      32.120  24.451  24.691  1.00  0.00     0.028 A 
ATOM     16  C   UNL A   1      33.159  23.412  22.093  1.00  0.00     0.033 A 
ATOM     17  C   UNL A   1      32.690  25.222  23.686  1.00  0.00     0.050 A 
ATOM     18  C   UNL A   1      33.196  24.781  22.423  1.00  0.00     0.114 A 
ATOM     19  C   UNL A   1      32.960  26.558  23.770  1.00  0.00     0.174 A 
ATOM     20  N   UNL A   1      33.653  25.849  21.743  1.00  0.00    -0.079 NA
ATOM     21  O   UNL A   1      33.509  26.953  22.588  1.00  0.00    -0.355 OA
BRANCH  19  22
ATOM     22  C   UNL A   1      32.886  27.504  24.865  1.00  0.00     0.021 A 
ATOM     23  C   UNL A   1      31.700  28.146  25.223  1.00  0.00     0.012 A 
ATOM     24  C   UNL A   1      34.022  27.654  25.680  1.00  0.00     0.012 A 
ATOM     25  C   UNL A   1      31.640  28.873  26.418  1.00  0.00     0.001 A 
ATOM     26  C   UNL A   1      33.959  28.369  26.871  1.00  0.00     0.001 A 
ATOM     27  C   UNL A   1      32.762  28.967  27.247  1.00  0.00     0.000 A 
ENDBRANCH  19  22
ENDBRANCH  11  13
ENDBRANCH   8   9
BRANCH   8  28
ATOM     28  C   UNL A   1      33.992  20.085  24.756  1.00  0.00     0.072 C 
BRANCH  28  29
ATOM     29  C   UNL A   1      33.701  18.596  24.799  1.00  0.00    -0.045 A 
ATOM     30  C   UNL A   1      34.297  17.736  23.866  1.00  0.00     0.004 A 
ATOM     31  C   UNL A   1      32.799  18.046  25.719  1.00  0.00     0.004 A 
ATOM     32  C   UNL A   1      34.029  16.364  23.889  1.00  0.00     0.000 A 
ATOM     33  C   UNL A   1      32.569  16.670  25.775  1.00  0.00     0.000 A 
ATOM     34  C   UNL A   1      33.184  15.828  24.857  1.00  0.00     0.000 A 
ENDBRANCH  28  29
ENDBRANCH   8  28
ENDBRANCH   6   8
ENDBRANCH   5   6
ENDBRANCH   4   5
ENDBRANCH   3   4
ENDBRANCH   2   3
ENDBRANCH   1   2
BRANCH   1  35
ATOM     35  C   UNL A   1      40.523  22.223  27.245  1.00  0.00     0.188 C 
BRANCH  35  36
ATOM     36  O   UNL A   1      41.556  21.281  27.088  1.00  0.00    -0.376 OA
BRANCH  36  37
ATOM     37  C   UNL A   1      41.204  19.970  26.696  1.00  0.00     0.202 C 
BRANCH  37  38
ATOM     38  C   UNL A   1      42.282  18.970  26.234  1.00  0.00     0.261 C 
BRANCH  38  39
ATOM     39  O   UNL A   1      42.826  19.146  24.916  1.00  0.00    -0.460 OA
BRANCH  39  40
ATOM     40  C   UNL A   1      44.173  19.271  24.807  1.00  0.00     0.338 C 
ATOM     41  O   UNL A   1      44.966  18.424  24.463  1.00  0.00    -0.246 OA
BRANCH  40  42
ATOM     42  C   UNL A   1      44.498  20.708  24.985  1.00  0.00     0.060 A 
ATOM     43  C   UNL A   1      45.201  21.121  26.127  1.00  0.00     0.016 A 
ATOM     44  C   UNL A   1      44.131  21.639  24.011  1.00  0.00     0.016 A 
ATOM     45  C   UNL A   1      45.538  22.468  26.296  1.00  0.00     0.010 A 
ATOM     46  C   UNL A   1      44.439  22.988  24.199  1.00  0.00     0.010 A 
ATOM     47  C   UNL A   1      45.130  23.414  25.350  1.00  0.00    -0.014 A 
BRANCH  47  48
ATOM     48  C   UNL A   1      45.188  24.865  25.653  1.00  0.00     0.031 A 
ATOM     49  C   UNL A   1      46.520  25.544  25.520  1.00  0.00     0.074 A 
ATOM     50  C   UNL A   1      44.116  25.562  26.073  1.00  0.00     0.049 A 
ATOM     51  N   UNL A   1      46.908  26.718  25.946  1.00  0.00    -0.248 NA
ATOM     52  C   UNL A   1      47.564  24.781  24.817  1.00  0.00     0.031 C 
ATOM     53  C   UNL A   1      42.750  25.055  26.150  1.00  0.00     0.029 A 
ATOM     54  N   UNL A   1      44.026  26.852  26.542  1.00  0.00    -0.354 N 
ATOM     55  C   UNL A   1      48.245  26.820  25.589  1.00  0.00     0.074 A 
ATOM     56  C   UNL A   1      48.605  25.591  24.917  1.00  0.00     0.031 C 
ATOM     57  C   UNL A   1      41.959  26.015  26.667  1.00  0.00     0.029 A 
ATOM     58  C   UNL A   1      42.778  27.177  27.016  1.00  0.00     0.049 A 
ATOM     59  H   UNL A   1      44.782  27.481  26.538  1.00  0.00     0.167 HD
ATOM     60  C   UNL A   1      49.100  27.845  25.812  1.00  0.00     0.037 A 
ATOM     61  C   UNL A   1      42.364  28.263  27.702  1.00  0.00     0.037 A 
ATOM     62  C   UNL A   1      48.735  29.061  26.486  1.00  0.00     0.049 A 
ATOM     63  C   UNL A   1      43.362  29.347  28.046  1.00  0.00     0.074 A 
ATOM     64  C   UNL A   1      49.530  30.154  26.780  1.00  0.00     0.029 A 
ATOM     65  N   UNL A   1      47.469  29.339  26.978  1.00  0.00    -0.354 N 
ATOM     66  N   UNL A   1      44.636  29.430  27.741  1.00  0.00    -0.248 NA
ATOM     67  C   UNL A   1      42.871  30.481  28.846  1.00  0.00     0.031 C 
ATOM     68  C   UNL A   1      48.761  31.066  27.506  1.00  0.00     0.029 A 
ATOM     69  C   UNL A   1      47.468  30.576  27.597  1.00  0.00     0.049 A 
ATOM     70  H   UNL A   1      46.689  28.744  26.899  1.00  0.00     0.167 HD
ATOM     71  C   UNL A   1      45.080  30.640  28.266  1.00  0.00     0.074 A 
ATOM     72  C   UNL A   1      43.945  31.256  28.916  1.00  0.00     0.031 C 
ATOM     73  C   UNL A   1      46.317  31.192  28.209  1.00  0.00     0.037 A 
BRANCH  60  74
ATOM     74  C   UNL A   1      50.524  27.664  25.379  1.00  0.00     0.064 A 
ATOM     75  C   UNL A   1      50.930  27.870  24.052  1.00  0.00     0.173 A 
ATOM     76  C   UNL A   1      51.501  27.291  26.314  1.00  0.00     0.173 A 
ATOM     77  F   UNL A   1      50.032  28.209  23.115  1.00  0.00    -0.203 F 
ATOM     78  C   UNL A   1      52.256  27.678  23.672  1.00  0.00     0.198 A 
ATOM     79  C   UNL A   1      52.832  27.135  25.938  1.00  0.00     0.198 A 
ATOM     80  F   UNL A   1      51.166  27.081  27.596  1.00  0.00    -0.203 F 
ATOM     81  F   UNL A   1      52.611  27.824  22.388  1.00  0.00    -0.200 F 
ATOM     82  C   UNL A   1      53.206  27.319  24.617  1.00  0.00     0.200 A 
ATOM     83  F   UNL A   1      53.751  26.802  26.855  1.00  0.00    -0.200 F 
ATOM     84  F   UNL A   1      54.483  27.143  24.250  1.00  0.00    -0.200 F 
ENDBRANCH  60  74
BRANCH  61  85
ATOM     85  C   UNL A   1      40.952  28.372  28.165  1.00  0.00     0.064 A 
ATOM     86  C   UNL A   1      39.963  28.938  27.347  1.00  0.00     0.173 A 
ATOM     87  C   UNL A   1      40.570  27.956  29.449  1.00  0.00     0.173 A 
ATOM     88  F   UNL A   1      40.282  29.384  26.123  1.00  0.00    -0.203 F 
ATOM     89  C   UNL A   1      38.656  29.105  27.804  1.00  0.00     0.198 A 
ATOM     90  C   UNL A   1      39.255  28.092  29.892  1.00  0.00     0.198 A 
ATOM     91  F   UNL A   1      41.475  27.417  30.280  1.00  0.00    -0.203 F 
ATOM     92  F   UNL A   1      37.748  29.705  27.022  1.00  0.00    -0.200 F 
ATOM     93  C   UNL A   1      38.301  28.676  29.073  1.00  0.00     0.200 A 
ATOM     94  F   UNL A   1      38.916  27.667  31.117  1.00  0.00    -0.200 F 
ATOM     95  F   UNL A   1      37.046  28.838  29.512  1.00  0.00    -0.200 F 
ENDBRANCH  61  85
BRANCH  73  96
ATOM     96  C   UNL A   1      46.511  32.565  28.788  1.00  0.00     0.064 A 
ATOM     97  C   UNL A   1      46.988  32.762  30.091  1.00  0.00     0.173 A 
ATOM     98  C   UNL A   1      46.318  33.697  27.980  1.00  0.00     0.173 A 
ATOM     99  F   UNL A   1      47.177  31.716  30.907  1.00  0.00    -0.203 F 
ATOM    100  C   UNL A   1      47.260  34.044  30.565  1.00  0.00     0.198 A 
ATOM    101  C   UNL A   1      46.622  34.973  28.446  1.00  0.00     0.198 A 
ATOM    102  F   UNL A   1      45.872  33.562  26.722  1.00  0.00    -0.203 F 
ATOM    103  F   UNL A   1      47.692  34.214  31.822  1.00  0.00    -0.200 F 
ATOM    104  C   UNL A   1      47.090  35.146  29.738  1.00  0.00     0.200 A 
ATOM    105  F   UNL A   1      46.477  36.032  27.637  1.00  0.00    -0.200 F 
ATOM    106  F   UNL A   1      47.381  36.374  30.187  1.00  0.00    -0.200 F 
ENDBRANCH  73  96
ENDBRANCH  47  48
ENDBRANCH  40  42
ENDBRANCH  39  40
ENDBRANCH  38  39
ENDBRANCH  37  38
ENDBRANCH  36  37
ENDBRANCH  35  36
ENDBRANCH   1  35
TORSDOF 22
ENDMDL
