MODEL 1
REMARK VINA RESULT:      -9.7      0.000      0.000
REMARK SMILES CCC[NH2+][C@@]1(C(=O)OCCOCCOCCOC(=O)c2ccc(-c3c4nc(c(-c5c(F)c(F)c(F)c(F)c5F)c5ccc([nH]5)c(-c5c(F)c(F)c(F)c(F)c5F)c5nc(c(-c6c(F)c(F)c(F)c(F)c6F)c6ccc3[nH]6)C=C5)C=C4)cc2)CC[C@H]([N@H+](C)CCC)C1
REMARK SMILES IDX 12 1 11 2 10 3 9 4 8 5 6 6 7 7 5 8 83 9 91 10 84 11 85 12
REMARK SMILES IDX 4 13 3 16 2 17 1 18 86 19 87 20 88 22 89 23 90 24 13 25
REMARK SMILES IDX 14 26 15 27 16 28 17 29 18 30 19 31 20 32 21 33 82 34 22 35
REMARK SMILES IDX 81 36 23 37 24 38 25 39 75 40 26 41 80 42 74 43 76 44 27 45
REMARK SMILES IDX 79 46 73 47 72 48 28 50 60 51 40 52 59 53 41 54 44 55 58 56
REMARK SMILES IDX 77 57 42 58 43 59 57 61 78 62 45 63 29 64 30 65 38 66 31 67
REMARK SMILES IDX 32 68 36 69 39 70 33 71 34 72 37 73 35 74 61 75 62 76 70 77
REMARK SMILES IDX 63 78 64 79 68 80 71 81 65 82 66 83 69 84 67 85 46 86 47 87
REMARK SMILES IDX 55 88 48 89 49 90 53 91 56 92 50 93 51 94 54 95 52 96
REMARK H PARENT 4 14 4 15 86 21 76 49 44 60
REMARK Flexibility Score: inf
ROOT
ATOM      1  C   UNL A   1      32.581  26.610  25.183  1.00  0.00     0.188 C 
ENDROOT
BRANCH   1   2
ATOM      2  O   UNL A   1      31.704  25.493  25.257  1.00  0.00    -0.376 OA
BRANCH   2   3
ATOM      3  C   UNL A   1      31.009  25.165  24.046  1.00  0.00     0.202 C 
BRANCH   3   4
ATOM      4  C   UNL A   1      31.053  23.681  23.664  1.00  0.00     0.261 C 
BRANCH   4   5
ATOM      5  O   UNL A   1      32.155  23.040  24.334  1.00  0.00    -0.459 OA
BRANCH   5   6
ATOM      6  C   UNL A   1      31.862  22.091  25.263  1.00  0.00     0.368 C 
ATOM      7  O   UNL A   1      30.943  22.192  26.069  1.00  0.00    -0.245 OA
BRANCH   6   8
ATOM      8  C   UNL A   1      32.849  20.874  25.198  1.00  0.00     0.200 C 
ATOM      9  C   UNL A   1      33.277  20.545  26.630  1.00  0.00     0.087 C 
ATOM     10  C   UNL A   1      34.211  21.199  24.547  1.00  0.00     0.146 C 
ATOM     11  C   UNL A   1      34.268  21.676  26.943  1.00  0.00     0.072 C 
ATOM     12  C   UNL A   1      35.091  21.861  25.640  1.00  0.00     0.191 C 
BRANCH   8  13
ATOM     13  N   UNL A   1      32.274  19.765  24.389  1.00  0.00    -0.332 N 
ATOM     14  H   UNL A   1      31.296  19.660  24.661  1.00  0.00     0.347 HD
ATOM     15  H   UNL A   1      32.417  20.040  23.417  1.00  0.00     0.347 HD
BRANCH  13  16
ATOM     16  C   UNL A   1      32.915  18.460  24.520  1.00  0.00     0.261 C 
BRANCH  16  17
ATOM     17  C   UNL A   1      33.132  17.831  23.135  1.00  0.00     0.058 C 
ATOM     18  C   UNL A   1      34.028  16.599  23.138  1.00  0.00     0.010 C 
ENDBRANCH  16  17
ENDBRANCH  13  16
ENDBRANCH   8  13
BRANCH  12  19
ATOM     19  N   UNL A   1      35.755  23.158  25.357  1.00  0.00    -0.335 N 
ATOM     20  C   UNL A   1      35.189  23.908  24.245  1.00  0.00     0.332 C 
ATOM     21  H   UNL A   1      35.531  23.718  26.180  1.00  0.00     0.348 HD
BRANCH  19  22
ATOM     22  C   UNL A   1      37.227  23.088  25.319  1.00  0.00     0.261 C 
BRANCH  22  23
ATOM     23  C   UNL A   1      38.044  24.078  26.158  1.00  0.00     0.058 C 
ATOM     24  C   UNL A   1      39.224  23.449  26.873  1.00  0.00     0.010 C 
ENDBRANCH  22  23
ENDBRANCH  19  22
ENDBRANCH  12  19
ENDBRANCH   6   8
ENDBRANCH   5   6
ENDBRANCH   4   5
ENDBRANCH   3   4
ENDBRANCH   2   3
ENDBRANCH   1   2
BRANCH   1  25
ATOM     25  C   UNL A   1      32.337  27.566  24.019  1.00  0.00     0.188 C 
BRANCH  25  26
ATOM     26  O   UNL A   1      32.568  28.945  24.298  1.00  0.00    -0.376 OA
BRANCH  26  27
ATOM     27  C   UNL A   1      31.444  29.594  24.907  1.00  0.00     0.202 C 
BRANCH  27  28
ATOM     28  C   UNL A   1      31.778  30.151  26.298  1.00  0.00     0.261 C 
BRANCH  28  29
ATOM     29  O   UNL A   1      33.188  30.401  26.406  1.00  0.00    -0.460 OA
BRANCH  29  30
ATOM     30  C   UNL A   1      33.536  31.481  27.156  1.00  0.00     0.338 C 
ATOM     31  O   UNL A   1      32.858  32.456  27.401  1.00  0.00    -0.246 OA
BRANCH  30  32
ATOM     32  C   UNL A   1      34.830  31.188  27.827  1.00  0.00     0.060 A 
ATOM     33  C   UNL A   1      35.087  29.863  28.213  1.00  0.00     0.016 A 
ATOM     34  C   UNL A   1      35.810  32.169  27.999  1.00  0.00     0.016 A 
ATOM     35  C   UNL A   1      36.310  29.522  28.795  1.00  0.00     0.010 A 
ATOM     36  C   UNL A   1      37.029  31.831  28.585  1.00  0.00     0.010 A 
ATOM     37  C   UNL A   1      37.272  30.514  29.014  1.00  0.00    -0.014 A 
BRANCH  37  38
ATOM     38  C   UNL A   1      38.435  30.261  29.894  1.00  0.00     0.031 A 
ATOM     39  C   UNL A   1      39.502  29.335  29.379  1.00  0.00     0.074 A 
ATOM     40  C   UNL A   1      38.525  30.789  31.126  1.00  0.00     0.049 A 
ATOM     41  N   UNL A   1      40.528  28.816  29.999  1.00  0.00    -0.248 NA
ATOM     42  C   UNL A   1      39.378  28.929  27.969  1.00  0.00     0.031 C 
ATOM     43  C   UNL A   1      37.579  31.731  31.719  1.00  0.00     0.029 A 
ATOM     44  N   UNL A   1      39.457  30.579  32.112  1.00  0.00    -0.354 N 
ATOM     45  C   UNL A   1      41.161  28.012  29.060  1.00  0.00     0.074 A 
ATOM     46  C   UNL A   1      40.389  28.086  27.840  1.00  0.00     0.031 C 
ATOM     47  C   UNL A   1      37.964  31.999  32.980  1.00  0.00     0.029 A 
ATOM     48  C   UNL A   1      39.160  31.216  33.293  1.00  0.00     0.049 A 
ATOM     49  H   UNL A   1      40.260  30.026  31.986  1.00  0.00     0.167 HD
ATOM     50  C   UNL A   1      42.292  27.283  29.202  1.00  0.00     0.037 A 
ATOM     51  C   UNL A   1      39.771  31.143  34.492  1.00  0.00     0.037 A 
ATOM     52  C   UNL A   1      43.053  27.210  30.418  1.00  0.00     0.049 A 
ATOM     53  C   UNL A   1      40.983  30.257  34.650  1.00  0.00     0.074 A 
ATOM     54  C   UNL A   1      44.218  26.507  30.667  1.00  0.00     0.029 A 
ATOM     55  N   UNL A   1      42.717  27.864  31.594  1.00  0.00    -0.354 N 
ATOM     56  N   UNL A   1      41.590  29.511  33.758  1.00  0.00    -0.248 NA
ATOM     57  C   UNL A   1      41.595  30.200  35.987  1.00  0.00     0.031 C 
ATOM     58  C   UNL A   1      44.561  26.698  32.009  1.00  0.00     0.029 A 
ATOM     59  C   UNL A   1      43.642  27.564  32.580  1.00  0.00     0.049 A 
ATOM     60  H   UNL A   1      41.937  28.454  31.710  1.00  0.00     0.167 HD
ATOM     61  C   UNL A   1      42.670  28.931  34.410  1.00  0.00     0.074 A 
ATOM     62  C   UNL A   1      42.640  29.412  35.776  1.00  0.00     0.031 C 
ATOM     63  C   UNL A   1      43.605  28.076  33.926  1.00  0.00     0.037 A 
BRANCH  50  64
ATOM     64  C   UNL A   1      42.752  26.489  28.016  1.00  0.00     0.064 A 
ATOM     65  C   UNL A   1      42.377  25.147  27.839  1.00  0.00     0.173 A 
ATOM     66  C   UNL A   1      43.566  27.077  27.038  1.00  0.00     0.173 A 
ATOM     67  F   UNL A   1      41.618  24.532  28.757  1.00  0.00    -0.203 F 
ATOM     68  C   UNL A   1      42.825  24.418  26.741  1.00  0.00     0.198 A 
ATOM     69  C   UNL A   1      43.985  26.355  25.924  1.00  0.00     0.198 A 
ATOM     70  F   UNL A   1      43.953  28.356  27.159  1.00  0.00    -0.203 F 
ATOM     71  F   UNL A   1      42.499  23.123  26.620  1.00  0.00    -0.200 F 
ATOM     72  C   UNL A   1      43.621  25.023  25.781  1.00  0.00     0.200 A 
ATOM     73  F   UNL A   1      44.747  26.944  24.993  1.00  0.00    -0.200 F 
ATOM     74  F   UNL A   1      44.047  24.322  24.721  1.00  0.00    -0.200 F 
ENDBRANCH  50  64
BRANCH  51  75
ATOM     75  C   UNL A   1      39.243  31.910  35.651  1.00  0.00     0.064 A 
ATOM     76  C   UNL A   1      39.665  33.224  35.900  1.00  0.00     0.173 A 
ATOM     77  C   UNL A   1      38.336  31.337  36.556  1.00  0.00     0.173 A 
ATOM     78  F   UNL A   1      40.553  33.806  35.081  1.00  0.00    -0.203 F 
ATOM     79  C   UNL A   1      39.219  33.926  37.017  1.00  0.00     0.198 A 
ATOM     80  C   UNL A   1      37.869  32.050  37.658  1.00  0.00     0.198 A 
ATOM     81  F   UNL A   1      37.906  30.080  36.371  1.00  0.00    -0.203 F 
ATOM     82  F   UNL A   1      39.682  35.160  37.259  1.00  0.00    -0.200 F 
ATOM     83  C   UNL A   1      38.317  33.340  37.893  1.00  0.00     0.200 A 
ATOM     84  F   UNL A   1      36.993  31.483  38.499  1.00  0.00    -0.200 F 
ATOM     85  F   UNL A   1      37.892  34.015  38.970  1.00  0.00    -0.200 F 
ENDBRANCH  51  75
BRANCH  63  86
ATOM     86  C   UNL A   1      44.706  27.648  34.852  1.00  0.00     0.064 A 
ATOM     87  C   UNL A   1      45.877  28.403  35.005  1.00  0.00     0.173 A 
ATOM     88  C   UNL A   1      44.552  26.503  35.650  1.00  0.00     0.173 A 
ATOM     89  F   UNL A   1      46.078  29.499  34.258  1.00  0.00    -0.203 F 
ATOM     90  C   UNL A   1      46.862  28.017  35.912  1.00  0.00     0.198 A 
ATOM     91  C   UNL A   1      45.524  26.137  36.576  1.00  0.00     0.198 A 
ATOM     92  F   UNL A   1      43.444  25.753  35.548  1.00  0.00    -0.203 F 
ATOM     93  F   UNL A   1      47.990  28.733  36.016  1.00  0.00    -0.200 F 
ATOM     94  C   UNL A   1      46.681  26.893  36.702  1.00  0.00     0.200 A 
ATOM     95  F   UNL A   1      45.340  25.060  37.350  1.00  0.00    -0.200 F 
ATOM     96  F   UNL A   1      47.623  26.532  37.584  1.00  0.00    -0.200 F 
ENDBRANCH  63  86
ENDBRANCH  37  38
ENDBRANCH  30  32
ENDBRANCH  29  30
ENDBRANCH  28  29
ENDBRANCH  27  28
ENDBRANCH  26  27
ENDBRANCH  25  26
ENDBRANCH   1  25
TORSDOF 23
ENDMDL
MODEL 2
REMARK VINA RESULT:      -9.6      0.831      2.425
REMARK SMILES CCC[NH2+][C@@]1(C(=O)OCCOCCOCCOC(=O)c2ccc(-c3c4nc(c(-c5c(F)c(F)c(F)c(F)c5F)c5ccc([nH]5)c(-c5c(F)c(F)c(F)c(F)c5F)c5nc(c(-c6c(F)c(F)c(F)c(F)c6F)c6ccc3[nH]6)C=C5)C=C4)cc2)CC[C@H]([N@H+](C)CCC)C1
REMARK SMILES IDX 12 1 11 2 10 3 9 4 8 5 6 6 7 7 5 8 83 9 91 10 84 11 85 12
REMARK SMILES IDX 4 13 3 16 2 17 1 18 86 19 87 20 88 22 89 23 90 24 13 25
REMARK SMILES IDX 14 26 15 27 16 28 17 29 18 30 19 31 20 32 21 33 82 34 22 35
REMARK SMILES IDX 81 36 23 37 24 38 25 39 75 40 26 41 80 42 74 43 76 44 27 45
REMARK SMILES IDX 79 46 73 47 72 48 28 50 60 51 40 52 59 53 41 54 44 55 58 56
REMARK SMILES IDX 77 57 42 58 43 59 57 61 78 62 45 63 29 64 30 65 38 66 31 67
REMARK SMILES IDX 32 68 36 69 39 70 33 71 34 72 37 73 35 74 61 75 62 76 70 77
REMARK SMILES IDX 63 78 64 79 68 80 71 81 65 82 66 83 69 84 67 85 46 86 47 87
REMARK SMILES IDX 55 88 48 89 49 90 53 91 56 92 50 93 51 94 54 95 52 96
REMARK H PARENT 4 14 4 15 86 21 76 49 44 60
REMARK Flexibility Score: inf
ROOT
ATOM      1  C   UNL A   1      31.931  26.314  25.965  1.00  0.00     0.188 C 
ENDROOT
BRANCH   1   2
ATOM      2  O   UNL A   1      30.710  25.985  26.617  1.00  0.00    -0.376 OA
BRANCH   2   3
ATOM      3  C   UNL A   1      30.291  24.619  26.504  1.00  0.00     0.202 C 
BRANCH   3   4
ATOM      4  C   UNL A   1      31.414  23.588  26.670  1.00  0.00     0.261 C 
BRANCH   4   5
ATOM      5  O   UNL A   1      31.343  22.618  25.609  1.00  0.00    -0.459 OA
BRANCH   5   6
ATOM      6  C   UNL A   1      31.511  23.063  24.336  1.00  0.00     0.368 C 
ATOM      7  O   UNL A   1      30.644  23.664  23.708  1.00  0.00    -0.245 OA
BRANCH   6   8
ATOM      8  C   UNL A   1      32.923  22.697  23.761  1.00  0.00     0.200 C 
ATOM      9  C   UNL A   1      32.732  22.244  22.311  1.00  0.00     0.087 C 
ATOM     10  C   UNL A   1      33.552  21.433  24.387  1.00  0.00     0.146 C 
ATOM     11  C   UNL A   1      32.140  20.837  22.483  1.00  0.00     0.072 C 
ATOM     12  C   UNL A   1      32.934  20.210  23.661  1.00  0.00     0.191 C 
BRANCH   8  13
ATOM     13  N   UNL A   1      33.899  23.793  24.007  1.00  0.00    -0.332 N 
ATOM     14  H   UNL A   1      33.403  24.678  23.895  1.00  0.00     0.347 HD
ATOM     15  H   UNL A   1      34.260  23.625  24.946  1.00  0.00     0.347 HD
BRANCH  13  16
ATOM     16  C   UNL A   1      35.074  23.829  23.141  1.00  0.00     0.261 C 
BRANCH  16  17
ATOM     17  C   UNL A   1      36.301  23.276  23.884  1.00  0.00     0.058 C 
ATOM     18  C   UNL A   1      36.346  23.623  25.366  1.00  0.00     0.010 C 
ENDBRANCH  16  17
ENDBRANCH  13  16
ENDBRANCH   8  13
BRANCH  12  19
ATOM     19  N   UNL A   1      32.333  19.112  24.461  1.00  0.00    -0.335 N 
ATOM     20  C   UNL A   1      32.897  18.944  25.793  1.00  0.00     0.332 C 
ATOM     21  H   UNL A   1      31.382  19.440  24.628  1.00  0.00     0.348 HD
BRANCH  19  22
ATOM     22  C   UNL A   1      32.188  17.841  23.728  1.00  0.00     0.261 C 
BRANCH  22  23
ATOM     23  C   UNL A   1      33.321  17.380  22.802  1.00  0.00     0.058 C 
ATOM     24  C   UNL A   1      34.392  16.566  23.502  1.00  0.00     0.010 C 
ENDBRANCH  22  23
ENDBRANCH  19  22
ENDBRANCH  12  19
ENDBRANCH   6   8
ENDBRANCH   5   6
ENDBRANCH   4   5
ENDBRANCH   3   4
ENDBRANCH   2   3
ENDBRANCH   1   2
BRANCH   1  25
ATOM     25  C   UNL A   1      31.792  26.949  24.584  1.00  0.00     0.188 C 
BRANCH  25  26
ATOM     26  O   UNL A   1      32.528  28.154  24.386  1.00  0.00    -0.376 OA
BRANCH  26  27
ATOM     27  C   UNL A   1      31.702  29.325  24.380  1.00  0.00     0.202 C 
BRANCH  27  28
ATOM     28  C   UNL A   1      31.749  30.075  25.719  1.00  0.00     0.261 C 
BRANCH  28  29
ATOM     29  O   UNL A   1      33.100  30.140  26.204  1.00  0.00    -0.460 OA
BRANCH  29  30
ATOM     30  C   UNL A   1      33.390  31.211  26.989  1.00  0.00     0.338 C 
ATOM     31  O   UNL A   1      32.664  32.143  27.260  1.00  0.00    -0.246 OA
BRANCH  30  32
ATOM     32  C   UNL A   1      34.694  30.962  27.658  1.00  0.00     0.060 A 
ATOM     33  C   UNL A   1      35.045  29.633  27.943  1.00  0.00     0.016 A 
ATOM     34  C   UNL A   1      35.596  31.995  27.924  1.00  0.00     0.016 A 
ATOM     35  C   UNL A   1      36.283  29.338  28.518  1.00  0.00     0.010 A 
ATOM     36  C   UNL A   1      36.830  31.702  28.503  1.00  0.00     0.010 A 
ATOM     37  C   UNL A   1      37.165  30.378  28.832  1.00  0.00    -0.014 A 
BRANCH  37  38
ATOM     38  C   UNL A   1      38.333  30.141  29.710  1.00  0.00     0.031 A 
ATOM     39  C   UNL A   1      39.391  29.195  29.213  1.00  0.00     0.074 A 
ATOM     40  C   UNL A   1      38.437  30.703  30.926  1.00  0.00     0.049 A 
ATOM     41  N   UNL A   1      40.419  28.686  29.839  1.00  0.00    -0.248 NA
ATOM     42  C   UNL A   1      39.254  28.750  27.815  1.00  0.00     0.031 C 
ATOM     43  C   UNL A   1      37.501  31.667  31.499  1.00  0.00     0.029 A 
ATOM     44  N   UNL A   1      39.375  30.515  31.910  1.00  0.00    -0.354 N 
ATOM     45  C   UNL A   1      41.039  27.852  28.918  1.00  0.00     0.074 A 
ATOM     46  C   UNL A   1      40.258  27.897  27.703  1.00  0.00     0.031 C 
ATOM     47  C   UNL A   1      37.898  31.967  32.749  1.00  0.00     0.029 A 
ATOM     48  C   UNL A   1      39.091  31.186  33.075  1.00  0.00     0.049 A 
ATOM     49  H   UNL A   1      40.174  29.952  31.794  1.00  0.00     0.167 HD
ATOM     50  C   UNL A   1      42.167  27.120  29.071  1.00  0.00     0.037 A 
ATOM     51  C   UNL A   1      39.710  31.142  34.271  1.00  0.00     0.037 A 
ATOM     52  C   UNL A   1      42.937  27.076  30.284  1.00  0.00     0.049 A 
ATOM     53  C   UNL A   1      40.919  30.253  34.444  1.00  0.00     0.074 A 
ATOM     54  C   UNL A   1      44.098  26.373  30.544  1.00  0.00     0.029 A 
ATOM     55  N   UNL A   1      42.614  27.765  31.443  1.00  0.00    -0.354 N 
ATOM     56  N   UNL A   1      41.514  29.479  33.568  1.00  0.00    -0.248 NA
ATOM     57  C   UNL A   1      41.541  30.230  35.778  1.00  0.00     0.031 C 
ATOM     58  C   UNL A   1      44.453  26.599  31.877  1.00  0.00     0.029 A 
ATOM     59  C   UNL A   1      43.544  27.487  32.430  1.00  0.00     0.049 A 
ATOM     60  H   UNL A   1      41.838  28.362  31.549  1.00  0.00     0.167 HD
ATOM     61  C   UNL A   1      42.595  28.910  34.229  1.00  0.00     0.074 A 
ATOM     62  C   UNL A   1      42.579  29.429  35.581  1.00  0.00     0.031 C 
ATOM     63  C   UNL A   1      43.521  28.036  33.762  1.00  0.00     0.037 A 
BRANCH  50  64
ATOM     64  C   UNL A   1      42.612  26.290  27.905  1.00  0.00     0.064 A 
ATOM     65  C   UNL A   1      42.140  24.982  27.710  1.00  0.00     0.173 A 
ATOM     66  C   UNL A   1      43.511  26.811  26.964  1.00  0.00     0.173 A 
ATOM     67  F   UNL A   1      41.295  24.430  28.593  1.00  0.00    -0.203 F 
ATOM     68  C   UNL A   1      42.575  24.218  26.630  1.00  0.00     0.198 A 
ATOM     69  C   UNL A   1      43.919  26.056  25.868  1.00  0.00     0.198 A 
ATOM     70  F   UNL A   1      43.993  28.054  27.104  1.00  0.00    -0.203 F 
ATOM     71  F   UNL A   1      42.153  22.953  26.493  1.00  0.00    -0.200 F 
ATOM     72  C   UNL A   1      43.457  24.757  25.706  1.00  0.00     0.200 A 
ATOM     73  F   UNL A   1      44.765  26.581  24.971  1.00  0.00    -0.200 F 
ATOM     74  F   UNL A   1      43.871  24.022  24.664  1.00  0.00    -0.200 F 
ENDBRANCH  50  64
BRANCH  51  75
ATOM     75  C   UNL A   1      39.196  31.945  35.412  1.00  0.00     0.064 A 
ATOM     76  C   UNL A   1      39.568  33.287  35.576  1.00  0.00     0.173 A 
ATOM     77  C   UNL A   1      38.355  31.380  36.383  1.00  0.00     0.173 A 
ATOM     78  F   UNL A   1      40.394  33.864  34.691  1.00  0.00    -0.203 F 
ATOM     79  C   UNL A   1      39.137  34.026  36.676  1.00  0.00     0.198 A 
ATOM     80  C   UNL A   1      37.902  32.129  37.468  1.00  0.00     0.198 A 
ATOM     81  F   UNL A   1      37.976  30.098  36.280  1.00  0.00    -0.203 F 
ATOM     82  F   UNL A   1      39.552  35.290  36.835  1.00  0.00    -0.200 F 
ATOM     83  C   UNL A   1      38.300  33.448  37.618  1.00  0.00     0.200 A 
ATOM     84  F   UNL A   1      37.088  31.569  38.373  1.00  0.00    -0.200 F 
ATOM     85  F   UNL A   1      37.889  34.159  38.678  1.00  0.00    -0.200 F 
ENDBRANCH  51  75
BRANCH  63  86
ATOM     86  C   UNL A   1      44.627  27.627  34.691  1.00  0.00     0.064 A 
ATOM     87  C   UNL A   1      45.808  28.372  34.806  1.00  0.00     0.173 A 
ATOM     88  C   UNL A   1      44.467  26.512  35.530  1.00  0.00     0.173 A 
ATOM     89  F   UNL A   1      46.014  29.439  34.019  1.00  0.00    -0.203 F 
ATOM     90  C   UNL A   1      46.798  28.006  35.716  1.00  0.00     0.198 A 
ATOM     91  C   UNL A   1      45.444  26.167  36.458  1.00  0.00     0.198 A 
ATOM     92  F   UNL A   1      43.349  25.772  35.465  1.00  0.00    -0.203 F 
ATOM     93  F   UNL A   1      47.936  28.710  35.784  1.00  0.00    -0.200 F 
ATOM     94  C   UNL A   1      46.611  26.911  36.546  1.00  0.00     0.200 A 
ATOM     95  F   UNL A   1      45.255  25.119  37.271  1.00  0.00    -0.200 F 
ATOM     96  F   UNL A   1      47.558  26.570  37.431  1.00  0.00    -0.200 F 
ENDBRANCH  63  86
ENDBRANCH  37  38
ENDBRANCH  30  32
ENDBRANCH  29  30
ENDBRANCH  28  29
ENDBRANCH  27  28
ENDBRANCH  26  27
ENDBRANCH  25  26
ENDBRANCH   1  25
TORSDOF 23
ENDMDL
MODEL 3
REMARK VINA RESULT:      -9.4      4.159      9.816
REMARK SMILES CCC[NH2+][C@@]1(C(=O)OCCOCCOCCOC(=O)c2ccc(-c3c4nc(c(-c5c(F)c(F)c(F)c(F)c5F)c5ccc([nH]5)c(-c5c(F)c(F)c(F)c(F)c5F)c5nc(c(-c6c(F)c(F)c(F)c(F)c6F)c6ccc3[nH]6)C=C5)C=C4)cc2)CC[C@H]([N@H+](C)CCC)C1
REMARK SMILES IDX 12 1 11 2 10 3 9 4 8 5 6 6 7 7 5 8 83 9 91 10 84 11 85 12
REMARK SMILES IDX 4 13 3 16 2 17 1 18 86 19 87 20 88 22 89 23 90 24 13 25
REMARK SMILES IDX 14 26 15 27 16 28 17 29 18 30 19 31 20 32 21 33 82 34 22 35
REMARK SMILES IDX 81 36 23 37 24 38 25 39 75 40 26 41 80 42 74 43 76 44 27 45
REMARK SMILES IDX 79 46 73 47 72 48 28 50 60 51 40 52 59 53 41 54 44 55 58 56
REMARK SMILES IDX 77 57 42 58 43 59 57 61 78 62 45 63 29 64 30 65 38 66 31 67
REMARK SMILES IDX 32 68 36 69 39 70 33 71 34 72 37 73 35 74 61 75 62 76 70 77
REMARK SMILES IDX 63 78 64 79 68 80 71 81 65 82 66 83 69 84 67 85 46 86 47 87
REMARK SMILES IDX 55 88 48 89 49 90 53 91 56 92 50 93 51 94 54 95 52 96
REMARK H PARENT 4 14 4 15 86 21 76 49 44 60
REMARK Flexibility Score: inf
ROOT
ATOM      1  C   UNL A   1      33.250  23.424  22.016  1.00  0.00     0.188 C 
ENDROOT
BRANCH   1   2
ATOM      2  O   UNL A   1      33.481  24.710  21.453  1.00  0.00    -0.376 OA
BRANCH   2   3
ATOM      3  C   UNL A   1      32.336  25.569  21.371  1.00  0.00     0.202 C 
BRANCH   3   4
ATOM      4  C   UNL A   1      31.573  25.748  22.688  1.00  0.00     0.261 C 
BRANCH   4   5
ATOM      5  O   UNL A   1      31.465  27.150  23.000  1.00  0.00    -0.459 OA
BRANCH   5   6
ATOM      6  C   UNL A   1      32.554  27.762  23.534  1.00  0.00     0.368 C 
ATOM      7  O   UNL A   1      33.618  27.895  22.939  1.00  0.00    -0.245 OA
BRANCH   6   8
ATOM      8  C   UNL A   1      32.298  28.250  25.003  1.00  0.00     0.200 C 
ATOM      9  C   UNL A   1      33.594  28.052  25.792  1.00  0.00     0.087 C 
ATOM     10  C   UNL A   1      31.322  27.361  25.803  1.00  0.00     0.146 C 
ATOM     11  C   UNL A   1      33.611  26.532  26.015  1.00  0.00     0.072 C 
ATOM     12  C   UNL A   1      32.140  26.158  26.341  1.00  0.00     0.191 C 
BRANCH   8  13
ATOM     13  N   UNL A   1      31.698  29.612  25.014  1.00  0.00    -0.332 N 
ATOM     14  H   UNL A   1      31.844  30.021  24.090  1.00  0.00     0.347 HD
ATOM     15  H   UNL A   1      30.719  29.473  25.266  1.00  0.00     0.347 HD
BRANCH  13  16
ATOM     16  C   UNL A   1      32.222  30.549  26.003  1.00  0.00     0.261 C 
BRANCH  16  17
ATOM     17  C   UNL A   1      31.214  31.683  26.250  1.00  0.00     0.058 C 
ATOM     18  C   UNL A   1      31.802  32.905  26.943  1.00  0.00     0.010 C 
ENDBRANCH  16  17
ENDBRANCH  13  16
ENDBRANCH   8  13
BRANCH  12  19
ATOM     19  N   UNL A   1      31.653  24.776  26.099  1.00  0.00    -0.335 N 
ATOM     20  C   UNL A   1      30.216  24.659  25.894  1.00  0.00     0.332 C 
ATOM     21  H   UNL A   1      32.058  24.543  25.192  1.00  0.00     0.348 HD
BRANCH  19  22
ATOM     22  C   UNL A   1      32.189  23.774  27.038  1.00  0.00     0.261 C 
BRANCH  22  23
ATOM     23  C   UNL A   1      33.580  23.180  26.783  1.00  0.00     0.058 C 
ATOM     24  C   UNL A   1      33.598  21.666  26.717  1.00  0.00     0.010 C 
ENDBRANCH  22  23
ENDBRANCH  19  22
ENDBRANCH  12  19
ENDBRANCH   6   8
ENDBRANCH   5   6
ENDBRANCH   4   5
ENDBRANCH   3   4
ENDBRANCH   2   3
ENDBRANCH   1   2
BRANCH   1  25
ATOM     25  C   UNL A   1      34.272  22.964  23.052  1.00  0.00     0.188 C 
BRANCH  25  26
ATOM     26  O   UNL A   1      35.468  23.737  23.120  1.00  0.00    -0.376 OA
BRANCH  26  27
ATOM     27  C   UNL A   1      36.641  22.944  23.341  1.00  0.00     0.202 C 
BRANCH  27  28
ATOM     28  C   UNL A   1      36.390  21.798  24.330  1.00  0.00     0.261 C 
BRANCH  28  29
ATOM     29  O   UNL A   1      36.942  22.123  25.616  1.00  0.00    -0.460 OA
BRANCH  29  30
ATOM     30  C   UNL A   1      38.216  21.699  25.832  1.00  0.00     0.338 C 
ATOM     31  O   UNL A   1      38.715  20.655  25.469  1.00  0.00    -0.246 OA
BRANCH  30  32
ATOM     32  C   UNL A   1      38.992  22.825  26.414  1.00  0.00     0.060 A 
ATOM     33  C   UNL A   1      38.475  24.122  26.278  1.00  0.00     0.016 A 
ATOM     34  C   UNL A   1      40.158  22.612  27.154  1.00  0.00     0.016 A 
ATOM     35  C   UNL A   1      39.133  25.210  26.855  1.00  0.00     0.010 A 
ATOM     36  C   UNL A   1      40.820  23.697  27.726  1.00  0.00     0.010 A 
ATOM     37  C   UNL A   1      40.329  25.003  27.552  1.00  0.00    -0.014 A 
BRANCH  37  38
ATOM     38  C   UNL A   1      41.206  26.141  27.906  1.00  0.00     0.031 A 
ATOM     39  C   UNL A   1      40.590  27.274  28.678  1.00  0.00     0.074 A 
ATOM     40  C   UNL A   1      42.491  26.198  27.518  1.00  0.00     0.049 A 
ATOM     41  N   UNL A   1      41.078  28.451  28.969  1.00  0.00    -0.248 NA
ATOM     42  C   UNL A   1      39.223  27.047  29.177  1.00  0.00     0.031 C 
ATOM     43  C   UNL A   1      43.212  25.147  26.805  1.00  0.00     0.029 A 
ATOM     44  N   UNL A   1      43.412  27.208  27.653  1.00  0.00    -0.354 N 
ATOM     45  C   UNL A   1      40.074  29.108  29.668  1.00  0.00     0.074 A 
ATOM     46  C   UNL A   1      38.940  28.214  29.732  1.00  0.00     0.031 C 
ATOM     47  C   UNL A   1      44.459  25.577  26.539  1.00  0.00     0.029 A 
ATOM     48  C   UNL A   1      44.608  26.947  27.029  1.00  0.00     0.049 A 
ATOM     49  H   UNL A   1      43.232  28.039  28.148  1.00  0.00     0.167 HD
ATOM     50  C   UNL A   1      40.100  30.344  30.216  1.00  0.00     0.037 A 
ATOM     51  C   UNL A   1      45.681  27.743  26.851  1.00  0.00     0.037 A 
ATOM     52  C   UNL A   1      41.229  31.230  30.146  1.00  0.00     0.049 A 
ATOM     53  C   UNL A   1      45.656  29.150  27.398  1.00  0.00     0.074 A 
ATOM     54  C   UNL A   1      41.363  32.502  30.672  1.00  0.00     0.029 A 
ATOM     55  N   UNL A   1      42.419  30.933  29.500  1.00  0.00    -0.354 N 
ATOM     56  N   UNL A   1      44.714  29.763  28.074  1.00  0.00    -0.248 NA
ATOM     57  C   UNL A   1      46.847  29.979  27.155  1.00  0.00     0.031 C 
ATOM     58  C   UNL A   1      42.619  32.993  30.305  1.00  0.00     0.029 A 
ATOM     59  C   UNL A   1      43.288  32.007  29.597  1.00  0.00     0.049 A 
ATOM     60  H   UNL A   1      42.618  30.084  29.041  1.00  0.00     0.167 HD
ATOM     61  C   UNL A   1      45.209  31.027  28.367  1.00  0.00     0.074 A 
ATOM     62  C   UNL A   1      46.539  31.096  27.799  1.00  0.00     0.031 C 
ATOM     63  C   UNL A   1      44.618  32.042  29.045  1.00  0.00     0.037 A 
BRANCH  50  64
ATOM     64  C   UNL A   1      38.858  30.814  30.913  1.00  0.00     0.064 A 
ATOM     65  C   UNL A   1      37.803  31.417  30.210  1.00  0.00     0.173 A 
ATOM     66  C   UNL A   1      38.715  30.650  32.298  1.00  0.00     0.173 A 
ATOM     67  F   UNL A   1      37.900  31.617  28.888  1.00  0.00    -0.203 F 
ATOM     68  C   UNL A   1      36.663  31.862  30.874  1.00  0.00     0.198 A 
ATOM     69  C   UNL A   1      37.560  31.067  32.954  1.00  0.00     0.198 A 
ATOM     70  F   UNL A   1      39.693  30.080  33.017  1.00  0.00    -0.203 F 
ATOM     71  F   UNL A   1      35.692  32.484  30.190  1.00  0.00    -0.200 F 
ATOM     72  C   UNL A   1      36.538  31.680  32.243  1.00  0.00     0.200 A 
ATOM     73  F   UNL A   1      37.437  30.882  34.276  1.00  0.00    -0.200 F 
ATOM     74  F   UNL A   1      35.438  32.105  32.879  1.00  0.00    -0.200 F 
ENDBRANCH  50  64
BRANCH  51  75
ATOM     75  C   UNL A   1      46.868  27.246  26.105  1.00  0.00     0.064 A 
ATOM     76  C   UNL A   1      47.881  26.529  26.756  1.00  0.00     0.173 A 
ATOM     77  C   UNL A   1      47.034  27.508  24.736  1.00  0.00     0.173 A 
ATOM     78  F   UNL A   1      47.783  26.279  28.070  1.00  0.00    -0.203 F 
ATOM     79  C   UNL A   1      49.023  26.113  26.075  1.00  0.00     0.198 A 
ATOM     80  C   UNL A   1      48.163  27.068  24.050  1.00  0.00     0.198 A 
ATOM     81  F   UNL A   1      46.099  28.198  24.066  1.00  0.00    -0.203 F 
ATOM     82  F   UNL A   1      50.000  25.478  26.736  1.00  0.00    -0.200 F 
ATOM     83  C   UNL A   1      49.161  26.378  24.721  1.00  0.00     0.200 A 
ATOM     84  F   UNL A   1      48.290  27.320  22.740  1.00  0.00    -0.200 F 
ATOM     85  F   UNL A   1      50.262  25.981  24.067  1.00  0.00    -0.200 F 
ENDBRANCH  51  75
BRANCH  63  86
ATOM     86  C   UNL A   1      45.419  33.293  29.266  1.00  0.00     0.064 A 
ATOM     87  C   UNL A   1      46.356  33.396  30.303  1.00  0.00     0.173 A 
ATOM     88  C   UNL A   1      45.295  34.375  28.380  1.00  0.00     0.173 A 
ATOM     89  F   UNL A   1      46.504  32.395  31.183  1.00  0.00    -0.203 F 
ATOM     90  C   UNL A   1      47.128  34.546  30.456  1.00  0.00     0.198 A 
ATOM     91  C   UNL A   1      46.089  35.509  28.518  1.00  0.00     0.198 A 
ATOM     92  F   UNL A   1      44.419  34.321  27.365  1.00  0.00    -0.203 F 
ATOM     93  F   UNL A   1      47.992  34.639  31.476  1.00  0.00    -0.200 F 
ATOM     94  C   UNL A   1      47.002  35.595  29.559  1.00  0.00     0.200 A 
ATOM     95  F   UNL A   1      45.977  36.515  27.640  1.00  0.00    -0.200 F 
ATOM     96  F   UNL A   1      47.757  36.694  29.698  1.00  0.00    -0.200 F 
ENDBRANCH  63  86
ENDBRANCH  37  38
ENDBRANCH  30  32
ENDBRANCH  29  30
ENDBRANCH  28  29
ENDBRANCH  27  28
ENDBRANCH  26  27
ENDBRANCH  25  26
ENDBRANCH   1  25
TORSDOF 23
ENDMDL
