MODEL 1
REMARK VINA RESULT:     -10.6      0.000      0.000
REMARK SMILES Cc1nc(Oc2ccc(F)cc2)c(C(=O)OCCOCCOCCOC(=O)c2ccc(-c3c4nc(c(-c5c(F)c(F)c(F)c(F)c5F)c5ccc([nH]5)c(-c5c(F)c(F)c(F)c(F)c5F)c5nc(c(-c6c(F)c(F)c(F)c(F)c6F)c6ccc3[nH]6)C=C5)C=C4)cc2)c(C)c1Cl
REMARK SMILES IDX 20 1 19 2 18 3 17 4 16 5 14 6 15 7 13 8 1 9 2 10 3 11 93 12
REMARK SMILES IDX 4 13 91 14 94 15 92 16 5 17 6 18 7 19 12 20 8 21 11 22 9 23
REMARK SMILES IDX 10 24 21 25 22 26 23 27 24 28 25 29 26 30 27 31 28 32 29 33
REMARK SMILES IDX 90 34 30 35 89 36 31 37 32 38 33 39 83 40 34 41 88 42 82 43
REMARK SMILES IDX 84 44 35 45 87 46 81 47 80 48 36 50 68 51 48 52 67 53 49 54
REMARK SMILES IDX 52 55 66 56 85 57 50 58 51 59 65 61 86 62 53 63 37 64 38 65
REMARK SMILES IDX 46 66 39 67 40 68 44 69 47 70 41 71 42 72 45 73 43 74 69 75
REMARK SMILES IDX 70 76 78 77 71 78 72 79 76 80 79 81 73 82 74 83 77 84 75 85
REMARK SMILES IDX 54 86 55 87 63 88 56 89 57 90 61 91 64 92 58 93 59 94 62 95
REMARK SMILES IDX 60 96
REMARK H PARENT 84 49 52 60
REMARK Flexibility Score: inf
ROOT
ATOM      1  C   UNL A   1      34.148  20.788  26.149  1.00  0.00     0.188 C 
ENDROOT
BRANCH   1   2
ATOM      2  O   UNL A   1      33.870  22.160  26.347  1.00  0.00    -0.376 OA
BRANCH   2   3
ATOM      3  C   UNL A   1      32.952  22.552  27.350  1.00  0.00     0.202 C 
BRANCH   3   4
ATOM      4  C   UNL A   1      31.678  23.247  26.867  1.00  0.00     0.261 C 
BRANCH   4   5
ATOM      5  O   UNL A   1      31.787  24.670  26.979  1.00  0.00    -0.459 OA
BRANCH   5   6
ATOM      6  C   UNL A   1      30.987  25.472  26.246  1.00  0.00     0.344 C 
ATOM      7  O   UNL A   1      29.817  25.720  26.435  1.00  0.00    -0.246 OA
BRANCH   6   8
ATOM      8  C   UNL A   1      31.826  26.000  25.145  1.00  0.00     0.127 A 
ATOM      9  C   UNL A   1      33.979  27.933  22.029  1.00  0.00     0.068 C 
ATOM     10  C   UNL A   1      33.258  27.149  23.092  1.00  0.00     0.060 A 
ATOM     11  N   UNL A   1      33.581  27.455  24.377  1.00  0.00    -0.216 NA
ATOM     12  C   UNL A   1      32.269  26.217  22.766  1.00  0.00     0.066 A 
ATOM     13  C   UNL A   1      32.881  26.887  25.395  1.00  0.00     0.234 A 
ATOM     14  C   UNL A   1      31.518  25.635  23.801  1.00  0.00    -0.011 A 
ATOM     15  Cl  UNL A   1      31.971  25.822  21.105  1.00  0.00    -0.082 Cl
ATOM     16  C   UNL A   1      30.429  24.630  23.494  1.00  0.00     0.047 C 
BRANCH  13  17
ATOM     17  O   UNL A   1      33.244  27.426  26.609  1.00  0.00    -0.438 OA
BRANCH  17  18
ATOM     18  C   UNL A   1      33.119  28.772  26.844  1.00  0.00     0.129 A 
ATOM     19  C   UNL A   1      34.241  29.425  27.358  1.00  0.00     0.050 A 
ATOM     20  C   UNL A   1      31.923  29.469  26.696  1.00  0.00     0.050 A 
ATOM     21  C   UNL A   1      34.216  30.801  27.580  1.00  0.00     0.043 A 
ATOM     22  C   UNL A   1      31.891  30.851  26.924  1.00  0.00     0.043 A 
ATOM     23  C   UNL A   1      33.044  31.508  27.341  1.00  0.00     0.123 A 
ATOM     24  F   UNL A   1      33.037  32.838  27.484  1.00  0.00    -0.207 F 
ENDBRANCH  17  18
ENDBRANCH  13  17
ENDBRANCH   6   8
ENDBRANCH   5   6
ENDBRANCH   4   5
ENDBRANCH   3   4
ENDBRANCH   2   3
ENDBRANCH   1   2
BRANCH   1  25
ATOM     25  C   UNL A   1      34.980  20.518  24.886  1.00  0.00     0.188 C 
BRANCH  25  26
ATOM     26  O   UNL A   1      36.389  20.702  24.926  1.00  0.00    -0.376 OA
BRANCH  26  27
ATOM     27  C   UNL A   1      36.948  21.876  24.352  1.00  0.00     0.202 C 
BRANCH  27  28
ATOM     28  C   UNL A   1      37.694  22.856  25.272  1.00  0.00     0.261 C 
BRANCH  28  29
ATOM     29  O   UNL A   1      38.523  22.273  26.300  1.00  0.00    -0.460 OA
BRANCH  29  30
ATOM     30  C   UNL A   1      39.783  22.764  26.409  1.00  0.00     0.338 C 
ATOM     31  O   UNL A   1      40.814  22.241  26.021  1.00  0.00    -0.246 OA
BRANCH  30  32
ATOM     32  C   UNL A   1      39.763  24.138  26.969  1.00  0.00     0.060 A 
ATOM     33  C   UNL A   1      40.422  25.162  26.276  1.00  0.00     0.016 A 
ATOM     34  C   UNL A   1      39.195  24.398  28.219  1.00  0.00     0.016 A 
ATOM     35  C   UNL A   1      40.526  26.443  26.837  1.00  0.00     0.010 A 
ATOM     36  C   UNL A   1      39.324  25.674  28.791  1.00  0.00     0.010 A 
ATOM     37  C   UNL A   1      40.010  26.700  28.115  1.00  0.00    -0.014 A 
BRANCH  37  38
ATOM     38  C   UNL A   1      40.396  27.951  28.828  1.00  0.00     0.031 A 
ATOM     39  C   UNL A   1      41.828  28.104  29.269  1.00  0.00     0.074 A 
ATOM     40  C   UNL A   1      39.525  28.947  29.076  1.00  0.00     0.049 A 
ATOM     41  N   UNL A   1      42.415  29.108  29.871  1.00  0.00    -0.248 NA
ATOM     42  C   UNL A   1      42.716  26.966  28.988  1.00  0.00     0.031 C 
ATOM     43  C   UNL A   1      38.122  28.963  28.681  1.00  0.00     0.029 A 
ATOM     44  N   UNL A   1      39.705  30.148  29.725  1.00  0.00    -0.354 N 
ATOM     45  C   UNL A   1      43.745  28.735  30.009  1.00  0.00     0.074 A 
ATOM     46  C   UNL A   1      43.868  27.394  29.480  1.00  0.00     0.031 C 
ATOM     47  C   UNL A   1      37.565  30.116  29.093  1.00  0.00     0.029 A 
ATOM     48  C   UNL A   1      38.568  30.915  29.802  1.00  0.00     0.049 A 
ATOM     49  H   UNL A   1      40.570  30.433  30.099  1.00  0.00     0.167 HD
ATOM     50  C   UNL A   1      44.780  29.448  30.514  1.00  0.00     0.037 A 
ATOM     51  C   UNL A   1      38.357  32.117  30.380  1.00  0.00     0.037 A 
ATOM     52  C   UNL A   1      44.665  30.759  31.091  1.00  0.00     0.049 A 
ATOM     53  C   UNL A   1      39.495  32.837  31.064  1.00  0.00     0.074 A 
ATOM     54  C   UNL A   1      45.661  31.552  31.633  1.00  0.00     0.029 A 
ATOM     55  N   UNL A   1      43.477  31.462  31.226  1.00  0.00    -0.354 N 
ATOM     56  N   UNL A   1      40.761  32.502  31.140  1.00  0.00    -0.248 NA
ATOM     57  C   UNL A   1      39.173  34.102  31.745  1.00  0.00     0.031 C 
ATOM     58  C   UNL A   1      45.067  32.705  32.155  1.00  0.00     0.029 A 
ATOM     59  C   UNL A   1      43.708  32.659  31.884  1.00  0.00     0.049 A 
ATOM     60  H   UNL A   1      42.599  31.155  30.902  1.00  0.00     0.167 HD
ATOM     61  C   UNL A   1      41.386  33.517  31.855  1.00  0.00     0.074 A 
ATOM     62  C   UNL A   1      40.366  34.492  32.178  1.00  0.00     0.031 C 
ATOM     63  C   UNL A   1      42.690  33.627  32.212  1.00  0.00     0.037 A 
BRANCH  50  64
ATOM     64  C   UNL A   1      46.134  28.800  30.478  1.00  0.00     0.064 A 
ATOM     65  C   UNL A   1      46.991  28.961  29.378  1.00  0.00     0.173 A 
ATOM     66  C   UNL A   1      46.586  28.022  31.554  1.00  0.00     0.173 A 
ATOM     67  F   UNL A   1      46.599  29.684  28.318  1.00  0.00    -0.203 F 
ATOM     68  C   UNL A   1      48.234  28.338  29.341  1.00  0.00     0.198 A 
ATOM     69  C   UNL A   1      47.844  27.427  31.528  1.00  0.00     0.198 A 
ATOM     70  F   UNL A   1      45.808  27.840  32.632  1.00  0.00    -0.203 F 
ATOM     71  F   UNL A   1      49.009  28.458  28.255  1.00  0.00    -0.200 F 
ATOM     72  C   UNL A   1      48.662  27.577  30.418  1.00  0.00     0.200 A 
ATOM     73  F   UNL A   1      48.262  26.703  32.575  1.00  0.00    -0.200 F 
ATOM     74  F   UNL A   1      49.861  26.978  30.383  1.00  0.00    -0.200 F 
ENDBRANCH  50  64
BRANCH  51  75
ATOM     75  C   UNL A   1      37.004  32.735  30.325  1.00  0.00     0.064 A 
ATOM     76  C   UNL A   1      36.635  33.563  29.255  1.00  0.00     0.173 A 
ATOM     77  C   UNL A   1      36.054  32.512  31.332  1.00  0.00     0.173 A 
ATOM     78  F   UNL A   1      37.520  33.839  28.287  1.00  0.00    -0.203 F 
ATOM     79  C   UNL A   1      35.367  34.140  29.193  1.00  0.00     0.198 A 
ATOM     80  C   UNL A   1      34.778  33.069  31.257  1.00  0.00     0.198 A 
ATOM     81  F   UNL A   1      36.361  31.742  32.387  1.00  0.00    -0.203 F 
ATOM     82  F   UNL A   1      35.052  34.953  28.176  1.00  0.00    -0.200 F 
ATOM     83  C   UNL A   1      34.436  33.884  30.188  1.00  0.00     0.200 A 
ATOM     84  F   UNL A   1      33.880  32.816  32.218  1.00  0.00    -0.200 F 
ATOM     85  F   UNL A   1      33.213  34.428  30.121  1.00  0.00    -0.200 F 
ENDBRANCH  51  75
BRANCH  63  86
ATOM     86  C   UNL A   1      43.116  34.834  33.003  1.00  0.00     0.064 A 
ATOM     87  C   UNL A   1      43.427  36.047  32.371  1.00  0.00     0.173 A 
ATOM     88  C   UNL A   1      43.104  34.812  34.406  1.00  0.00     0.173 A 
ATOM     89  F   UNL A   1      43.464  36.121  31.032  1.00  0.00    -0.203 F 
ATOM     90  C   UNL A   1      43.711  37.192  33.114  1.00  0.00     0.198 A 
ATOM     91  C   UNL A   1      43.357  35.965  35.146  1.00  0.00     0.198 A 
ATOM     92  F   UNL A   1      42.803  33.682  35.062  1.00  0.00    -0.203 F 
ATOM     93  F   UNL A   1      44.024  38.334  32.489  1.00  0.00    -0.200 F 
ATOM     94  C   UNL A   1      43.661  37.153  34.499  1.00  0.00     0.200 A 
ATOM     95  F   UNL A   1      43.289  35.931  36.484  1.00  0.00    -0.200 F 
ATOM     96  F   UNL A   1      43.905  38.262  35.211  1.00  0.00    -0.200 F 
ENDBRANCH  63  86
ENDBRANCH  37  38
ENDBRANCH  30  32
ENDBRANCH  29  30
ENDBRANCH  28  29
ENDBRANCH  27  28
ENDBRANCH  26  27
ENDBRANCH  25  26
ENDBRANCH   1  25
TORSDOF 19
ENDMDL
MODEL 2
REMARK VINA RESULT:     -10.4      4.283      7.046
REMARK SMILES Cc1nc(Oc2ccc(F)cc2)c(C(=O)OCCOCCOCCOC(=O)c2ccc(-c3c4nc(c(-c5c(F)c(F)c(F)c(F)c5F)c5ccc([nH]5)c(-c5c(F)c(F)c(F)c(F)c5F)c5nc(c(-c6c(F)c(F)c(F)c(F)c6F)c6ccc3[nH]6)C=C5)C=C4)cc2)c(C)c1Cl
REMARK SMILES IDX 20 1 19 2 18 3 17 4 16 5 14 6 15 7 13 8 1 9 2 10 3 11 93 12
REMARK SMILES IDX 4 13 91 14 94 15 92 16 5 17 6 18 7 19 12 20 8 21 11 22 9 23
REMARK SMILES IDX 10 24 21 25 22 26 23 27 24 28 25 29 26 30 27 31 28 32 29 33
REMARK SMILES IDX 90 34 30 35 89 36 31 37 32 38 33 39 83 40 34 41 88 42 82 43
REMARK SMILES IDX 84 44 35 45 87 46 81 47 80 48 36 50 68 51 48 52 67 53 49 54
REMARK SMILES IDX 52 55 66 56 85 57 50 58 51 59 65 61 86 62 53 63 37 64 38 65
REMARK SMILES IDX 46 66 39 67 40 68 44 69 47 70 41 71 42 72 45 73 43 74 69 75
REMARK SMILES IDX 70 76 78 77 71 78 72 79 76 80 79 81 73 82 74 83 77 84 75 85
REMARK SMILES IDX 54 86 55 87 63 88 56 89 57 90 61 91 64 92 58 93 59 94 62 95
REMARK SMILES IDX 60 96
REMARK H PARENT 84 49 52 60
REMARK Flexibility Score: inf
ROOT
ATOM      1  C   UNL A   1      39.363  21.898  26.136  1.00  0.00     0.188 C 
ENDROOT
BRANCH   1   2
ATOM      2  O   UNL A   1      38.023  21.691  25.734  1.00  0.00    -0.376 OA
BRANCH   2   3
ATOM      3  C   UNL A   1      37.691  20.555  24.959  1.00  0.00     0.202 C 
BRANCH   3   4
ATOM      4  C   UNL A   1      36.232  20.100  25.015  1.00  0.00     0.261 C 
BRANCH   4   5
ATOM      5  O   UNL A   1      35.336  21.203  24.841  1.00  0.00    -0.459 OA
BRANCH   5   6
ATOM      6  C   UNL A   1      34.607  21.657  25.882  1.00  0.00     0.344 C 
ATOM      7  O   UNL A   1      34.791  21.442  27.060  1.00  0.00    -0.246 OA
BRANCH   6   8
ATOM      8  C   UNL A   1      33.521  22.479  25.302  1.00  0.00     0.127 A 
ATOM      9  C   UNL A   1      30.465  24.580  23.221  1.00  0.00     0.068 C 
ATOM     10  C   UNL A   1      31.547  23.921  24.034  1.00  0.00     0.060 A 
ATOM     11  N   UNL A   1      31.256  22.685  24.519  1.00  0.00    -0.216 NA
ATOM     12  C   UNL A   1      32.794  24.526  24.213  1.00  0.00     0.066 A 
ATOM     13  C   UNL A   1      32.224  21.970  25.151  1.00  0.00     0.234 A 
ATOM     14  C   UNL A   1      33.816  23.797  24.843  1.00  0.00    -0.011 A 
ATOM     15  Cl  UNL A   1      33.061  26.138  23.635  1.00  0.00    -0.082 Cl
ATOM     16  C   UNL A   1      35.187  24.406  25.046  1.00  0.00     0.047 C 
BRANCH  13  17
ATOM     17  O   UNL A   1      31.794  20.693  25.434  1.00  0.00    -0.438 OA
BRANCH  17  18
ATOM     18  C   UNL A   1      32.316  19.612  24.771  1.00  0.00     0.129 A 
ATOM     19  C   UNL A   1      32.911  18.623  25.555  1.00  0.00     0.050 A 
ATOM     20  C   UNL A   1      32.368  19.516  23.382  1.00  0.00     0.050 A 
ATOM     21  C   UNL A   1      33.422  17.467  24.966  1.00  0.00     0.043 A 
ATOM     22  C   UNL A   1      32.886  18.359  22.785  1.00  0.00     0.043 A 
ATOM     23  C   UNL A   1      33.386  17.336  23.584  1.00  0.00     0.123 A 
ATOM     24  F   UNL A   1      33.809  16.199  23.019  1.00  0.00    -0.207 F 
ENDBRANCH  17  18
ENDBRANCH  13  17
ENDBRANCH   6   8
ENDBRANCH   5   6
ENDBRANCH   4   5
ENDBRANCH   3   4
ENDBRANCH   2   3
ENDBRANCH   1   2
BRANCH   1  25
ATOM     25  C   UNL A   1      40.132  20.587  26.366  1.00  0.00     0.188 C 
BRANCH  25  26
ATOM     26  O   UNL A   1      41.455  20.636  26.884  1.00  0.00    -0.376 OA
BRANCH  26  27
ATOM     27  C   UNL A   1      42.128  19.419  27.173  1.00  0.00     0.202 C 
BRANCH  27  28
ATOM     28  C   UNL A   1      42.830  18.681  26.022  1.00  0.00     0.261 C 
BRANCH  28  29
ATOM     29  O   UNL A   1      43.033  19.428  24.803  1.00  0.00    -0.460 OA
BRANCH  29  30
ATOM     30  C   UNL A   1      44.319  19.592  24.405  1.00  0.00     0.338 C 
ATOM     31  O   UNL A   1      44.999  18.806  23.767  1.00  0.00    -0.246 OA
BRANCH  30  32
ATOM     32  C   UNL A   1      44.801  20.954  24.740  1.00  0.00     0.060 A 
ATOM     33  C   UNL A   1      45.287  21.203  26.031  1.00  0.00     0.016 A 
ATOM     34  C   UNL A   1      44.676  22.007  23.830  1.00  0.00     0.016 A 
ATOM     35  C   UNL A   1      45.636  22.505  26.417  1.00  0.00     0.010 A 
ATOM     36  C   UNL A   1      45.000  23.315  24.227  1.00  0.00     0.010 A 
ATOM     37  C   UNL A   1      45.461  23.578  25.530  1.00  0.00    -0.014 A 
BRANCH  37  38
ATOM     38  C   UNL A   1      45.530  24.976  26.042  1.00  0.00     0.031 A 
ATOM     39  C   UNL A   1      46.858  25.684  25.998  1.00  0.00     0.074 A 
ATOM     40  C   UNL A   1      44.456  25.630  26.522  1.00  0.00     0.049 A 
ATOM     41  N   UNL A   1      47.167  26.908  26.348  1.00  0.00    -0.248 NA
ATOM     42  C   UNL A   1      47.992  24.900  25.484  1.00  0.00     0.031 C 
ATOM     43  C   UNL A   1      43.102  25.095  26.595  1.00  0.00     0.029 A 
ATOM     44  N   UNL A   1      44.344  26.901  27.040  1.00  0.00    -0.354 N 
ATOM     45  C   UNL A   1      48.519  27.049  26.066  1.00  0.00     0.074 A 
ATOM     46  C   UNL A   1      48.984  25.772  25.569  1.00  0.00     0.031 C 
ATOM     47  C   UNL A   1      42.291  26.028  27.126  1.00  0.00     0.029 A 
ATOM     48  C   UNL A   1      43.074  27.224  27.452  1.00  0.00     0.049 A 
ATOM     49  H   UNL A   1      45.104  27.522  27.109  1.00  0.00     0.167 HD
ATOM     50  C   UNL A   1      49.304  28.145  26.191  1.00  0.00     0.037 A 
ATOM     51  C   UNL A   1      42.597  28.348  28.028  1.00  0.00     0.037 A 
ATOM     52  C   UNL A   1      48.869  29.404  26.732  1.00  0.00     0.049 A 
ATOM     53  C   UNL A   1      43.521  29.514  28.288  1.00  0.00     0.074 A 
ATOM     54  C   UNL A   1      49.600  30.566  26.902  1.00  0.00     0.029 A 
ATOM     55  N   UNL A   1      47.595  29.658  27.216  1.00  0.00    -0.354 N 
ATOM     56  N   UNL A   1      44.784  29.658  27.967  1.00  0.00    -0.248 NA
ATOM     57  C   UNL A   1      42.951  30.673  28.996  1.00  0.00     0.031 C 
ATOM     58  C   UNL A   1      48.788  31.503  27.548  1.00  0.00     0.029 A 
ATOM     59  C   UNL A   1      47.531  30.945  27.727  1.00  0.00     0.049 A 
ATOM     60  H   UNL A   1      46.846  29.020  27.200  1.00  0.00     0.167 HD
ATOM     61  C   UNL A   1      45.153  30.923  28.413  1.00  0.00     0.074 A 
ATOM     62  C   UNL A   1      43.977  31.516  29.013  1.00  0.00     0.031 C 
ATOM     63  C   UNL A   1      46.361  31.534  28.331  1.00  0.00     0.037 A 
BRANCH  50  64
ATOM     64  C   UNL A   1      50.731  28.014  25.746  1.00  0.00     0.064 A 
ATOM     65  C   UNL A   1      51.084  28.107  24.391  1.00  0.00     0.173 A 
ATOM     66  C   UNL A   1      51.757  27.806  26.679  1.00  0.00     0.173 A 
ATOM     67  F   UNL A   1      50.137  28.291  23.458  1.00  0.00    -0.203 F 
ATOM     68  C   UNL A   1      52.407  27.960  23.983  1.00  0.00     0.198 A 
ATOM     69  C   UNL A   1      53.083  27.692  26.271  1.00  0.00     0.198 A 
ATOM     70  F   UNL A   1      51.474  27.714  27.988  1.00  0.00    -0.203 F 
ATOM     71  F   UNL A   1      52.711  27.992  22.679  1.00  0.00    -0.200 F 
ATOM     72  C   UNL A   1      53.405  27.759  24.924  1.00  0.00     0.200 A 
ATOM     73  F   UNL A   1      54.049  27.512  27.182  1.00  0.00    -0.200 F 
ATOM     74  F   UNL A   1      54.679  27.619  24.531  1.00  0.00    -0.200 F 
ENDBRANCH  50  64
BRANCH  51  75
ATOM     75  C   UNL A   1      41.155  28.439  28.387  1.00  0.00     0.064 A 
ATOM     76  C   UNL A   1      40.697  28.005  29.639  1.00  0.00     0.173 A 
ATOM     77  C   UNL A   1      40.208  28.959  27.493  1.00  0.00     0.173 A 
ATOM     78  F   UNL A   1      41.556  27.464  30.514  1.00  0.00    -0.203 F 
ATOM     79  C   UNL A   1      39.349  28.093  29.985  1.00  0.00     0.198 A 
ATOM     80  C   UNL A   1      38.864  29.070  27.848  1.00  0.00     0.198 A 
ATOM     81  F   UNL A   1      40.589  29.372  26.275  1.00  0.00    -0.203 F 
ATOM     82  F   UNL A   1      38.934  27.642  31.176  1.00  0.00    -0.200 F 
ATOM     83  C   UNL A   1      38.435  28.635  29.093  1.00  0.00     0.200 A 
ATOM     84  F   UNL A   1      37.985  29.598  26.986  1.00  0.00    -0.200 F 
ATOM     85  F   UNL A   1      37.142  28.732  29.431  1.00  0.00    -0.200 F 
ENDBRANCH  51  75
BRANCH  63  86
ATOM     86  C   UNL A   1      46.504  32.917  28.905  1.00  0.00     0.064 A 
ATOM     87  C   UNL A   1      46.981  33.120  30.208  1.00  0.00     0.173 A 
ATOM     88  C   UNL A   1      46.271  34.050  28.109  1.00  0.00     0.173 A 
ATOM     89  F   UNL A   1      47.211  32.073  31.014  1.00  0.00    -0.203 F 
ATOM     90  C   UNL A   1      47.218  34.405  30.693  1.00  0.00     0.198 A 
ATOM     91  C   UNL A   1      46.539  35.331  28.587  1.00  0.00     0.198 A 
ATOM     92  F   UNL A   1      45.824  33.913  26.852  1.00  0.00    -0.203 F 
ATOM     93  F   UNL A   1      47.655  34.576  31.948  1.00  0.00    -0.200 F 
ATOM     94  C   UNL A   1      47.011  35.507  29.878  1.00  0.00     0.200 A 
ATOM     95  F   UNL A   1      46.357  36.393  27.790  1.00  0.00    -0.200 F 
ATOM     96  F   UNL A   1      47.268  36.740  30.337  1.00  0.00    -0.200 F 
ENDBRANCH  63  86
ENDBRANCH  37  38
ENDBRANCH  30  32
ENDBRANCH  29  30
ENDBRANCH  28  29
ENDBRANCH  27  28
ENDBRANCH  26  27
ENDBRANCH  25  26
ENDBRANCH   1  25
TORSDOF 19
ENDMDL
MODEL 3
REMARK VINA RESULT:     -10.4      3.472      5.287
REMARK SMILES Cc1nc(Oc2ccc(F)cc2)c(C(=O)OCCOCCOCCOC(=O)c2ccc(-c3c4nc(c(-c5c(F)c(F)c(F)c(F)c5F)c5ccc([nH]5)c(-c5c(F)c(F)c(F)c(F)c5F)c5nc(c(-c6c(F)c(F)c(F)c(F)c6F)c6ccc3[nH]6)C=C5)C=C4)cc2)c(C)c1Cl
REMARK SMILES IDX 20 1 19 2 18 3 17 4 16 5 14 6 15 7 13 8 1 9 2 10 3 11 93 12
REMARK SMILES IDX 4 13 91 14 94 15 92 16 5 17 6 18 7 19 12 20 8 21 11 22 9 23
REMARK SMILES IDX 10 24 21 25 22 26 23 27 24 28 25 29 26 30 27 31 28 32 29 33
REMARK SMILES IDX 90 34 30 35 89 36 31 37 32 38 33 39 83 40 34 41 88 42 82 43
REMARK SMILES IDX 84 44 35 45 87 46 81 47 80 48 36 50 68 51 48 52 67 53 49 54
REMARK SMILES IDX 52 55 66 56 85 57 50 58 51 59 65 61 86 62 53 63 37 64 38 65
REMARK SMILES IDX 46 66 39 67 40 68 44 69 47 70 41 71 42 72 45 73 43 74 69 75
REMARK SMILES IDX 70 76 78 77 71 78 72 79 76 80 79 81 73 82 74 83 77 84 75 85
REMARK SMILES IDX 54 86 55 87 63 88 56 89 57 90 61 91 64 92 58 93 59 94 62 95
REMARK SMILES IDX 60 96
REMARK H PARENT 84 49 52 60
REMARK Flexibility Score: inf
ROOT
ATOM      1  C   UNL A   1      39.559  20.931  26.138  1.00  0.00     0.188 C 
ENDROOT
BRANCH   1   2
ATOM      2  O   UNL A   1      38.891  22.176  26.105  1.00  0.00    -0.376 OA
BRANCH   2   3
ATOM      3  C   UNL A   1      37.618  22.273  25.494  1.00  0.00     0.202 C 
BRANCH   3   4
ATOM      4  C   UNL A   1      37.220  23.655  24.974  1.00  0.00     0.261 C 
BRANCH   4   5
ATOM      5  O   UNL A   1      36.320  24.311  25.875  1.00  0.00    -0.459 OA
BRANCH   5   6
ATOM      6  C   UNL A   1      35.040  23.897  25.976  1.00  0.00     0.344 C 
ATOM      7  O   UNL A   1      34.546  23.238  26.864  1.00  0.00    -0.246 OA
BRANCH   6   8
ATOM      8  C   UNL A   1      34.342  24.409  24.774  1.00  0.00     0.127 A 
ATOM      9  C   UNL A   1      32.785  25.929  21.121  1.00  0.00     0.068 C 
ATOM     10  C   UNL A   1      33.234  25.414  22.462  1.00  0.00     0.060 A 
ATOM     11  N   UNL A   1      33.625  24.112  22.498  1.00  0.00    -0.216 NA
ATOM     12  C   UNL A   1      33.307  26.253  23.577  1.00  0.00     0.066 A 
ATOM     13  C   UNL A   1      34.167  23.608  23.638  1.00  0.00     0.234 A 
ATOM     14  C   UNL A   1      33.885  25.760  24.759  1.00  0.00    -0.011 A 
ATOM     15  Cl  UNL A   1      32.714  27.878  23.474  1.00  0.00    -0.082 Cl
ATOM     16  C   UNL A   1      33.996  26.636  25.988  1.00  0.00     0.047 C 
BRANCH  13  17
ATOM     17  O   UNL A   1      34.639  22.330  23.441  1.00  0.00    -0.438 OA
BRANCH  17  18
ATOM     18  C   UNL A   1      34.027  21.256  24.034  1.00  0.00     0.129 A 
ATOM     19  C   UNL A   1      34.862  20.307  24.627  1.00  0.00     0.050 A 
ATOM     20  C   UNL A   1      32.654  21.027  23.980  1.00  0.00     0.050 A 
ATOM     21  C   UNL A   1      34.321  19.210  25.295  1.00  0.00     0.043 A 
ATOM     22  C   UNL A   1      32.106  19.923  24.645  1.00  0.00     0.043 A 
ATOM     23  C   UNL A   1      32.943  19.038  25.317  1.00  0.00     0.123 A 
ATOM     24  F   UNL A   1      32.416  18.027  26.018  1.00  0.00    -0.207 F 
ENDBRANCH  17  18
ENDBRANCH  13  17
ENDBRANCH   6   8
ENDBRANCH   5   6
ENDBRANCH   4   5
ENDBRANCH   3   4
ENDBRANCH   2   3
ENDBRANCH   1   2
BRANCH   1  25
ATOM     25  C   UNL A   1      40.834  20.954  26.998  1.00  0.00     0.188 C 
BRANCH  25  26
ATOM     26  O   UNL A   1      42.089  20.675  26.392  1.00  0.00    -0.376 OA
BRANCH  26  27
ATOM     27  C   UNL A   1      43.091  21.682  26.386  1.00  0.00     0.202 C 
BRANCH  27  28
ATOM     28  C   UNL A   1      43.595  22.203  25.030  1.00  0.00     0.261 C 
BRANCH  28  29
ATOM     29  O   UNL A   1      43.129  23.508  24.626  1.00  0.00    -0.460 OA
BRANCH  29  30
ATOM     30  C   UNL A   1      43.884  24.565  25.015  1.00  0.00     0.338 C 
ATOM     31  O   UNL A   1      45.013  24.840  24.646  1.00  0.00    -0.246 OA
BRANCH  30  32
ATOM     32  C   UNL A   1      43.104  25.470  25.894  1.00  0.00     0.060 A 
ATOM     33  C   UNL A   1      43.576  26.770  26.118  1.00  0.00     0.016 A 
ATOM     34  C   UNL A   1      41.977  25.013  26.582  1.00  0.00     0.016 A 
ATOM     35  C   UNL A   1      42.930  27.610  27.037  1.00  0.00     0.010 A 
ATOM     36  C   UNL A   1      41.348  25.845  27.522  1.00  0.00     0.010 A 
ATOM     37  C   UNL A   1      41.833  27.142  27.774  1.00  0.00    -0.014 A 
BRANCH  37  38
ATOM     38  C   UNL A   1      41.357  27.912  28.957  1.00  0.00     0.031 A 
ATOM     39  C   UNL A   1      42.123  27.778  30.247  1.00  0.00     0.074 A 
ATOM     40  C   UNL A   1      40.288  28.729  28.914  1.00  0.00     0.049 A 
ATOM     41  N   UNL A   1      41.931  28.369  31.400  1.00  0.00    -0.248 NA
ATOM     42  C   UNL A   1      43.263  26.849  30.228  1.00  0.00     0.031 C 
ATOM     43  C   UNL A   1      39.471  28.991  27.735  1.00  0.00     0.029 A 
ATOM     44  N   UNL A   1      39.710  29.495  29.901  1.00  0.00    -0.354 N 
ATOM     45  C   UNL A   1      42.944  27.910  32.230  1.00  0.00     0.074 A 
ATOM     46  C   UNL A   1      43.715  26.950  31.468  1.00  0.00     0.031 C 
ATOM     47  C   UNL A   1      38.495  29.858  28.064  1.00  0.00     0.029 A 
ATOM     48  C   UNL A   1      38.605  30.198  29.485  1.00  0.00     0.049 A 
ATOM     49  H   UNL A   1      40.056  29.536  30.822  1.00  0.00     0.167 HD
ATOM     50  C   UNL A   1      43.224  28.263  33.506  1.00  0.00     0.037 A 
ATOM     51  C   UNL A   1      37.776  31.015  30.169  1.00  0.00     0.037 A 
ATOM     52  C   UNL A   1      42.438  29.174  34.293  1.00  0.00     0.049 A 
ATOM     53  C   UNL A   1      38.024  31.290  31.633  1.00  0.00     0.074 A 
ATOM     54  C   UNL A   1      42.646  29.585  35.598  1.00  0.00     0.029 A 
ATOM     55  N   UNL A   1      41.279  29.797  33.857  1.00  0.00    -0.354 N 
ATOM     56  N   UNL A   1      39.016  30.896  32.394  1.00  0.00    -0.248 NA
ATOM     57  C   UNL A   1      37.032  32.122  32.335  1.00  0.00     0.031 C 
ATOM     58  C   UNL A   1      41.577  30.404  35.974  1.00  0.00     0.029 A 
ATOM     59  C   UNL A   1      40.733  30.553  34.883  1.00  0.00     0.049 A 
ATOM     60  H   UNL A   1      40.898  29.714  32.953  1.00  0.00     0.167 HD
ATOM     61  C   UNL A   1      38.781  31.444  33.650  1.00  0.00     0.074 A 
ATOM     62  C   UNL A   1      37.560  32.215  33.549  1.00  0.00     0.031 C 
ATOM     63  C   UNL A   1      39.513  31.315  34.785  1.00  0.00     0.037 A 
BRANCH  50  64
ATOM     64  C   UNL A   1      44.434  27.637  34.136  1.00  0.00     0.064 A 
ATOM     65  C   UNL A   1      45.689  28.264  34.090  1.00  0.00     0.173 A 
ATOM     66  C   UNL A   1      44.340  26.406  34.803  1.00  0.00     0.173 A 
ATOM     67  F   UNL A   1      45.834  29.436  33.452  1.00  0.00    -0.203 F 
ATOM     68  C   UNL A   1      46.811  27.666  34.655  1.00  0.00     0.198 A 
ATOM     69  C   UNL A   1      45.457  25.826  35.396  1.00  0.00     0.198 A 
ATOM     70  F   UNL A   1      43.162  25.767  34.881  1.00  0.00    -0.203 F 
ATOM     71  F   UNL A   1      48.009  28.255  34.545  1.00  0.00    -0.200 F 
ATOM     72  C   UNL A   1      46.693  26.451  35.312  1.00  0.00     0.200 A 
ATOM     73  F   UNL A   1      45.340  24.659  36.043  1.00  0.00    -0.200 F 
ATOM     74  F   UNL A   1      47.774  25.876  35.858  1.00  0.00    -0.200 F 
ENDBRANCH  50  64
BRANCH  51  75
ATOM     75  C   UNL A   1      36.630  31.658  29.468  1.00  0.00     0.064 A 
ATOM     76  C   UNL A   1      36.622  33.037  29.217  1.00  0.00     0.173 A 
ATOM     77  C   UNL A   1      35.524  30.912  29.035  1.00  0.00     0.173 A 
ATOM     78  F   UNL A   1      37.638  33.800  29.645  1.00  0.00    -0.203 F 
ATOM     79  C   UNL A   1      35.556  33.644  28.556  1.00  0.00     0.198 A 
ATOM     80  C   UNL A   1      34.469  31.515  28.352  1.00  0.00     0.198 A 
ATOM     81  F   UNL A   1      35.472  29.591  29.266  1.00  0.00    -0.203 F 
ATOM     82  F   UNL A   1      35.559  34.969  28.356  1.00  0.00    -0.200 F 
ATOM     83  C   UNL A   1      34.485  32.881  28.114  1.00  0.00     0.200 A 
ATOM     84  F   UNL A   1      33.439  30.774  27.924  1.00  0.00    -0.200 F 
ATOM     85  F   UNL A   1      33.466  33.463  27.467  1.00  0.00    -0.200 F 
ENDBRANCH  51  75
BRANCH  63  86
ATOM     86  C   UNL A   1      39.032  32.009  36.029  1.00  0.00     0.064 A 
ATOM     87  C   UNL A   1      39.362  33.348  36.291  1.00  0.00     0.173 A 
ATOM     88  C   UNL A   1      38.143  31.370  36.908  1.00  0.00     0.173 A 
ATOM     89  F   UNL A   1      40.214  34.003  35.490  1.00  0.00    -0.203 F 
ATOM     90  C   UNL A   1      38.820  34.018  37.387  1.00  0.00     0.198 A 
ATOM     91  C   UNL A   1      37.580  32.053  37.984  1.00  0.00     0.198 A 
ATOM     92  F   UNL A   1      37.786  30.095  36.699  1.00  0.00    -0.203 F 
ATOM     93  F   UNL A   1      39.165  35.291  37.629  1.00  0.00    -0.200 F 
ATOM     94  C   UNL A   1      37.920  33.376  38.222  1.00  0.00     0.200 A 
ATOM     95  F   UNL A   1      36.694  31.437  38.778  1.00  0.00    -0.200 F 
ATOM     96  F   UNL A   1      37.378  34.033  39.258  1.00  0.00    -0.200 F 
ENDBRANCH  63  86
ENDBRANCH  37  38
ENDBRANCH  30  32
ENDBRANCH  29  30
ENDBRANCH  28  29
ENDBRANCH  27  28
ENDBRANCH  26  27
ENDBRANCH  25  26
ENDBRANCH   1  25
TORSDOF 19
ENDMDL
