MODEL 1
REMARK VINA RESULT:     -10.7      0.000      0.000
REMARK SMILES Cc1cc(N2CC[C@H](CC(=O)OCCOCCOCCOC(=O)c3ccc(-c4c5nc(c(-c6c(F)c(F)c(F)c(F)c6F)c6ccc([nH]6)c(-c6c(F)c(F)c(F)c(F)c6F)c6nc(c(-c7c(F)c(F)c(F)c(F)c7F)c7ccc4[nH]7)C=C6)C=C5)cc3)C2)ncc1[N+](=O)[O-]
REMARK SMILES IDX 16 1 15 2 14 3 13 4 12 5 10 6 11 7 9 8 8 9 5 10 6 11 87 12
REMARK SMILES IDX 7 13 4 14 1 15 2 16 3 17 90 18 89 19 88 20 91 21 92 22 93 23
REMARK SMILES IDX 17 24 18 25 19 26 20 27 21 28 22 29 23 30 24 31 25 32 86 33
REMARK SMILES IDX 26 34 85 35 27 36 28 37 29 38 79 39 30 40 84 41 78 42 80 43
REMARK SMILES IDX 31 44 83 45 77 46 76 47 32 49 64 50 44 51 63 52 45 53 48 54
REMARK SMILES IDX 62 55 81 56 46 57 47 58 61 60 82 61 49 62 33 63 34 64 42 65
REMARK SMILES IDX 35 66 36 67 40 68 43 69 37 70 38 71 41 72 39 73 65 74 66 75
REMARK SMILES IDX 74 76 67 77 68 78 72 79 75 80 69 81 70 82 73 83 71 84 50 85
REMARK SMILES IDX 51 86 59 87 52 88 53 89 57 90 60 91 54 92 55 93 58 94 56 95
REMARK H PARENT 80 48 48 59
REMARK Flexibility Score: inf
ROOT
ATOM      1  C   UNL A   1      40.754  21.675  26.123  1.00  0.00     0.188 C 
ENDROOT
BRANCH   1   2
ATOM      2  O   UNL A   1      39.397  21.454  25.751  1.00  0.00    -0.376 OA
BRANCH   2   3
ATOM      3  C   UNL A   1      38.459  22.464  26.126  1.00  0.00     0.202 C 
BRANCH   3   4
ATOM      4  C   UNL A   1      36.998  22.230  25.708  1.00  0.00     0.261 C 
BRANCH   4   5
ATOM      5  O   UNL A   1      36.150  23.396  25.817  1.00  0.00    -0.463 OA
BRANCH   5   6
ATOM      6  C   UNL A   1      34.943  23.199  26.408  1.00  0.00     0.306 C 
ATOM      7  O   UNL A   1      34.777  22.610  27.472  1.00  0.00    -0.252 OA
BRANCH   6   8
ATOM      8  C   UNL A   1      33.774  23.865  25.707  1.00  0.00     0.128 C 
BRANCH   8   9
ATOM      9  C   UNL A   1      32.781  23.041  24.888  1.00  0.00     0.021 C 
ATOM     10  N   UNL A   1      32.153  20.776  24.472  1.00  0.00    -0.356 N 
ATOM     11  C   UNL A   1      32.413  21.408  23.181  1.00  0.00     0.118 C 
ATOM     12  C   UNL A   1      32.500  21.679  25.570  1.00  0.00     0.122 C 
ATOM     13  C   UNL A   1      33.281  22.617  23.511  1.00  0.00     0.027 C 
BRANCH  10  14
ATOM     14  C   UNL A   1      32.534  19.451  24.623  1.00  0.00     0.129 A 
ATOM     15  C   UNL A   1      34.044  16.791  22.396  1.00  0.00     0.052 C 
ATOM     16  C   UNL A   1      33.478  17.411  23.644  1.00  0.00     0.032 A 
ATOM     17  C   UNL A   1      33.000  18.737  23.518  1.00  0.00     0.057 A 
ATOM     18  C   UNL A   1      33.394  16.824  24.913  1.00  0.00     0.290 A 
ATOM     19  C   UNL A   1      32.891  17.590  25.962  1.00  0.00     0.199 A 
ATOM     20  N   UNL A   1      32.476  18.877  25.840  1.00  0.00    -0.232 NA
BRANCH  18  21
ATOM     21  N   UNL A   1      33.795  15.453  25.233  1.00  0.00     0.064 N 
ATOM     22  O   UNL A   1      35.007  15.230  25.376  1.00  0.00    -0.258 OA
ATOM     23  O   UNL A   1      32.917  14.594  25.376  1.00  0.00    -0.258 OA
ENDBRANCH  18  21
ENDBRANCH  10  14
ENDBRANCH   8   9
ENDBRANCH   6   8
ENDBRANCH   5   6
ENDBRANCH   4   5
ENDBRANCH   3   4
ENDBRANCH   2   3
ENDBRANCH   1   2
BRANCH   1  24
ATOM     24  C   UNL A   1      41.184  21.075  27.462  1.00  0.00     0.188 C 
BRANCH  24  25
ATOM     25  O   UNL A   1      41.663  19.741  27.413  1.00  0.00    -0.376 OA
BRANCH  25  26
ATOM     26  C   UNL A   1      41.719  19.113  26.130  1.00  0.00     0.202 C 
BRANCH  26  27
ATOM     27  C   UNL A   1      43.050  18.455  25.697  1.00  0.00     0.261 C 
BRANCH  27  28
ATOM     28  O   UNL A   1      43.536  18.785  24.375  1.00  0.00    -0.460 OA
BRANCH  28  29
ATOM     29  C   UNL A   1      44.741  19.390  24.280  1.00  0.00     0.338 C 
ATOM     30  O   UNL A   1      45.690  19.006  23.614  1.00  0.00    -0.246 OA
BRANCH  29  31
ATOM     31  C   UNL A   1      44.654  20.749  24.888  1.00  0.00     0.060 A 
ATOM     32  C   UNL A   1      44.289  21.815  24.051  1.00  0.00     0.016 A 
ATOM     33  C   UNL A   1      44.850  20.985  26.253  1.00  0.00     0.016 A 
ATOM     34  C   UNL A   1      44.170  23.112  24.559  1.00  0.00     0.010 A 
ATOM     35  C   UNL A   1      44.746  22.292  26.760  1.00  0.00     0.010 A 
ATOM     36  C   UNL A   1      44.441  23.370  25.908  1.00  0.00    -0.014 A 
BRANCH  36  37
ATOM     37  C   UNL A   1      44.597  24.781  26.362  1.00  0.00     0.031 A 
ATOM     38  C   UNL A   1      45.951  25.432  26.235  1.00  0.00     0.074 A 
ATOM     39  C   UNL A   1      43.556  25.508  26.811  1.00  0.00     0.049 A 
ATOM     40  N   UNL A   1      46.324  26.652  26.533  1.00  0.00    -0.248 NA
ATOM     41  C   UNL A   1      47.029  24.590  25.693  1.00  0.00     0.031 C 
ATOM     42  C   UNL A   1      42.183  25.029  26.948  1.00  0.00     0.029 A 
ATOM     43  N   UNL A   1      43.498  26.816  27.233  1.00  0.00    -0.354 N 
ATOM     44  C   UNL A   1      47.675  26.723  26.214  1.00  0.00     0.074 A 
ATOM     45  C   UNL A   1      48.065  25.414  25.736  1.00  0.00     0.031 C 
ATOM     46  C   UNL A   1      41.417  26.026  27.424  1.00  0.00     0.029 A 
ATOM     47  C   UNL A   1      42.249  27.210  27.652  1.00  0.00     0.049 A 
ATOM     48  H   UNL A   1      44.277  27.416  27.234  1.00  0.00     0.167 HD
ATOM     49  C   UNL A   1      48.515  27.783  26.294  1.00  0.00     0.037 A 
ATOM     50  C   UNL A   1      41.830  28.381  28.175  1.00  0.00     0.037 A 
ATOM     51  C   UNL A   1      48.138  29.088  26.772  1.00  0.00     0.049 A 
ATOM     52  C   UNL A   1      42.806  29.522  28.334  1.00  0.00     0.074 A 
ATOM     53  C   UNL A   1      48.921  30.226  26.877  1.00  0.00     0.029 A 
ATOM     54  N   UNL A   1      46.876  29.429  27.235  1.00  0.00    -0.354 N 
ATOM     55  N   UNL A   1      44.072  29.589  27.998  1.00  0.00    -0.248 NA
ATOM     56  C   UNL A   1      42.288  30.758  28.941  1.00  0.00     0.031 C 
ATOM     57  C   UNL A   1      48.151  31.237  27.461  1.00  0.00     0.029 A 
ATOM     58  C   UNL A   1      46.868  30.751  27.655  1.00  0.00     0.049 A 
ATOM     59  H   UNL A   1      46.102  28.823  27.261  1.00  0.00     0.167 HD
ATOM     60  C   UNL A   1      44.489  30.876  28.322  1.00  0.00     0.074 A 
ATOM     61  C   UNL A   1      43.336  31.564  28.860  1.00  0.00     0.031 C 
ATOM     62  C   UNL A   1      45.716  31.435  28.186  1.00  0.00     0.037 A 
BRANCH  49  63
ATOM     63  C   UNL A   1      49.942  27.571  25.879  1.00  0.00     0.064 A 
ATOM     64  C   UNL A   1      50.954  27.310  26.815  1.00  0.00     0.173 A 
ATOM     65  C   UNL A   1      50.295  27.587  24.520  1.00  0.00     0.173 A 
ATOM     66  F   UNL A   1      50.673  27.298  28.127  1.00  0.00    -0.203 F 
ATOM     67  C   UNL A   1      52.269  27.098  26.410  1.00  0.00     0.198 A 
ATOM     68  C   UNL A   1      51.604  27.342  24.116  1.00  0.00     0.198 A 
ATOM     69  F   UNL A   1      49.366  27.828  23.583  1.00  0.00    -0.203 F 
ATOM     70  F   UNL A   1      53.227  26.898  27.325  1.00  0.00    -0.200 F 
ATOM     71  C   UNL A   1      52.591  27.105  25.061  1.00  0.00     0.200 A 
ATOM     72  F   UNL A   1      51.911  27.335  22.811  1.00  0.00    -0.200 F 
ATOM     73  F   UNL A   1      53.856  26.890  24.671  1.00  0.00    -0.200 F 
ENDBRANCH  49  63
BRANCH  50  74
ATOM     74  C   UNL A   1      40.414  28.545  28.610  1.00  0.00     0.064 A 
ATOM     75  C   UNL A   1      39.432  29.027  27.730  1.00  0.00     0.173 A 
ATOM     76  C   UNL A   1      40.026  28.280  29.932  1.00  0.00     0.173 A 
ATOM     77  F   UNL A   1      39.758  29.328  26.465  1.00  0.00    -0.203 F 
ATOM     78  C   UNL A   1      38.128  29.262  28.163  1.00  0.00     0.198 A 
ATOM     79  C   UNL A   1      38.714  28.483  30.354  1.00  0.00     0.198 A 
ATOM     80  F   UNL A   1      40.926  27.829  30.818  1.00  0.00    -0.203 F 
ATOM     81  F   UNL A   1      37.229  29.783  27.318  1.00  0.00    -0.200 F 
ATOM     82  C   UNL A   1      37.768  28.983  29.473  1.00  0.00     0.200 A 
ATOM     83  F   UNL A   1      38.368  28.205  31.619  1.00  0.00    -0.200 F 
ATOM     84  F   UNL A   1      36.515  29.213  29.889  1.00  0.00    -0.200 F 
ENDBRANCH  50  74
BRANCH  62  85
ATOM     85  C   UNL A   1      45.872  32.878  28.585  1.00  0.00     0.064 A 
ATOM     86  C   UNL A   1      46.301  33.250  29.869  1.00  0.00     0.173 A 
ATOM     87  C   UNL A   1      45.608  33.903  27.663  1.00  0.00     0.173 A 
ATOM     88  F   UNL A   1      46.558  32.314  30.794  1.00  0.00    -0.203 F 
ATOM     89  C   UNL A   1      46.420  34.593  30.225  1.00  0.00     0.198 A 
ATOM     90  C   UNL A   1      45.763  35.244  28.011  1.00  0.00     0.198 A 
ATOM     91  F   UNL A   1      45.207  33.608  26.418  1.00  0.00    -0.203 F 
ATOM     92  F   UNL A   1      46.768  34.923  31.476  1.00  0.00    -0.200 F 
ATOM     93  C   UNL A   1      46.157  35.587  29.295  1.00  0.00     0.200 A 
ATOM     94  F   UNL A   1      45.527  36.202  27.105  1.00  0.00    -0.200 F 
ATOM     95  F   UNL A   1      46.273  36.877  29.639  1.00  0.00    -0.200 F 
ENDBRANCH  62  85
ENDBRANCH  36  37
ENDBRANCH  29  31
ENDBRANCH  28  29
ENDBRANCH  27  28
ENDBRANCH  26  27
ENDBRANCH  25  26
ENDBRANCH  24  25
ENDBRANCH   1  24
TORSDOF 20
ENDMDL
MODEL 2
REMARK VINA RESULT:     -10.2      3.686      8.912
REMARK SMILES Cc1cc(N2CC[C@H](CC(=O)OCCOCCOCCOC(=O)c3ccc(-c4c5nc(c(-c6c(F)c(F)c(F)c(F)c6F)c6ccc([nH]6)c(-c6c(F)c(F)c(F)c(F)c6F)c6nc(c(-c7c(F)c(F)c(F)c(F)c7F)c7ccc4[nH]7)C=C6)C=C5)cc3)C2)ncc1[N+](=O)[O-]
REMARK SMILES IDX 16 1 15 2 14 3 13 4 12 5 10 6 11 7 9 8 8 9 5 10 6 11 87 12
REMARK SMILES IDX 7 13 4 14 1 15 2 16 3 17 90 18 89 19 88 20 91 21 92 22 93 23
REMARK SMILES IDX 17 24 18 25 19 26 20 27 21 28 22 29 23 30 24 31 25 32 86 33
REMARK SMILES IDX 26 34 85 35 27 36 28 37 29 38 79 39 30 40 84 41 78 42 80 43
REMARK SMILES IDX 31 44 83 45 77 46 76 47 32 49 64 50 44 51 63 52 45 53 48 54
REMARK SMILES IDX 62 55 81 56 46 57 47 58 61 60 82 61 49 62 33 63 34 64 42 65
REMARK SMILES IDX 35 66 36 67 40 68 43 69 37 70 38 71 41 72 39 73 65 74 66 75
REMARK SMILES IDX 74 76 67 77 68 78 72 79 75 80 69 81 70 82 73 83 71 84 50 85
REMARK SMILES IDX 51 86 59 87 52 88 53 89 57 90 60 91 54 92 55 93 58 94 56 95
REMARK H PARENT 80 48 48 59
REMARK Flexibility Score: inf
ROOT
ATOM      1  C   UNL A   1      34.286  31.438  27.865  1.00  0.00     0.188 C 
ENDROOT
BRANCH   1   2
ATOM      2  O   UNL A   1      32.942  31.085  27.556  1.00  0.00    -0.376 OA
BRANCH   2   3
ATOM      3  C   UNL A   1      32.722  30.450  26.295  1.00  0.00     0.202 C 
BRANCH   3   4
ATOM      4  C   UNL A   1      32.456  28.937  26.327  1.00  0.00     0.261 C 
BRANCH   4   5
ATOM      5  O   UNL A   1      31.409  28.493  25.433  1.00  0.00    -0.463 OA
BRANCH   5   6
ATOM      6  C   UNL A   1      31.015  27.201  25.576  1.00  0.00     0.306 C 
ATOM      7  O   UNL A   1      31.063  26.570  26.629  1.00  0.00    -0.252 OA
BRANCH   6   8
ATOM      8  C   UNL A   1      30.389  26.586  24.339  1.00  0.00     0.128 C 
BRANCH   8   9
ATOM      9  C   UNL A   1      31.252  25.878  23.295  1.00  0.00     0.021 C 
ATOM     10  N   UNL A   1      32.171  23.730  22.801  1.00  0.00    -0.356 N 
ATOM     11  C   UNL A   1      33.267  24.697  22.783  1.00  0.00     0.118 C 
ATOM     12  C   UNL A   1      30.930  24.363  23.250  1.00  0.00     0.122 C 
ATOM     13  C   UNL A   1      32.748  25.883  23.589  1.00  0.00     0.027 C 
BRANCH  10  14
ATOM     14  C   UNL A   1      32.439  22.470  23.313  1.00  0.00     0.129 A 
ATOM     15  C   UNL A   1      33.693  21.086  26.603  1.00  0.00     0.052 C 
ATOM     16  C   UNL A   1      33.193  21.079  25.185  1.00  0.00     0.032 A 
ATOM     17  C   UNL A   1      32.984  22.346  24.591  1.00  0.00     0.057 A 
ATOM     18  C   UNL A   1      32.899  19.955  24.402  1.00  0.00     0.290 A 
ATOM     19  C   UNL A   1      32.384  20.158  23.124  1.00  0.00     0.199 A 
ATOM     20  N   UNL A   1      32.145  21.379  22.580  1.00  0.00    -0.232 NA
BRANCH  18  21
ATOM     21  N   UNL A   1      33.089  18.565  24.821  1.00  0.00     0.064 N 
ATOM     22  O   UNL A   1      34.203  18.056  24.623  1.00  0.00    -0.258 OA
ATOM     23  O   UNL A   1      32.153  17.976  25.374  1.00  0.00    -0.258 OA
ENDBRANCH  18  21
ENDBRANCH  10  14
ENDBRANCH   8   9
ENDBRANCH   6   8
ENDBRANCH   5   6
ENDBRANCH   4   5
ENDBRANCH   3   4
ENDBRANCH   2   3
ENDBRANCH   1   2
BRANCH   1  24
ATOM     24  C   UNL A   1      34.485  32.255  29.141  1.00  0.00     0.188 C 
BRANCH  24  25
ATOM     25  O   UNL A   1      33.983  33.581  29.107  1.00  0.00    -0.376 OA
BRANCH  25  26
ATOM     26  C   UNL A   1      34.079  34.348  30.310  1.00  0.00     0.202 C 
BRANCH  26  27
ATOM     27  C   UNL A   1      34.417  33.607  31.625  1.00  0.00     0.261 C 
BRANCH  27  28
ATOM     28  O   UNL A   1      35.734  33.836  32.177  1.00  0.00    -0.460 OA
BRANCH  28  29
ATOM     29  C   UNL A   1      36.291  32.847  32.912  1.00  0.00     0.338 C 
ATOM     30  O   UNL A   1      35.904  32.452  34.000  1.00  0.00    -0.246 OA
BRANCH  29  31
ATOM     31  C   UNL A   1      37.284  32.117  32.071  1.00  0.00     0.060 A 
ATOM     32  C   UNL A   1      38.298  31.406  32.732  1.00  0.00     0.016 A 
ATOM     33  C   UNL A   1      37.203  32.058  30.676  1.00  0.00     0.016 A 
ATOM     34  C   UNL A   1      39.251  30.684  32.008  1.00  0.00     0.010 A 
ATOM     35  C   UNL A   1      38.171  31.345  29.948  1.00  0.00     0.010 A 
ATOM     36  C   UNL A   1      39.223  30.684  30.608  1.00  0.00    -0.014 A 
BRANCH  36  37
ATOM     37  C   UNL A   1      40.401  30.163  29.857  1.00  0.00     0.031 A 
ATOM     38  C   UNL A   1      41.566  31.089  29.614  1.00  0.00     0.074 A 
ATOM     39  C   UNL A   1      40.484  28.881  29.454  1.00  0.00     0.049 A 
ATOM     40  N   UNL A   1      42.708  30.858  29.015  1.00  0.00    -0.248 NA
ATOM     41  C   UNL A   1      41.422  32.462  30.123  1.00  0.00     0.031 C 
ATOM     42  C   UNL A   1      39.458  27.861  29.655  1.00  0.00     0.029 A 
ATOM     43  N   UNL A   1      41.490  28.217  28.791  1.00  0.00    -0.354 N 
ATOM     44  C   UNL A   1      43.416  32.053  29.077  1.00  0.00     0.074 A 
ATOM     45  C   UNL A   1      42.560  33.016  29.736  1.00  0.00     0.031 C 
ATOM     46  C   UNL A   1      39.885  26.701  29.126  1.00  0.00     0.029 A 
ATOM     47  C   UNL A   1      41.204  26.900  28.522  1.00  0.00     0.049 A 
ATOM     48  H   UNL A   1      42.338  28.645  28.535  1.00  0.00     0.167 HD
ATOM     49  C   UNL A   1      44.669  32.323  28.639  1.00  0.00     0.037 A 
ATOM     50  C   UNL A   1      41.914  25.969  27.852  1.00  0.00     0.037 A 
ATOM     51  C   UNL A   1      45.526  31.374  27.978  1.00  0.00     0.049 A 
ATOM     52  C   UNL A   1      43.275  26.320  27.299  1.00  0.00     0.074 A 
ATOM     53  C   UNL A   1      46.817  31.557  27.511  1.00  0.00     0.029 A 
ATOM     54  N   UNL A   1      45.177  30.065  27.679  1.00  0.00    -0.354 N 
ATOM     55  N   UNL A   1      43.948  27.442  27.392  1.00  0.00    -0.248 NA
ATOM     56  C   UNL A   1      43.980  25.267  26.551  1.00  0.00     0.031 C 
ATOM     57  C   UNL A   1      47.225  30.381  26.875  1.00  0.00     0.029 A 
ATOM     58  C   UNL A   1      46.216  29.441  27.006  1.00  0.00     0.049 A 
ATOM     59  H   UNL A   1      44.318  29.643  27.910  1.00  0.00     0.167 HD
ATOM     60  C   UNL A   1      45.160  27.218  26.747  1.00  0.00     0.074 A 
ATOM     61  C   UNL A   1      45.140  25.848  26.285  1.00  0.00     0.031 C 
ATOM     62  C   UNL A   1      46.195  28.073  26.553  1.00  0.00     0.037 A 
BRANCH  49  63
ATOM     63  C   UNL A   1      45.186  33.719  28.838  1.00  0.00     0.064 A 
ATOM     64  C   UNL A   1      45.926  34.078  29.974  1.00  0.00     0.173 A 
ATOM     65  C   UNL A   1      44.974  34.700  27.856  1.00  0.00     0.173 A 
ATOM     66  F   UNL A   1      46.145  33.183  30.949  1.00  0.00    -0.203 F 
ATOM     67  C   UNL A   1      46.413  35.374  30.133  1.00  0.00     0.198 A 
ATOM     68  C   UNL A   1      45.490  35.985  28.003  1.00  0.00     0.198 A 
ATOM     69  F   UNL A   1      44.276  34.409  26.748  1.00  0.00    -0.203 F 
ATOM     70  F   UNL A   1      47.076  35.707  31.249  1.00  0.00    -0.200 F 
ATOM     71  C   UNL A   1      46.203  36.323  29.144  1.00  0.00     0.200 A 
ATOM     72  F   UNL A   1      45.299  36.896  27.039  1.00  0.00    -0.200 F 
ATOM     73  F   UNL A   1      46.682  37.566  29.292  1.00  0.00    -0.200 F 
ENDBRANCH  49  63
BRANCH  50  74
ATOM     74  C   UNL A   1      41.355  24.604  27.642  1.00  0.00     0.064 A 
ATOM     75  C   UNL A   1      41.917  23.481  28.269  1.00  0.00     0.173 A 
ATOM     76  C   UNL A   1      40.283  24.387  26.764  1.00  0.00     0.173 A 
ATOM     77  F   UNL A   1      42.966  23.630  29.091  1.00  0.00    -0.203 F 
ATOM     78  C   UNL A   1      41.447  22.196  28.004  1.00  0.00     0.198 A 
ATOM     79  C   UNL A   1      39.791  23.105  26.526  1.00  0.00     0.198 A 
ATOM     80  F   UNL A   1      39.715  25.423  26.129  1.00  0.00    -0.203 F 
ATOM     81  F   UNL A   1      42.046  21.138  28.567  1.00  0.00    -0.200 F 
ATOM     82  C   UNL A   1      40.380  22.009  27.138  1.00  0.00     0.200 A 
ATOM     83  F   UNL A   1      38.755  22.930  25.695  1.00  0.00    -0.200 F 
ATOM     84  F   UNL A   1      39.932  20.773  26.881  1.00  0.00    -0.200 F 
ENDBRANCH  50  74
BRANCH  62  85
ATOM     85  C   UNL A   1      47.414  27.542  25.848  1.00  0.00     0.064 A 
ATOM     86  C   UNL A   1      48.469  26.935  26.546  1.00  0.00     0.173 A 
ATOM     87  C   UNL A   1      47.518  27.622  24.450  1.00  0.00     0.173 A 
ATOM     88  F   UNL A   1      48.429  26.839  27.884  1.00  0.00    -0.203 F 
ATOM     89  C   UNL A   1      49.599  26.467  25.876  1.00  0.00     0.198 A 
ATOM     90  C   UNL A   1      48.633  27.121  23.780  1.00  0.00     0.198 A 
ATOM     91  F   UNL A   1      46.535  28.181  23.729  1.00  0.00    -0.203 F 
ATOM     92  F   UNL A   1      50.621  25.951  26.572  1.00  0.00    -0.200 F 
ATOM     93  C   UNL A   1      49.677  26.556  24.495  1.00  0.00     0.200 A 
ATOM     94  F   UNL A   1      48.696  27.190  22.443  1.00  0.00    -0.200 F 
ATOM     95  F   UNL A   1      50.763  26.104  23.852  1.00  0.00    -0.200 F 
ENDBRANCH  62  85
ENDBRANCH  36  37
ENDBRANCH  29  31
ENDBRANCH  28  29
ENDBRANCH  27  28
ENDBRANCH  26  27
ENDBRANCH  25  26
ENDBRANCH  24  25
ENDBRANCH   1  24
TORSDOF 20
ENDMDL
MODEL 3
REMARK VINA RESULT:     -10.1      6.884     12.241
REMARK SMILES Cc1cc(N2CC[C@H](CC(=O)OCCOCCOCCOC(=O)c3ccc(-c4c5nc(c(-c6c(F)c(F)c(F)c(F)c6F)c6ccc([nH]6)c(-c6c(F)c(F)c(F)c(F)c6F)c6nc(c(-c7c(F)c(F)c(F)c(F)c7F)c7ccc4[nH]7)C=C6)C=C5)cc3)C2)ncc1[N+](=O)[O-]
REMARK SMILES IDX 16 1 15 2 14 3 13 4 12 5 10 6 11 7 9 8 8 9 5 10 6 11 87 12
REMARK SMILES IDX 7 13 4 14 1 15 2 16 3 17 90 18 89 19 88 20 91 21 92 22 93 23
REMARK SMILES IDX 17 24 18 25 19 26 20 27 21 28 22 29 23 30 24 31 25 32 86 33
REMARK SMILES IDX 26 34 85 35 27 36 28 37 29 38 79 39 30 40 84 41 78 42 80 43
REMARK SMILES IDX 31 44 83 45 77 46 76 47 32 49 64 50 44 51 63 52 45 53 48 54
REMARK SMILES IDX 62 55 81 56 46 57 47 58 61 60 82 61 49 62 33 63 34 64 42 65
REMARK SMILES IDX 35 66 36 67 40 68 43 69 37 70 38 71 41 72 39 73 65 74 66 75
REMARK SMILES IDX 74 76 67 77 68 78 72 79 75 80 69 81 70 82 73 83 71 84 50 85
REMARK SMILES IDX 51 86 59 87 52 88 53 89 57 90 60 91 54 92 55 93 58 94 56 95
REMARK H PARENT 80 48 48 59
REMARK Flexibility Score: inf
ROOT
ATOM      1  C   UNL A   1      34.043  32.020  28.450  1.00  0.00     0.188 C 
ENDROOT
BRANCH   1   2
ATOM      2  O   UNL A   1      33.904  30.912  27.567  1.00  0.00    -0.376 OA
BRANCH   2   3
ATOM      3  C   UNL A   1      32.670  30.813  26.854  1.00  0.00     0.202 C 
BRANCH   3   4
ATOM      4  C   UNL A   1      32.597  29.739  25.758  1.00  0.00     0.261 C 
BRANCH   4   5
ATOM      5  O   UNL A   1      32.861  28.393  26.218  1.00  0.00    -0.463 OA
BRANCH   5   6
ATOM      6  C   UNL A   1      31.830  27.516  26.106  1.00  0.00     0.306 C 
ATOM      7  O   UNL A   1      31.428  26.794  27.015  1.00  0.00    -0.252 OA
BRANCH   6   8
ATOM      8  C   UNL A   1      31.104  27.553  24.775  1.00  0.00     0.128 C 
BRANCH   8   9
ATOM      9  C   UNL A   1      31.526  26.635  23.629  1.00  0.00     0.021 C 
ATOM     10  N   UNL A   1      32.867  24.707  23.197  1.00  0.00    -0.356 N 
ATOM     11  C   UNL A   1      33.284  25.755  22.268  1.00  0.00     0.118 C 
ATOM     12  C   UNL A   1      31.891  25.225  24.157  1.00  0.00     0.122 C 
ATOM     13  C   UNL A   1      32.804  27.052  22.909  1.00  0.00     0.027 C 
BRANCH  10  14
ATOM     14  C   UNL A   1      33.853  23.878  23.710  1.00  0.00     0.129 A 
ATOM     15  C   UNL A   1      34.183  21.576  26.694  1.00  0.00     0.052 C 
ATOM     16  C   UNL A   1      34.581  22.296  25.435  1.00  0.00     0.032 A 
ATOM     17  C   UNL A   1      33.638  23.215  24.919  1.00  0.00     0.057 A 
ATOM     18  C   UNL A   1      35.772  22.137  24.714  1.00  0.00     0.290 A 
ATOM     19  C   UNL A   1      35.927  22.854  23.531  1.00  0.00     0.199 A 
ATOM     20  N   UNL A   1      34.996  23.701  23.020  1.00  0.00    -0.232 NA
BRANCH  18  21
ATOM     21  N   UNL A   1      36.883  21.269  25.108  1.00  0.00     0.064 N 
ATOM     22  O   UNL A   1      36.719  20.044  24.996  1.00  0.00    -0.258 OA
ATOM     23  O   UNL A   1      37.934  21.788  25.501  1.00  0.00    -0.258 OA
ENDBRANCH  18  21
ENDBRANCH  10  14
ENDBRANCH   8   9
ENDBRANCH   6   8
ENDBRANCH   5   6
ENDBRANCH   4   5
ENDBRANCH   3   4
ENDBRANCH   2   3
ENDBRANCH   1   2
BRANCH   1  24
ATOM     24  C   UNL A   1      35.025  33.106  28.011  1.00  0.00     0.188 C 
BRANCH  24  25
ATOM     25  O   UNL A   1      35.094  34.249  28.847  1.00  0.00    -0.376 OA
BRANCH  25  26
ATOM     26  C   UNL A   1      34.172  35.310  28.583  1.00  0.00     0.202 C 
BRANCH  26  27
ATOM     27  C   UNL A   1      32.910  35.418  29.469  1.00  0.00     0.261 C 
BRANCH  27  28
ATOM     28  O   UNL A   1      33.031  36.204  30.677  1.00  0.00    -0.460 OA
BRANCH  28  29
ATOM     29  C   UNL A   1      32.707  35.614  31.849  1.00  0.00     0.338 C 
ATOM     30  O   UNL A   1      31.581  35.472  32.298  1.00  0.00    -0.246 OA
BRANCH  29  31
ATOM     31  C   UNL A   1      33.908  34.909  32.386  1.00  0.00     0.060 A 
ATOM     32  C   UNL A   1      35.150  35.548  32.257  1.00  0.00     0.016 A 
ATOM     33  C   UNL A   1      33.831  33.688  33.065  1.00  0.00     0.016 A 
ATOM     34  C   UNL A   1      36.313  34.952  32.754  1.00  0.00     0.010 A 
ATOM     35  C   UNL A   1      35.003  33.082  33.551  1.00  0.00     0.010 A 
ATOM     36  C   UNL A   1      36.257  33.694  33.365  1.00  0.00    -0.014 A 
BRANCH  36  37
ATOM     37  C   UNL A   1      37.524  32.952  33.620  1.00  0.00     0.031 A 
ATOM     38  C   UNL A   1      38.258  33.204  34.914  1.00  0.00     0.074 A 
ATOM     39  C   UNL A   1      37.991  32.019  32.769  1.00  0.00     0.049 A 
ATOM     40  N   UNL A   1      39.358  32.661  35.372  1.00  0.00    -0.248 NA
ATOM     41  C   UNL A   1      37.662  34.204  35.814  1.00  0.00     0.031 C 
ATOM     42  C   UNL A   1      37.369  31.637  31.505  1.00  0.00     0.029 A 
ATOM     43  N   UNL A   1      39.106  31.216  32.850  1.00  0.00    -0.354 N 
ATOM     44  C   UNL A   1      39.584  33.250  36.610  1.00  0.00     0.074 A 
ATOM     45  C   UNL A   1      38.529  34.220  36.814  1.00  0.00     0.031 C 
ATOM     46  C   UNL A   1      38.110  30.676  30.926  1.00  0.00     0.029 A 
ATOM     47  C   UNL A   1      39.277  30.392  31.764  1.00  0.00     0.049 A 
ATOM     48  H   UNL A   1      39.724  31.229  33.616  1.00  0.00     0.167 HD
ATOM     49  C   UNL A   1      40.570  32.999  37.505  1.00  0.00     0.037 A 
ATOM     50  C   UNL A   1      40.267  29.523  31.471  1.00  0.00     0.037 A 
ATOM     51  C   UNL A   1      41.626  32.040  37.309  1.00  0.00     0.049 A 
ATOM     52  C   UNL A   1      41.401  29.323  32.448  1.00  0.00     0.074 A 
ATOM     53  C   UNL A   1      42.661  31.711  38.168  1.00  0.00     0.029 A 
ATOM     54  N   UNL A   1      41.790  31.264  36.172  1.00  0.00    -0.354 N 
ATOM     55  N   UNL A   1      41.587  29.860  33.630  1.00  0.00    -0.248 NA
ATOM     56  C   UNL A   1      42.463  28.385  32.050  1.00  0.00     0.031 C 
ATOM     57  C   UNL A   1      43.486  30.782  37.527  1.00  0.00     0.029 A 
ATOM     58  C   UNL A   1      42.928  30.479  36.296  1.00  0.00     0.049 A 
ATOM     59  H   UNL A   1      41.189  31.269  35.393  1.00  0.00     0.167 HD
ATOM     60  C   UNL A   1      42.762  29.304  34.125  1.00  0.00     0.074 A 
ATOM     61  C   UNL A   1      43.234  28.371  33.126  1.00  0.00     0.031 C 
ATOM     62  C   UNL A   1      43.392  29.546  35.301  1.00  0.00     0.037 A 
BRANCH  49  63
ATOM     63  C   UNL A   1      40.570  33.797  38.777  1.00  0.00     0.064 A 
ATOM     64  C   UNL A   1      41.353  34.952  38.925  1.00  0.00     0.173 A 
ATOM     65  C   UNL A   1      39.744  33.423  39.849  1.00  0.00     0.173 A 
ATOM     66  F   UNL A   1      42.170  35.345  37.937  1.00  0.00    -0.203 F 
ATOM     67  C   UNL A   1      41.327  35.689  40.107  1.00  0.00     0.198 A 
ATOM     68  C   UNL A   1      39.697  34.180  41.016  1.00  0.00     0.198 A 
ATOM     69  F   UNL A   1      38.974  32.328  39.759  1.00  0.00    -0.203 F 
ATOM     70  F   UNL A   1      42.118  36.762  40.243  1.00  0.00    -0.200 F 
ATOM     71  C   UNL A   1      40.492  35.308  41.147  1.00  0.00     0.200 A 
ATOM     72  F   UNL A   1      38.878  33.819  42.014  1.00  0.00    -0.200 F 
ATOM     73  F   UNL A   1      40.460  36.024  42.279  1.00  0.00    -0.200 F 
ENDBRANCH  49  63
BRANCH  50  74
ATOM     74  C   UNL A   1      40.253  28.774  30.183  1.00  0.00     0.064 A 
ATOM     75  C   UNL A   1      40.878  29.286  29.035  1.00  0.00     0.173 A 
ATOM     76  C   UNL A   1      39.565  27.558  30.058  1.00  0.00     0.173 A 
ATOM     77  F   UNL A   1      41.521  30.462  29.092  1.00  0.00    -0.203 F 
ATOM     78  C   UNL A   1      40.791  28.626  27.810  1.00  0.00     0.198 A 
ATOM     79  C   UNL A   1      39.508  26.882  28.841  1.00  0.00     0.198 A 
ATOM     80  F   UNL A   1      38.941  27.028  31.120  1.00  0.00    -0.203 F 
ATOM     81  F   UNL A   1      41.341  29.172  26.718  1.00  0.00    -0.200 F 
ATOM     82  C   UNL A   1      40.112  27.421  27.716  1.00  0.00     0.200 A 
ATOM     83  F   UNL A   1      38.857  25.714  28.756  1.00  0.00    -0.200 F 
ATOM     84  F   UNL A   1      40.025  26.789  26.537  1.00  0.00    -0.200 F 
ENDBRANCH  50  74
BRANCH  62  85
ATOM     85  C   UNL A   1      44.641  28.760  35.597  1.00  0.00     0.064 A 
ATOM     86  C   UNL A   1      45.916  29.236  35.254  1.00  0.00     0.173 A 
ATOM     87  C   UNL A   1      44.562  27.520  36.252  1.00  0.00     0.173 A 
ATOM     88  F   UNL A   1      46.051  30.410  34.618  1.00  0.00    -0.203 F 
ATOM     89  C   UNL A   1      47.059  28.483  35.519  1.00  0.00     0.198 A 
ATOM     90  C   UNL A   1      45.710  26.787  36.548  1.00  0.00     0.198 A 
ATOM     91  F   UNL A   1      43.372  27.020  36.614  1.00  0.00    -0.203 F 
ATOM     92  F   UNL A   1      48.259  28.930  35.124  1.00  0.00    -0.200 F 
ATOM     93  C   UNL A   1      46.955  27.264  36.170  1.00  0.00     0.200 A 
ATOM     94  F   UNL A   1      45.608  25.618  37.194  1.00  0.00    -0.200 F 
ATOM     95  F   UNL A   1      48.056  26.542  36.425  1.00  0.00    -0.200 F 
ENDBRANCH  62  85
ENDBRANCH  36  37
ENDBRANCH  29  31
ENDBRANCH  28  29
ENDBRANCH  27  28
ENDBRANCH  26  27
ENDBRANCH  25  26
ENDBRANCH  24  25
ENDBRANCH   1  24
TORSDOF 20
ENDMDL
