MODEL 1
REMARK VINA RESULT:     -10.6      0.000      0.000
REMARK SMILES Cc1cc(Cl)ccc1OCC(=O)Nc1ccc(CC(=O)OCCOCCOCCOC(=O)c2ccc(-c3c4nc(c(-c5c(F)c(F)c(F)c(F)c5F)c5ccc([nH]5)c(-c5c(F)c(F)c(F)c(F)c5F)c5nc(c(-c6c(F)c(F)c(F)c(F)c6F)c6ccc3[nH]6)C=C5)C=C4)cc2)cc1
REMARK SMILES IDX 24 1 23 2 22 3 21 4 19 5 20 6 18 7 17 8 14 9 15 10 97 11
REMARK SMILES IDX 16 12 96 13 13 14 11 15 12 16 10 18 9 19 8 20 1 21 2 22 3 23
REMARK SMILES IDX 4 24 7 25 5 26 6 27 25 28 26 29 27 30 28 31 29 32 30 33
REMARK SMILES IDX 31 34 32 35 33 36 34 37 95 38 35 39 94 40 36 41 37 42 38 43
REMARK SMILES IDX 88 44 39 45 93 46 87 47 89 48 40 49 92 50 86 51 85 52 41 54
REMARK SMILES IDX 73 55 53 56 72 57 54 58 57 59 71 60 90 61 55 62 56 63 70 65
REMARK SMILES IDX 91 66 58 67 42 68 43 69 51 70 44 71 45 72 49 73 52 74 46 75
REMARK SMILES IDX 47 76 50 77 48 78 74 79 75 80 83 81 76 82 77 83 81 84 84 85
REMARK SMILES IDX 78 86 79 87 82 88 80 89 59 90 60 91 68 92 61 93 62 94 66 95
REMARK SMILES IDX 69 96 63 97 64 98 67 99 65 100
REMARK H PARENT 13 17 89 53 57 64
REMARK Flexibility Score: inf
ROOT
ATOM      1  O   UNL A   1      33.734  30.753  26.999  1.00  0.00    -0.376 OA
ENDROOT
BRANCH   1   2
ATOM      2  C   UNL A   1      32.449  30.602  26.420  1.00  0.00     0.202 C 
BRANCH   2   3
ATOM      3  C   UNL A   1      32.104  29.200  25.909  1.00  0.00     0.261 C 
BRANCH   3   4
ATOM      4  O   UNL A   1      31.837  29.127  24.491  1.00  0.00    -0.463 OA
BRANCH   4   5
ATOM      5  C   UNL A   1      32.775  28.503  23.738  1.00  0.00     0.310 C 
ATOM      6  O   UNL A   1      33.764  29.062  23.270  1.00  0.00    -0.252 OA
BRANCH   5   7
ATOM      7  C   UNL A   1      32.515  27.039  23.451  1.00  0.00     0.158 C 
BRANCH   7   8
ATOM      8  C   UNL A   1      33.521  25.972  23.830  1.00  0.00    -0.037 A 
ATOM      9  C   UNL A   1      35.179  23.828  24.599  1.00  0.00     0.041 A 
ATOM     10  C   UNL A   1      34.705  23.904  23.295  1.00  0.00     0.026 A 
ATOM     11  C   UNL A   1      34.882  24.843  25.504  1.00  0.00     0.026 A 
ATOM     12  C   UNL A   1      33.850  24.950  22.925  1.00  0.00     0.006 A 
ATOM     13  C   UNL A   1      34.066  25.916  25.120  1.00  0.00     0.006 A 
BRANCH   9  14
ATOM     14  N   UNL A   1      35.996  22.751  24.950  1.00  0.00    -0.323 N 
ATOM     15  C   UNL A   1      35.662  21.422  24.964  1.00  0.00     0.262 C 
ATOM     16  O   UNL A   1      36.551  20.603  25.217  1.00  0.00    -0.271 OA
ATOM     17  H   UNL A   1      36.918  22.972  25.217  1.00  0.00     0.170 HD
BRANCH  15  18
ATOM     18  C   UNL A   1      34.272  20.962  24.478  1.00  0.00     0.329 C 
BRANCH  18  19
ATOM     19  O   UNL A   1      33.117  20.907  25.279  1.00  0.00    -0.483 OA
BRANCH  19  20
ATOM     20  C   UNL A   1      32.426  22.031  25.612  1.00  0.00     0.123 A 
ATOM     21  C   UNL A   1      33.115  22.341  28.086  1.00  0.00     0.048 C 
ATOM     22  C   UNL A   1      32.408  22.735  26.821  1.00  0.00    -0.007 A 
ATOM     23  C   UNL A   1      31.633  23.915  26.897  1.00  0.00     0.027 A 
ATOM     24  C   UNL A   1      30.844  24.338  25.828  1.00  0.00     0.041 A 
ATOM     25  C   UNL A   1      31.583  22.444  24.563  1.00  0.00     0.048 A 
ATOM     26  Cl  UNL A   1      29.900  25.768  25.968  1.00  0.00    -0.084 Cl
ATOM     27  C   UNL A   1      30.802  23.594  24.660  1.00  0.00     0.024 A 
ENDBRANCH  19  20
ENDBRANCH  18  19
ENDBRANCH  15  18
ENDBRANCH   9  14
ENDBRANCH   7   8
ENDBRANCH   5   7
ENDBRANCH   4   5
ENDBRANCH   3   4
ENDBRANCH   2   3
ENDBRANCH   1   2
BRANCH   1  28
ATOM     28  C   UNL A   1      33.878  31.588  28.145  1.00  0.00     0.188 C 
BRANCH  28  29
ATOM     29  C   UNL A   1      34.634  32.922  28.040  1.00  0.00     0.188 C 
BRANCH  29  30
ATOM     30  O   UNL A   1      34.209  33.862  29.016  1.00  0.00    -0.376 OA
BRANCH  30  31
ATOM     31  C   UNL A   1      34.072  35.187  28.532  1.00  0.00     0.202 C 
BRANCH  31  32
ATOM     32  C   UNL A   1      33.049  35.946  29.379  1.00  0.00     0.261 C 
BRANCH  32  33
ATOM     33  O   UNL A   1      32.467  35.180  30.457  1.00  0.00    -0.460 OA
BRANCH  33  34
ATOM     34  C   UNL A   1      32.650  35.644  31.708  1.00  0.00     0.338 C 
ATOM     35  O   UNL A   1      31.918  36.404  32.331  1.00  0.00    -0.246 OA
BRANCH  34  36
ATOM     36  C   UNL A   1      33.814  34.958  32.306  1.00  0.00     0.060 A 
ATOM     37  C   UNL A   1      35.081  35.541  32.186  1.00  0.00     0.016 A 
ATOM     38  C   UNL A   1      33.672  33.727  32.947  1.00  0.00     0.016 A 
ATOM     39  C   UNL A   1      36.214  34.884  32.673  1.00  0.00     0.010 A 
ATOM     40  C   UNL A   1      34.808  33.061  33.424  1.00  0.00     0.010 A 
ATOM     41  C   UNL A   1      36.090  33.620  33.264  1.00  0.00    -0.014 A 
BRANCH  41  42
ATOM     42  C   UNL A   1      37.298  32.808  33.571  1.00  0.00     0.031 A 
ATOM     43  C   UNL A   1      38.033  33.061  34.861  1.00  0.00     0.074 A 
ATOM     44  C   UNL A   1      37.742  31.855  32.731  1.00  0.00     0.049 A 
ATOM     45  N   UNL A   1      39.163  32.560  35.294  1.00  0.00    -0.248 NA
ATOM     46  C   UNL A   1      37.405  34.015  35.788  1.00  0.00     0.031 C 
ATOM     47  C   UNL A   1      37.099  31.463  31.480  1.00  0.00     0.029 A 
ATOM     48  N   UNL A   1      38.855  31.051  32.804  1.00  0.00    -0.354 N 
ATOM     49  C   UNL A   1      39.391  33.152  36.529  1.00  0.00     0.074 A 
ATOM     50  C   UNL A   1      38.295  34.067  36.768  1.00  0.00     0.031 C 
ATOM     51  C   UNL A   1      37.833  30.500  30.896  1.00  0.00     0.029 A 
ATOM     52  C   UNL A   1      39.022  30.240  31.708  1.00  0.00     0.049 A 
ATOM     53  H   UNL A   1      39.473  31.055  33.570  1.00  0.00     0.167 HD
ATOM     54  C   UNL A   1      40.416  32.947  37.392  1.00  0.00     0.037 A 
ATOM     55  C   UNL A   1      40.034  29.412  31.381  1.00  0.00     0.037 A 
ATOM     56  C   UNL A   1      41.505  32.034  37.158  1.00  0.00     0.049 A 
ATOM     57  C   UNL A   1      41.212  29.269  32.315  1.00  0.00     0.074 A 
ATOM     58  C   UNL A   1      42.583  31.750  37.978  1.00  0.00     0.029 A 
ATOM     59  N   UNL A   1      41.658  31.260  36.017  1.00  0.00    -0.354 N 
ATOM     60  N   UNL A   1      41.418  29.825  33.484  1.00  0.00    -0.248 NA
ATOM     61  C   UNL A   1      42.302  28.384  31.876  1.00  0.00     0.031 C 
ATOM     62  C   UNL A   1      43.420  30.851  37.307  1.00  0.00     0.029 A 
ATOM     63  C   UNL A   1      42.828  30.523  36.099  1.00  0.00     0.049 A 
ATOM     64  H   UNL A   1      41.027  31.240  35.261  1.00  0.00     0.167 HD
ATOM     65  C   UNL A   1      42.637  29.331  33.935  1.00  0.00     0.074 A 
ATOM     66  C   UNL A   1      43.120  28.423  32.919  1.00  0.00     0.031 C 
ATOM     67  C   UNL A   1      43.295  29.607  35.088  1.00  0.00     0.037 A 
BRANCH  54  68
ATOM     68  C   UNL A   1      40.428  33.756  38.657  1.00  0.00     0.064 A 
ATOM     69  C   UNL A   1      39.690  33.375  39.789  1.00  0.00     0.173 A 
ATOM     70  C   UNL A   1      41.210  34.919  38.747  1.00  0.00     0.173 A 
ATOM     71  F   UNL A   1      38.915  32.281  39.753  1.00  0.00    -0.203 F 
ATOM     72  C   UNL A   1      39.709  34.145  40.950  1.00  0.00     0.198 A 
ATOM     73  C   UNL A   1      41.253  35.667  39.920  1.00  0.00     0.198 A 
ATOM     74  F   UNL A   1      41.940  35.326  37.698  1.00  0.00    -0.203 F 
ATOM     75  F   UNL A   1      38.951  33.793  41.997  1.00  0.00    -0.200 F 
ATOM     76  C   UNL A   1      40.495  35.286  41.017  1.00  0.00     0.200 A 
ATOM     77  F   UNL A   1      42.026  36.760  39.988  1.00  0.00    -0.200 F 
ATOM     78  F   UNL A   1      40.515  36.022  42.136  1.00  0.00    -0.200 F 
ENDBRANCH  54  68
BRANCH  55  79
ATOM     79  C   UNL A   1      39.999  28.657  30.098  1.00  0.00     0.064 A 
ATOM     80  C   UNL A   1      39.442  27.372  30.030  1.00  0.00     0.173 A 
ATOM     81  C   UNL A   1      40.555  29.187  28.924  1.00  0.00     0.173 A 
ATOM     82  F   UNL A   1      38.928  26.806  31.132  1.00  0.00    -0.203 F 
ATOM     83  C   UNL A   1      39.460  26.640  28.844  1.00  0.00     0.198 A 
ATOM     84  C   UNL A   1      40.542  28.468  27.730  1.00  0.00     0.198 A 
ATOM     85  F   UNL A   1      41.109  30.408  28.936  1.00  0.00    -0.203 F 
ATOM     86  F   UNL A   1      38.972  25.392  28.822  1.00  0.00    -0.200 F 
ATOM     87  C   UNL A   1      40.004  27.191  27.693  1.00  0.00     0.200 A 
ATOM     88  F   UNL A   1      41.061  29.009  26.620  1.00  0.00    -0.200 F 
ATOM     89  F   UNL A   1      40.020  26.487  26.554  1.00  0.00    -0.200 F 
ENDBRANCH  55  79
BRANCH  67  90
ATOM     90  C   UNL A   1      44.586  28.879  35.345  1.00  0.00     0.064 A 
ATOM     91  C   UNL A   1      45.827  29.410  34.966  1.00  0.00     0.173 A 
ATOM     92  C   UNL A   1      44.581  27.648  36.023  1.00  0.00     0.173 A 
ATOM     93  F   UNL A   1      45.889  30.576  34.305  1.00  0.00    -0.203 F 
ATOM     94  C   UNL A   1      47.011  28.724  35.229  1.00  0.00     0.198 A 
ATOM     95  C   UNL A   1      45.768  26.983  36.315  1.00  0.00     0.198 A 
ATOM     96  F   UNL A   1      43.423  27.098  36.417  1.00  0.00    -0.203 F 
ATOM     97  F   UNL A   1      48.182  29.227  34.811  1.00  0.00    -0.200 F 
ATOM     98  C   UNL A   1      46.982  27.517  35.910  1.00  0.00     0.200 A 
ATOM     99  F   UNL A   1      45.738  25.824  36.989  1.00  0.00    -0.200 F 
ATOM    100  F   UNL A   1      48.123  26.864  36.170  1.00  0.00    -0.200 F 
ENDBRANCH  67  90
ENDBRANCH  41  42
ENDBRANCH  34  36
ENDBRANCH  33  34
ENDBRANCH  32  33
ENDBRANCH  31  32
ENDBRANCH  30  31
ENDBRANCH  29  30
ENDBRANCH  28  29
ENDBRANCH   1  28
TORSDOF 22
ENDMDL
MODEL 2
REMARK VINA RESULT:     -10.3      6.516     12.245
REMARK SMILES Cc1cc(Cl)ccc1OCC(=O)Nc1ccc(CC(=O)OCCOCCOCCOC(=O)c2ccc(-c3c4nc(c(-c5c(F)c(F)c(F)c(F)c5F)c5ccc([nH]5)c(-c5c(F)c(F)c(F)c(F)c5F)c5nc(c(-c6c(F)c(F)c(F)c(F)c6F)c6ccc3[nH]6)C=C5)C=C4)cc2)cc1
REMARK SMILES IDX 24 1 23 2 22 3 21 4 19 5 20 6 18 7 17 8 14 9 15 10 97 11
REMARK SMILES IDX 16 12 96 13 13 14 11 15 12 16 10 18 9 19 8 20 1 21 2 22 3 23
REMARK SMILES IDX 4 24 7 25 5 26 6 27 25 28 26 29 27 30 28 31 29 32 30 33
REMARK SMILES IDX 31 34 32 35 33 36 34 37 95 38 35 39 94 40 36 41 37 42 38 43
REMARK SMILES IDX 88 44 39 45 93 46 87 47 89 48 40 49 92 50 86 51 85 52 41 54
REMARK SMILES IDX 73 55 53 56 72 57 54 58 57 59 71 60 90 61 55 62 56 63 70 65
REMARK SMILES IDX 91 66 58 67 42 68 43 69 51 70 44 71 45 72 49 73 52 74 46 75
REMARK SMILES IDX 47 76 50 77 48 78 74 79 75 80 83 81 76 82 77 83 81 84 84 85
REMARK SMILES IDX 78 86 79 87 82 88 80 89 59 90 60 91 68 92 61 93 62 94 66 95
REMARK SMILES IDX 69 96 63 97 64 98 67 99 65 100
REMARK H PARENT 13 17 89 53 57 64
REMARK Flexibility Score: inf
ROOT
ATOM      1  O   UNL A   1      40.484  22.640  26.329  1.00  0.00    -0.376 OA
ENDROOT
BRANCH   1   2
ATOM      2  C   UNL A   1      39.489  23.368  27.030  1.00  0.00     0.202 C 
BRANCH   2   3
ATOM      3  C   UNL A   1      38.189  23.636  26.266  1.00  0.00     0.261 C 
BRANCH   3   4
ATOM      4  O   UNL A   1      37.934  22.721  25.178  1.00  0.00    -0.463 OA
BRANCH   4   5
ATOM      5  C   UNL A   1      36.666  22.251  25.078  1.00  0.00     0.310 C 
ATOM      6  O   UNL A   1      36.176  21.429  25.849  1.00  0.00    -0.252 OA
BRANCH   5   7
ATOM      7  C   UNL A   1      35.867  22.772  23.902  1.00  0.00     0.158 C 
BRANCH   7   8
ATOM      8  C   UNL A   1      34.950  23.969  24.044  1.00  0.00    -0.037 A 
ATOM      9  C   UNL A   1      33.451  26.349  24.214  1.00  0.00     0.041 A 
ATOM     10  C   UNL A   1      33.484  25.633  23.023  1.00  0.00     0.026 A 
ATOM     11  C   UNL A   1      34.112  25.855  25.335  1.00  0.00     0.026 A 
ATOM     12  C   UNL A   1      34.259  24.471  22.928  1.00  0.00     0.006 A 
ATOM     13  C   UNL A   1      34.848  24.665  25.255  1.00  0.00     0.006 A 
BRANCH   9  14
ATOM     14  N   UNL A   1      32.702  27.526  24.265  1.00  0.00    -0.323 N 
ATOM     15  C   UNL A   1      31.647  27.806  25.094  1.00  0.00     0.262 C 
ATOM     16  O   UNL A   1      31.164  28.942  25.056  1.00  0.00    -0.271 OA
ATOM     17  H   UNL A   1      32.962  28.237  23.635  1.00  0.00     0.170 HD
BRANCH  15  18
ATOM     18  C   UNL A   1      31.217  26.795  26.178  1.00  0.00     0.329 C 
BRANCH  18  19
ATOM     19  O   UNL A   1      30.405  25.669  25.952  1.00  0.00    -0.483 OA
BRANCH  19  20
ATOM     20  C   UNL A   1      30.940  24.443  25.703  1.00  0.00     0.123 A 
ATOM     21  C   UNL A   1      30.295  24.097  23.223  1.00  0.00     0.048 C 
ATOM     22  C   UNL A   1      30.958  23.709  24.512  1.00  0.00    -0.007 A 
ATOM     23  C   UNL A   1      31.628  22.463  24.504  1.00  0.00     0.027 A 
ATOM     24  C   UNL A   1      32.197  21.935  25.661  1.00  0.00     0.041 A 
ATOM     25  C   UNL A   1      31.474  23.870  26.873  1.00  0.00     0.048 A 
ATOM     26  Cl  UNL A   1      32.986  20.408  25.613  1.00  0.00    -0.084 Cl
ATOM     27  C   UNL A   1      32.107  22.629  26.857  1.00  0.00     0.024 A 
ENDBRANCH  19  20
ENDBRANCH  18  19
ENDBRANCH  15  18
ENDBRANCH   9  14
ENDBRANCH   7   8
ENDBRANCH   5   7
ENDBRANCH   4   5
ENDBRANCH   3   4
ENDBRANCH   2   3
ENDBRANCH   1   2
BRANCH   1  28
ATOM     28  C   UNL A   1      40.825  21.332  26.782  1.00  0.00     0.188 C 
BRANCH  28  29
ATOM     29  C   UNL A   1      40.172  20.097  26.141  1.00  0.00     0.188 C 
BRANCH  29  30
ATOM     30  O   UNL A   1      41.128  19.123  25.748  1.00  0.00    -0.376 OA
BRANCH  30  31
ATOM     31  C   UNL A   1      42.415  19.305  26.313  1.00  0.00     0.202 C 
BRANCH  31  32
ATOM     32  C   UNL A   1      43.400  18.314  25.690  1.00  0.00     0.261 C 
BRANCH  32  33
ATOM     33  O   UNL A   1      44.678  18.879  25.325  1.00  0.00    -0.460 OA
BRANCH  33  34
ATOM     34  C   UNL A   1      44.732  19.590  24.182  1.00  0.00     0.338 C 
ATOM     35  O   UNL A   1      44.407  19.215  23.061  1.00  0.00    -0.246 OA
BRANCH  34  36
ATOM     36  C   UNL A   1      45.101  20.984  24.504  1.00  0.00     0.060 A 
ATOM     37  C   UNL A   1      45.646  21.269  25.760  1.00  0.00     0.016 A 
ATOM     38  C   UNL A   1      44.874  22.015  23.592  1.00  0.00     0.016 A 
ATOM     39  C   UNL A   1      45.936  22.586  26.126  1.00  0.00     0.010 A 
ATOM     40  C   UNL A   1      45.152  23.337  23.962  1.00  0.00     0.010 A 
ATOM     41  C   UNL A   1      45.656  23.636  25.242  1.00  0.00    -0.014 A 
BRANCH  41  42
ATOM     42  C   UNL A   1      45.734  25.049  25.698  1.00  0.00     0.031 A 
ATOM     43  C   UNL A   1      47.060  25.761  25.626  1.00  0.00     0.074 A 
ATOM     44  C   UNL A   1      44.655  25.703  26.164  1.00  0.00     0.049 A 
ATOM     45  N   UNL A   1      47.397  26.949  26.063  1.00  0.00    -0.248 NA
ATOM     46  C   UNL A   1      48.155  25.028  24.974  1.00  0.00     0.031 C 
ATOM     47  C   UNL A   1      43.301  25.159  26.234  1.00  0.00     0.029 A 
ATOM     48  N   UNL A   1      44.535  26.972  26.680  1.00  0.00    -0.354 N 
ATOM     49  C   UNL A   1      48.744  27.096  25.758  1.00  0.00     0.074 A 
ATOM     50  C   UNL A   1      49.169  25.868  25.120  1.00  0.00     0.031 C 
ATOM     51  C   UNL A   1      42.488  26.085  26.773  1.00  0.00     0.029 A 
ATOM     52  C   UNL A   1      43.271  27.267  27.130  1.00  0.00     0.049 A 
ATOM     53  H   UNL A   1      45.285  27.609  26.724  1.00  0.00     0.167 HD
ATOM     54  C   UNL A   1      49.553  28.160  25.982  1.00  0.00     0.037 A 
ATOM     55  C   UNL A   1      42.808  28.352  27.784  1.00  0.00     0.037 A 
ATOM     56  C   UNL A   1      49.132  29.384  26.613  1.00  0.00     0.049 A 
ATOM     57  C   UNL A   1      43.751  29.487  28.105  1.00  0.00     0.074 A 
ATOM     58  C   UNL A   1      49.876  30.521  26.872  1.00  0.00     0.029 A 
ATOM     59  N   UNL A   1      47.852  29.628  27.089  1.00  0.00    -0.354 N 
ATOM     60  N   UNL A   1      45.021  29.623  27.807  1.00  0.00    -0.248 NA
ATOM     61  C   UNL A   1      43.192  30.619  28.860  1.00  0.00     0.031 C 
ATOM     62  C   UNL A   1      49.064  31.430  27.560  1.00  0.00     0.029 A 
ATOM     63  C   UNL A   1      47.795  30.886  27.667  1.00  0.00     0.049 A 
ATOM     64  H   UNL A   1      47.096  29.000  27.025  1.00  0.00     0.167 HD
ATOM     65  C   UNL A   1      45.401  30.865  28.304  1.00  0.00     0.074 A 
ATOM     66  C   UNL A   1      44.225  31.448  28.913  1.00  0.00     0.031 C 
ATOM     67  C   UNL A   1      46.615  31.467  28.259  1.00  0.00     0.037 A 
BRANCH  54  68
ATOM     68  C   UNL A   1      50.993  28.032  25.573  1.00  0.00     0.064 A 
ATOM     69  C   UNL A   1      51.412  28.249  24.251  1.00  0.00     0.173 A 
ATOM     70  C   UNL A   1      51.973  27.711  26.526  1.00  0.00     0.173 A 
ATOM     71  F   UNL A   1      50.515  28.544  23.299  1.00  0.00    -0.203 F 
ATOM     72  C   UNL A   1      52.752  28.116  23.893  1.00  0.00     0.198 A 
ATOM     73  C   UNL A   1      53.316  27.613  26.170  1.00  0.00     0.198 A 
ATOM     74  F   UNL A   1      51.630  27.499  27.806  1.00  0.00    -0.203 F 
ATOM     75  F   UNL A   1      53.119  28.271  22.613  1.00  0.00    -0.200 F 
ATOM     76  C   UNL A   1      53.703  27.805  24.853  1.00  0.00     0.200 A 
ATOM     77  F   UNL A   1      54.235  27.328  27.103  1.00  0.00    -0.200 F 
ATOM     78  F   UNL A   1      54.991  27.683  24.507  1.00  0.00    -0.200 F 
ENDBRANCH  54  68
BRANCH  55  79
ATOM     79  C   UNL A   1      41.382  28.421  28.203  1.00  0.00     0.064 A 
ATOM     80  C   UNL A   1      40.977  27.967  29.466  1.00  0.00     0.173 A 
ATOM     81  C   UNL A   1      40.390  28.907  27.339  1.00  0.00     0.173 A 
ATOM     82  F   UNL A   1      41.882  27.462  30.318  1.00  0.00    -0.203 F 
ATOM     83  C   UNL A   1      39.634  27.977  29.841  1.00  0.00     0.198 A 
ATOM     84  C   UNL A   1      39.052  28.948  27.726  1.00  0.00     0.198 A 
ATOM     85  F   UNL A   1      40.721  29.345  26.115  1.00  0.00    -0.203 F 
ATOM     86  F   UNL A   1      39.270  27.485  31.032  1.00  0.00    -0.200 F 
ATOM     87  C   UNL A   1      38.673  28.474  28.972  1.00  0.00     0.200 A 
ATOM     88  F   UNL A   1      38.129  29.436  26.887  1.00  0.00    -0.200 F 
ATOM     89  F   UNL A   1      37.383  28.484  29.333  1.00  0.00    -0.200 F 
ENDBRANCH  55  79
BRANCH  67  90
ATOM     90  C   UNL A   1      46.729  32.852  28.835  1.00  0.00     0.064 A 
ATOM     91  C   UNL A   1      47.105  33.074  30.166  1.00  0.00     0.173 A 
ATOM     92  C   UNL A   1      46.500  33.976  28.024  1.00  0.00     0.173 A 
ATOM     93  F   UNL A   1      47.324  32.035  30.988  1.00  0.00    -0.203 F 
ATOM     94  C   UNL A   1      47.220  34.367  30.674  1.00  0.00     0.198 A 
ATOM     95  C   UNL A   1      46.649  35.266  28.524  1.00  0.00     0.198 A 
ATOM     96  F   UNL A   1      46.146  33.822  26.739  1.00  0.00    -0.203 F 
ATOM     97  F   UNL A   1      47.531  34.553  31.964  1.00  0.00    -0.200 F 
ATOM     98  C   UNL A   1      47.001  35.460  29.851  1.00  0.00     0.200 A 
ATOM     99  F   UNL A   1      46.453  36.322  27.721  1.00  0.00    -0.200 F 
ATOM    100  F   UNL A   1      47.120  36.703  30.338  1.00  0.00    -0.200 F 
ENDBRANCH  67  90
ENDBRANCH  41  42
ENDBRANCH  34  36
ENDBRANCH  33  34
ENDBRANCH  32  33
ENDBRANCH  31  32
ENDBRANCH  30  31
ENDBRANCH  29  30
ENDBRANCH  28  29
ENDBRANCH   1  28
TORSDOF 22
ENDMDL
MODEL 3
REMARK VINA RESULT:     -10.0      6.379     12.176
REMARK SMILES Cc1cc(Cl)ccc1OCC(=O)Nc1ccc(CC(=O)OCCOCCOCCOC(=O)c2ccc(-c3c4nc(c(-c5c(F)c(F)c(F)c(F)c5F)c5ccc([nH]5)c(-c5c(F)c(F)c(F)c(F)c5F)c5nc(c(-c6c(F)c(F)c(F)c(F)c6F)c6ccc3[nH]6)C=C5)C=C4)cc2)cc1
REMARK SMILES IDX 24 1 23 2 22 3 21 4 19 5 20 6 18 7 17 8 14 9 15 10 97 11
REMARK SMILES IDX 16 12 96 13 13 14 11 15 12 16 10 18 9 19 8 20 1 21 2 22 3 23
REMARK SMILES IDX 4 24 7 25 5 26 6 27 25 28 26 29 27 30 28 31 29 32 30 33
REMARK SMILES IDX 31 34 32 35 33 36 34 37 95 38 35 39 94 40 36 41 37 42 38 43
REMARK SMILES IDX 88 44 39 45 93 46 87 47 89 48 40 49 92 50 86 51 85 52 41 54
REMARK SMILES IDX 73 55 53 56 72 57 54 58 57 59 71 60 90 61 55 62 56 63 70 65
REMARK SMILES IDX 91 66 58 67 42 68 43 69 51 70 44 71 45 72 49 73 52 74 46 75
REMARK SMILES IDX 47 76 50 77 48 78 74 79 75 80 83 81 76 82 77 83 81 84 84 85
REMARK SMILES IDX 78 86 79 87 82 88 80 89 59 90 60 91 68 92 61 93 62 94 66 95
REMARK SMILES IDX 69 96 63 97 64 98 67 99 65 100
REMARK H PARENT 13 17 89 53 57 64
REMARK Flexibility Score: inf
ROOT
ATOM      1  O   UNL A   1      40.159  22.965  26.416  1.00  0.00    -0.376 OA
ENDROOT
BRANCH   1   2
ATOM      2  C   UNL A   1      38.951  23.535  26.891  1.00  0.00     0.202 C 
BRANCH   2   3
ATOM      3  C   UNL A   1      37.920  23.910  25.823  1.00  0.00     0.261 C 
BRANCH   3   4
ATOM      4  O   UNL A   1      37.211  22.788  25.252  1.00  0.00    -0.463 OA
BRANCH   4   5
ATOM      5  C   UNL A   1      35.877  22.741  25.490  1.00  0.00     0.310 C 
ATOM      6  O   UNL A   1      35.362  23.011  26.572  1.00  0.00    -0.252 OA
BRANCH   5   7
ATOM      7  C   UNL A   1      35.023  22.279  24.328  1.00  0.00     0.158 C 
BRANCH   7   8
ATOM      8  C   UNL A   1      33.642  22.852  24.091  1.00  0.00    -0.037 A 
ATOM      9  C   UNL A   1      31.155  24.143  23.785  1.00  0.00     0.041 A 
ATOM     10  C   UNL A   1      32.166  24.356  22.856  1.00  0.00     0.026 A 
ATOM     11  C   UNL A   1      31.356  23.246  24.831  1.00  0.00     0.026 A 
ATOM     12  C   UNL A   1      33.414  23.744  23.030  1.00  0.00     0.006 A 
ATOM     13  C   UNL A   1      32.588  22.594  24.978  1.00  0.00     0.006 A 
BRANCH   9  14
ATOM     14  N   UNL A   1      29.936  24.799  23.608  1.00  0.00    -0.323 N 
ATOM     15  C   UNL A   1      29.637  26.099  23.921  1.00  0.00     0.262 C 
ATOM     16  O   UNL A   1      28.523  26.531  23.606  1.00  0.00    -0.271 OA
ATOM     17  H   UNL A   1      29.208  24.267  23.211  1.00  0.00     0.170 HD
BRANCH  15  18
ATOM     18  C   UNL A   1      30.730  27.042  24.465  1.00  0.00     0.329 C 
BRANCH  18  19
ATOM     19  O   UNL A   1      31.060  27.194  25.824  1.00  0.00    -0.483 OA
BRANCH  19  20
ATOM     20  C   UNL A   1      32.143  27.918  26.217  1.00  0.00     0.123 A 
ATOM     21  C   UNL A   1      34.068  26.257  25.742  1.00  0.00     0.048 C 
ATOM     22  C   UNL A   1      33.499  27.577  26.175  1.00  0.00    -0.007 A 
ATOM     23  C   UNL A   1      34.444  28.537  26.607  1.00  0.00     0.027 A 
ATOM     24  C   UNL A   1      34.046  29.765  27.132  1.00  0.00     0.041 A 
ATOM     25  C   UNL A   1      31.758  29.141  26.799  1.00  0.00     0.048 A 
ATOM     26  Cl  UNL A   1      35.226  30.897  27.664  1.00  0.00    -0.084 Cl
ATOM     27  C   UNL A   1      32.699  30.066  27.247  1.00  0.00     0.024 A 
ENDBRANCH  19  20
ENDBRANCH  18  19
ENDBRANCH  15  18
ENDBRANCH   9  14
ENDBRANCH   7   8
ENDBRANCH   5   7
ENDBRANCH   4   5
ENDBRANCH   3   4
ENDBRANCH   2   3
ENDBRANCH   1   2
BRANCH   1  28
ATOM     28  C   UNL A   1      40.487  21.631  26.799  1.00  0.00     0.188 C 
BRANCH  28  29
ATOM     29  C   UNL A   1      39.788  20.440  26.125  1.00  0.00     0.188 C 
BRANCH  29  30
ATOM     30  O   UNL A   1      40.702  19.417  25.755  1.00  0.00    -0.376 OA
BRANCH  30  31
ATOM     31  C   UNL A   1      41.988  19.543  26.335  1.00  0.00     0.202 C 
BRANCH  31  32
ATOM     32  C   UNL A   1      42.920  18.470  25.770  1.00  0.00     0.261 C 
BRANCH  32  33
ATOM     33  O   UNL A   1      44.277  18.906  25.537  1.00  0.00    -0.460 OA
BRANCH  33  34
ATOM     34  C   UNL A   1      44.522  19.565  24.388  1.00  0.00     0.338 C 
ATOM     35  O   UNL A   1      44.339  19.156  23.246  1.00  0.00    -0.246 OA
BRANCH  34  36
ATOM     36  C   UNL A   1      44.903  20.956  24.706  1.00  0.00     0.060 A 
ATOM     37  C   UNL A   1      45.360  21.256  25.994  1.00  0.00     0.016 A 
ATOM     38  C   UNL A   1      44.775  21.971  23.758  1.00  0.00     0.016 A 
ATOM     39  C   UNL A   1      45.658  22.574  26.353  1.00  0.00     0.010 A 
ATOM     40  C   UNL A   1      45.061  23.294  24.119  1.00  0.00     0.010 A 
ATOM     41  C   UNL A   1      45.475  23.609  25.427  1.00  0.00    -0.014 A 
BRANCH  41  42
ATOM     42  C   UNL A   1      45.559  25.031  25.857  1.00  0.00     0.031 A 
ATOM     43  C   UNL A   1      46.888  25.734  25.782  1.00  0.00     0.074 A 
ATOM     44  C   UNL A   1      44.480  25.700  26.302  1.00  0.00     0.049 A 
ATOM     45  N   UNL A   1      47.230  26.927  26.200  1.00  0.00    -0.248 NA
ATOM     46  C   UNL A   1      47.984  24.982  25.152  1.00  0.00     0.031 C 
ATOM     47  C   UNL A   1      43.122  25.165  26.372  1.00  0.00     0.029 A 
ATOM     48  N   UNL A   1      44.363  26.978  26.794  1.00  0.00    -0.354 N 
ATOM     49  C   UNL A   1      48.579  27.061  25.902  1.00  0.00     0.074 A 
ATOM     50  C   UNL A   1      49.002  25.819  25.290  1.00  0.00     0.031 C 
ATOM     51  C   UNL A   1      42.310  26.105  26.888  1.00  0.00     0.029 A 
ATOM     52  C   UNL A   1      43.098  27.289  27.228  1.00  0.00     0.049 A 
ATOM     53  H   UNL A   1      45.116  27.611  26.831  1.00  0.00     0.167 HD
ATOM     54  C   UNL A   1      49.393  28.124  26.112  1.00  0.00     0.037 A 
ATOM     55  C   UNL A   1      42.636  28.389  27.858  1.00  0.00     0.037 A 
ATOM     56  C   UNL A   1      48.974  29.362  26.717  1.00  0.00     0.049 A 
ATOM     57  C   UNL A   1      43.583  29.524  28.165  1.00  0.00     0.074 A 
ATOM     58  C   UNL A   1      49.724  30.500  26.961  1.00  0.00     0.029 A 
ATOM     59  N   UNL A   1      47.692  29.623  27.178  1.00  0.00    -0.354 N 
ATOM     60  N   UNL A   1      44.856  29.647  27.875  1.00  0.00    -0.248 NA
ATOM     61  C   UNL A   1      43.025  30.673  28.894  1.00  0.00     0.031 C 
ATOM     62  C   UNL A   1      48.911  31.426  27.625  1.00  0.00     0.029 A 
ATOM     63  C   UNL A   1      47.638  30.891  27.732  1.00  0.00     0.049 A 
ATOM     64  H   UNL A   1      46.933  28.997  27.120  1.00  0.00     0.167 HD
ATOM     65  C   UNL A   1      45.239  30.896  28.351  1.00  0.00     0.074 A 
ATOM     66  C   UNL A   1      44.063  31.497  28.940  1.00  0.00     0.031 C 
ATOM     67  C   UNL A   1      46.457  31.490  28.304  1.00  0.00     0.037 A 
BRANCH  54  68
ATOM     68  C   UNL A   1      50.835  27.980  25.717  1.00  0.00     0.064 A 
ATOM     69  C   UNL A   1      51.267  28.178  24.396  1.00  0.00     0.173 A 
ATOM     70  C   UNL A   1      51.805  27.663  26.682  1.00  0.00     0.173 A 
ATOM     71  F   UNL A   1      50.380  28.469  23.433  1.00  0.00    -0.203 F 
ATOM     72  C   UNL A   1      52.609  28.030  24.051  1.00  0.00     0.198 A 
ATOM     73  C   UNL A   1      53.150  27.551  26.339  1.00  0.00     0.198 A 
ATOM     74  F   UNL A   1      51.450  27.470  27.961  1.00  0.00    -0.203 F 
ATOM     75  F   UNL A   1      52.988  28.168  22.773  1.00  0.00    -0.200 F 
ATOM     76  C   UNL A   1      53.549  27.724  25.023  1.00  0.00     0.200 A 
ATOM     77  F   UNL A   1      54.059  27.270  27.283  1.00  0.00    -0.200 F 
ATOM     78  F   UNL A   1      54.840  27.588  24.689  1.00  0.00    -0.200 F 
ENDBRANCH  54  68
BRANCH  55  79
ATOM     79  C   UNL A   1      41.207  28.474  28.265  1.00  0.00     0.064 A 
ATOM     80  C   UNL A   1      40.793  28.063  29.540  1.00  0.00     0.173 A 
ATOM     81  C   UNL A   1      40.222  28.932  27.378  1.00  0.00     0.173 A 
ATOM     82  F   UNL A   1      41.691  27.585  30.414  1.00  0.00    -0.203 F 
ATOM     83  C   UNL A   1      39.447  28.088  29.904  1.00  0.00     0.198 A 
ATOM     84  C   UNL A   1      38.881  28.988  27.754  1.00  0.00     0.198 A 
ATOM     85  F   UNL A   1      40.562  29.328  26.143  1.00  0.00    -0.203 F 
ATOM     86  F   UNL A   1      39.074  27.636  31.109  1.00  0.00    -0.200 F 
ATOM     87  C   UNL A   1      38.493  28.556  29.013  1.00  0.00     0.200 A 
ATOM     88  F   UNL A   1      37.965  29.449  26.893  1.00  0.00    -0.200 F 
ATOM     89  F   UNL A   1      37.201  28.581  29.364  1.00  0.00    -0.200 F 
ENDBRANCH  55  79
BRANCH  67  90
ATOM     90  C   UNL A   1      46.575  32.885  28.854  1.00  0.00     0.064 A 
ATOM     91  C   UNL A   1      46.326  34.018  28.068  1.00  0.00     0.173 A 
ATOM     92  C   UNL A   1      46.901  33.086  30.206  1.00  0.00     0.173 A 
ATOM     93  F   UNL A   1      46.024  33.884  26.767  1.00  0.00    -0.203 F 
ATOM     94  C   UNL A   1      46.426  35.300  28.604  1.00  0.00     0.198 A 
ATOM     95  C   UNL A   1      46.967  34.367  30.747  1.00  0.00     0.198 A 
ATOM     96  F   UNL A   1      47.140  32.037  31.007  1.00  0.00    -0.203 F 
ATOM     97  F   UNL A   1      46.235  36.370  27.820  1.00  0.00    -0.200 F 
ATOM     98  C   UNL A   1      46.737  35.473  29.944  1.00  0.00     0.200 A 
ATOM     99  F   UNL A   1      47.251  34.530  32.047  1.00  0.00    -0.200 F 
ATOM    100  F   UNL A   1      46.825  36.707  30.460  1.00  0.00    -0.200 F 
ENDBRANCH  67  90
ENDBRANCH  41  42
ENDBRANCH  34  36
ENDBRANCH  33  34
ENDBRANCH  32  33
ENDBRANCH  31  32
ENDBRANCH  30  31
ENDBRANCH  29  30
ENDBRANCH  28  29
ENDBRANCH   1  28
TORSDOF 22
ENDMDL
