MODEL 1
REMARK VINA RESULT:     -11.0      0.000      0.000
REMARK SMILES C[C@@H]1CC([NH2+][C@@](C)(C(=O)OCCOCCOCCOC(=O)c2ccc(-c3c4nc(c(-c5c(F)c(F)c(F)c(F)c5F)c5ccc([nH]5)c(-c5c(F)c(F)c(F)c(F)c5F)c5nc(c(-c6c(F)c(F)c(F)c(F)c6F)c6ccc3[nH]6)C=C5)C=C4)cc2)C(F)(F)F)C[C@@H](C)C1
REMARK SMILES IDX 14 1 13 2 12 3 11 4 10 5 8 6 9 7 6 8 7 9 5 10 4 13 1 14 2 15
REMARK SMILES IDX 3 16 92 17 90 18 89 19 91 20 85 21 86 22 87 23 88 24 15 25
REMARK SMILES IDX 16 26 17 27 18 28 19 29 20 30 21 31 22 32 23 33 84 34 24 35
REMARK SMILES IDX 83 36 25 37 26 38 27 39 77 40 28 41 82 42 76 43 78 44 29 45
REMARK SMILES IDX 81 46 75 47 74 48 30 50 62 51 42 52 61 53 43 54 46 55 60 56
REMARK SMILES IDX 79 57 44 58 45 59 59 61 80 62 47 63 31 64 32 65 40 66 33 67
REMARK SMILES IDX 34 68 38 69 41 70 35 71 36 72 39 73 37 74 63 75 64 76 72 77
REMARK SMILES IDX 65 78 66 79 70 80 73 81 67 82 68 83 71 84 69 85 48 86 49 87
REMARK SMILES IDX 57 88 50 89 51 90 55 91 58 92 52 93 53 94 56 95 54 96
REMARK H PARENT 5 11 5 12 78 49 46 60
REMARK Flexibility Score: inf
ROOT
ATOM      1  C   UNL A   1      38.571  21.270  25.682  1.00  0.00     0.188 C 
ENDROOT
BRANCH   1   2
ATOM      2  O   UNL A   1      37.507  21.972  25.060  1.00  0.00    -0.376 OA
BRANCH   2   3
ATOM      3  C   UNL A   1      36.200  21.929  25.603  1.00  0.00     0.202 C 
BRANCH   3   4
ATOM      4  C   UNL A   1      34.948  21.859  24.707  1.00  0.00     0.261 C 
BRANCH   4   5
ATOM      5  O   UNL A   1      34.095  23.017  24.637  1.00  0.00    -0.458 OA
BRANCH   5   6
ATOM      6  C   UNL A   1      33.889  23.514  23.381  1.00  0.00     0.377 C 
ATOM      7  O   UNL A   1      34.733  23.422  22.495  1.00  0.00    -0.244 OA
BRANCH   6   8
ATOM      8  C   UNL A   1      32.570  24.310  23.230  1.00  0.00     0.287 C 
ATOM      9  C   UNL A   1      32.572  24.721  21.751  1.00  0.00     0.103 C 
BRANCH   8  10
ATOM     10  N   UNL A   1      32.512  25.498  24.177  1.00  0.00    -0.322 N 
ATOM     11  H   UNL A   1      33.133  25.289  24.958  1.00  0.00     0.347 HD
ATOM     12  H   UNL A   1      32.768  26.292  23.590  1.00  0.00     0.347 HD
BRANCH  10  13
ATOM     13  C   UNL A   1      31.211  25.890  24.752  1.00  0.00     0.184 C 
ATOM     14  C   UNL A   1      33.431  27.892  26.488  1.00  0.00     0.008 C 
ATOM     15  C   UNL A   1      31.912  27.908  26.291  1.00  0.00    -0.008 C 
ATOM     16  C   UNL A   1      31.341  26.476  26.183  1.00  0.00     0.068 C 
ATOM     17  C   UNL A   1      31.447  28.870  25.171  1.00  0.00     0.007 C 
ATOM     18  C   UNL A   1      31.282  28.219  23.793  1.00  0.00    -0.008 C 
ATOM     19  C   UNL A   1      30.456  26.938  23.934  1.00  0.00     0.068 C 
ATOM     20  C   UNL A   1      30.624  29.143  22.773  1.00  0.00     0.008 C 
ENDBRANCH  10  13
ENDBRANCH   8  10
BRANCH   8  21
ATOM     21  C   UNL A   1      31.472  23.248  23.496  1.00  0.00     0.455 C 
ATOM     22  F   UNL A   1      31.773  22.060  22.913  1.00  0.00    -0.164 F 
ATOM     23  F   UNL A   1      31.342  23.003  24.826  1.00  0.00    -0.164 F 
ATOM     24  F   UNL A   1      30.243  23.616  23.077  1.00  0.00    -0.164 F 
ENDBRANCH   8  21
ENDBRANCH   6   8
ENDBRANCH   5   6
ENDBRANCH   4   5
ENDBRANCH   3   4
ENDBRANCH   2   3
ENDBRANCH   1   2
BRANCH   1  25
ATOM     25  C   UNL A   1      38.785  19.772  25.400  1.00  0.00     0.188 C 
BRANCH  25  26
ATOM     26  O   UNL A   1      40.091  19.305  25.620  1.00  0.00    -0.376 OA
BRANCH  26  27
ATOM     27  C   UNL A   1      40.958  20.030  26.469  1.00  0.00     0.202 C 
BRANCH  27  28
ATOM     28  C   UNL A   1      42.321  20.614  26.042  1.00  0.00     0.261 C 
BRANCH  28  29
ATOM     29  O   UNL A   1      42.745  21.858  26.609  1.00  0.00    -0.460 OA
BRANCH  29  30
ATOM     30  C   UNL A   1      42.814  22.927  25.779  1.00  0.00     0.338 C 
ATOM     31  O   UNL A   1      43.031  22.919  24.579  1.00  0.00    -0.246 OA
BRANCH  30  32
ATOM     32  C   UNL A   1      42.379  24.114  26.544  1.00  0.00     0.060 A 
ATOM     33  C   UNL A   1      43.047  25.337  26.369  1.00  0.00     0.016 A 
ATOM     34  C   UNL A   1      41.298  24.017  27.419  1.00  0.00     0.016 A 
ATOM     35  C   UNL A   1      42.644  26.466  27.087  1.00  0.00     0.010 A 
ATOM     36  C   UNL A   1      40.918  25.136  28.159  1.00  0.00     0.010 A 
ATOM     37  C   UNL A   1      41.607  26.356  28.021  1.00  0.00    -0.014 A 
BRANCH  37  38
ATOM     38  C   UNL A   1      41.379  27.411  29.037  1.00  0.00     0.031 A 
ATOM     39  C   UNL A   1      42.198  27.350  30.294  1.00  0.00     0.074 A 
ATOM     40  C   UNL A   1      40.427  28.347  28.894  1.00  0.00     0.049 A 
ATOM     41  N   UNL A   1      42.048  27.992  31.423  1.00  0.00    -0.248 NA
ATOM     42  C   UNL A   1      43.333  26.415  30.274  1.00  0.00     0.031 C 
ATOM     43  C   UNL A   1      39.610  28.549  27.703  1.00  0.00     0.029 A 
ATOM     44  N   UNL A   1      39.966  29.282  29.789  1.00  0.00    -0.354 N 
ATOM     45  C   UNL A   1      43.048  27.512  32.258  1.00  0.00     0.074 A 
ATOM     46  C   UNL A   1      43.786  26.516  31.512  1.00  0.00     0.031 C 
ATOM     47  C   UNL A   1      38.715  29.522  27.954  1.00  0.00     0.029 A 
ATOM     48  C   UNL A   1      38.868  29.971  29.338  1.00  0.00     0.049 A 
ATOM     49  H   UNL A   1      40.382  29.443  30.667  1.00  0.00     0.167 HD
ATOM     50  C   UNL A   1      43.319  27.866  33.536  1.00  0.00     0.037 A 
ATOM     51  C   UNL A   1      38.052  30.825  29.988  1.00  0.00     0.037 A 
ATOM     52  C   UNL A   1      42.572  28.851  34.270  1.00  0.00     0.049 A 
ATOM     53  C   UNL A   1      38.319  31.155  31.436  1.00  0.00     0.074 A 
ATOM     54  C   UNL A   1      42.775  29.300  35.563  1.00  0.00     0.029 A 
ATOM     55  N   UNL A   1      41.466  29.530  33.777  1.00  0.00    -0.354 N 
ATOM     56  N   UNL A   1      39.267  30.709  32.226  1.00  0.00    -0.248 NA
ATOM     57  C   UNL A   1      37.402  32.103  32.085  1.00  0.00     0.031 C 
ATOM     58  C   UNL A   1      41.751  30.199  35.875  1.00  0.00     0.029 A 
ATOM     59  C   UNL A   1      40.958  30.372  34.752  1.00  0.00     0.049 A 
ATOM     60  H   UNL A   1      41.098  29.428  32.870  1.00  0.00     0.167 HD
ATOM     61  C   UNL A   1      39.086  31.350  33.446  1.00  0.00     0.074 A 
ATOM     62  C   UNL A   1      37.932  32.211  33.297  1.00  0.00     0.031 C 
ATOM     63  C   UNL A   1      39.819  31.242  34.582  1.00  0.00     0.037 A 
BRANCH  50  64
ATOM     64  C   UNL A   1      44.430  27.133  34.230  1.00  0.00     0.064 A 
ATOM     65  C   UNL A   1      44.210  25.944  34.943  1.00  0.00     0.173 A 
ATOM     66  C   UNL A   1      45.739  27.640  34.194  1.00  0.00     0.173 A 
ATOM     67  F   UNL A   1      42.976  25.422  35.022  1.00  0.00    -0.203 F 
ATOM     68  C   UNL A   1      45.246  25.317  35.631  1.00  0.00     0.198 A 
ATOM     69  C   UNL A   1      46.780  26.990  34.850  1.00  0.00     0.198 A 
ATOM     70  F   UNL A   1      46.008  28.771  33.525  1.00  0.00    -0.203 F 
ATOM     71  F   UNL A   1      44.995  24.225  36.365  1.00  0.00    -0.200 F 
ATOM     72  C   UNL A   1      46.530  25.837  35.580  1.00  0.00     0.200 A 
ATOM     73  F   UNL A   1      48.023  27.487  34.787  1.00  0.00    -0.200 F 
ATOM     74  F   UNL A   1      47.526  25.237  36.245  1.00  0.00    -0.200 F 
ENDBRANCH  50  64
BRANCH  51  75
ATOM     75  C   UNL A   1      36.887  31.411  29.273  1.00  0.00     0.064 A 
ATOM     76  C   UNL A   1      35.758  30.636  28.973  1.00  0.00     0.173 A 
ATOM     77  C   UNL A   1      36.871  32.760  28.889  1.00  0.00     0.173 A 
ATOM     78  F   UNL A   1      35.738  29.333  29.291  1.00  0.00    -0.203 F 
ATOM     79  C   UNL A   1      34.661  31.186  28.313  1.00  0.00     0.198 A 
ATOM     80  C   UNL A   1      35.762  33.317  28.256  1.00  0.00     0.198 A 
ATOM     81  F   UNL A   1      37.929  33.544  29.146  1.00  0.00    -0.203 F 
ATOM     82  F   UNL A   1      33.611  30.414  28.006  1.00  0.00    -0.200 F 
ATOM     83  C   UNL A   1      34.660  32.529  27.965  1.00  0.00     0.200 A 
ATOM     84  F   UNL A   1      35.761  34.617  27.928  1.00  0.00    -0.200 F 
ATOM     85  F   UNL A   1      33.599  33.060  27.341  1.00  0.00    -0.200 F 
ENDBRANCH  51  75
BRANCH  63  86
ATOM     86  C   UNL A   1      39.456  32.121  35.746  1.00  0.00     0.064 A 
ATOM     87  C   UNL A   1      39.950  33.425  35.879  1.00  0.00     0.173 A 
ATOM     88  C   UNL A   1      38.516  31.676  36.690  1.00  0.00     0.173 A 
ATOM     89  F   UNL A   1      40.859  33.895  35.011  1.00  0.00    -0.203 F 
ATOM     90  C   UNL A   1      39.522  34.250  36.918  1.00  0.00     0.198 A 
ATOM     91  C   UNL A   1      38.066  32.513  37.707  1.00  0.00     0.198 A 
ATOM     92  F   UNL A   1      38.004  30.438  36.603  1.00  0.00    -0.203 F 
ATOM     93  F   UNL A   1      40.027  35.485  37.042  1.00  0.00    -0.200 F 
ATOM     94  C   UNL A   1      38.572  33.798  37.822  1.00  0.00     0.200 A 
ATOM     95  F   UNL A   1      37.134  32.079  38.567  1.00  0.00    -0.200 F 
ATOM     96  F   UNL A   1      38.141  34.603  38.804  1.00  0.00    -0.200 F 
ENDBRANCH  63  86
ENDBRANCH  37  38
ENDBRANCH  30  32
ENDBRANCH  29  30
ENDBRANCH  28  29
ENDBRANCH  27  28
ENDBRANCH  26  27
ENDBRANCH  25  26
ENDBRANCH   1  25
TORSDOF 20
ENDMDL
MODEL 2
REMARK VINA RESULT:     -10.6      0.865      2.202
REMARK SMILES C[C@@H]1CC([NH2+][C@@](C)(C(=O)OCCOCCOCCOC(=O)c2ccc(-c3c4nc(c(-c5c(F)c(F)c(F)c(F)c5F)c5ccc([nH]5)c(-c5c(F)c(F)c(F)c(F)c5F)c5nc(c(-c6c(F)c(F)c(F)c(F)c6F)c6ccc3[nH]6)C=C5)C=C4)cc2)C(F)(F)F)C[C@@H](C)C1
REMARK SMILES IDX 14 1 13 2 12 3 11 4 10 5 8 6 9 7 6 8 7 9 5 10 4 13 1 14 2 15
REMARK SMILES IDX 3 16 92 17 90 18 89 19 91 20 85 21 86 22 87 23 88 24 15 25
REMARK SMILES IDX 16 26 17 27 18 28 19 29 20 30 21 31 22 32 23 33 84 34 24 35
REMARK SMILES IDX 83 36 25 37 26 38 27 39 77 40 28 41 82 42 76 43 78 44 29 45
REMARK SMILES IDX 81 46 75 47 74 48 30 50 62 51 42 52 61 53 43 54 46 55 60 56
REMARK SMILES IDX 79 57 44 58 45 59 59 61 80 62 47 63 31 64 32 65 40 66 33 67
REMARK SMILES IDX 34 68 38 69 41 70 35 71 36 72 39 73 37 74 63 75 64 76 72 77
REMARK SMILES IDX 65 78 66 79 70 80 73 81 67 82 68 83 71 84 69 85 48 86 49 87
REMARK SMILES IDX 57 88 50 89 51 90 55 91 58 92 52 93 53 94 56 95 54 96
REMARK H PARENT 5 11 5 12 78 49 46 60
REMARK Flexibility Score: inf
ROOT
ATOM      1  C   UNL A   1      39.288  21.735  26.207  1.00  0.00     0.188 C 
ENDROOT
BRANCH   1   2
ATOM      2  O   UNL A   1      38.630  22.803  25.545  1.00  0.00    -0.376 OA
BRANCH   2   3
ATOM      3  C   UNL A   1      37.320  23.186  25.920  1.00  0.00     0.202 C 
BRANCH   3   4
ATOM      4  C   UNL A   1      36.222  23.463  24.874  1.00  0.00     0.261 C 
BRANCH   4   5
ATOM      5  O   UNL A   1      34.899  23.783  25.345  1.00  0.00    -0.458 OA
BRANCH   5   6
ATOM      6  C   UNL A   1      33.912  22.934  24.929  1.00  0.00     0.377 C 
ATOM      7  O   UNL A   1      34.137  21.764  24.637  1.00  0.00    -0.244 OA
BRANCH   6   8
ATOM      8  C   UNL A   1      32.538  23.618  24.734  1.00  0.00     0.287 C 
ATOM      9  C   UNL A   1      32.032  23.026  23.411  1.00  0.00     0.103 C 
BRANCH   8  10
ATOM     10  N   UNL A   1      32.657  25.134  24.700  1.00  0.00    -0.322 N 
ATOM     11  H   UNL A   1      32.692  25.453  25.668  1.00  0.00     0.347 HD
ATOM     12  H   UNL A   1      33.489  25.302  24.134  1.00  0.00     0.347 HD
BRANCH  10  13
ATOM     13  C   UNL A   1      31.606  25.918  24.025  1.00  0.00     0.184 C 
ATOM     14  C   UNL A   1      32.107  27.698  26.946  1.00  0.00     0.008 C 
ATOM     15  C   UNL A   1      31.418  28.008  25.614  1.00  0.00    -0.008 C 
ATOM     16  C   UNL A   1      30.749  26.750  25.015  1.00  0.00     0.068 C 
ATOM     17  C   UNL A   1      32.316  28.791  24.624  1.00  0.00     0.007 C 
ATOM     18  C   UNL A   1      33.092  27.916  23.634  1.00  0.00    -0.008 C 
ATOM     19  C   UNL A   1      32.135  26.910  22.988  1.00  0.00     0.068 C 
ATOM     20  C   UNL A   1      33.794  28.724  22.547  1.00  0.00     0.008 C 
ENDBRANCH  10  13
ENDBRANCH   8  10
BRANCH   8  21
ATOM     21  C   UNL A   1      31.695  23.088  25.923  1.00  0.00     0.455 C 
ATOM     22  F   UNL A   1      31.458  24.060  26.840  1.00  0.00    -0.164 F 
ATOM     23  F   UNL A   1      30.480  22.649  25.502  1.00  0.00    -0.164 F 
ATOM     24  F   UNL A   1      32.253  22.041  26.565  1.00  0.00    -0.164 F 
ENDBRANCH   8  21
ENDBRANCH   6   8
ENDBRANCH   5   6
ENDBRANCH   4   5
ENDBRANCH   3   4
ENDBRANCH   2   3
ENDBRANCH   1   2
BRANCH   1  25
ATOM     25  C   UNL A   1      39.144  20.292  25.691  1.00  0.00     0.188 C 
BRANCH  25  26
ATOM     26  O   UNL A   1      40.338  19.554  25.642  1.00  0.00    -0.376 OA
BRANCH  26  27
ATOM     27  C   UNL A   1      41.413  19.910  26.489  1.00  0.00     0.202 C 
BRANCH  27  28
ATOM     28  C   UNL A   1      42.609  20.789  26.068  1.00  0.00     0.261 C 
BRANCH  28  29
ATOM     29  O   UNL A   1      42.750  22.086  26.658  1.00  0.00    -0.460 OA
BRANCH  29  30
ATOM     30  C   UNL A   1      42.804  23.147  25.819  1.00  0.00     0.338 C 
ATOM     31  O   UNL A   1      43.027  23.133  24.620  1.00  0.00    -0.246 OA
BRANCH  30  32
ATOM     32  C   UNL A   1      42.344  24.334  26.570  1.00  0.00     0.060 A 
ATOM     33  C   UNL A   1      42.963  25.576  26.355  1.00  0.00     0.016 A 
ATOM     34  C   UNL A   1      41.288  24.216  27.472  1.00  0.00     0.016 A 
ATOM     35  C   UNL A   1      42.535  26.705  27.061  1.00  0.00     0.010 A 
ATOM     36  C   UNL A   1      40.884  25.335  28.199  1.00  0.00     0.010 A 
ATOM     37  C   UNL A   1      41.525  26.577  28.021  1.00  0.00    -0.014 A 
BRANCH  37  38
ATOM     38  C   UNL A   1      41.281  27.643  29.021  1.00  0.00     0.031 A 
ATOM     39  C   UNL A   1      42.113  27.623  30.271  1.00  0.00     0.074 A 
ATOM     40  C   UNL A   1      40.306  28.554  28.872  1.00  0.00     0.049 A 
ATOM     41  N   UNL A   1      41.959  28.280  31.390  1.00  0.00    -0.248 NA
ATOM     42  C   UNL A   1      43.269  26.713  30.256  1.00  0.00     0.031 C 
ATOM     43  C   UNL A   1      39.474  28.717  27.685  1.00  0.00     0.029 A 
ATOM     44  N   UNL A   1      39.832  29.493  29.755  1.00  0.00    -0.354 N 
ATOM     45  C   UNL A   1      42.977  27.838  32.224  1.00  0.00     0.074 A 
ATOM     46  C   UNL A   1      43.732  26.847  31.488  1.00  0.00     0.031 C 
ATOM     47  C   UNL A   1      38.559  29.673  27.928  1.00  0.00     0.029 A 
ATOM     48  C   UNL A   1      38.714  30.149  29.303  1.00  0.00     0.049 A 
ATOM     49  H   UNL A   1      40.252  29.679  30.626  1.00  0.00     0.167 HD
ATOM     50  C   UNL A   1      43.252  28.220  33.493  1.00  0.00     0.037 A 
ATOM     51  C   UNL A   1      37.884  30.995  29.946  1.00  0.00     0.037 A 
ATOM     52  C   UNL A   1      42.489  29.200  34.217  1.00  0.00     0.049 A 
ATOM     53  C   UNL A   1      38.157  31.356  31.386  1.00  0.00     0.074 A 
ATOM     54  C   UNL A   1      42.694  29.675  35.500  1.00  0.00     0.029 A 
ATOM     55  N   UNL A   1      41.364  29.844  33.724  1.00  0.00    -0.354 N 
ATOM     56  N   UNL A   1      39.123  30.945  32.174  1.00  0.00    -0.248 NA
ATOM     57  C   UNL A   1      37.225  32.294  32.027  1.00  0.00     0.031 C 
ATOM     58  C   UNL A   1      41.652  30.555  35.807  1.00  0.00     0.029 A 
ATOM     59  C   UNL A   1      40.844  30.691  34.689  1.00  0.00     0.049 A 
ATOM     60  H   UNL A   1      40.989  29.718  32.822  1.00  0.00     0.167 HD
ATOM     61  C   UNL A   1      38.939  31.603  33.385  1.00  0.00     0.074 A 
ATOM     62  C   UNL A   1      37.763  32.434  33.233  1.00  0.00     0.031 C 
ATOM     63  C   UNL A   1      39.684  31.531  34.515  1.00  0.00     0.037 A 
BRANCH  50  64
ATOM     64  C   UNL A   1      44.386  27.524  34.188  1.00  0.00     0.064 A 
ATOM     65  C   UNL A   1      45.696  28.028  34.168  1.00  0.00     0.173 A 
ATOM     66  C   UNL A   1      44.159  26.322  34.876  1.00  0.00     0.173 A 
ATOM     67  F   UNL A   1      45.972  29.166  33.513  1.00  0.00    -0.203 F 
ATOM     68  C   UNL A   1      46.742  27.330  34.767  1.00  0.00     0.198 A 
ATOM     69  C   UNL A   1      45.200  25.648  35.508  1.00  0.00     0.198 A 
ATOM     70  F   UNL A   1      42.926  25.796  34.933  1.00  0.00    -0.203 F 
ATOM     71  F   UNL A   1      47.996  27.793  34.669  1.00  0.00    -0.200 F 
ATOM     72  C   UNL A   1      46.493  26.145  35.440  1.00  0.00     0.200 A 
ATOM     73  F   UNL A   1      44.954  24.509  36.171  1.00  0.00    -0.200 F 
ATOM     74  F   UNL A   1      47.500  25.472  36.014  1.00  0.00    -0.200 F 
ENDBRANCH  50  64
BRANCH  51  75
ATOM     75  C   UNL A   1      36.699  31.541  29.233  1.00  0.00     0.064 A 
ATOM     76  C   UNL A   1      36.642  32.889  28.853  1.00  0.00     0.173 A 
ATOM     77  C   UNL A   1      35.608  30.725  28.903  1.00  0.00     0.173 A 
ATOM     78  F   UNL A   1      37.647  33.718  29.173  1.00  0.00    -0.203 F 
ATOM     79  C   UNL A   1      35.538  33.400  28.174  1.00  0.00     0.198 A 
ATOM     80  C   UNL A   1      34.516  31.229  28.198  1.00  0.00     0.198 A 
ATOM     81  F   UNL A   1      35.609  29.429  29.251  1.00  0.00    -0.203 F 
ATOM     82  F   UNL A   1      35.493  34.700  27.855  1.00  0.00    -0.200 F 
ATOM     83  C   UNL A   1      34.481  32.567  27.838  1.00  0.00     0.200 A 
ATOM     84  F   UNL A   1      33.501  30.419  27.869  1.00  0.00    -0.200 F 
ATOM     85  F   UNL A   1      33.424  33.057  27.175  1.00  0.00    -0.200 F 
ENDBRANCH  51  75
BRANCH  63  86
ATOM     86  C   UNL A   1      39.311  32.421  35.667  1.00  0.00     0.064 A 
ATOM     87  C   UNL A   1      38.470  31.991  36.701  1.00  0.00     0.173 A 
ATOM     88  C   UNL A   1      39.892  33.695  35.782  1.00  0.00     0.173 A 
ATOM     89  F   UNL A   1      37.880  30.788  36.636  1.00  0.00    -0.203 F 
ATOM     90  C   UNL A   1      38.218  32.805  37.804  1.00  0.00     0.198 A 
ATOM     91  C   UNL A   1      39.664  34.492  36.900  1.00  0.00     0.198 A 
ATOM     92  F   UNL A   1      40.714  34.153  34.824  1.00  0.00    -0.203 F 
ATOM     93  F   UNL A   1      37.389  32.384  38.770  1.00  0.00    -0.200 F 
ATOM     94  C   UNL A   1      38.825  34.048  37.909  1.00  0.00     0.200 A 
ATOM     95  F   UNL A   1      40.268  35.684  37.006  1.00  0.00    -0.200 F 
ATOM     96  F   UNL A   1      38.602  34.816  38.984  1.00  0.00    -0.200 F 
ENDBRANCH  63  86
ENDBRANCH  37  38
ENDBRANCH  30  32
ENDBRANCH  29  30
ENDBRANCH  28  29
ENDBRANCH  27  28
ENDBRANCH  26  27
ENDBRANCH  25  26
ENDBRANCH   1  25
TORSDOF 20
ENDMDL
MODEL 3
REMARK VINA RESULT:     -10.5      3.349      8.674
REMARK SMILES C[C@@H]1CC([NH2+][C@@](C)(C(=O)OCCOCCOCCOC(=O)c2ccc(-c3c4nc(c(-c5c(F)c(F)c(F)c(F)c5F)c5ccc([nH]5)c(-c5c(F)c(F)c(F)c(F)c5F)c5nc(c(-c6c(F)c(F)c(F)c(F)c6F)c6ccc3[nH]6)C=C5)C=C4)cc2)C(F)(F)F)C[C@@H](C)C1
REMARK SMILES IDX 14 1 13 2 12 3 11 4 10 5 8 6 9 7 6 8 7 9 5 10 4 13 1 14 2 15
REMARK SMILES IDX 3 16 92 17 90 18 89 19 91 20 85 21 86 22 87 23 88 24 15 25
REMARK SMILES IDX 16 26 17 27 18 28 19 29 20 30 21 31 22 32 23 33 84 34 24 35
REMARK SMILES IDX 83 36 25 37 26 38 27 39 77 40 28 41 82 42 76 43 78 44 29 45
REMARK SMILES IDX 81 46 75 47 74 48 30 50 62 51 42 52 61 53 43 54 46 55 60 56
REMARK SMILES IDX 79 57 44 58 45 59 59 61 80 62 47 63 31 64 32 65 40 66 33 67
REMARK SMILES IDX 34 68 38 69 41 70 35 71 36 72 39 73 37 74 63 75 64 76 72 77
REMARK SMILES IDX 65 78 66 79 70 80 73 81 67 82 68 83 71 84 69 85 48 86 49 87
REMARK SMILES IDX 57 88 50 89 51 90 55 91 58 92 52 93 53 94 56 95 54 96
REMARK H PARENT 5 11 5 12 78 49 46 60
REMARK Flexibility Score: inf
ROOT
ATOM      1  C   UNL A   1      33.733  29.823  26.096  1.00  0.00     0.188 C 
ENDROOT
BRANCH   1   2
ATOM      2  O   UNL A   1      33.856  28.651  25.307  1.00  0.00    -0.376 OA
BRANCH   2   3
ATOM      3  C   UNL A   1      33.993  28.739  23.901  1.00  0.00     0.202 C 
BRANCH   3   4
ATOM      4  C   UNL A   1      32.872  28.284  22.944  1.00  0.00     0.261 C 
BRANCH   4   5
ATOM      5  O   UNL A   1      32.286  26.985  23.153  1.00  0.00    -0.458 OA
BRANCH   5   6
ATOM      6  C   UNL A   1      31.458  26.888  24.236  1.00  0.00     0.377 C 
ATOM      7  O   UNL A   1      30.657  27.770  24.528  1.00  0.00    -0.244 OA
BRANCH   6   8
ATOM      8  C   UNL A   1      31.723  25.643  25.117  1.00  0.00     0.287 C 
ATOM      9  C   UNL A   1      31.885  26.235  26.525  1.00  0.00     0.103 C 
BRANCH   8  10
ATOM     10  N   UNL A   1      32.946  24.868  24.654  1.00  0.00    -0.322 N 
ATOM     11  H   UNL A   1      32.608  24.054  24.140  1.00  0.00     0.347 HD
ATOM     12  H   UNL A   1      33.483  25.553  24.122  1.00  0.00     0.347 HD
BRANCH  10  13
ATOM     13  C   UNL A   1      33.903  24.374  25.661  1.00  0.00     0.184 C 
ATOM     14  C   UNL A   1      32.257  21.485  24.714  1.00  0.00     0.008 C 
ATOM     15  C   UNL A   1      33.556  21.771  25.474  1.00  0.00    -0.008 C 
ATOM     16  C   UNL A   1      33.441  23.052  26.330  1.00  0.00     0.068 C 
ATOM     17  C   UNL A   1      34.818  21.708  24.579  1.00  0.00     0.007 C 
ATOM     18  C   UNL A   1      35.258  23.055  23.995  1.00  0.00    -0.008 C 
ATOM     19  C   UNL A   1      35.304  24.101  25.112  1.00  0.00     0.068 C 
ATOM     20  C   UNL A   1      36.614  22.989  23.300  1.00  0.00     0.008 C 
ENDBRANCH  10  13
ENDBRANCH   8  10
BRANCH   8  21
ATOM     21  C   UNL A   1      30.402  24.838  25.017  1.00  0.00     0.455 C 
ATOM     22  F   UNL A   1      29.316  25.641  25.152  1.00  0.00    -0.164 F 
ATOM     23  F   UNL A   1      30.288  24.235  23.804  1.00  0.00    -0.164 F 
ATOM     24  F   UNL A   1      30.297  23.843  25.924  1.00  0.00    -0.164 F 
ENDBRANCH   8  21
ENDBRANCH   6   8
ENDBRANCH   5   6
ENDBRANCH   4   5
ENDBRANCH   3   4
ENDBRANCH   2   3
ENDBRANCH   1   2
BRANCH   1  25
ATOM     25  C   UNL A   1      32.412  30.139  26.819  1.00  0.00     0.188 C 
BRANCH  25  26
ATOM     26  O   UNL A   1      31.559  31.028  26.144  1.00  0.00    -0.376 OA
BRANCH  26  27
ATOM     27  C   UNL A   1      31.449  32.364  26.593  1.00  0.00     0.202 C 
BRANCH  27  28
ATOM     28  C   UNL A   1      32.554  33.130  27.352  1.00  0.00     0.261 C 
BRANCH  28  29
ATOM     29  O   UNL A   1      32.170  34.130  28.302  1.00  0.00    -0.460 OA
BRANCH  29  30
ATOM     30  C   UNL A   1      33.111  35.032  28.668  1.00  0.00     0.338 C 
ATOM     31  O   UNL A   1      32.984  36.243  28.748  1.00  0.00    -0.246 OA
BRANCH  30  32
ATOM     32  C   UNL A   1      34.284  34.279  29.157  1.00  0.00     0.060 A 
ATOM     33  C   UNL A   1      34.140  33.388  30.233  1.00  0.00     0.016 A 
ATOM     34  C   UNL A   1      35.522  34.444  28.536  1.00  0.00     0.016 A 
ATOM     35  C   UNL A   1      35.243  32.670  30.704  1.00  0.00     0.010 A 
ATOM     36  C   UNL A   1      36.628  33.753  29.028  1.00  0.00     0.010 A 
ATOM     37  C   UNL A   1      36.502  32.887  30.132  1.00  0.00    -0.014 A 
BRANCH  37  38
ATOM     38  C   UNL A   1      37.738  32.426  30.807  1.00  0.00     0.031 A 
ATOM     39  C   UNL A   1      38.511  31.316  30.154  1.00  0.00     0.074 A 
ATOM     40  C   UNL A   1      38.127  32.911  31.997  1.00  0.00     0.049 A 
ATOM     41  N   UNL A   1      39.478  30.576  30.629  1.00  0.00    -0.248 NA
ATOM     42  C   UNL A   1      38.116  30.986  28.775  1.00  0.00     0.031 C 
ATOM     43  C   UNL A   1      37.501  34.023  32.704  1.00  0.00     0.029 A 
ATOM     44  N   UNL A   1      39.130  32.492  32.837  1.00  0.00    -0.354 N 
ATOM     45  C   UNL A   1      39.783  29.672  29.621  1.00  0.00     0.074 A 
ATOM     46  C   UNL A   1      38.889  29.945  28.516  1.00  0.00     0.031 C 
ATOM     47  C   UNL A   1      38.109  34.175  33.893  1.00  0.00     0.029 A 
ATOM     48  C   UNL A   1      39.130  33.138  34.048  1.00  0.00     0.049 A 
ATOM     49  H   UNL A   1      39.785  31.798  32.595  1.00  0.00     0.167 HD
ATOM     50  C   UNL A   1      40.720  28.695  29.621  1.00  0.00     0.037 A 
ATOM     51  C   UNL A   1      39.838  32.885  35.168  1.00  0.00     0.037 A 
ATOM     52  C   UNL A   1      41.598  28.427  30.728  1.00  0.00     0.049 A 
ATOM     53  C   UNL A   1      40.826  31.745  35.182  1.00  0.00     0.074 A 
ATOM     54  C   UNL A   1      42.596  27.476  30.826  1.00  0.00     0.029 A 
ATOM     55  N   UNL A   1      41.568  29.106  31.939  1.00  0.00    -0.354 N 
ATOM     56  N   UNL A   1      41.122  30.893  34.228  1.00  0.00    -0.248 NA
ATOM     57  C   UNL A   1      41.578  31.528  36.426  1.00  0.00     0.031 C 
ATOM     58  C   UNL A   1      43.125  27.533  32.119  1.00  0.00     0.029 A 
ATOM     59  C   UNL A   1      42.512  28.573  32.801  1.00  0.00     0.049 A 
ATOM     60  H   UNL A   1      40.966  29.855  32.153  1.00  0.00     0.167 HD
ATOM     61  C   UNL A   1      42.118  30.069  34.742  1.00  0.00     0.074 A 
ATOM     62  C   UNL A   1      42.371  30.517  36.095  1.00  0.00     0.031 C 
ATOM     63  C   UNL A   1      42.769  29.044  34.140  1.00  0.00     0.037 A 
BRANCH  50  64
ATOM     64  C   UNL A   1      40.792  27.813  28.409  1.00  0.00     0.064 A 
ATOM     65  C   UNL A   1      40.102  26.593  28.331  1.00  0.00     0.173 A 
ATOM     66  C   UNL A   1      41.581  28.189  27.310  1.00  0.00     0.173 A 
ATOM     67  F   UNL A   1      39.346  26.178  29.359  1.00  0.00    -0.203 F 
ATOM     68  C   UNL A   1      40.237  25.763  27.221  1.00  0.00     0.198 A 
ATOM     69  C   UNL A   1      41.681  27.375  26.185  1.00  0.00     0.198 A 
ATOM     70  F   UNL A   1      42.259  29.346  27.327  1.00  0.00    -0.203 F 
ATOM     71  F   UNL A   1      39.627  24.569  27.202  1.00  0.00    -0.200 F 
ATOM     72  C   UNL A   1      41.021  26.156  26.148  1.00  0.00     0.200 A 
ATOM     73  F   UNL A   1      42.428  27.765  25.143  1.00  0.00    -0.200 F 
ATOM     74  F   UNL A   1      41.153  25.355  25.082  1.00  0.00    -0.200 F 
ENDBRANCH  50  64
BRANCH  51  75
ATOM     75  C   UNL A   1      39.616  33.719  36.378  1.00  0.00     0.064 A 
ATOM     76  C   UNL A   1      40.227  34.973  36.515  1.00  0.00     0.173 A 
ATOM     77  C   UNL A   1      38.776  33.286  37.416  1.00  0.00     0.173 A 
ATOM     78  F   UNL A   1      41.063  35.416  35.565  1.00  0.00    -0.203 F 
ATOM     79  C   UNL A   1      40.010  35.760  37.644  1.00  0.00     0.198 A 
ATOM     80  C   UNL A   1      38.537  34.087  38.531  1.00  0.00     0.198 A 
ATOM     81  F   UNL A   1      38.173  32.091  37.338  1.00  0.00    -0.203 F 
ATOM     82  F   UNL A   1      40.635  36.938  37.766  1.00  0.00    -0.200 F 
ATOM     83  C   UNL A   1      39.157  35.321  38.646  1.00  0.00     0.200 A 
ATOM     84  F   UNL A   1      37.705  33.663  39.493  1.00  0.00    -0.200 F 
ATOM     85  F   UNL A   1      38.940  36.085  39.726  1.00  0.00    -0.200 F 
ENDBRANCH  51  75
BRANCH  63  86
ATOM     86  C   UNL A   1      43.875  28.365  34.898  1.00  0.00     0.064 A 
ATOM     87  C   UNL A   1      45.187  28.856  34.904  1.00  0.00     0.173 A 
ATOM     88  C   UNL A   1      43.586  27.257  35.713  1.00  0.00     0.173 A 
ATOM     89  F   UNL A   1      45.520  29.903  34.135  1.00  0.00    -0.203 F 
ATOM     90  C   UNL A   1      46.171  28.260  35.692  1.00  0.00     0.198 A 
ATOM     91  C   UNL A   1      44.563  26.685  36.523  1.00  0.00     0.198 A 
ATOM     92  F   UNL A   1      42.343  26.753  35.752  1.00  0.00    -0.203 F 
ATOM     93  F   UNL A   1      47.426  28.730  35.662  1.00  0.00    -0.200 F 
ATOM     94  C   UNL A   1      45.855  27.185  36.509  1.00  0.00     0.200 A 
ATOM     95  F   UNL A   1      44.248  25.659  37.326  1.00  0.00    -0.200 F 
ATOM     96  F   UNL A   1      46.796  26.631  37.286  1.00  0.00    -0.200 F 
ENDBRANCH  63  86
ENDBRANCH  37  38
ENDBRANCH  30  32
ENDBRANCH  29  30
ENDBRANCH  28  29
ENDBRANCH  27  28
ENDBRANCH  26  27
ENDBRANCH  25  26
ENDBRANCH   1  25
TORSDOF 20
ENDMDL
