MODEL 1
REMARK VINA RESULT:     -11.4      0.000      0.000
REMARK SMILES C[C@H](NC(=O)N1CCN(/C=C/c2ccccc2)CC1)C(=O)OCCOCCOCCOC(=O)c1ccc(-c2c3nc(c(-c4c(F)c(F)c(F)c(F)c4F)c4ccc([nH]4)c(-c4c(F)c(F)c(F)c(F)c4F)c4nc(c(-c5c(F)c(F)c(F)c(F)c5F)c5ccc2[nH]5)C=C4)C=C3)cc1
REMARK SMILES IDX 26 1 25 2 24 3 23 4 22 5 20 6 21 7 2 8 1 9 3 10 4 11 5 13
REMARK SMILES IDX 6 14 7 15 19 16 8 17 18 18 9 19 10 20 11 21 12 22 13 23
REMARK SMILES IDX 17 24 14 25 16 26 15 27 27 28 28 29 29 30 30 31 31 32 32 33
REMARK SMILES IDX 33 34 34 35 35 36 96 37 36 38 95 39 37 40 38 41 39 42 89 43
REMARK SMILES IDX 40 44 94 45 88 46 90 47 41 48 93 49 87 50 86 51 42 53 74 54
REMARK SMILES IDX 54 55 73 56 55 57 58 58 72 59 91 60 56 61 57 62 71 64 92 65
REMARK SMILES IDX 59 66 43 67 44 68 52 69 45 70 46 71 50 72 53 73 47 74 48 75
REMARK SMILES IDX 51 76 49 77 75 78 76 79 84 80 77 81 78 82 82 83 85 84 79 85
REMARK SMILES IDX 80 86 83 87 81 88 60 89 61 90 69 91 62 92 63 93 67 94 70 95
REMARK SMILES IDX 64 96 65 97 68 98 66 99
REMARK H PARENT 3 12 90 52 58 63
REMARK Flexibility Score: inf
ROOT
ATOM      1  C   UNL A   1      34.436  34.748  28.420  1.00  0.00     0.188 C 
ENDROOT
BRANCH   1   2
ATOM      2  O   UNL A   1      34.752  33.725  27.488  1.00  0.00    -0.376 OA
BRANCH   2   3
ATOM      3  C   UNL A   1      35.122  32.426  27.936  1.00  0.00     0.202 C 
BRANCH   3   4
ATOM      4  C   UNL A   1      34.149  31.237  27.857  1.00  0.00     0.261 C 
BRANCH   4   5
ATOM      5  O   UNL A   1      33.761  30.827  26.535  1.00  0.00    -0.462 OA
BRANCH   5   6
ATOM      6  C   UNL A   1      32.477  30.399  26.407  1.00  0.00     0.328 C 
ATOM      7  O   UNL A   1      31.537  30.800  27.085  1.00  0.00    -0.250 OA
BRANCH   6   8
ATOM      8  C   UNL A   1      32.315  29.272  25.376  1.00  0.00     0.190 C 
ATOM      9  C   UNL A   1      33.705  28.664  25.277  1.00  0.00     0.043 C 
BRANCH   8  10
ATOM     10  N   UNL A   1      31.770  29.651  24.073  1.00  0.00    -0.325 N 
ATOM     11  C   UNL A   1      31.075  28.969  23.136  1.00  0.00     0.318 C 
ATOM     12  H   UNL A   1      31.943  30.590  23.831  1.00  0.00     0.166 HD
ATOM     13  O   UNL A   1      30.822  29.556  22.083  1.00  0.00    -0.249 OA
ATOM     14  N   UNL A   1      30.802  27.645  23.297  1.00  0.00    -0.321 N 
ATOM     15  C   UNL A   1      30.980  26.769  22.149  1.00  0.00     0.143 C 
ATOM     16  C   UNL A   1      30.278  26.938  24.459  1.00  0.00     0.143 C 
ATOM     17  C   UNL A   1      32.053  25.729  22.488  1.00  0.00     0.137 C 
ATOM     18  C   UNL A   1      31.098  25.689  24.843  1.00  0.00     0.137 C 
ATOM     19  N   UNL A   1      31.723  24.955  23.710  1.00  0.00    -0.374 N 
BRANCH  19  20
ATOM     20  C   UNL A   1      32.218  23.674  23.922  1.00  0.00     0.081 C 
ATOM     21  C   UNL A   1      32.320  22.642  23.072  1.00  0.00     0.025 C 
BRANCH  21  22
ATOM     22  C   UNL A   1      32.743  21.296  23.484  1.00  0.00    -0.024 A 
ATOM     23  C   UNL A   1      32.168  20.170  22.883  1.00  0.00     0.008 A 
ATOM     24  C   UNL A   1      33.632  21.111  24.553  1.00  0.00     0.008 A 
ATOM     25  C   UNL A   1      32.491  18.886  23.332  1.00  0.00     0.001 A 
ATOM     26  C   UNL A   1      33.956  19.831  25.000  1.00  0.00     0.001 A 
ATOM     27  C   UNL A   1      33.384  18.717  24.390  1.00  0.00     0.000 A 
ENDBRANCH  21  22
ENDBRANCH  19  20
ENDBRANCH   8  10
ENDBRANCH   6   8
ENDBRANCH   5   6
ENDBRANCH   4   5
ENDBRANCH   3   4
ENDBRANCH   2   3
ENDBRANCH   1   2
BRANCH   1  28
ATOM     28  C   UNL A   1      33.210  34.596  29.337  1.00  0.00     0.188 C 
BRANCH  28  29
ATOM     29  O   UNL A   1      33.106  35.581  30.336  1.00  0.00    -0.376 OA
BRANCH  29  30
ATOM     30  C   UNL A   1      33.981  35.494  31.456  1.00  0.00     0.202 C 
BRANCH  30  31
ATOM     31  C   UNL A   1      34.353  34.154  32.131  1.00  0.00     0.261 C 
BRANCH  31  32
ATOM     32  O   UNL A   1      35.626  33.570  31.816  1.00  0.00    -0.460 OA
BRANCH  32  33
ATOM     33  C   UNL A   1      36.114  32.635  32.668  1.00  0.00     0.338 C 
ATOM     34  O   UNL A   1      35.671  32.326  33.754  1.00  0.00    -0.246 OA
BRANCH  33  35
ATOM     35  C   UNL A   1      37.160  31.878  31.938  1.00  0.00     0.060 A 
ATOM     36  C   UNL A   1      38.162  31.226  32.674  1.00  0.00     0.016 A 
ATOM     37  C   UNL A   1      37.144  31.792  30.545  1.00  0.00     0.016 A 
ATOM     38  C   UNL A   1      39.158  30.500  32.018  1.00  0.00     0.010 A 
ATOM     39  C   UNL A   1      38.162  31.091  29.888  1.00  0.00     0.010 A 
ATOM     40  C   UNL A   1      39.188  30.466  30.619  1.00  0.00    -0.014 A 
BRANCH  40  41
ATOM     41  C   UNL A   1      40.396  29.962  29.919  1.00  0.00     0.031 A 
ATOM     42  C   UNL A   1      41.526  30.926  29.676  1.00  0.00     0.074 A 
ATOM     43  C   UNL A   1      40.504  28.684  29.517  1.00  0.00     0.049 A 
ATOM     44  N   UNL A   1      42.644  30.754  29.020  1.00  0.00    -0.248 NA
ATOM     45  C   UNL A   1      41.364  32.271  30.251  1.00  0.00     0.031 C 
ATOM     46  C   UNL A   1      39.506  27.640  29.738  1.00  0.00     0.029 A 
ATOM     47  N   UNL A   1      41.507  28.051  28.823  1.00  0.00    -0.354 N 
ATOM     48  C   UNL A   1      43.315  31.968  29.096  1.00  0.00     0.074 A 
ATOM     49  C   UNL A   1      42.465  32.877  29.835  1.00  0.00     0.031 C 
ATOM     50  C   UNL A   1      39.939  26.499  29.172  1.00  0.00     0.029 A 
ATOM     51  C   UNL A   1      41.225  26.743  28.518  1.00  0.00     0.049 A 
ATOM     52  H   UNL A   1      42.348  28.495  28.568  1.00  0.00     0.167 HD
ATOM     53  C   UNL A   1      44.531  32.294  28.599  1.00  0.00     0.037 A 
ATOM     54  C   UNL A   1      41.914  25.856  27.771  1.00  0.00     0.037 A 
ATOM     55  C   UNL A   1      45.371  31.391  27.859  1.00  0.00     0.049 A 
ATOM     56  C   UNL A   1      43.228  26.271  27.152  1.00  0.00     0.074 A 
ATOM     57  C   UNL A   1      46.625  31.623  27.322  1.00  0.00     0.029 A 
ATOM     58  N   UNL A   1      45.037  30.083  27.543  1.00  0.00    -0.354 N 
ATOM     59  N   UNL A   1      43.865  27.414  27.242  1.00  0.00    -0.248 NA
ATOM     60  C   UNL A   1      43.918  25.268  26.328  1.00  0.00     0.031 C 
ATOM     61  C   UNL A   1      47.023  30.476  26.630  1.00  0.00     0.029 A 
ATOM     62  C   UNL A   1      46.049  29.504  26.793  1.00  0.00     0.049 A 
ATOM     63  H   UNL A   1      44.204  29.632  27.812  1.00  0.00     0.167 HD
ATOM     64  C   UNL A   1      45.042  27.256  26.519  1.00  0.00     0.074 A 
ATOM     65  C   UNL A   1      45.037  25.902  26.007  1.00  0.00     0.031 C 
ATOM     66  C   UNL A   1      46.038  28.151  26.301  1.00  0.00     0.037 A 
BRANCH  53  67
ATOM     67  C   UNL A   1      45.009  33.701  28.812  1.00  0.00     0.064 A 
ATOM     68  C   UNL A   1      44.684  34.736  27.922  1.00  0.00     0.173 A 
ATOM     69  C   UNL A   1      45.785  34.023  29.937  1.00  0.00     0.173 A 
ATOM     70  F   UNL A   1      43.959  34.479  26.823  1.00  0.00    -0.203 F 
ATOM     71  C   UNL A   1      45.141  36.035  28.136  1.00  0.00     0.198 A 
ATOM     72  C   UNL A   1      46.211  35.329  30.165  1.00  0.00     0.198 A 
ATOM     73  F   UNL A   1      46.123  33.072  30.820  1.00  0.00    -0.203 F 
ATOM     74  F   UNL A   1      44.861  36.997  27.246  1.00  0.00    -0.200 F 
ATOM     75  C   UNL A   1      45.896  36.331  29.261  1.00  0.00     0.200 A 
ATOM     76  F   UNL A   1      46.929  35.615  31.259  1.00  0.00    -0.200 F 
ATOM     77  F   UNL A   1      46.327  37.583  29.469  1.00  0.00    -0.200 F 
ENDBRANCH  53  67
BRANCH  54  78
ATOM     78  C   UNL A   1      41.374  24.489  27.543  1.00  0.00     0.064 A 
ATOM     79  C   UNL A   1      41.980  23.365  28.122  1.00  0.00     0.173 A 
ATOM     80  C   UNL A   1      40.264  24.274  26.713  1.00  0.00     0.173 A 
ATOM     81  F   UNL A   1      43.062  23.514  28.901  1.00  0.00    -0.203 F 
ATOM     82  C   UNL A   1      41.511  22.079  27.860  1.00  0.00     0.198 A 
ATOM     83  C   UNL A   1      39.776  22.989  26.477  1.00  0.00     0.198 A 
ATOM     84  F   UNL A   1      39.651  25.313  26.128  1.00  0.00    -0.203 F 
ATOM     85  F   UNL A   1      42.145  21.018  28.382  1.00  0.00    -0.200 F 
ATOM     86  C   UNL A   1      40.407  21.891  27.043  1.00  0.00     0.200 A 
ATOM     87  F   UNL A   1      38.704  22.815  25.695  1.00  0.00    -0.200 F 
ATOM     88  F   UNL A   1      39.957  20.655  26.792  1.00  0.00    -0.200 F 
ENDBRANCH  54  78
BRANCH  66  89
ATOM     89  C   UNL A   1      47.233  27.683  25.516  1.00  0.00     0.064 A 
ATOM     90  C   UNL A   1      48.332  27.067  26.133  1.00  0.00     0.173 A 
ATOM     91  C   UNL A   1      47.256  27.815  24.119  1.00  0.00     0.173 A 
ATOM     92  F   UNL A   1      48.366  26.927  27.466  1.00  0.00    -0.203 F 
ATOM     93  C   UNL A   1      49.421  26.627  25.383  1.00  0.00     0.198 A 
ATOM     94  C   UNL A   1      48.330  27.342  23.369  1.00  0.00     0.198 A 
ATOM     95  F   UNL A   1      46.227  28.387  23.476  1.00  0.00    -0.203 F 
ATOM     96  F   UNL A   1      50.482  26.090  26.000  1.00  0.00    -0.200 F 
ATOM     97  C   UNL A   1      49.415  26.758  24.002  1.00  0.00     0.200 A 
ATOM     98  F   UNL A   1      48.314  27.454  22.033  1.00  0.00    -0.200 F 
ATOM     99  F   UNL A   1      50.460  26.326  23.283  1.00  0.00    -0.200 F 
ENDBRANCH  66  89
ENDBRANCH  40  41
ENDBRANCH  33  35
ENDBRANCH  32  33
ENDBRANCH  31  32
ENDBRANCH  30  31
ENDBRANCH  29  30
ENDBRANCH  28  29
ENDBRANCH   1  28
TORSDOF 20
ENDMDL
MODEL 2
REMARK VINA RESULT:     -11.3      5.275     10.343
REMARK SMILES C[C@H](NC(=O)N1CCN(/C=C/c2ccccc2)CC1)C(=O)OCCOCCOCCOC(=O)c1ccc(-c2c3nc(c(-c4c(F)c(F)c(F)c(F)c4F)c4ccc([nH]4)c(-c4c(F)c(F)c(F)c(F)c4F)c4nc(c(-c5c(F)c(F)c(F)c(F)c5F)c5ccc2[nH]5)C=C4)C=C3)cc1
REMARK SMILES IDX 26 1 25 2 24 3 23 4 22 5 20 6 21 7 2 8 1 9 3 10 4 11 5 13
REMARK SMILES IDX 6 14 7 15 19 16 8 17 18 18 9 19 10 20 11 21 12 22 13 23
REMARK SMILES IDX 17 24 14 25 16 26 15 27 27 28 28 29 29 30 30 31 31 32 32 33
REMARK SMILES IDX 33 34 34 35 35 36 96 37 36 38 95 39 37 40 38 41 39 42 89 43
REMARK SMILES IDX 40 44 94 45 88 46 90 47 41 48 93 49 87 50 86 51 42 53 74 54
REMARK SMILES IDX 54 55 73 56 55 57 58 58 72 59 91 60 56 61 57 62 71 64 92 65
REMARK SMILES IDX 59 66 43 67 44 68 52 69 45 70 46 71 50 72 53 73 47 74 48 75
REMARK SMILES IDX 51 76 49 77 75 78 76 79 84 80 77 81 78 82 82 83 85 84 79 85
REMARK SMILES IDX 80 86 83 87 81 88 60 89 61 90 69 91 62 92 63 93 67 94 70 95
REMARK SMILES IDX 64 96 65 97 68 98 66 99
REMARK H PARENT 3 12 90 52 58 63
REMARK Flexibility Score: inf
ROOT
ATOM      1  C   UNL A   1      38.719  21.577  25.751  1.00  0.00     0.188 C 
ENDROOT
BRANCH   1   2
ATOM      2  O   UNL A   1      38.010  22.805  25.799  1.00  0.00    -0.376 OA
BRANCH   2   3
ATOM      3  C   UNL A   1      36.956  23.071  24.880  1.00  0.00     0.202 C 
BRANCH   3   4
ATOM      4  C   UNL A   1      35.535  23.416  25.358  1.00  0.00     0.261 C 
BRANCH   4   5
ATOM      5  O   UNL A   1      35.199  24.813  25.378  1.00  0.00    -0.462 OA
BRANCH   5   6
ATOM      6  C   UNL A   1      34.420  25.245  24.353  1.00  0.00     0.328 C 
ATOM      7  O   UNL A   1      34.342  24.698  23.257  1.00  0.00    -0.250 OA
BRANCH   6   8
ATOM      8  C   UNL A   1      33.696  26.565  24.655  1.00  0.00     0.190 C 
ATOM      9  C   UNL A   1      33.325  26.450  26.126  1.00  0.00     0.043 C 
BRANCH   8  10
ATOM     10  N   UNL A   1      32.550  26.892  23.807  1.00  0.00    -0.325 N 
ATOM     11  C   UNL A   1      31.384  26.257  23.558  1.00  0.00     0.318 C 
ATOM     12  H   UNL A   1      32.648  27.743  23.323  1.00  0.00     0.166 HD
ATOM     13  O   UNL A   1      30.639  26.757  22.714  1.00  0.00    -0.249 OA
ATOM     14  N   UNL A   1      31.119  25.042  24.110  1.00  0.00    -0.321 N 
ATOM     15  C   UNL A   1      30.528  24.020  23.258  1.00  0.00     0.143 C 
ATOM     16  C   UNL A   1      31.278  24.590  25.487  1.00  0.00     0.143 C 
ATOM     17  C   UNL A   1      31.494  22.835  23.170  1.00  0.00     0.137 C 
ATOM     18  C   UNL A   1      32.043  23.256  25.617  1.00  0.00     0.137 C 
ATOM     19  N   UNL A   1      31.839  22.288  24.506  1.00  0.00    -0.374 N 
BRANCH  19  20
ATOM     20  C   UNL A   1      32.237  20.967  24.676  1.00  0.00     0.081 C 
ATOM     21  C   UNL A   1      32.527  20.033  23.759  1.00  0.00     0.025 C 
BRANCH  21  22
ATOM     22  C   UNL A   1      32.803  18.630  24.095  1.00  0.00    -0.024 A 
ATOM     23  C   UNL A   1      32.553  18.161  25.390  1.00  0.00     0.008 A 
ATOM     24  C   UNL A   1      33.422  17.772  23.174  1.00  0.00     0.008 A 
ATOM     25  C   UNL A   1      32.900  16.855  25.749  1.00  0.00     0.001 A 
ATOM     26  C   UNL A   1      33.767  16.469  23.531  1.00  0.00     0.001 A 
ATOM     27  C   UNL A   1      33.507  16.010  24.820  1.00  0.00     0.000 A 
ENDBRANCH  21  22
ENDBRANCH  19  20
ENDBRANCH   8  10
ENDBRANCH   6   8
ENDBRANCH   5   6
ENDBRANCH   4   5
ENDBRANCH   3   4
ENDBRANCH   2   3
ENDBRANCH   1   2
BRANCH   1  28
ATOM     28  C   UNL A   1      40.063  21.440  26.487  1.00  0.00     0.188 C 
BRANCH  28  29
ATOM     29  O   UNL A   1      41.179  21.308  25.639  1.00  0.00    -0.376 OA
BRANCH  29  30
ATOM     30  C   UNL A   1      42.402  20.854  26.208  1.00  0.00     0.202 C 
BRANCH  30  31
ATOM     31  C   UNL A   1      43.779  21.445  25.824  1.00  0.00     0.261 C 
BRANCH  31  32
ATOM     32  O   UNL A   1      44.078  22.785  26.244  1.00  0.00    -0.460 OA
BRANCH  32  33
ATOM     33  C   UNL A   1      43.629  23.801  25.466  1.00  0.00     0.338 C 
ATOM     34  O   UNL A   1      43.568  23.828  24.255  1.00  0.00    -0.246 OA
BRANCH  33  35
ATOM     35  C   UNL A   1      42.997  24.797  26.365  1.00  0.00     0.060 A 
ATOM     36  C   UNL A   1      43.553  26.083  26.448  1.00  0.00     0.016 A 
ATOM     37  C   UNL A   1      41.856  24.477  27.102  1.00  0.00     0.016 A 
ATOM     38  C   UNL A   1      42.980  27.047  27.280  1.00  0.00     0.010 A 
ATOM     39  C   UNL A   1      41.301  25.433  27.961  1.00  0.00     0.010 A 
ATOM     40  C   UNL A   1      41.876  26.713  28.074  1.00  0.00    -0.014 A 
BRANCH  40  41
ATOM     41  C   UNL A   1      41.454  27.619  29.171  1.00  0.00     0.031 A 
ATOM     42  C   UNL A   1      42.219  27.566  30.465  1.00  0.00     0.074 A 
ATOM     43  C   UNL A   1      40.432  28.480  29.028  1.00  0.00     0.049 A 
ATOM     44  N   UNL A   1      41.999  28.194  31.592  1.00  0.00    -0.248 NA
ATOM     45  C   UNL A   1      43.391  26.676  30.490  1.00  0.00     0.031 C 
ATOM     46  C   UNL A   1      39.647  28.667  27.810  1.00  0.00     0.029 A 
ATOM     47  N   UNL A   1      39.871  29.353  29.929  1.00  0.00    -0.354 N 
ATOM     48  C   UNL A   1      42.997  27.769  32.460  1.00  0.00     0.074 A 
ATOM     49  C   UNL A   1      43.805  26.809  31.740  1.00  0.00     0.031 C 
ATOM     50  C   UNL A   1      38.691  29.585  28.047  1.00  0.00     0.029 A 
ATOM     51  C   UNL A   1      38.776  30.020  29.441  1.00  0.00     0.049 A 
ATOM     52  H   UNL A   1      40.222  29.486  30.839  1.00  0.00     0.167 HD
ATOM     53  C   UNL A   1      43.223  28.149  33.739  1.00  0.00     0.037 A 
ATOM     54  C   UNL A   1      37.923  30.861  30.061  1.00  0.00     0.037 A 
ATOM     55  C   UNL A   1      42.414  29.099  34.456  1.00  0.00     0.049 A 
ATOM     56  C   UNL A   1      38.143  31.202  31.515  1.00  0.00     0.074 A 
ATOM     57  C   UNL A   1      42.566  29.558  35.752  1.00  0.00     0.029 A 
ATOM     58  N   UNL A   1      41.292  29.729  33.937  1.00  0.00    -0.354 N 
ATOM     59  N   UNL A   1      39.098  30.811  32.324  1.00  0.00    -0.248 NA
ATOM     60  C   UNL A   1      37.164  32.103  32.140  1.00  0.00     0.031 C 
ATOM     61  C   UNL A   1      41.503  30.419  36.038  1.00  0.00     0.029 A 
ATOM     62  C   UNL A   1      40.726  30.552  34.898  1.00  0.00     0.049 A 
ATOM     63  H   UNL A   1      40.950  29.610  33.022  1.00  0.00     0.167 HD
ATOM     64  C   UNL A   1      38.856  31.445  33.539  1.00  0.00     0.074 A 
ATOM     65  C   UNL A   1      37.671  32.255  33.356  1.00  0.00     0.031 C 
ATOM     66  C   UNL A   1      39.554  31.365  34.699  1.00  0.00     0.037 A 
BRANCH  53  67
ATOM     67  C   UNL A   1      44.374  27.508  34.458  1.00  0.00     0.064 A 
ATOM     68  C   UNL A   1      45.652  28.089  34.475  1.00  0.00     0.173 A 
ATOM     69  C   UNL A   1      44.191  26.306  35.159  1.00  0.00     0.173 A 
ATOM     70  F   UNL A   1      45.885  29.228  33.807  1.00  0.00    -0.203 F 
ATOM     71  C   UNL A   1      46.708  27.476  35.146  1.00  0.00     0.198 A 
ATOM     72  C   UNL A   1      45.241  25.715  35.855  1.00  0.00     0.198 A 
ATOM     73  F   UNL A   1      42.989  25.709  35.176  1.00  0.00    -0.203 F 
ATOM     74  F   UNL A   1      47.931  28.022  35.106  1.00  0.00    -0.200 F 
ATOM     75  C   UNL A   1      46.499  26.295  35.841  1.00  0.00     0.200 A 
ATOM     76  F   UNL A   1      45.033  24.580  36.538  1.00  0.00    -0.200 F 
ATOM     77  F   UNL A   1      47.515  25.711  36.493  1.00  0.00    -0.200 F 
ENDBRANCH  53  67
BRANCH  54  78
ATOM     78  C   UNL A   1      36.763  31.431  29.322  1.00  0.00     0.064 A 
ATOM     79  C   UNL A   1      36.726  32.787  28.968  1.00  0.00     0.173 A 
ATOM     80  C   UNL A   1      35.653  30.641  28.988  1.00  0.00     0.173 A 
ATOM     81  F   UNL A   1      37.750  33.591  29.289  1.00  0.00    -0.203 F 
ATOM     82  C   UNL A   1      35.615  33.334  28.329  1.00  0.00     0.198 A 
ATOM     83  C   UNL A   1      34.556  31.183  28.321  1.00  0.00     0.198 A 
ATOM     84  F   UNL A   1      35.633  29.339  29.310  1.00  0.00    -0.203 F 
ATOM     85  F   UNL A   1      35.583  34.646  28.053  1.00  0.00    -0.200 F 
ATOM     86  C   UNL A   1      34.533  32.532  28.001  1.00  0.00     0.200 A 
ATOM     87  F   UNL A   1      33.517  30.401  27.998  1.00  0.00    -0.200 F 
ATOM     88  F   UNL A   1      33.465  33.059  27.388  1.00  0.00    -0.200 F 
ENDBRANCH  54  78
BRANCH  66  89
ATOM     89  C   UNL A   1      39.087  32.212  35.851  1.00  0.00     0.064 A 
ATOM     90  C   UNL A   1      38.242  31.707  36.850  1.00  0.00     0.173 A 
ATOM     91  C   UNL A   1      39.533  33.537  35.980  1.00  0.00     0.173 A 
ATOM     92  F   UNL A   1      37.778  30.451  36.770  1.00  0.00    -0.203 F 
ATOM     93  C   UNL A   1      37.836  32.506  37.917  1.00  0.00     0.198 A 
ATOM     94  C   UNL A   1      39.154  34.321  37.066  1.00  0.00     0.198 A 
ATOM     95  F   UNL A   1      40.351  34.068  35.059  1.00  0.00    -0.203 F 
ATOM     96  F   UNL A   1      36.985  32.017  38.830  1.00  0.00    -0.200 F 
ATOM     97  C   UNL A   1      38.299  33.808  38.028  1.00  0.00     0.200 A 
ATOM     98  F   UNL A   1      39.616  35.574  37.179  1.00  0.00    -0.200 F 
ATOM     99  F   UNL A   1      37.914  34.572  39.060  1.00  0.00    -0.200 F 
ENDBRANCH  66  89
ENDBRANCH  40  41
ENDBRANCH  33  35
ENDBRANCH  32  33
ENDBRANCH  31  32
ENDBRANCH  30  31
ENDBRANCH  29  30
ENDBRANCH  28  29
ENDBRANCH   1  28
TORSDOF 20
ENDMDL
MODEL 3
REMARK VINA RESULT:     -10.7      5.305     10.280
REMARK SMILES C[C@H](NC(=O)N1CCN(/C=C/c2ccccc2)CC1)C(=O)OCCOCCOCCOC(=O)c1ccc(-c2c3nc(c(-c4c(F)c(F)c(F)c(F)c4F)c4ccc([nH]4)c(-c4c(F)c(F)c(F)c(F)c4F)c4nc(c(-c5c(F)c(F)c(F)c(F)c5F)c5ccc2[nH]5)C=C4)C=C3)cc1
REMARK SMILES IDX 26 1 25 2 24 3 23 4 22 5 20 6 21 7 2 8 1 9 3 10 4 11 5 13
REMARK SMILES IDX 6 14 7 15 19 16 8 17 18 18 9 19 10 20 11 21 12 22 13 23
REMARK SMILES IDX 17 24 14 25 16 26 15 27 27 28 28 29 29 30 30 31 31 32 32 33
REMARK SMILES IDX 33 34 34 35 35 36 96 37 36 38 95 39 37 40 38 41 39 42 89 43
REMARK SMILES IDX 40 44 94 45 88 46 90 47 41 48 93 49 87 50 86 51 42 53 74 54
REMARK SMILES IDX 54 55 73 56 55 57 58 58 72 59 91 60 56 61 57 62 71 64 92 65
REMARK SMILES IDX 59 66 43 67 44 68 52 69 45 70 46 71 50 72 53 73 47 74 48 75
REMARK SMILES IDX 51 76 49 77 75 78 76 79 84 80 77 81 78 82 82 83 85 84 79 85
REMARK SMILES IDX 80 86 83 87 81 88 60 89 61 90 69 91 62 92 63 93 67 94 70 95
REMARK SMILES IDX 64 96 65 97 68 98 66 99
REMARK H PARENT 3 12 90 52 58 63
REMARK Flexibility Score: inf
ROOT
ATOM      1  C   UNL A   1      39.098  22.059  26.143  1.00  0.00     0.188 C 
ENDROOT
BRANCH   1   2
ATOM      2  O   UNL A   1      38.210  23.166  26.139  1.00  0.00    -0.376 OA
BRANCH   2   3
ATOM      3  C   UNL A   1      37.347  23.399  25.032  1.00  0.00     0.202 C 
BRANCH   3   4
ATOM      4  C   UNL A   1      35.820  23.482  25.202  1.00  0.00     0.261 C 
BRANCH   4   5
ATOM      5  O   UNL A   1      35.272  24.803  25.341  1.00  0.00    -0.462 OA
BRANCH   5   6
ATOM      6  C   UNL A   1      34.490  25.226  24.314  1.00  0.00     0.328 C 
ATOM      7  O   UNL A   1      34.420  24.677  23.218  1.00  0.00    -0.250 OA
BRANCH   6   8
ATOM      8  C   UNL A   1      33.751  26.538  24.614  1.00  0.00     0.190 C 
ATOM      9  C   UNL A   1      33.487  26.475  26.111  1.00  0.00     0.043 C 
BRANCH   8  10
ATOM     10  N   UNL A   1      32.540  26.800  23.837  1.00  0.00    -0.325 N 
ATOM     11  C   UNL A   1      31.398  26.101  23.657  1.00  0.00     0.318 C 
ATOM     12  H   UNL A   1      32.561  27.655  23.350  1.00  0.00     0.166 HD
ATOM     13  O   UNL A   1      30.577  26.558  22.860  1.00  0.00    -0.249 OA
ATOM     14  N   UNL A   1      31.235  24.873  24.221  1.00  0.00    -0.321 N 
ATOM     15  C   UNL A   1      30.651  23.820  23.404  1.00  0.00     0.143 C 
ATOM     16  C   UNL A   1      31.501  24.433  25.586  1.00  0.00     0.143 C 
ATOM     17  C   UNL A   1      31.675  22.690  23.256  1.00  0.00     0.137 C 
ATOM     18  C   UNL A   1      32.345  23.144  25.666  1.00  0.00     0.137 C 
ATOM     19  N   UNL A   1      32.130  22.164  24.567  1.00  0.00    -0.374 N 
BRANCH  19  20
ATOM     20  C   UNL A   1      32.610  20.868  24.710  1.00  0.00     0.081 C 
ATOM     21  C   UNL A   1      32.445  19.799  23.918  1.00  0.00     0.025 C 
BRANCH  21  22
ATOM     22  C   UNL A   1      32.904  18.450  24.276  1.00  0.00    -0.024 A 
ATOM     23  C   UNL A   1      33.655  17.703  23.360  1.00  0.00     0.008 A 
ATOM     24  C   UNL A   1      32.509  17.845  25.477  1.00  0.00     0.008 A 
ATOM     25  C   UNL A   1      34.016  16.384  23.651  1.00  0.00     0.001 A 
ATOM     26  C   UNL A   1      32.869  16.530  25.768  1.00  0.00     0.001 A 
ATOM     27  C   UNL A   1      33.622  15.798  24.853  1.00  0.00     0.000 A 
ENDBRANCH  21  22
ENDBRANCH  19  20
ENDBRANCH   8  10
ENDBRANCH   6   8
ENDBRANCH   5   6
ENDBRANCH   4   5
ENDBRANCH   3   4
ENDBRANCH   2   3
ENDBRANCH   1   2
BRANCH   1  28
ATOM     28  C   UNL A   1      40.557  22.250  26.591  1.00  0.00     0.188 C 
BRANCH  28  29
ATOM     29  O   UNL A   1      41.499  22.183  25.548  1.00  0.00    -0.376 OA
BRANCH  29  30
ATOM     30  C   UNL A   1      42.629  21.334  25.718  1.00  0.00     0.202 C 
BRANCH  30  31
ATOM     31  C   UNL A   1      44.072  21.778  25.385  1.00  0.00     0.261 C 
BRANCH  31  32
ATOM     32  O   UNL A   1      44.650  22.837  26.165  1.00  0.00    -0.460 OA
BRANCH  32  33
ATOM     33  C   UNL A   1      44.657  24.080  25.625  1.00  0.00     0.338 C 
ATOM     34  O   UNL A   1      45.024  24.398  24.513  1.00  0.00    -0.246 OA
BRANCH  33  35
ATOM     35  C   UNL A   1      43.909  24.966  26.550  1.00  0.00     0.060 A 
ATOM     36  C   UNL A   1      44.040  26.357  26.410  1.00  0.00     0.016 A 
ATOM     37  C   UNL A   1      43.072  24.436  27.532  1.00  0.00     0.016 A 
ATOM     38  C   UNL A   1      43.347  27.219  27.261  1.00  0.00     0.010 A 
ATOM     39  C   UNL A   1      42.402  25.301  28.406  1.00  0.00     0.010 A 
ATOM     40  C   UNL A   1      42.558  26.695  28.292  1.00  0.00    -0.014 A 
BRANCH  40  41
ATOM     41  C   UNL A   1      42.069  27.585  29.373  1.00  0.00     0.031 A 
ATOM     42  C   UNL A   1      42.812  27.582  30.682  1.00  0.00     0.074 A 
ATOM     43  C   UNL A   1      41.006  28.390  29.206  1.00  0.00     0.049 A 
ATOM     44  N   UNL A   1      42.540  28.204  31.800  1.00  0.00    -0.248 NA
ATOM     45  C   UNL A   1      44.029  26.755  30.734  1.00  0.00     0.031 C 
ATOM     46  C   UNL A   1      40.234  28.526  27.974  1.00  0.00     0.029 A 
ATOM     47  N   UNL A   1      40.384  29.238  30.091  1.00  0.00    -0.354 N 
ATOM     48  C   UNL A   1      43.544  27.839  32.688  1.00  0.00     0.074 A 
ATOM     49  C   UNL A   1      44.414  26.918  31.990  1.00  0.00     0.031 C 
ATOM     50  C   UNL A   1      39.227  29.394  28.187  1.00  0.00     0.029 A 
ATOM     51  C   UNL A   1      39.263  29.842  29.579  1.00  0.00     0.049 A 
ATOM     52  H   UNL A   1      40.711  29.396  31.006  1.00  0.00     0.167 HD
ATOM     53  C   UNL A   1      43.726  28.239  33.968  1.00  0.00     0.037 A 
ATOM     54  C   UNL A   1      38.356  30.641  30.177  1.00  0.00     0.037 A 
ATOM     55  C   UNL A   1      42.856  29.150  34.663  1.00  0.00     0.049 A 
ATOM     56  C   UNL A   1      38.532  31.004  31.632  1.00  0.00     0.074 A 
ATOM     57  C   UNL A   1      42.960  29.625  35.958  1.00  0.00     0.029 A 
ATOM     58  N   UNL A   1      41.712  29.716  34.120  1.00  0.00    -0.354 N 
ATOM     59  N   UNL A   1      39.492  30.670  32.461  1.00  0.00    -0.248 NA
ATOM     60  C   UNL A   1      37.497  31.856  32.234  1.00  0.00     0.031 C 
ATOM     61  C   UNL A   1      41.849  30.431  36.219  1.00  0.00     0.029 A 
ATOM     62  C   UNL A   1      41.086  30.514  35.065  1.00  0.00     0.049 A 
ATOM     63  H   UNL A   1      41.392  29.573  33.200  1.00  0.00     0.167 HD
ATOM     64  C   UNL A   1      39.196  31.298  33.666  1.00  0.00     0.074 A 
ATOM     65  C   UNL A   1      37.972  32.043  33.457  1.00  0.00     0.031 C 
ATOM     66  C   UNL A   1      39.876  31.262  34.839  1.00  0.00     0.037 A 
BRANCH  53  67
ATOM     67  C   UNL A   1      44.897  27.664  34.711  1.00  0.00     0.064 A 
ATOM     68  C   UNL A   1      44.818  26.431  35.376  1.00  0.00     0.173 A 
ATOM     69  C   UNL A   1      46.123  28.346  34.737  1.00  0.00     0.173 A 
ATOM     70  F   UNL A   1      43.664  25.747  35.396  1.00  0.00    -0.203 F 
ATOM     71  C   UNL A   1      45.916  25.917  36.063  1.00  0.00     0.198 A 
ATOM     72  C   UNL A   1      47.227  27.812  35.396  1.00  0.00     0.198 A 
ATOM     73  F   UNL A   1      46.254  29.528  34.116  1.00  0.00    -0.203 F 
ATOM     74  F   UNL A   1      45.802  24.762  36.735  1.00  0.00    -0.200 F 
ATOM     75  C   UNL A   1      47.120  26.603  36.065  1.00  0.00     0.200 A 
ATOM     76  F   UNL A   1      48.394  28.471  35.385  1.00  0.00    -0.200 F 
ATOM     77  F   UNL A   1      48.177  26.102  36.719  1.00  0.00    -0.200 F 
ENDBRANCH  53  67
BRANCH  54  78
ATOM     78  C   UNL A   1      37.182  31.144  29.414  1.00  0.00     0.064 A 
ATOM     79  C   UNL A   1      36.111  30.298  29.093  1.00  0.00     0.173 A 
ATOM     80  C   UNL A   1      37.123  32.469  28.957  1.00  0.00     0.173 A 
ATOM     81  F   UNL A   1      36.132  29.015  29.480  1.00  0.00    -0.203 F 
ATOM     82  C   UNL A   1      35.039  30.752  28.326  1.00  0.00     0.198 A 
ATOM     83  C   UNL A   1      36.036  32.931  28.218  1.00  0.00     0.198 A 
ATOM     84  F   UNL A   1      38.124  33.319  29.230  1.00  0.00    -0.203 F 
ATOM     85  F   UNL A   1      34.056  29.906  27.986  1.00  0.00    -0.200 F 
ATOM     86  C   UNL A   1      34.998  32.069  27.894  1.00  0.00     0.200 A 
ATOM     87  F   UNL A   1      35.997  34.206  27.811  1.00  0.00    -0.200 F 
ATOM     88  F   UNL A   1      33.968  32.504  27.157  1.00  0.00    -0.200 F 
ENDBRANCH  54  78
BRANCH  66  89
ATOM     89  C   UNL A   1      39.345  32.092  35.976  1.00  0.00     0.064 A 
ATOM     90  C   UNL A   1      39.757  33.416  36.185  1.00  0.00     0.173 A 
ATOM     91  C   UNL A   1      38.375  31.565  36.842  1.00  0.00     0.173 A 
ATOM     92  F   UNL A   1      40.690  33.965  35.393  1.00  0.00    -0.203 F 
ATOM     93  C   UNL A   1      39.239  34.171  37.235  1.00  0.00     0.198 A 
ATOM     94  C   UNL A   1      37.833  32.333  37.870  1.00  0.00     0.198 A 
ATOM     95  F   UNL A   1      37.937  30.306  36.683  1.00  0.00    -0.203 F 
ATOM     96  F   UNL A   1      39.688  35.416  37.446  1.00  0.00    -0.200 F 
ATOM     97  C   UNL A   1      38.273  33.632  38.071  1.00  0.00     0.200 A 
ATOM     98  F   UNL A   1      36.887  31.814  38.665  1.00  0.00    -0.200 F 
ATOM     99  F   UNL A   1      37.770  34.362  39.076  1.00  0.00    -0.200 F 
ENDBRANCH  66  89
ENDBRANCH  40  41
ENDBRANCH  33  35
ENDBRANCH  32  33
ENDBRANCH  31  32
ENDBRANCH  30  31
ENDBRANCH  29  30
ENDBRANCH  28  29
ENDBRANCH   1  28
TORSDOF 20
ENDMDL
