MODEL 1
REMARK VINA RESULT:     -12.1      0.000      0.000
REMARK SMILES O=C(OCCOCCOCCOC(=O)[C@@H]1CC2(CC[NH+](C(=O)C3(c4ccccc4F)CC3)CC2)C[NH2+]1)c1ccc(-c2c3nc(c(-c4c(F)c(F)c(F)c(F)c4F)c4ccc([nH]4)c(-c4c(F)c(F)c(F)c(F)c4F)c4nc(c(-c5c(F)c(F)c(F)c(F)c5F)c5ccc2[nH]5)C=C4)C=C3)cc1
REMARK SMILES IDX 8 1 7 2 6 3 5 4 4 5 3 6 2 7 1 8 37 9 38 10 99 11 39 12 98 13
REMARK SMILES IDX 40 14 41 15 42 16 92 17 43 18 97 19 91 20 93 21 44 22 96 23
REMARK SMILES IDX 90 24 89 25 45 27 77 28 57 29 76 30 58 31 61 32 75 33 94 34
REMARK SMILES IDX 59 35 60 36 74 38 95 39 62 40 46 41 47 42 55 43 48 44 49 45
REMARK SMILES IDX 53 46 56 47 50 48 51 49 54 50 52 51 78 52 79 53 87 54 80 55
REMARK SMILES IDX 81 56 85 57 88 58 82 59 83 60 86 61 84 62 63 63 64 64 72 65
REMARK SMILES IDX 65 66 66 67 70 68 73 69 67 70 68 71 71 72 69 73 9 74 10 75
REMARK SMILES IDX 11 76 12 77 13 78 14 79 15 80 16 81 36 82 17 83 35 84 18 87
REMARK SMILES IDX 34 88 19 89 33 90 20 91 21 93 22 94 23 95 31 96 32 97 24 98
REMARK SMILES IDX 25 99 29 100 26 101 28 102 30 103 27 104
REMARK H PARENT 93 26 61 37 36 85 36 86 20 92
REMARK Flexibility Score: inf
ROOT
ATOM      1  C   UNL A   1      42.396  19.600  26.403  1.00  0.00     0.188 C 
ENDROOT
BRANCH   1   2
ATOM      2  C   UNL A   1      43.392  19.159  25.329  1.00  0.00     0.188 C 
BRANCH   2   3
ATOM      3  O   UNL A   1      44.619  19.895  25.352  1.00  0.00    -0.376 OA
BRANCH   3   4
ATOM      4  C   UNL A   1      44.511  21.179  24.720  1.00  0.00     0.202 C 
BRANCH   4   5
ATOM      5  C   UNL A   1      44.650  22.383  25.669  1.00  0.00     0.261 C 
BRANCH   5   6
ATOM      6  O   UNL A   1      43.567  23.318  25.551  1.00  0.00    -0.460 OA
BRANCH   6   7
ATOM      7  C   UNL A   1      43.647  24.668  25.494  1.00  0.00     0.338 C 
ATOM      8  O   UNL A   1      44.367  25.171  24.632  1.00  0.00    -0.246 OA
BRANCH   7   9
ATOM      9  C   UNL A   1      42.960  25.595  26.455  1.00  0.00     0.060 A 
ATOM     10  C   UNL A   1      43.266  26.942  26.636  1.00  0.00     0.016 A 
ATOM     11  C   UNL A   1      41.888  25.071  27.204  1.00  0.00     0.016 A 
ATOM     12  C   UNL A   1      42.612  27.724  27.575  1.00  0.00     0.010 A 
ATOM     13  C   UNL A   1      41.193  25.859  28.129  1.00  0.00     0.010 A 
ATOM     14  C   UNL A   1      41.591  27.182  28.348  1.00  0.00    -0.014 A 
BRANCH  14  15
ATOM     15  C   UNL A   1      41.134  27.969  29.510  1.00  0.00     0.031 A 
ATOM     16  C   UNL A   1      41.951  27.891  30.763  1.00  0.00     0.074 A 
ATOM     17  C   UNL A   1      40.136  28.862  29.382  1.00  0.00     0.049 A 
ATOM     18  N   UNL A   1      41.775  28.497  31.905  1.00  0.00    -0.248 NA
ATOM     19  C   UNL A   1      43.150  27.033  30.716  1.00  0.00     0.031 C 
ATOM     20  C   UNL A   1      39.400  29.120  28.147  1.00  0.00     0.029 A 
ATOM     21  N   UNL A   1      39.591  29.741  30.280  1.00  0.00    -0.354 N 
ATOM     22  C   UNL A   1      42.828  28.084  32.710  1.00  0.00     0.074 A 
ATOM     23  C   UNL A   1      43.627  27.159  31.942  1.00  0.00     0.031 C 
ATOM     24  C   UNL A   1      38.493  30.086  28.361  1.00  0.00     0.029 A 
ATOM     25  C   UNL A   1      38.561  30.488  29.760  1.00  0.00     0.049 A 
ATOM     26  H   UNL A   1      39.909  29.831  31.208  1.00  0.00     0.167 HD
ATOM     27  C   UNL A   1      43.100  28.460  33.977  1.00  0.00     0.037 A 
ATOM     28  C   UNL A   1      37.752  31.381  30.362  1.00  0.00     0.037 A 
ATOM     29  C   UNL A   1      42.294  29.395  34.711  1.00  0.00     0.049 A 
ATOM     30  C   UNL A   1      38.000  31.688  31.814  1.00  0.00     0.074 A 
ATOM     31  C   UNL A   1      42.437  29.816  36.018  1.00  0.00     0.029 A 
ATOM     32  N   UNL A   1      41.191  30.058  34.187  1.00  0.00    -0.354 N 
ATOM     33  N   UNL A   1      38.959  31.247  32.594  1.00  0.00    -0.248 NA
ATOM     34  C   UNL A   1      37.062  32.604  32.473  1.00  0.00     0.031 C 
ATOM     35  C   UNL A   1      41.384  30.688  36.305  1.00  0.00     0.029 A 
ATOM     36  C   UNL A   1      40.624  30.863  35.158  1.00  0.00     0.049 A 
ATOM     37  H   UNL A   1      40.861  29.967  33.264  1.00  0.00     0.167 HD
ATOM     38  C   UNL A   1      38.755  31.844  33.829  1.00  0.00     0.074 A 
ATOM     39  C   UNL A   1      37.586  32.691  33.689  1.00  0.00     0.031 C 
ATOM     40  C   UNL A   1      39.464  31.702  34.975  1.00  0.00     0.037 A 
BRANCH  27  41
ATOM     41  C   UNL A   1      44.271  27.817  34.656  1.00  0.00     0.064 A 
ATOM     42  C   UNL A   1      45.526  28.443  34.630  1.00  0.00     0.173 A 
ATOM     43  C   UNL A   1      44.163  26.590  35.326  1.00  0.00     0.173 A 
ATOM     44  F   UNL A   1      45.680  29.625  34.014  1.00  0.00    -0.203 F 
ATOM     45  C   UNL A   1      46.633  27.855  35.236  1.00  0.00     0.198 A 
ATOM     46  C   UNL A   1      45.267  26.018  35.955  1.00  0.00     0.198 A 
ATOM     47  F   UNL A   1      42.977  25.967  35.408  1.00  0.00    -0.203 F 
ATOM     48  F   UNL A   1      47.827  28.463  35.177  1.00  0.00    -0.200 F 
ATOM     49  C   UNL A   1      46.502  26.647  35.901  1.00  0.00     0.200 A 
ATOM     50  F   UNL A   1      45.131  24.868  36.630  1.00  0.00    -0.200 F 
ATOM     51  F   UNL A   1      47.564  26.093  36.502  1.00  0.00    -0.200 F 
ENDBRANCH  27  41
BRANCH  28  52
ATOM     52  C   UNL A   1      36.638  32.010  29.602  1.00  0.00     0.064 A 
ATOM     53  C   UNL A   1      36.651  33.381  29.299  1.00  0.00     0.173 A 
ATOM     54  C   UNL A   1      35.530  31.266  29.176  1.00  0.00     0.173 A 
ATOM     55  F   UNL A   1      37.688  34.143  29.681  1.00  0.00    -0.203 F 
ATOM     56  C   UNL A   1      35.594  33.985  28.621  1.00  0.00     0.198 A 
ATOM     57  C   UNL A   1      34.486  31.865  28.472  1.00  0.00     0.198 A 
ATOM     58  F   UNL A   1      35.474  29.949  29.423  1.00  0.00    -0.203 F 
ATOM     59  F   UNL A   1      35.623  35.302  28.376  1.00  0.00    -0.200 F 
ATOM     60  C   UNL A   1      34.514  33.225  28.203  1.00  0.00     0.200 A 
ATOM     61  F   UNL A   1      33.455  31.121  28.047  1.00  0.00    -0.200 F 
ATOM     62  F   UNL A   1      33.505  33.801  27.536  1.00  0.00    -0.200 F 
ENDBRANCH  28  52
BRANCH  40  63
ATOM     63  C   UNL A   1      39.017  32.490  36.168  1.00  0.00     0.064 A 
ATOM     64  C   UNL A   1      39.542  33.771  36.404  1.00  0.00     0.173 A 
ATOM     65  C   UNL A   1      38.171  31.932  37.134  1.00  0.00     0.173 A 
ATOM     66  F   UNL A   1      40.366  34.339  35.512  1.00  0.00    -0.203 F 
ATOM     67  C   UNL A   1      39.259  34.449  37.584  1.00  0.00     0.198 A 
ATOM     68  C   UNL A   1      37.864  32.629  38.298  1.00  0.00     0.198 A 
ATOM     69  F   UNL A   1      37.636  30.716  36.945  1.00  0.00    -0.203 F 
ATOM     70  F   UNL A   1      39.817  35.646  37.815  1.00  0.00    -0.200 F 
ATOM     71  C   UNL A   1      38.420  33.879  38.529  1.00  0.00     0.200 A 
ATOM     72  F   UNL A   1      37.034  32.088  39.202  1.00  0.00    -0.200 F 
ATOM     73  F   UNL A   1      38.150  34.534  39.667  1.00  0.00    -0.200 F 
ENDBRANCH  40  63
ENDBRANCH  14  15
ENDBRANCH   7   9
ENDBRANCH   6   7
ENDBRANCH   5   6
ENDBRANCH   4   5
ENDBRANCH   3   4
ENDBRANCH   2   3
ENDBRANCH   1   2
BRANCH   1  74
ATOM     74  O   UNL A   1      41.314  20.422  25.989  1.00  0.00    -0.376 OA
BRANCH  74  75
ATOM     75  C   UNL A   1      40.714  21.247  26.980  1.00  0.00     0.202 C 
BRANCH  75  76
ATOM     76  C   UNL A   1      39.585  22.210  26.565  1.00  0.00     0.261 C 
BRANCH  76  77
ATOM     77  O   UNL A   1      38.454  21.649  25.860  1.00  0.00    -0.459 OA
BRANCH  77  78
ATOM     78  C   UNL A   1      37.495  22.551  25.490  1.00  0.00     0.364 C 
ATOM     79  O   UNL A   1      37.662  23.767  25.462  1.00  0.00    -0.245 OA
BRANCH  78  80
ATOM     80  C   UNL A   1      36.117  21.892  25.218  1.00  0.00     0.294 C 
ATOM     81  C   UNL A   1      35.124  22.664  24.350  1.00  0.00     0.090 C 
ATOM     82  N   UNL A   1      35.366  21.734  26.489  1.00  0.00    -0.334 N 
ATOM     83  C   UNL A   1      34.172  23.417  25.317  1.00  0.00     0.036 C 
ATOM     84  C   UNL A   1      34.701  23.023  26.702  1.00  0.00     0.268 C 
ATOM     85  H   UNL A   1      36.004  21.528  27.259  1.00  0.00     0.347 HD
ATOM     86  H   UNL A   1      34.700  20.963  26.446  1.00  0.00     0.347 HD
ATOM     87  C   UNL A   1      32.686  23.001  25.157  1.00  0.00     0.075 C 
ATOM     88  C   UNL A   1      34.228  24.933  25.125  1.00  0.00     0.075 C 
ATOM     89  C   UNL A   1      31.984  23.544  23.898  1.00  0.00     0.271 C 
ATOM     90  C   UNL A   1      33.675  25.327  23.767  1.00  0.00     0.271 C 
ATOM     91  N   UNL A   1      32.272  24.951  23.620  1.00  0.00    -0.271 N 
ATOM     92  H   UNL A   1      32.596  24.138  23.170  1.00  0.00     0.356 HD
BRANCH  91  93
ATOM     93  C   UNL A   1      31.458  25.938  23.033  1.00  0.00     0.322 C 
ATOM     94  O   UNL A   1      31.611  26.179  21.832  1.00  0.00    -0.230 OA
BRANCH  93  95
ATOM     95  C   UNL A   1      30.401  26.791  23.743  1.00  0.00     0.113 C 
ATOM     96  C   UNL A   1      29.177  27.458  23.130  1.00  0.00     0.028 C 
ATOM     97  C   UNL A   1      29.012  26.168  23.872  1.00  0.00     0.028 C 
BRANCH  95  98
ATOM     98  C   UNL A   1      30.979  27.534  24.979  1.00  0.00     0.007 A 
ATOM     99  C   UNL A   1      31.420  28.869  24.901  1.00  0.00     0.008 A 
ATOM    100  C   UNL A   1      31.214  26.860  26.192  1.00  0.00     0.127 A 
ATOM    101  C   UNL A   1      32.092  29.479  25.967  1.00  0.00     0.001 A 
ATOM    102  C   UNL A   1      31.903  27.451  27.250  1.00  0.00     0.039 A 
ATOM    103  F   UNL A   1      30.802  25.590  26.333  1.00  0.00    -0.207 F 
ATOM    104  C   UNL A   1      32.350  28.764  27.134  1.00  0.00     0.003 A 
ENDBRANCH  95  98
ENDBRANCH  93  95
ENDBRANCH  91  93
ENDBRANCH  78  80
ENDBRANCH  77  78
ENDBRANCH  76  77
ENDBRANCH  75  76
ENDBRANCH  74  75
ENDBRANCH   1  74
TORSDOF 20
ENDMDL
MODEL 2
REMARK VINA RESULT:     -11.6      5.355     10.803
REMARK SMILES O=C(OCCOCCOCCOC(=O)[C@@H]1CC2(CC[NH+](C(=O)C3(c4ccccc4F)CC3)CC2)C[NH2+]1)c1ccc(-c2c3nc(c(-c4c(F)c(F)c(F)c(F)c4F)c4ccc([nH]4)c(-c4c(F)c(F)c(F)c(F)c4F)c4nc(c(-c5c(F)c(F)c(F)c(F)c5F)c5ccc2[nH]5)C=C4)C=C3)cc1
REMARK SMILES IDX 8 1 7 2 6 3 5 4 4 5 3 6 2 7 1 8 37 9 38 10 99 11 39 12 98 13
REMARK SMILES IDX 40 14 41 15 42 16 92 17 43 18 97 19 91 20 93 21 44 22 96 23
REMARK SMILES IDX 90 24 89 25 45 27 77 28 57 29 76 30 58 31 61 32 75 33 94 34
REMARK SMILES IDX 59 35 60 36 74 38 95 39 62 40 46 41 47 42 55 43 48 44 49 45
REMARK SMILES IDX 53 46 56 47 50 48 51 49 54 50 52 51 78 52 79 53 87 54 80 55
REMARK SMILES IDX 81 56 85 57 88 58 82 59 83 60 86 61 84 62 63 63 64 64 72 65
REMARK SMILES IDX 65 66 66 67 70 68 73 69 67 70 68 71 71 72 69 73 9 74 10 75
REMARK SMILES IDX 11 76 12 77 13 78 14 79 15 80 16 81 36 82 17 83 35 84 18 87
REMARK SMILES IDX 34 88 19 89 33 90 20 91 21 93 22 94 23 95 31 96 32 97 24 98
REMARK SMILES IDX 25 99 29 100 26 101 28 102 30 103 27 104
REMARK H PARENT 93 26 61 37 36 85 36 86 20 92
REMARK Flexibility Score: inf
ROOT
ATOM      1  C   UNL A   1      34.465  31.075  27.875  1.00  0.00     0.188 C 
ENDROOT
BRANCH   1   2
ATOM      2  C   UNL A   1      34.807  32.455  28.443  1.00  0.00     0.188 C 
BRANCH   2   3
ATOM      3  O   UNL A   1      34.176  32.727  29.699  1.00  0.00    -0.376 OA
BRANCH   3   4
ATOM      4  C   UNL A   1      34.714  33.884  30.354  1.00  0.00     0.202 C 
BRANCH   4   5
ATOM      5  C   UNL A   1      34.897  33.743  31.875  1.00  0.00     0.261 C 
BRANCH   5   6
ATOM      6  O   UNL A   1      35.104  32.384  32.292  1.00  0.00    -0.460 OA
BRANCH   6   7
ATOM      7  C   UNL A   1      36.220  31.851  32.842  1.00  0.00     0.338 C 
ATOM      8  O   UNL A   1      36.411  32.020  34.046  1.00  0.00    -0.246 OA
BRANCH   7   9
ATOM      9  C   UNL A   1      37.276  31.119  32.065  1.00  0.00     0.060 A 
ATOM     10  C   UNL A   1      38.405  30.513  32.611  1.00  0.00     0.016 A 
ATOM     11  C   UNL A   1      37.086  30.996  30.674  1.00  0.00     0.016 A 
ATOM     12  C   UNL A   1      39.358  29.890  31.821  1.00  0.00     0.010 A 
ATOM     13  C   UNL A   1      38.021  30.334  29.868  1.00  0.00     0.010 A 
ATOM     14  C   UNL A   1      39.188  29.820  30.443  1.00  0.00    -0.014 A 
BRANCH  14  15
ATOM     15  C   UNL A   1      40.353  29.403  29.639  1.00  0.00     0.031 A 
ATOM     16  C   UNL A   1      41.474  30.386  29.484  1.00  0.00     0.074 A 
ATOM     17  C   UNL A   1      40.480  28.129  29.226  1.00  0.00     0.049 A 
ATOM     18  N   UNL A   1      42.607  30.255  28.850  1.00  0.00    -0.248 NA
ATOM     19  C   UNL A   1      41.309  31.685  30.162  1.00  0.00     0.031 C 
ATOM     20  C   UNL A   1      39.510  27.068  29.483  1.00  0.00     0.029 A 
ATOM     21  N   UNL A   1      41.484  27.498  28.541  1.00  0.00    -0.354 N 
ATOM     22  C   UNL A   1      43.278  31.455  29.042  1.00  0.00     0.074 A 
ATOM     23  C   UNL A   1      42.423  32.313  29.827  1.00  0.00     0.031 C 
ATOM     24  C   UNL A   1      39.957  25.917  28.957  1.00  0.00     0.029 A 
ATOM     25  C   UNL A   1      41.229  26.170  28.294  1.00  0.00     0.049 A 
ATOM     26  H   UNL A   1      42.309  27.953  28.253  1.00  0.00     0.167 HD
ATOM     27  C   UNL A   1      44.508  31.797  28.602  1.00  0.00     0.037 A 
ATOM     28  C   UNL A   1      41.942  25.270  27.590  1.00  0.00     0.037 A 
ATOM     29  C   UNL A   1      45.342  30.915  27.834  1.00  0.00     0.049 A 
ATOM     30  C   UNL A   1      43.253  25.716  27.003  1.00  0.00     0.074 A 
ATOM     31  C   UNL A   1      46.585  31.164  27.288  1.00  0.00     0.029 A 
ATOM     32  N   UNL A   1      45.009  29.605  27.511  1.00  0.00    -0.354 N 
ATOM     33  N   UNL A   1      43.859  26.874  27.129  1.00  0.00    -0.248 NA
ATOM     34  C   UNL A   1      43.979  24.746  26.174  1.00  0.00     0.031 C 
ATOM     35  C   UNL A   1      46.979  30.025  26.581  1.00  0.00     0.029 A 
ATOM     36  C   UNL A   1      46.012  29.043  26.744  1.00  0.00     0.049 A 
ATOM     37  H   UNL A   1      44.182  29.147  27.785  1.00  0.00     0.167 HD
ATOM     38  C   UNL A   1      45.044  26.768  26.417  1.00  0.00     0.074 A 
ATOM     39  C   UNL A   1      45.077  25.425  25.870  1.00  0.00     0.031 C 
ATOM     40  C   UNL A   1      46.013  27.696  26.227  1.00  0.00     0.037 A 
BRANCH  27  41
ATOM     41  C   UNL A   1      44.987  33.187  28.890  1.00  0.00     0.064 A 
ATOM     42  C   UNL A   1      45.753  33.441  30.037  1.00  0.00     0.173 A 
ATOM     43  C   UNL A   1      44.691  34.267  28.045  1.00  0.00     0.173 A 
ATOM     44  F   UNL A   1      46.074  32.440  30.870  1.00  0.00    -0.203 F 
ATOM     45  C   UNL A   1      46.192  34.727  30.336  1.00  0.00     0.198 A 
ATOM     46  C   UNL A   1      45.156  35.548  28.333  1.00  0.00     0.198 A 
ATOM     47  F   UNL A   1      43.990  34.071  26.918  1.00  0.00    -0.203 F 
ATOM     48  F   UNL A   1      46.904  34.947  31.451  1.00  0.00    -0.200 F 
ATOM     49  C   UNL A   1      45.897  35.778  29.482  1.00  0.00     0.200 A 
ATOM     50  F   UNL A   1      44.902  36.558  27.488  1.00  0.00    -0.200 F 
ATOM     51  F   UNL A   1      46.338  37.013  29.761  1.00  0.00    -0.200 F 
ENDBRANCH  27  41
BRANCH  28  52
ATOM     52  C   UNL A   1      41.415  23.893  27.389  1.00  0.00     0.064 A 
ATOM     53  C   UNL A   1      42.052  22.782  27.966  1.00  0.00     0.173 A 
ATOM     54  C   UNL A   1      40.279  23.651  26.606  1.00  0.00     0.173 A 
ATOM     55  F   UNL A   1      43.144  22.955  28.727  1.00  0.00    -0.203 F 
ATOM     56  C   UNL A   1      41.587  21.486  27.752  1.00  0.00     0.198 A 
ATOM     57  C   UNL A   1      39.797  22.356  26.416  1.00  0.00     0.198 A 
ATOM     58  F   UNL A   1      39.621  24.676  26.046  1.00  0.00    -0.203 F 
ATOM     59  F   UNL A   1      42.237  20.445  28.290  1.00  0.00    -0.200 F 
ATOM     60  C   UNL A   1      40.455  21.275  26.981  1.00  0.00     0.200 A 
ATOM     61  F   UNL A   1      38.687  22.157  25.690  1.00  0.00    -0.200 F 
ATOM     62  F   UNL A   1      39.998  20.030  26.788  1.00  0.00    -0.200 F 
ENDBRANCH  28  52
BRANCH  40  63
ATOM     63  C   UNL A   1      47.205  27.295  25.412  1.00  0.00     0.064 A 
ATOM     64  C   UNL A   1      48.297  26.661  26.025  1.00  0.00     0.173 A 
ATOM     65  C   UNL A   1      47.316  27.648  24.061  1.00  0.00     0.173 A 
ATOM     66  F   UNL A   1      48.239  26.315  27.320  1.00  0.00    -0.203 F 
ATOM     67  C   UNL A   1      49.471  26.424  25.319  1.00  0.00     0.198 A 
ATOM     68  C   UNL A   1      48.481  27.379  23.350  1.00  0.00     0.198 A 
ATOM     69  F   UNL A   1      46.293  28.245  23.431  1.00  0.00    -0.203 F 
ATOM     70  F   UNL A   1      50.522  25.870  25.939  1.00  0.00    -0.200 F 
ATOM     71  C   UNL A   1      49.562  26.783  23.983  1.00  0.00     0.200 A 
ATOM     72  F   UNL A   1      48.561  27.705  22.052  1.00  0.00    -0.200 F 
ATOM     73  F   UNL A   1      50.695  26.556  23.305  1.00  0.00    -0.200 F 
ENDBRANCH  40  63
ENDBRANCH  14  15
ENDBRANCH   7   9
ENDBRANCH   6   7
ENDBRANCH   5   6
ENDBRANCH   4   5
ENDBRANCH   3   4
ENDBRANCH   2   3
ENDBRANCH   1   2
BRANCH   1  74
ATOM     74  O   UNL A   1      33.101  30.815  27.576  1.00  0.00    -0.376 OA
BRANCH  74  75
ATOM     75  C   UNL A   1      32.834  29.808  26.608  1.00  0.00     0.202 C 
BRANCH  75  76
ATOM     76  C   UNL A   1      31.842  30.112  25.469  1.00  0.00     0.261 C 
BRANCH  76  77
ATOM     77  O   UNL A   1      31.008  29.027  25.002  1.00  0.00    -0.459 OA
BRANCH  77  78
ATOM     78  C   UNL A   1      30.249  29.309  23.900  1.00  0.00     0.364 C 
ATOM     79  O   UNL A   1      29.786  30.418  23.644  1.00  0.00    -0.245 OA
BRANCH  78  80
ATOM     80  C   UNL A   1      29.922  28.053  23.052  1.00  0.00     0.294 C 
ATOM     81  C   UNL A   1      30.009  26.692  23.742  1.00  0.00     0.090 C 
ATOM     82  N   UNL A   1      30.906  27.909  21.950  1.00  0.00    -0.334 N 
ATOM     83  C   UNL A   1      31.409  26.110  23.413  1.00  0.00     0.036 C 
ATOM     84  C   UNL A   1      32.045  27.203  22.545  1.00  0.00     0.268 C 
ATOM     85  H   UNL A   1      31.193  28.825  21.604  1.00  0.00     0.347 HD
ATOM     86  H   UNL A   1      30.517  27.404  21.154  1.00  0.00     0.347 HD
ATOM     87  C   UNL A   1      31.345  24.764  22.644  1.00  0.00     0.075 C 
ATOM     88  C   UNL A   1      32.244  25.858  24.669  1.00  0.00     0.075 C 
ATOM     89  C   UNL A   1      30.934  23.543  23.489  1.00  0.00     0.271 C 
ATOM     90  C   UNL A   1      31.634  24.754  25.514  1.00  0.00     0.271 C 
ATOM     91  N   UNL A   1      31.587  23.483  24.797  1.00  0.00    -0.271 N 
ATOM     92  H   UNL A   1      30.659  23.715  24.562  1.00  0.00     0.356 HD
BRANCH  91  93
ATOM     93  C   UNL A   1      31.979  22.366  25.558  1.00  0.00     0.322 C 
ATOM     94  O   UNL A   1      31.237  21.380  25.569  1.00  0.00    -0.230 OA
BRANCH  93  95
ATOM     95  C   UNL A   1      33.240  22.247  26.421  1.00  0.00     0.113 C 
ATOM     96  C   UNL A   1      33.355  22.414  27.930  1.00  0.00     0.028 C 
ATOM     97  C   UNL A   1      33.307  21.035  27.349  1.00  0.00     0.028 C 
BRANCH  95  98
ATOM     98  C   UNL A   1      34.526  22.633  25.639  1.00  0.00     0.007 A 
ATOM     99  C   UNL A   1      35.275  23.780  25.964  1.00  0.00     0.008 A 
ATOM    100  C   UNL A   1      34.916  21.928  24.485  1.00  0.00     0.127 A 
ATOM    101  C   UNL A   1      36.332  24.214  25.155  1.00  0.00     0.001 A 
ATOM    102  C   UNL A   1      35.952  22.366  23.661  1.00  0.00     0.039 A 
ATOM    103  F   UNL A   1      34.251  20.816  24.132  1.00  0.00    -0.207 F 
ATOM    104  C   UNL A   1      36.658  23.518  23.994  1.00  0.00     0.003 A 
ENDBRANCH  95  98
ENDBRANCH  93  95
ENDBRANCH  91  93
ENDBRANCH  78  80
ENDBRANCH  77  78
ENDBRANCH  76  77
ENDBRANCH  75  76
ENDBRANCH  74  75
ENDBRANCH   1  74
TORSDOF 20
ENDMDL
MODEL 3
REMARK VINA RESULT:     -11.6      5.488     11.041
REMARK SMILES O=C(OCCOCCOCCOC(=O)[C@@H]1CC2(CC[NH+](C(=O)C3(c4ccccc4F)CC3)CC2)C[NH2+]1)c1ccc(-c2c3nc(c(-c4c(F)c(F)c(F)c(F)c4F)c4ccc([nH]4)c(-c4c(F)c(F)c(F)c(F)c4F)c4nc(c(-c5c(F)c(F)c(F)c(F)c5F)c5ccc2[nH]5)C=C4)C=C3)cc1
REMARK SMILES IDX 8 1 7 2 6 3 5 4 4 5 3 6 2 7 1 8 37 9 38 10 99 11 39 12 98 13
REMARK SMILES IDX 40 14 41 15 42 16 92 17 43 18 97 19 91 20 93 21 44 22 96 23
REMARK SMILES IDX 90 24 89 25 45 27 77 28 57 29 76 30 58 31 61 32 75 33 94 34
REMARK SMILES IDX 59 35 60 36 74 38 95 39 62 40 46 41 47 42 55 43 48 44 49 45
REMARK SMILES IDX 53 46 56 47 50 48 51 49 54 50 52 51 78 52 79 53 87 54 80 55
REMARK SMILES IDX 81 56 85 57 88 58 82 59 83 60 86 61 84 62 63 63 64 64 72 65
REMARK SMILES IDX 65 66 66 67 70 68 73 69 67 70 68 71 71 72 69 73 9 74 10 75
REMARK SMILES IDX 11 76 12 77 13 78 14 79 15 80 16 81 36 82 17 83 35 84 18 87
REMARK SMILES IDX 34 88 19 89 33 90 20 91 21 93 22 94 23 95 31 96 32 97 24 98
REMARK SMILES IDX 25 99 29 100 26 101 28 102 30 103 27 104
REMARK H PARENT 93 26 61 37 36 85 36 86 20 92
REMARK Flexibility Score: inf
ROOT
ATOM      1  C   UNL A   1      32.927  35.214  29.029  1.00  0.00     0.188 C 
ENDROOT
BRANCH   1   2
ATOM      2  C   UNL A   1      33.942  35.238  30.174  1.00  0.00     0.188 C 
BRANCH   2   3
ATOM      3  O   UNL A   1      33.497  34.547  31.346  1.00  0.00    -0.376 OA
BRANCH   3   4
ATOM      4  C   UNL A   1      34.322  33.421  31.678  1.00  0.00     0.202 C 
BRANCH   4   5
ATOM      5  C   UNL A   1      34.406  33.098  33.179  1.00  0.00     0.261 C 
BRANCH   5   6
ATOM      6  O   UNL A   1      35.568  32.328  33.524  1.00  0.00    -0.460 OA
BRANCH   6   7
ATOM      7  C   UNL A   1      36.865  32.654  33.314  1.00  0.00     0.338 C 
ATOM      8  O   UNL A   1      37.295  33.686  33.827  1.00  0.00    -0.246 OA
BRANCH   7   9
ATOM      9  C   UNL A   1      37.800  31.868  32.441  1.00  0.00     0.060 A 
ATOM     10  C   UNL A   1      38.816  31.030  32.896  1.00  0.00     0.016 A 
ATOM     11  C   UNL A   1      37.607  31.949  31.047  1.00  0.00     0.016 A 
ATOM     12  C   UNL A   1      39.668  30.368  32.025  1.00  0.00     0.010 A 
ATOM     13  C   UNL A   1      38.435  31.256  30.156  1.00  0.00     0.010 A 
ATOM     14  C   UNL A   1      39.502  30.498  30.650  1.00  0.00    -0.014 A 
BRANCH  14  15
ATOM     15  C   UNL A   1      40.595  30.008  29.790  1.00  0.00     0.031 A 
ATOM     16  C   UNL A   1      41.789  30.896  29.614  1.00  0.00     0.074 A 
ATOM     17  C   UNL A   1      40.597  28.740  29.340  1.00  0.00     0.049 A 
ATOM     18  N   UNL A   1      42.882  30.689  28.931  1.00  0.00    -0.248 NA
ATOM     19  C   UNL A   1      41.763  32.185  30.330  1.00  0.00     0.031 C 
ATOM     20  C   UNL A   1      39.550  27.757  29.609  1.00  0.00     0.029 A 
ATOM     21  N   UNL A   1      41.516  28.046  28.598  1.00  0.00    -0.354 N 
ATOM     22  C   UNL A   1      43.660  31.822  29.126  1.00  0.00     0.074 A 
ATOM     23  C   UNL A   1      42.913  32.726  29.967  1.00  0.00     0.031 C 
ATOM     24  C   UNL A   1      39.877  26.588  29.036  1.00  0.00     0.029 A 
ATOM     25  C   UNL A   1      41.140  26.752  28.328  1.00  0.00     0.049 A 
ATOM     26  H   UNL A   1      42.366  28.438  28.289  1.00  0.00     0.167 HD
ATOM     27  C   UNL A   1      44.896  32.071  28.645  1.00  0.00     0.037 A 
ATOM     28  C   UNL A   1      41.746  25.816  27.573  1.00  0.00     0.037 A 
ATOM     29  C   UNL A   1      45.622  31.145  27.822  1.00  0.00     0.049 A 
ATOM     30  C   UNL A   1      43.066  26.166  26.945  1.00  0.00     0.074 A 
ATOM     31  C   UNL A   1      46.860  31.304  27.231  1.00  0.00     0.029 A 
ATOM     32  N   UNL A   1      45.167  29.877  27.479  1.00  0.00    -0.354 N 
ATOM     33  N   UNL A   1      43.773  27.264  27.076  1.00  0.00    -0.248 NA
ATOM     34  C   UNL A   1      43.674  25.162  26.063  1.00  0.00     0.031 C 
ATOM     35  C   UNL A   1      47.127  30.155  26.481  1.00  0.00     0.029 A 
ATOM     36  C   UNL A   1      46.087  29.254  26.658  1.00  0.00     0.049 A 
ATOM     37  H   UNL A   1      44.315  29.483  27.776  1.00  0.00     0.167 HD
ATOM     38  C   UNL A   1      44.917  27.080  26.313  1.00  0.00     0.074 A 
ATOM     39  C   UNL A   1      44.814  25.755  25.732  1.00  0.00     0.031 C 
ATOM     40  C   UNL A   1      45.953  27.928  26.108  1.00  0.00     0.037 A 
BRANCH  27  41
ATOM     41  C   UNL A   1      45.503  33.407  28.948  1.00  0.00     0.064 A 
ATOM     42  C   UNL A   1      45.213  34.510  28.132  1.00  0.00     0.173 A 
ATOM     43  C   UNL A   1      46.371  33.603  30.033  1.00  0.00     0.173 A 
ATOM     44  F   UNL A   1      44.378  34.379  27.090  1.00  0.00    -0.203 F 
ATOM     45  C   UNL A   1      45.780  35.757  28.381  1.00  0.00     0.198 A 
ATOM     46  C   UNL A   1      46.915  34.858  30.296  1.00  0.00     0.198 A 
ATOM     47  F   UNL A   1      46.655  32.587  30.863  1.00  0.00    -0.203 F 
ATOM     48  F   UNL A   1      45.504  36.790  27.574  1.00  0.00    -0.200 F 
ATOM     49  C   UNL A   1      46.627  35.930  29.465  1.00  0.00     0.200 A 
ATOM     50  F   UNL A   1      47.704  35.034  31.365  1.00  0.00    -0.200 F 
ATOM     51  F   UNL A   1      47.156  37.136  29.716  1.00  0.00    -0.200 F 
ENDBRANCH  27  41
BRANCH  28  52
ATOM     52  C   UNL A   1      41.095  24.494  27.359  1.00  0.00     0.064 A 
ATOM     53  C   UNL A   1      41.576  23.339  27.997  1.00  0.00     0.173 A 
ATOM     54  C   UNL A   1      39.995  24.349  26.505  1.00  0.00     0.173 A 
ATOM     55  F   UNL A   1      42.626  23.419  28.829  1.00  0.00    -0.203 F 
ATOM     56  C   UNL A   1      40.997  22.092  27.773  1.00  0.00     0.198 A 
ATOM     57  C   UNL A   1      39.397  23.106  26.303  1.00  0.00     0.198 A 
ATOM     58  F   UNL A   1      39.484  25.422  25.883  1.00  0.00    -0.203 F 
ATOM     59  F   UNL A   1      41.499  21.003  28.372  1.00  0.00    -0.200 F 
ATOM     60  C   UNL A   1      39.903  21.977  26.930  1.00  0.00     0.200 A 
ATOM     61  F   UNL A   1      38.324  23.002  25.506  1.00  0.00    -0.200 F 
ATOM     62  F   UNL A   1      39.335  20.781  26.726  1.00  0.00    -0.200 F 
ENDBRANCH  28  52
BRANCH  40  63
ATOM     63  C   UNL A   1      47.074  27.451  25.235  1.00  0.00     0.064 A 
ATOM     64  C   UNL A   1      48.138  26.722  25.789  1.00  0.00     0.173 A 
ATOM     65  C   UNL A   1      47.155  27.820  23.886  1.00  0.00     0.173 A 
ATOM     66  F   UNL A   1      48.109  26.358  27.080  1.00  0.00    -0.203 F 
ATOM     67  C   UNL A   1      49.259  26.409  25.029  1.00  0.00     0.198 A 
ATOM     68  C   UNL A   1      48.264  27.476  23.120  1.00  0.00     0.198 A 
ATOM     69  F   UNL A   1      46.156  28.507  23.311  1.00  0.00    -0.203 F 
ATOM     70  F   UNL A   1      50.289  25.763  25.593  1.00  0.00    -0.200 F 
ATOM     71  C   UNL A   1      49.321  26.785  23.695  1.00  0.00     0.200 A 
ATOM     72  F   UNL A   1      48.314  27.819  21.825  1.00  0.00    -0.200 F 
ATOM     73  F   UNL A   1      50.403  26.484  22.965  1.00  0.00    -0.200 F 
ENDBRANCH  40  63
ENDBRANCH  14  15
ENDBRANCH   7   9
ENDBRANCH   6   7
ENDBRANCH   5   6
ENDBRANCH   4   5
ENDBRANCH   3   4
ENDBRANCH   2   3
ENDBRANCH   1   2
BRANCH   1  74
ATOM     74  O   UNL A   1      33.082  34.202  28.043  1.00  0.00    -0.376 OA
BRANCH  74  75
ATOM     75  C   UNL A   1      34.309  33.484  28.044  1.00  0.00     0.202 C 
BRANCH  75  76
ATOM     76  C   UNL A   1      34.273  31.946  27.965  1.00  0.00     0.261 C 
BRANCH  76  77
ATOM     77  O   UNL A   1      33.168  31.339  27.257  1.00  0.00    -0.459 OA
BRANCH  77  78
ATOM     78  C   UNL A   1      33.220  29.976  27.155  1.00  0.00     0.364 C 
ATOM     79  O   UNL A   1      34.032  29.269  27.746  1.00  0.00    -0.245 OA
BRANCH  78  80
ATOM     80  C   UNL A   1      32.222  29.408  26.114  1.00  0.00     0.294 C 
ATOM     81  C   UNL A   1      31.983  27.899  26.114  1.00  0.00     0.090 C 
ATOM     82  N   UNL A   1      32.726  29.645  24.738  1.00  0.00    -0.334 N 
ATOM     83  C   UNL A   1      32.909  27.297  25.023  1.00  0.00     0.036 C 
ATOM     84  C   UNL A   1      33.636  28.528  24.466  1.00  0.00     0.268 C 
ATOM     85  H   UNL A   1      33.225  30.534  24.688  1.00  0.00     0.347 HD
ATOM     86  H   UNL A   1      31.969  29.696  24.057  1.00  0.00     0.347 HD
ATOM     87  C   UNL A   1      32.132  26.562  23.900  1.00  0.00     0.075 C 
ATOM     88  C   UNL A   1      33.907  26.291  25.597  1.00  0.00     0.075 C 
ATOM     89  C   UNL A   1      31.550  25.191  24.293  1.00  0.00     0.271 C 
ATOM     90  C   UNL A   1      33.193  25.057  26.120  1.00  0.00     0.271 C 
ATOM     91  N   UNL A   1      32.473  24.355  25.062  1.00  0.00    -0.271 N 
ATOM     92  H   UNL A   1      31.675  24.851  25.354  1.00  0.00     0.356 HD
BRANCH  91  93
ATOM     93  C   UNL A   1      32.616  22.955  25.084  1.00  0.00     0.322 C 
ATOM     94  O   UNL A   1      31.853  22.304  25.803  1.00  0.00    -0.230 OA
BRANCH  93  95
ATOM     95  C   UNL A   1      33.660  22.132  24.321  1.00  0.00     0.113 C 
ATOM     96  C   UNL A   1      34.644  22.622  23.267  1.00  0.00     0.028 C 
ATOM     97  C   UNL A   1      35.121  22.410  24.671  1.00  0.00     0.028 C 
BRANCH  95  98
ATOM     98  C   UNL A   1      33.226  20.650  24.146  1.00  0.00     0.007 A 
ATOM     99  C   UNL A   1      33.744  19.626  24.962  1.00  0.00     0.008 A 
ATOM    100  C   UNL A   1      32.404  20.252  23.076  1.00  0.00     0.127 A 
ATOM    101  C   UNL A   1      33.482  18.277  24.694  1.00  0.00     0.001 A 
ATOM    102  C   UNL A   1      32.157  18.911  22.787  1.00  0.00     0.039 A 
ATOM    103  F   UNL A   1      31.867  21.184  22.272  1.00  0.00    -0.207 F 
ATOM    104  C   UNL A   1      32.704  17.919  23.595  1.00  0.00     0.003 A 
ENDBRANCH  95  98
ENDBRANCH  93  95
ENDBRANCH  91  93
ENDBRANCH  78  80
ENDBRANCH  77  78
ENDBRANCH  76  77
ENDBRANCH  75  76
ENDBRANCH  74  75
ENDBRANCH   1  74
TORSDOF 20
ENDMDL
