MODEL 1
REMARK VINA RESULT:     -12.0      0.000      0.000
REMARK SMILES C[C@H](NS(=O)(=O)c1ccc(-c2cc(-c3ccccc3)c3cc([N+](=O)[O-])ccc3n2)cc1)C(=O)OCCOCCOCCOC(=O)c1ccc(-c2c3nc(c(-c4c(F)c(F)c(F)c(F)c4F)c4ccc([nH]4)c(-c4c(F)c(F)c(F)c(F)c4F)c4nc(c(-c5c(F)c(F)c(F)c(F)c5F)c5ccc2[nH]5)C=C4)C=C3)cc1
REMARK SMILES IDX 37 1 36 2 35 3 34 4 32 5 33 6 2 7 1 8 3 9 4 11 5 12 6 13
REMARK SMILES IDX 7 14 8 15 31 16 9 17 30 18 10 19 11 20 12 21 29 22 13 23
REMARK SMILES IDX 28 24 20 25 27 26 21 27 26 28 22 29 14 30 15 31 19 32 16 33
REMARK SMILES IDX 18 34 17 35 23 36 24 37 25 38 38 39 39 40 40 41 41 42 42 43
REMARK SMILES IDX 43 44 44 45 45 46 46 47 47 48 108 49 48 50 107 51 49 52
REMARK SMILES IDX 50 53 51 54 101 55 52 56 106 57 100 58 102 59 53 60 105 61
REMARK SMILES IDX 99 62 98 63 54 65 86 66 66 67 85 68 67 69 70 70 84 71 103 72
REMARK SMILES IDX 68 73 69 74 83 76 104 77 71 78 55 79 56 80 64 81 57 82 58 83
REMARK SMILES IDX 62 84 65 85 59 86 60 87 63 88 61 89 87 90 88 91 96 92 89 93
REMARK SMILES IDX 90 94 94 95 97 96 91 97 92 98 95 99 93 100 72 101 73 102
REMARK SMILES IDX 81 103 74 104 75 105 79 106 82 107 76 108 77 109 80 110
REMARK SMILES IDX 78 111
REMARK H PARENT 3 10 102 64 70 75
REMARK Flexibility Score: inf
ROOT
ATOM      1  O   UNL A   1      32.057  33.406  27.361  1.00  0.00    -0.376 OA
ENDROOT
BRANCH   1   2
ATOM      2  C   UNL A   1      31.720  32.104  26.899  1.00  0.00     0.202 C 
BRANCH   2   3
ATOM      3  C   UNL A   1      32.896  31.135  27.013  1.00  0.00     0.261 C 
BRANCH   3   4
ATOM      4  O   UNL A   1      32.771  30.034  26.096  1.00  0.00    -0.462 OA
BRANCH   4   5
ATOM      5  C   UNL A   1      32.512  28.813  26.631  1.00  0.00     0.323 C 
ATOM      6  O   UNL A   1      33.077  28.378  27.628  1.00  0.00    -0.250 OA
BRANCH   5   7
ATOM      7  C   UNL A   1      31.403  28.067  25.888  1.00  0.00     0.176 C 
ATOM      8  C   UNL A   1      31.388  26.641  26.480  1.00  0.00     0.038 C 
BRANCH   7   9
ATOM      9  N   UNL A   1      31.458  27.862  24.419  1.00  0.00    -0.197 NA
ATOM     10  H   UNL A   1      31.213  28.762  24.007  1.00  0.00     0.142 HD
BRANCH   9  11
ATOM     11  S   UNL A   1      32.821  27.333  23.575  1.00  0.00     0.241 S 
ATOM     12  O   UNL A   1      32.886  28.275  22.470  1.00  0.00    -0.207 OA
ATOM     13  O   UNL A   1      33.943  27.140  24.443  1.00  0.00    -0.207 OA
BRANCH  11  14
ATOM     14  C   UNL A   1      32.322  25.770  22.891  1.00  0.00     0.082 A 
ATOM     15  C   UNL A   1      30.990  25.377  23.028  1.00  0.00     0.022 A 
ATOM     16  C   UNL A   1      33.287  24.833  22.535  1.00  0.00     0.022 A 
ATOM     17  C   UNL A   1      30.694  24.013  23.103  1.00  0.00     0.012 A 
ATOM     18  C   UNL A   1      32.976  23.480  22.542  1.00  0.00     0.012 A 
ATOM     19  C   UNL A   1      31.752  23.081  23.113  1.00  0.00     0.000 A 
BRANCH  19  20
ATOM     20  C   UNL A   1      31.900  22.215  24.335  1.00  0.00     0.072 A 
ATOM     21  C   UNL A   1      31.914  20.830  24.219  1.00  0.00     0.038 A 
ATOM     22  N   UNL A   1      32.761  22.838  25.182  1.00  0.00    -0.248 NA
ATOM     23  C   UNL A   1      33.077  20.154  24.618  1.00  0.00    -0.007 A 
ATOM     24  C   UNL A   1      33.952  22.279  25.367  1.00  0.00     0.072 A 
ATOM     25  C   UNL A   1      34.198  20.945  25.011  1.00  0.00     0.015 A 
ATOM     26  C   UNL A   1      34.997  23.080  25.816  1.00  0.00     0.036 A 
ATOM     27  C   UNL A   1      35.543  20.491  25.000  1.00  0.00     0.096 A 
ATOM     28  C   UNL A   1      36.317  22.624  25.834  1.00  0.00     0.088 A 
ATOM     29  C   UNL A   1      36.588  21.331  25.392  1.00  0.00     0.270 A 
BRANCH  23  30
ATOM     30  C   UNL A   1      33.184  18.679  24.578  1.00  0.00    -0.018 A 
ATOM     31  C   UNL A   1      32.896  17.943  25.747  1.00  0.00     0.009 A 
ATOM     32  C   UNL A   1      33.607  17.967  23.448  1.00  0.00     0.009 A 
ATOM     33  C   UNL A   1      33.120  16.570  25.823  1.00  0.00     0.001 A 
ATOM     34  C   UNL A   1      33.800  16.582  23.512  1.00  0.00     0.001 A 
ATOM     35  C   UNL A   1      33.581  15.890  24.704  1.00  0.00     0.000 A 
ENDBRANCH  23  30
BRANCH  29  36
ATOM     36  N   UNL A   1      37.976  20.870  25.271  1.00  0.00     0.062 N 
ATOM     37  O   UNL A   1      38.182  19.817  24.652  1.00  0.00    -0.258 OA
ATOM     38  O   UNL A   1      38.860  21.583  25.764  1.00  0.00    -0.258 OA
ENDBRANCH  29  36
ENDBRANCH  19  20
ENDBRANCH  11  14
ENDBRANCH   9  11
ENDBRANCH   7   9
ENDBRANCH   5   7
ENDBRANCH   4   5
ENDBRANCH   3   4
ENDBRANCH   2   3
ENDBRANCH   1   2
BRANCH   1  39
ATOM     39  C   UNL A   1      33.420  33.721  27.651  1.00  0.00     0.188 C 
BRANCH  39  40
ATOM     40  C   UNL A   1      33.808  34.380  28.973  1.00  0.00     0.188 C 
BRANCH  40  41
ATOM     41  O   UNL A   1      34.281  35.708  28.793  1.00  0.00    -0.376 OA
BRANCH  41  42
ATOM     42  C   UNL A   1      33.278  36.704  28.983  1.00  0.00     0.202 C 
BRANCH  42  43
ATOM     43  C   UNL A   1      32.401  36.261  30.157  1.00  0.00     0.261 C 
BRANCH  43  44
ATOM     44  O   UNL A   1      32.644  37.049  31.341  1.00  0.00    -0.460 OA
BRANCH  44  45
ATOM     45  C   UNL A   1      32.704  36.349  32.496  1.00  0.00     0.338 C 
ATOM     46  O   UNL A   1      31.884  36.357  33.398  1.00  0.00    -0.246 OA
BRANCH  45  47
ATOM     47  C   UNL A   1      33.834  35.393  32.426  1.00  0.00     0.060 A 
ATOM     48  C   UNL A   1      33.613  34.073  32.848  1.00  0.00     0.016 A 
ATOM     49  C   UNL A   1      35.098  35.786  31.978  1.00  0.00     0.016 A 
ATOM     50  C   UNL A   1      34.674  33.168  32.902  1.00  0.00     0.010 A 
ATOM     51  C   UNL A   1      36.162  34.883  32.043  1.00  0.00     0.010 A 
ATOM     52  C   UNL A   1      35.964  33.590  32.558  1.00  0.00    -0.014 A 
BRANCH  52  53
ATOM     53  C   UNL A   1      37.139  32.789  32.977  1.00  0.00     0.031 A 
ATOM     54  C   UNL A   1      37.775  33.117  34.301  1.00  0.00     0.074 A 
ATOM     55  C   UNL A   1      37.641  31.803  32.214  1.00  0.00     0.049 A 
ATOM     56  N   UNL A   1      38.843  32.611  34.863  1.00  0.00    -0.248 NA
ATOM     57  C   UNL A   1      37.117  34.169  35.095  1.00  0.00     0.031 C 
ATOM     58  C   UNL A   1      37.101  31.363  30.932  1.00  0.00     0.029 A 
ATOM     59  N   UNL A   1      38.736  31.001  32.417  1.00  0.00    -0.354 N 
ATOM     60  C   UNL A   1      38.985  33.284  36.069  1.00  0.00     0.074 A 
ATOM     61  C   UNL A   1      37.915  34.254  36.148  1.00  0.00     0.031 C 
ATOM     62  C   UNL A   1      37.876  30.373  30.453  1.00  0.00     0.029 A 
ATOM     63  C   UNL A   1      38.980  30.132  31.383  1.00  0.00     0.049 A 
ATOM     64  H   UNL A   1      39.294  31.045  33.226  1.00  0.00     0.167 HD
ATOM     65  C   UNL A   1      39.919  33.108  37.033  1.00  0.00     0.037 A 
ATOM     66  C   UNL A   1      39.990  29.258  31.206  1.00  0.00     0.037 A 
ATOM     67  C   UNL A   1      40.988  32.150  36.962  1.00  0.00     0.049 A 
ATOM     68  C   UNL A   1      41.061  29.131  32.260  1.00  0.00     0.074 A 
ATOM     69  C   UNL A   1      41.974  31.884  37.896  1.00  0.00     0.029 A 
ATOM     70  N   UNL A   1      41.216  31.306  35.886  1.00  0.00    -0.354 N 
ATOM     71  N   UNL A   1      41.172  29.747  33.412  1.00  0.00    -0.248 NA
ATOM     72  C   UNL A   1      42.152  28.183  31.984  1.00  0.00     0.031 C 
ATOM     73  C   UNL A   1      42.824  30.907  37.367  1.00  0.00     0.029 A 
ATOM     74  C   UNL A   1      42.341  30.533  36.123  1.00  0.00     0.049 A 
ATOM     75  H   UNL A   1      40.661  31.262  35.074  1.00  0.00     0.167 HD
ATOM     76  C   UNL A   1      42.318  29.237  34.011  1.00  0.00     0.074 A 
ATOM     77  C   UNL A   1      42.867  28.259  33.098  1.00  0.00     0.031 C 
ATOM     78  C   UNL A   1      42.866  29.551  35.211  1.00  0.00     0.037 A 
BRANCH  65  79
ATOM     79  C   UNL A   1      39.834  33.994  38.239  1.00  0.00     0.064 A 
ATOM     80  C   UNL A   1      40.402  35.277  38.248  1.00  0.00     0.173 A 
ATOM     81  C   UNL A   1      39.171  33.559  39.394  1.00  0.00     0.173 A 
ATOM     82  F   UNL A   1      41.065  35.730  37.173  1.00  0.00    -0.203 F 
ATOM     83  C   UNL A   1      40.329  36.082  39.381  1.00  0.00     0.198 A 
ATOM     84  C   UNL A   1      39.078  34.376  40.516  1.00  0.00     0.198 A 
ATOM     85  F   UNL A   1      38.613  32.338  39.434  1.00  0.00    -0.203 F 
ATOM     86  F   UNL A   1      40.920  37.285  39.387  1.00  0.00    -0.200 F 
ATOM     87  C   UNL A   1      39.663  35.633  40.512  1.00  0.00     0.200 A 
ATOM     88  F   UNL A   1      38.427  33.944  41.606  1.00  0.00    -0.200 F 
ATOM     89  F   UNL A   1      39.594  36.409  41.602  1.00  0.00    -0.200 F 
ENDBRANCH  65  79
BRANCH  66  90
ATOM     90  C   UNL A   1      40.049  28.425  29.977  1.00  0.00     0.064 A 
ATOM     91  C   UNL A   1      40.713  28.880  28.831  1.00  0.00     0.173 A 
ATOM     92  C   UNL A   1      39.409  27.178  29.912  1.00  0.00     0.173 A 
ATOM     93  F   UNL A   1      41.311  30.081  28.838  1.00  0.00    -0.203 F 
ATOM     94  C   UNL A   1      40.720  28.130  27.658  1.00  0.00     0.198 A 
ATOM     95  C   UNL A   1      39.437  26.419  28.745  1.00  0.00     0.198 A 
ATOM     96  F   UNL A   1      38.751  26.704  30.979  1.00  0.00    -0.203 F 
ATOM     97  F   UNL A   1      41.318  28.612  26.560  1.00  0.00    -0.200 F 
ATOM     98  C   UNL A   1      40.086  26.897  27.617  1.00  0.00     0.200 A 
ATOM     99  F   UNL A   1      38.825  25.226  28.709  1.00  0.00    -0.200 F 
ATOM    100  F   UNL A   1      40.086  26.179  26.485  1.00  0.00    -0.200 F 
ENDBRANCH  66  90
BRANCH  78 101
ATOM    101  C   UNL A   1      44.093  28.796  35.633  1.00  0.00     0.064 A 
ATOM    102  C   UNL A   1      44.013  27.517  36.203  1.00  0.00     0.173 A 
ATOM    103  C   UNL A   1      45.368  29.342  35.421  1.00  0.00     0.173 A 
ATOM    104  F   UNL A   1      42.816  26.957  36.438  1.00  0.00    -0.203 F 
ATOM    105  C   UNL A   1      45.164  26.823  36.566  1.00  0.00     0.198 A 
ATOM    106  C   UNL A   1      46.517  28.635  35.760  1.00  0.00     0.198 A 
ATOM    107  F   UNL A   1      45.499  30.559  34.871  1.00  0.00    -0.203 F 
ATOM    108  F   UNL A   1      45.064  25.620  37.149  1.00  0.00    -0.200 F 
ATOM    109  C   UNL A   1      46.415  27.379  36.339  1.00  0.00     0.200 A 
ATOM    110  F   UNL A   1      47.725  29.168  35.527  1.00  0.00    -0.200 F 
ATOM    111  F   UNL A   1      47.521  26.707  36.684  1.00  0.00    -0.200 F 
ENDBRANCH  78 101
ENDBRANCH  52  53
ENDBRANCH  45  47
ENDBRANCH  44  45
ENDBRANCH  43  44
ENDBRANCH  42  43
ENDBRANCH  41  42
ENDBRANCH  40  41
ENDBRANCH  39  40
ENDBRANCH   1  39
TORSDOF 23
ENDMDL
MODEL 2
REMARK VINA RESULT:     -10.9      7.463     12.228
REMARK SMILES C[C@H](NS(=O)(=O)c1ccc(-c2cc(-c3ccccc3)c3cc([N+](=O)[O-])ccc3n2)cc1)C(=O)OCCOCCOCCOC(=O)c1ccc(-c2c3nc(c(-c4c(F)c(F)c(F)c(F)c4F)c4ccc([nH]4)c(-c4c(F)c(F)c(F)c(F)c4F)c4nc(c(-c5c(F)c(F)c(F)c(F)c5F)c5ccc2[nH]5)C=C4)C=C3)cc1
REMARK SMILES IDX 37 1 36 2 35 3 34 4 32 5 33 6 2 7 1 8 3 9 4 11 5 12 6 13
REMARK SMILES IDX 7 14 8 15 31 16 9 17 30 18 10 19 11 20 12 21 29 22 13 23
REMARK SMILES IDX 28 24 20 25 27 26 21 27 26 28 22 29 14 30 15 31 19 32 16 33
REMARK SMILES IDX 18 34 17 35 23 36 24 37 25 38 38 39 39 40 40 41 41 42 42 43
REMARK SMILES IDX 43 44 44 45 45 46 46 47 47 48 108 49 48 50 107 51 49 52
REMARK SMILES IDX 50 53 51 54 101 55 52 56 106 57 100 58 102 59 53 60 105 61
REMARK SMILES IDX 99 62 98 63 54 65 86 66 66 67 85 68 67 69 70 70 84 71 103 72
REMARK SMILES IDX 68 73 69 74 83 76 104 77 71 78 55 79 56 80 64 81 57 82 58 83
REMARK SMILES IDX 62 84 65 85 59 86 60 87 63 88 61 89 87 90 88 91 96 92 89 93
REMARK SMILES IDX 90 94 94 95 97 96 91 97 92 98 95 99 93 100 72 101 73 102
REMARK SMILES IDX 81 103 74 104 75 105 79 106 82 107 76 108 77 109 80 110
REMARK SMILES IDX 78 111
REMARK H PARENT 3 10 102 64 70 75
REMARK Flexibility Score: inf
ROOT
ATOM      1  O   UNL A   1      35.595  20.141  24.908  1.00  0.00    -0.376 OA
ENDROOT
BRANCH   1   2
ATOM      2  C   UNL A   1      34.199  20.295  25.127  1.00  0.00     0.202 C 
BRANCH   2   3
ATOM      3  C   UNL A   1      33.871  21.620  25.815  1.00  0.00     0.261 C 
BRANCH   3   4
ATOM      4  O   UNL A   1      32.860  22.356  25.103  1.00  0.00    -0.462 OA
BRANCH   4   5
ATOM      5  C   UNL A   1      33.153  22.731  23.831  1.00  0.00     0.323 C 
ATOM      6  O   UNL A   1      32.768  22.119  22.841  1.00  0.00    -0.250 OA
BRANCH   5   7
ATOM      7  C   UNL A   1      33.963  24.026  23.770  1.00  0.00     0.176 C 
ATOM      8  C   UNL A   1      33.337  24.964  24.824  1.00  0.00     0.038 C 
BRANCH   7   9
ATOM      9  N   UNL A   1      34.025  24.842  22.532  1.00  0.00    -0.197 NA
ATOM     10  H   UNL A   1      34.434  24.234  21.823  1.00  0.00     0.142 HD
BRANCH   9  11
ATOM     11  S   UNL A   1      32.691  25.567  21.794  1.00  0.00     0.241 S 
ATOM     12  O   UNL A   1      33.048  25.511  20.386  1.00  0.00    -0.207 OA
ATOM     13  O   UNL A   1      31.457  25.011  22.261  1.00  0.00    -0.207 OA
BRANCH  11  14
ATOM     14  C   UNL A   1      32.801  27.270  22.286  1.00  0.00     0.082 A 
ATOM     15  C   UNL A   1      34.064  27.818  22.517  1.00  0.00     0.022 A 
ATOM     16  C   UNL A   1      31.667  27.930  22.748  1.00  0.00     0.022 A 
ATOM     17  C   UNL A   1      34.192  28.845  23.455  1.00  0.00     0.012 A 
ATOM     18  C   UNL A   1      31.794  28.996  23.628  1.00  0.00     0.012 A 
ATOM     19  C   UNL A   1      33.060  29.246  24.192  1.00  0.00     0.000 A 
BRANCH  19  20
ATOM     20  C   UNL A   1      33.109  29.072  25.687  1.00  0.00     0.072 A 
ATOM     21  C   UNL A   1      34.319  28.846  26.331  1.00  0.00     0.038 A 
ATOM     22  N   UNL A   1      32.192  29.915  26.232  1.00  0.00    -0.248 NA
ATOM     23  C   UNL A   1      34.752  29.803  27.262  1.00  0.00    -0.007 A 
ATOM     24  C   UNL A   1      32.650  30.949  26.931  1.00  0.00     0.072 A 
ATOM     25  C   UNL A   1      33.971  30.989  27.399  1.00  0.00     0.015 A 
ATOM     26  C   UNL A   1      31.823  32.056  27.093  1.00  0.00     0.036 A 
ATOM     27  C   UNL A   1      34.463  32.217  27.914  1.00  0.00     0.096 A 
ATOM     28  C   UNL A   1      32.299  33.255  27.627  1.00  0.00     0.088 A 
ATOM     29  C   UNL A   1      33.636  33.339  28.009  1.00  0.00     0.270 A 
BRANCH  23  30
ATOM     30  C   UNL A   1      36.002  29.640  28.035  1.00  0.00    -0.018 A 
ATOM     31  C   UNL A   1      37.222  29.504  27.338  1.00  0.00     0.009 A 
ATOM     32  C   UNL A   1      36.039  29.560  29.433  1.00  0.00     0.009 A 
ATOM     33  C   UNL A   1      38.411  29.198  27.994  1.00  0.00     0.001 A 
ATOM     34  C   UNL A   1      37.240  29.286  30.098  1.00  0.00     0.001 A 
ATOM     35  C   UNL A   1      38.418  29.081  29.378  1.00  0.00     0.000 A 
ENDBRANCH  23  30
BRANCH  29  36
ATOM     36  N   UNL A   1      34.198  34.622  28.445  1.00  0.00     0.062 N 
ATOM     37  O   UNL A   1      33.443  35.604  28.467  1.00  0.00    -0.258 OA
ATOM     38  O   UNL A   1      35.384  34.636  28.800  1.00  0.00    -0.258 OA
ENDBRANCH  29  36
ENDBRANCH  19  20
ENDBRANCH  11  14
ENDBRANCH   9  11
ENDBRANCH   7   9
ENDBRANCH   5   7
ENDBRANCH   4   5
ENDBRANCH   3   4
ENDBRANCH   2   3
ENDBRANCH   1   2
BRANCH   1  39
ATOM     39  C   UNL A   1      36.463  21.265  25.065  1.00  0.00     0.188 C 
BRANCH  39  40
ATOM     40  C   UNL A   1      37.884  21.091  25.594  1.00  0.00     0.188 C 
BRANCH  40  41
ATOM     41  O   UNL A   1      38.558  22.333  25.744  1.00  0.00    -0.376 OA
BRANCH  41  42
ATOM     42  C   UNL A   1      39.537  22.333  26.782  1.00  0.00     0.202 C 
BRANCH  42  43
ATOM     43  C   UNL A   1      40.482  23.510  26.527  1.00  0.00     0.261 C 
BRANCH  43  44
ATOM     44  O   UNL A   1      41.852  23.180  26.837  1.00  0.00    -0.460 OA
BRANCH  44  45
ATOM     45  C   UNL A   1      42.741  23.429  25.848  1.00  0.00     0.338 C 
ATOM     46  O   UNL A   1      42.871  22.804  24.810  1.00  0.00    -0.246 OA
BRANCH  45  47
ATOM     47  C   UNL A   1      43.419  24.718  26.120  1.00  0.00     0.060 A 
ATOM     48  C   UNL A   1      43.626  25.597  25.045  1.00  0.00     0.016 A 
ATOM     49  C   UNL A   1      43.868  25.054  27.399  1.00  0.00     0.016 A 
ATOM     50  C   UNL A   1      44.356  26.771  25.232  1.00  0.00     0.010 A 
ATOM     51  C   UNL A   1      44.608  26.224  27.583  1.00  0.00     0.010 A 
ATOM     52  C   UNL A   1      44.902  27.057  26.489  1.00  0.00    -0.014 A 
BRANCH  52  53
ATOM     53  C   UNL A   1      45.984  28.062  26.614  1.00  0.00     0.031 A 
ATOM     54  C   UNL A   1      45.589  29.485  26.907  1.00  0.00     0.074 A 
ATOM     55  C   UNL A   1      47.280  27.739  26.467  1.00  0.00     0.049 A 
ATOM     56  N   UNL A   1      46.335  30.556  27.001  1.00  0.00    -0.248 NA
ATOM     57  C   UNL A   1      44.152  29.731  27.116  1.00  0.00     0.031 C 
ATOM     58  C   UNL A   1      47.798  26.398  26.216  1.00  0.00     0.029 A 
ATOM     59  N   UNL A   1      48.398  28.535  26.499  1.00  0.00    -0.354 N 
ATOM     60  C   UNL A   1      45.459  31.599  27.273  1.00  0.00     0.074 A 
ATOM     61  C   UNL A   1      44.124  31.041  27.302  1.00  0.00     0.031 C 
ATOM     62  C   UNL A   1      49.137  26.464  26.105  1.00  0.00     0.029 A 
ATOM     63  C   UNL A   1      49.563  27.857  26.250  1.00  0.00     0.049 A 
ATOM     64  H   UNL A   1      48.366  29.502  26.684  1.00  0.00     0.167 HD
ATOM     65  C   UNL A   1      45.738  32.905  27.488  1.00  0.00     0.037 A 
ATOM     66  C   UNL A   1      50.825  28.316  26.134  1.00  0.00     0.037 A 
ATOM     67  C   UNL A   1      47.059  33.469  27.458  1.00  0.00     0.049 A 
ATOM     68  C   UNL A   1      51.102  29.788  26.305  1.00  0.00     0.074 A 
ATOM     69  C   UNL A   1      47.445  34.779  27.682  1.00  0.00     0.029 A 
ATOM     70  N   UNL A   1      48.213  32.753  27.176  1.00  0.00    -0.354 N 
ATOM     71  N   UNL A   1      50.275  30.763  26.594  1.00  0.00    -0.248 NA
ATOM     72  C   UNL A   1      52.498  30.223  26.131  1.00  0.00     0.031 C 
ATOM     73  C   UNL A   1      48.829  34.864  27.493  1.00  0.00     0.029 A 
ATOM     74  C   UNL A   1      49.309  33.598  27.197  1.00  0.00     0.049 A 
ATOM     75  H   UNL A   1      48.246  31.787  26.988  1.00  0.00     0.167 HD
ATOM     76  C   UNL A   1      51.050  31.914  26.672  1.00  0.00     0.074 A 
ATOM     77  C   UNL A   1      52.416  31.518  26.404  1.00  0.00     0.031 C 
ATOM     78  C   UNL A   1      50.665  33.186  26.944  1.00  0.00     0.037 A 
BRANCH  65  79
ATOM     79  C   UNL A   1      44.578  33.818  27.752  1.00  0.00     0.064 A 
ATOM     80  C   UNL A   1      44.125  34.072  29.055  1.00  0.00     0.173 A 
ATOM     81  C   UNL A   1      43.918  34.451  26.690  1.00  0.00     0.173 A 
ATOM     82  F   UNL A   1      44.712  33.474  30.103  1.00  0.00    -0.203 F 
ATOM     83  C   UNL A   1      43.037  34.908  29.283  1.00  0.00     0.198 A 
ATOM     84  C   UNL A   1      42.846  35.307  26.923  1.00  0.00     0.198 A 
ATOM     85  F   UNL A   1      44.313  34.238  25.425  1.00  0.00    -0.203 F 
ATOM     86  F   UNL A   1      42.589  35.100  30.531  1.00  0.00    -0.200 F 
ATOM     87  C   UNL A   1      42.401  35.529  28.217  1.00  0.00     0.200 A 
ATOM     88  F   UNL A   1      42.237  35.912  25.893  1.00  0.00    -0.200 F 
ATOM     89  F   UNL A   1      41.353  36.334  28.438  1.00  0.00    -0.200 F 
ENDBRANCH  65  79
BRANCH  66  90
ATOM     90  C   UNL A   1      51.937  27.375  25.839  1.00  0.00     0.064 A 
ATOM     91  C   UNL A   1      52.224  26.993  24.522  1.00  0.00     0.173 A 
ATOM     92  C   UNL A   1      52.705  26.811  26.868  1.00  0.00     0.173 A 
ATOM     93  F   UNL A   1      51.493  27.483  23.510  1.00  0.00    -0.203 F 
ATOM     94  C   UNL A   1      53.225  26.066  24.245  1.00  0.00     0.198 A 
ATOM     95  C   UNL A   1      53.722  25.902  26.586  1.00  0.00     0.198 A 
ATOM     96  F   UNL A   1      52.462  27.137  28.145  1.00  0.00    -0.203 F 
ATOM     97  F   UNL A   1      53.445  25.678  22.981  1.00  0.00    -0.200 F 
ATOM     98  C   UNL A   1      53.977  25.524  25.277  1.00  0.00     0.200 A 
ATOM     99  F   UNL A   1      54.449  25.381  27.586  1.00  0.00    -0.200 F 
ATOM    100  F   UNL A   1      54.936  24.626  25.009  1.00  0.00    -0.200 F 
ENDBRANCH  66  90
BRANCH  78 101
ATOM    101  C   UNL A   1      51.736  34.235  27.015  1.00  0.00     0.064 A 
ATOM    102  C   UNL A   1      52.428  34.504  28.206  1.00  0.00     0.173 A 
ATOM    103  C   UNL A   1      52.106  34.949  25.865  1.00  0.00     0.173 A 
ATOM    104  F   UNL A   1      52.102  33.857  29.336  1.00  0.00    -0.203 F 
ATOM    105  C   UNL A   1      53.434  35.465  28.247  1.00  0.00     0.198 A 
ATOM    106  C   UNL A   1      53.131  35.889  25.903  1.00  0.00     0.198 A 
ATOM    107  F   UNL A   1      51.482  34.723  24.699  1.00  0.00    -0.203 F 
ATOM    108  F   UNL A   1      54.052  35.737  29.404  1.00  0.00    -0.200 F 
ATOM    109  C   UNL A   1      53.789  36.152  27.095  1.00  0.00     0.200 A 
ATOM    110  F   UNL A   1      53.483  36.542  24.786  1.00  0.00    -0.200 F 
ATOM    111  F   UNL A   1      54.763  37.072  27.135  1.00  0.00    -0.200 F 
ENDBRANCH  78 101
ENDBRANCH  52  53
ENDBRANCH  45  47
ENDBRANCH  44  45
ENDBRANCH  43  44
ENDBRANCH  42  43
ENDBRANCH  41  42
ENDBRANCH  40  41
ENDBRANCH  39  40
ENDBRANCH   1  39
TORSDOF 23
ENDMDL
MODEL 3
REMARK VINA RESULT:     -10.3      3.662      9.358
REMARK SMILES C[C@H](NS(=O)(=O)c1ccc(-c2cc(-c3ccccc3)c3cc([N+](=O)[O-])ccc3n2)cc1)C(=O)OCCOCCOCCOC(=O)c1ccc(-c2c3nc(c(-c4c(F)c(F)c(F)c(F)c4F)c4ccc([nH]4)c(-c4c(F)c(F)c(F)c(F)c4F)c4nc(c(-c5c(F)c(F)c(F)c(F)c5F)c5ccc2[nH]5)C=C4)C=C3)cc1
REMARK SMILES IDX 37 1 36 2 35 3 34 4 32 5 33 6 2 7 1 8 3 9 4 11 5 12 6 13
REMARK SMILES IDX 7 14 8 15 31 16 9 17 30 18 10 19 11 20 12 21 29 22 13 23
REMARK SMILES IDX 28 24 20 25 27 26 21 27 26 28 22 29 14 30 15 31 19 32 16 33
REMARK SMILES IDX 18 34 17 35 23 36 24 37 25 38 38 39 39 40 40 41 41 42 42 43
REMARK SMILES IDX 43 44 44 45 45 46 46 47 47 48 108 49 48 50 107 51 49 52
REMARK SMILES IDX 50 53 51 54 101 55 52 56 106 57 100 58 102 59 53 60 105 61
REMARK SMILES IDX 99 62 98 63 54 65 86 66 66 67 85 68 67 69 70 70 84 71 103 72
REMARK SMILES IDX 68 73 69 74 83 76 104 77 71 78 55 79 56 80 64 81 57 82 58 83
REMARK SMILES IDX 62 84 65 85 59 86 60 87 63 88 61 89 87 90 88 91 96 92 89 93
REMARK SMILES IDX 90 94 94 95 97 96 91 97 92 98 95 99 93 100 72 101 73 102
REMARK SMILES IDX 81 103 74 104 75 105 79 106 82 107 76 108 77 109 80 110
REMARK SMILES IDX 78 111
REMARK H PARENT 3 10 102 64 70 75
REMARK Flexibility Score: inf
ROOT
ATOM      1  O   UNL A   1      35.688  20.225  25.041  1.00  0.00    -0.376 OA
ENDROOT
BRANCH   1   2
ATOM      2  C   UNL A   1      34.297  20.308  25.324  1.00  0.00     0.202 C 
BRANCH   2   3
ATOM      3  C   UNL A   1      33.906  21.680  25.872  1.00  0.00     0.261 C 
BRANCH   3   4
ATOM      4  O   UNL A   1      32.818  22.261  25.131  1.00  0.00    -0.462 OA
BRANCH   4   5
ATOM      5  C   UNL A   1      33.104  22.744  23.895  1.00  0.00     0.323 C 
ATOM      6  O   UNL A   1      32.746  22.199  22.856  1.00  0.00    -0.250 OA
BRANCH   5   7
ATOM      7  C   UNL A   1      33.870  24.067  23.941  1.00  0.00     0.176 C 
ATOM      8  C   UNL A   1      33.111  24.956  24.949  1.00  0.00     0.038 C 
BRANCH   7   9
ATOM      9  N   UNL A   1      34.022  24.916  22.732  1.00  0.00    -0.197 NA
ATOM     10  H   UNL A   1      34.509  24.336  22.050  1.00  0.00     0.142 HD
BRANCH   9  11
ATOM     11  S   UNL A   1      32.742  25.625  21.892  1.00  0.00     0.241 S 
ATOM     12  O   UNL A   1      33.207  25.572  20.516  1.00  0.00    -0.207 OA
ATOM     13  O   UNL A   1      31.481  25.056  22.263  1.00  0.00    -0.207 OA
BRANCH  11  14
ATOM     14  C   UNL A   1      32.794  27.330  22.389  1.00  0.00     0.082 A 
ATOM     15  C   UNL A   1      34.040  27.934  22.570  1.00  0.00     0.022 A 
ATOM     16  C   UNL A   1      31.652  27.936  22.901  1.00  0.00     0.022 A 
ATOM     17  C   UNL A   1      34.161  28.962  23.508  1.00  0.00     0.012 A 
ATOM     18  C   UNL A   1      31.767  29.004  23.781  1.00  0.00     0.012 A 
ATOM     19  C   UNL A   1      33.043  29.309  24.293  1.00  0.00     0.000 A 
BRANCH  19  20
ATOM     20  C   UNL A   1      33.162  29.132  25.784  1.00  0.00     0.072 A 
ATOM     21  C   UNL A   1      34.395  28.867  26.366  1.00  0.00     0.038 A 
ATOM     22  N   UNL A   1      32.301  30.002  26.374  1.00  0.00    -0.248 NA
ATOM     23  C   UNL A   1      34.904  29.809  27.273  1.00  0.00    -0.007 A 
ATOM     24  C   UNL A   1      32.825  31.020  27.048  1.00  0.00     0.072 A 
ATOM     25  C   UNL A   1      34.168  31.020  27.449  1.00  0.00     0.015 A 
ATOM     26  C   UNL A   1      32.042  32.153  27.251  1.00  0.00     0.036 A 
ATOM     27  C   UNL A   1      34.724  32.231  27.938  1.00  0.00     0.096 A 
ATOM     28  C   UNL A   1      32.581  33.336  27.760  1.00  0.00     0.088 A 
ATOM     29  C   UNL A   1      33.938  33.378  28.073  1.00  0.00     0.270 A 
BRANCH  23  30
ATOM     30  C   UNL A   1      36.186  29.607  27.983  1.00  0.00    -0.018 A 
ATOM     31  C   UNL A   1      36.166  29.373  29.375  1.00  0.00     0.009 A 
ATOM     32  C   UNL A   1      37.435  29.685  27.354  1.00  0.00     0.009 A 
ATOM     33  C   UNL A   1      37.337  29.324  30.127  1.00  0.00     0.001 A 
ATOM     34  C   UNL A   1      38.615  29.602  28.104  1.00  0.00     0.001 A 
ATOM     35  C   UNL A   1      38.564  29.446  29.490  1.00  0.00     0.000 A 
ENDBRANCH  23  30
BRANCH  29  36
ATOM     36  N   UNL A   1      34.561  34.642  28.481  1.00  0.00     0.062 N 
ATOM     37  O   UNL A   1      33.900  35.681  28.342  1.00  0.00    -0.258 OA
ATOM     38  O   UNL A   1      35.696  34.588  28.972  1.00  0.00    -0.258 OA
ENDBRANCH  29  36
ENDBRANCH  19  20
ENDBRANCH  11  14
ENDBRANCH   9  11
ENDBRANCH   7   9
ENDBRANCH   5   7
ENDBRANCH   4   5
ENDBRANCH   3   4
ENDBRANCH   2   3
ENDBRANCH   1   2
BRANCH   1  39
ATOM     39  C   UNL A   1      36.502  21.393  25.155  1.00  0.00     0.188 C 
BRANCH  39  40
ATOM     40  C   UNL A   1      38.016  21.281  25.319  1.00  0.00     0.188 C 
BRANCH  40  41
ATOM     41  O   UNL A   1      38.559  22.367  26.058  1.00  0.00    -0.376 OA
BRANCH  41  42
ATOM     42  C   UNL A   1      39.951  22.230  26.339  1.00  0.00     0.202 C 
BRANCH  42  43
ATOM     43  C   UNL A   1      40.399  23.492  27.081  1.00  0.00     0.261 C 
BRANCH  43  44
ATOM     44  O   UNL A   1      41.551  24.102  26.463  1.00  0.00    -0.460 OA
BRANCH  44  45
ATOM     45  C   UNL A   1      41.489  25.447  26.333  1.00  0.00     0.338 C 
ATOM     46  O   UNL A   1      41.018  26.069  25.397  1.00  0.00    -0.246 OA
BRANCH  45  47
ATOM     47  C   UNL A   1      41.904  26.076  27.609  1.00  0.00     0.060 A 
ATOM     48  C   UNL A   1      43.277  26.255  27.844  1.00  0.00     0.016 A 
ATOM     49  C   UNL A   1      40.970  26.464  28.572  1.00  0.00     0.016 A 
ATOM     50  C   UNL A   1      43.719  26.742  29.074  1.00  0.00     0.010 A 
ATOM     51  C   UNL A   1      41.414  26.941  29.807  1.00  0.00     0.010 A 
ATOM     52  C   UNL A   1      42.789  27.028  30.082  1.00  0.00    -0.014 A 
BRANCH  52  53
ATOM     53  C   UNL A   1      43.242  27.160  31.487  1.00  0.00     0.031 A 
ATOM     54  C   UNL A   1      42.844  28.403  32.238  1.00  0.00     0.074 A 
ATOM     55  C   UNL A   1      43.987  26.219  32.090  1.00  0.00     0.049 A 
ATOM     56  N   UNL A   1      43.162  28.786  33.448  1.00  0.00    -0.248 NA
ATOM     57  C   UNL A   1      41.974  29.348  31.517  1.00  0.00     0.031 C 
ATOM     58  C   UNL A   1      44.410  24.957  31.490  1.00  0.00     0.029 A 
ATOM     59  N   UNL A   1      44.529  26.195  33.351  1.00  0.00    -0.354 N 
ATOM     60  C   UNL A   1      42.537  30.012  33.630  1.00  0.00     0.074 A 
ATOM     61  C   UNL A   1      41.845  30.326  32.399  1.00  0.00     0.031 C 
ATOM     62  C   UNL A   1      45.158  24.283  32.381  1.00  0.00     0.029 A 
ATOM     63  C   UNL A   1      45.288  25.080  33.601  1.00  0.00     0.049 A 
ATOM     64  H   UNL A   1      44.386  26.909  34.013  1.00  0.00     0.167 HD
ATOM     65  C   UNL A   1      42.531  30.806  34.726  1.00  0.00     0.037 A 
ATOM     66  C   UNL A   1      46.017  24.755  34.687  1.00  0.00     0.037 A 
ATOM     67  C   UNL A   1      43.218  30.504  35.951  1.00  0.00     0.049 A 
ATOM     68  C   UNL A   1      46.055  25.691  35.869  1.00  0.00     0.074 A 
ATOM     69  C   UNL A   1      43.256  31.238  37.123  1.00  0.00     0.029 A 
ATOM     70  N   UNL A   1      43.998  29.377  36.157  1.00  0.00    -0.354 N 
ATOM     71  N   UNL A   1      45.435  26.833  36.046  1.00  0.00    -0.248 NA
ATOM     72  C   UNL A   1      46.899  25.288  37.005  1.00  0.00     0.031 C 
ATOM     73  C   UNL A   1      44.096  30.574  38.026  1.00  0.00     0.029 A 
ATOM     74  C   UNL A   1      44.542  29.405  37.430  1.00  0.00     0.049 A 
ATOM     75  H   UNL A   1      44.144  28.662  35.495  1.00  0.00     0.167 HD
ATOM     76  C   UNL A   1      45.785  27.264  37.321  1.00  0.00     0.074 A 
ATOM     77  C   UNL A   1      46.667  26.261  37.876  1.00  0.00     0.031 C 
ATOM     78  C   UNL A   1      45.406  28.391  37.974  1.00  0.00     0.037 A 
BRANCH  65  79
ATOM     79  C   UNL A   1      41.770  32.095  34.632  1.00  0.00     0.064 A 
ATOM     80  C   UNL A   1      42.367  33.265  34.141  1.00  0.00     0.173 A 
ATOM     81  C   UNL A   1      40.428  32.157  35.032  1.00  0.00     0.173 A 
ATOM     82  F   UNL A   1      43.655  33.260  33.765  1.00  0.00    -0.203 F 
ATOM     83  C   UNL A   1      41.654  34.458  34.076  1.00  0.00     0.198 A 
ATOM     84  C   UNL A   1      39.710  33.346  34.942  1.00  0.00     0.198 A 
ATOM     85  F   UNL A   1      39.813  31.064  35.511  1.00  0.00    -0.203 F 
ATOM     86  F   UNL A   1      42.256  35.576  33.649  1.00  0.00    -0.200 F 
ATOM     87  C   UNL A   1      40.325  34.496  34.471  1.00  0.00     0.200 A 
ATOM     88  F   UNL A   1      38.423  33.379  35.317  1.00  0.00    -0.200 F 
ATOM     89  F   UNL A   1      39.639  35.645  34.408  1.00  0.00    -0.200 F 
ENDBRANCH  65  79
BRANCH  66  90
ATOM     90  C   UNL A   1      46.781  23.481  34.719  1.00  0.00     0.064 A 
ATOM     91  C   UNL A   1      46.176  22.291  35.147  1.00  0.00     0.173 A 
ATOM     92  C   UNL A   1      48.136  23.435  34.362  1.00  0.00     0.173 A 
ATOM     93  F   UNL A   1      44.890  22.295  35.529  1.00  0.00    -0.203 F 
ATOM     94  C   UNL A   1      46.903  21.107  35.236  1.00  0.00     0.198 A 
ATOM     95  C   UNL A   1      48.855  22.244  34.429  1.00  0.00     0.198 A 
ATOM     96  F   UNL A   1      48.763  24.549  33.956  1.00  0.00    -0.203 F 
ATOM     97  F   UNL A   1      46.314  19.994  35.698  1.00  0.00    -0.200 F 
ATOM     98  C   UNL A   1      48.241  21.082  34.873  1.00  0.00     0.200 A 
ATOM     99  F   UNL A   1      50.148  22.223  34.076  1.00  0.00    -0.200 F 
ATOM    100  F   UNL A   1      48.942  19.943  34.966  1.00  0.00    -0.200 F 
ENDBRANCH  66  90
BRANCH  78 101
ATOM    101  C   UNL A   1      45.900  28.578  39.379  1.00  0.00     0.064 A 
ATOM    102  C   UNL A   1      45.318  27.903  40.462  1.00  0.00     0.173 A 
ATOM    103  C   UNL A   1      47.000  29.409  39.637  1.00  0.00     0.173 A 
ATOM    104  F   UNL A   1      44.255  27.108  40.268  1.00  0.00    -0.203 F 
ATOM    105  C   UNL A   1      45.805  28.073  41.756  1.00  0.00     0.198 A 
ATOM    106  C   UNL A   1      47.502  29.555  40.927  1.00  0.00     0.198 A 
ATOM    107  F   UNL A   1      47.599  30.070  38.635  1.00  0.00    -0.203 F 
ATOM    108  F   UNL A   1      45.207  27.453  42.782  1.00  0.00    -0.200 F 
ATOM    109  C   UNL A   1      46.900  28.893  41.986  1.00  0.00     0.200 A 
ATOM    110  F   UNL A   1      48.570  30.337  41.146  1.00  0.00    -0.200 F 
ATOM    111  F   UNL A   1      47.372  29.049  43.231  1.00  0.00    -0.200 F 
ENDBRANCH  78 101
ENDBRANCH  52  53
ENDBRANCH  45  47
ENDBRANCH  44  45
ENDBRANCH  43  44
ENDBRANCH  42  43
ENDBRANCH  41  42
ENDBRANCH  40  41
ENDBRANCH  39  40
ENDBRANCH   1  39
TORSDOF 23
ENDMDL
