MODEL 1
REMARK VINA RESULT:      -9.4      0.000      0.000
REMARK SMILES CCCCCCNC(=O)Oc1cccc(-c2ccc([C@@H](C)C(=O)OCCOCCOCCOC(=O)c3ccc(-c4c5nc(c(-c6c(F)c(F)c(F)c(F)c6F)c6ccc([nH]6)c(-c6c(F)c(F)c(F)c(F)c6F)c6nc(c(-c7c(F)c(F)c(F)c(F)c7F)c7ccc4[nH]7)C=C6)C=C5)cc3)cc2F)c1
REMARK SMILES IDX 25 1 24 2 22 3 23 4 20 5 21 6 19 7 16 8 17 9 100 10 18 11
REMARK SMILES IDX 99 12 101 13 15 14 11 15 12 16 102 17 13 18 14 19 10 20 8 21
REMARK SMILES IDX 7 22 9 24 6 25 5 26 4 27 3 28 2 29 1 30 26 31 27 32 28 33
REMARK SMILES IDX 29 34 30 35 31 36 32 37 33 38 34 39 35 40 36 41 37 42 98 43
REMARK SMILES IDX 38 44 97 45 39 46 40 47 41 48 91 49 42 50 96 51 90 52 92 53
REMARK SMILES IDX 43 54 95 55 89 56 88 57 44 59 76 60 56 61 75 62 57 63 60 64
REMARK SMILES IDX 74 65 93 66 58 67 59 68 73 70 94 71 61 72 45 73 46 74 54 75
REMARK SMILES IDX 47 76 48 77 52 78 55 79 49 80 50 81 53 82 51 83 77 84 78 85
REMARK SMILES IDX 86 86 79 87 80 88 84 89 87 90 81 91 82 92 85 93 83 94 62 95
REMARK SMILES IDX 63 96 71 97 64 98 65 99 69 100 72 101 66 102 67 103 70 104
REMARK SMILES IDX 68 105
REMARK H PARENT 7 23 92 58 60 69
REMARK Flexibility Score: inf
ROOT
ATOM      1  C   UNL A   1      36.556  23.390  24.237  1.00  0.00     0.261 C 
ENDROOT
BRANCH   1   2
ATOM      2  O   UNL A   1      35.134  23.251  24.452  1.00  0.00    -0.463 OA
BRANCH   2   3
ATOM      3  C   UNL A   1      34.332  23.543  23.398  1.00  0.00     0.313 C 
ATOM      4  O   UNL A   1      34.542  23.138  22.256  1.00  0.00    -0.252 OA
BRANCH   3   5
ATOM      5  C   UNL A   1      33.115  24.421  23.699  1.00  0.00     0.126 C 
ATOM      6  C   UNL A   1      32.365  24.686  22.394  1.00  0.00     0.025 C 
BRANCH   5   7
ATOM      7  C   UNL A   1      33.250  25.707  24.509  1.00  0.00    -0.031 A 
ATOM      8  C   UNL A   1      33.540  28.185  25.932  1.00  0.00     0.018 A 
ATOM      9  C   UNL A   1      33.187  26.991  26.589  1.00  0.00     0.012 A 
ATOM     10  C   UNL A   1      33.757  28.103  24.553  1.00  0.00     0.131 A 
ATOM     11  C   UNL A   1      33.053  25.772  25.896  1.00  0.00     0.005 A 
ATOM     12  C   UNL A   1      33.625  26.896  23.854  1.00  0.00     0.044 A 
ATOM     13  F   UNL A   1      34.116  29.193  23.856  1.00  0.00    -0.206 F 
BRANCH   8  14
ATOM     14  C   UNL A   1      33.708  29.449  26.678  1.00  0.00    -0.012 A 
ATOM     15  C   UNL A   1      34.863  30.845  28.304  1.00  0.00     0.133 A 
ATOM     16  C   UNL A   1      33.963  31.887  28.094  1.00  0.00     0.047 A 
ATOM     17  C   UNL A   1      34.740  29.631  27.618  1.00  0.00     0.056 A 
ATOM     18  C   UNL A   1      32.936  31.723  27.169  1.00  0.00     0.004 A 
ATOM     19  C   UNL A   1      32.813  30.518  26.470  1.00  0.00     0.009 A 
BRANCH  15  20
ATOM     20  O   UNL A   1      35.816  31.029  29.320  1.00  0.00    -0.410 OA
BRANCH  20  21
ATOM     21  C   UNL A   1      36.777  32.007  29.129  1.00  0.00     0.412 C 
ATOM     22  N   UNL A   1      36.667  33.059  29.997  1.00  0.00    -0.321 N 
ATOM     23  H   UNL A   1      37.394  33.723  29.979  1.00  0.00     0.167 HD
ATOM     24  O   UNL A   1      37.650  32.002  28.258  1.00  0.00    -0.224 OA
BRANCH  22  25
ATOM     25  C   UNL A   1      35.594  33.303  30.944  1.00  0.00     0.119 C 
BRANCH  25  26
ATOM     26  C   UNL A   1      34.849  34.611  30.675  1.00  0.00     0.021 C 
BRANCH  26  27
ATOM     27  C   UNL A   1      33.624  34.863  31.566  1.00  0.00     0.002 C 
BRANCH  27  28
ATOM     28  C   UNL A   1      32.890  36.190  31.335  1.00  0.00    -0.000 C 
BRANCH  28  29
ATOM     29  C   UNL A   1      33.013  37.221  32.459  1.00  0.00    -0.003 C 
ATOM     30  C   UNL A   1      33.910  36.772  33.602  1.00  0.00     0.004 C 
ENDBRANCH  28  29
ENDBRANCH  27  28
ENDBRANCH  26  27
ENDBRANCH  25  26
ENDBRANCH  22  25
ENDBRANCH  20  21
ENDBRANCH  15  20
ENDBRANCH   8  14
ENDBRANCH   5   7
ENDBRANCH   3   5
ENDBRANCH   2   3
ENDBRANCH   1   2
BRANCH   1  31
ATOM     31  C   UNL A   1      37.385  22.135  24.540  1.00  0.00     0.202 C 
BRANCH  31  32
ATOM     32  O   UNL A   1      38.383  22.239  25.545  1.00  0.00    -0.376 OA
BRANCH  32  33
ATOM     33  C   UNL A   1      39.193  21.109  25.850  1.00  0.00     0.188 C 
BRANCH  33  34
ATOM     34  C   UNL A   1      40.549  21.296  26.543  1.00  0.00     0.188 C 
BRANCH  34  35
ATOM     35  O   UNL A   1      41.010  20.157  27.243  1.00  0.00    -0.376 OA
BRANCH  35  36
ATOM     36  C   UNL A   1      41.478  19.091  26.435  1.00  0.00     0.202 C 
BRANCH  36  37
ATOM     37  C   UNL A   1      42.955  19.283  26.079  1.00  0.00     0.261 C 
BRANCH  37  38
ATOM     38  O   UNL A   1      43.204  19.492  24.674  1.00  0.00    -0.460 OA
BRANCH  38  39
ATOM     39  C   UNL A   1      44.490  19.668  24.313  1.00  0.00     0.338 C 
ATOM     40  O   UNL A   1      45.199  18.889  23.685  1.00  0.00    -0.246 OA
BRANCH  39  41
ATOM     41  C   UNL A   1      44.880  21.058  24.607  1.00  0.00     0.060 A 
ATOM     42  C   UNL A   1      45.721  21.304  25.701  1.00  0.00     0.016 A 
ATOM     43  C   UNL A   1      44.405  22.115  23.827  1.00  0.00     0.016 A 
ATOM     44  C   UNL A   1      46.051  22.614  26.048  1.00  0.00     0.010 A 
ATOM     45  C   UNL A   1      44.725  23.428  24.184  1.00  0.00     0.010 A 
ATOM     46  C   UNL A   1      45.515  23.684  25.319  1.00  0.00    -0.014 A 
BRANCH  46  47
ATOM     47  C   UNL A   1      45.620  25.063  25.857  1.00  0.00     0.031 A 
ATOM     48  C   UNL A   1      46.958  25.748  25.820  1.00  0.00     0.074 A 
ATOM     49  C   UNL A   1      44.551  25.706  26.355  1.00  0.00     0.049 A 
ATOM     50  N   UNL A   1      47.299  26.939  26.240  1.00  0.00    -0.248 NA
ATOM     51  C   UNL A   1      48.065  24.977  25.230  1.00  0.00     0.031 C 
ATOM     52  C   UNL A   1      43.198  25.162  26.431  1.00  0.00     0.029 A 
ATOM     53  N   UNL A   1      44.444  26.961  26.902  1.00  0.00    -0.354 N 
ATOM     54  C   UNL A   1      48.657  27.058  25.971  1.00  0.00     0.074 A 
ATOM     55  C   UNL A   1      49.085  25.804  25.391  1.00  0.00     0.031 C 
ATOM     56  C   UNL A   1      42.396  26.074  27.006  1.00  0.00     0.029 A 
ATOM     57  C   UNL A   1      43.185  27.255  27.359  1.00  0.00     0.049 A 
ATOM     58  H   UNL A   1      45.200  27.589  26.961  1.00  0.00     0.167 HD
ATOM     59  C   UNL A   1      49.470  28.121  26.177  1.00  0.00     0.037 A 
ATOM     60  C   UNL A   1      42.727  28.346  28.005  1.00  0.00     0.037 A 
ATOM     61  C   UNL A   1      49.046  29.365  26.764  1.00  0.00     0.049 A 
ATOM     62  C   UNL A   1      43.661  29.498  28.278  1.00  0.00     0.074 A 
ATOM     63  C   UNL A   1      49.787  30.511  26.989  1.00  0.00     0.029 A 
ATOM     64  N   UNL A   1      47.765  29.619  27.233  1.00  0.00    -0.354 N 
ATOM     65  N   UNL A   1      44.932  29.623  27.981  1.00  0.00    -0.248 NA
ATOM     66  C   UNL A   1      43.092  30.664  28.968  1.00  0.00     0.031 C 
ATOM     67  C   UNL A   1      48.972  31.437  27.649  1.00  0.00     0.029 A 
ATOM     68  C   UNL A   1      47.703  30.893  27.775  1.00  0.00     0.049 A 
ATOM     69  H   UNL A   1      47.011  28.988  27.186  1.00  0.00     0.167 HD
ATOM     70  C   UNL A   1      45.308  30.886  28.421  1.00  0.00     0.074 A 
ATOM     71  C   UNL A   1      44.126  31.493  28.997  1.00  0.00     0.031 C 
ATOM     72  C   UNL A   1      46.520  31.489  28.348  1.00  0.00     0.037 A 
BRANCH  59  73
ATOM     73  C   UNL A   1      50.914  27.962  25.793  1.00  0.00     0.064 A 
ATOM     74  C   UNL A   1      51.349  28.112  24.467  1.00  0.00     0.173 A 
ATOM     75  C   UNL A   1      51.876  27.648  26.765  1.00  0.00     0.173 A 
ATOM     76  F   UNL A   1      50.468  28.397  23.496  1.00  0.00    -0.203 F 
ATOM     77  C   UNL A   1      52.683  27.911  24.122  1.00  0.00     0.198 A 
ATOM     78  C   UNL A   1      53.216  27.482  26.422  1.00  0.00     0.198 A 
ATOM     79  F   UNL A   1      51.517  27.497  28.049  1.00  0.00    -0.203 F 
ATOM     80  F   UNL A   1      53.062  27.992  22.838  1.00  0.00    -0.200 F 
ATOM     81  C   UNL A   1      53.615  27.601  25.100  1.00  0.00     0.200 A 
ATOM     82  F   UNL A   1      54.117  27.195  27.371  1.00  0.00    -0.200 F 
ATOM     83  F   UNL A   1      54.898  27.404  24.766  1.00  0.00    -0.200 F 
ENDBRANCH  59  73
BRANCH  60  84
ATOM     84  C   UNL A   1      41.305  28.397  28.436  1.00  0.00     0.064 A 
ATOM     85  C   UNL A   1      40.298  28.828  27.562  1.00  0.00     0.173 A 
ATOM     86  C   UNL A   1      40.925  27.999  29.726  1.00  0.00     0.173 A 
ATOM     87  F   UNL A   1      40.616  29.245  26.327  1.00  0.00    -0.203 F 
ATOM     88  C   UNL A   1      38.964  28.866  27.966  1.00  0.00     0.198 A 
ATOM     89  C   UNL A   1      39.589  28.011  30.118  1.00  0.00     0.198 A 
ATOM     90  F   UNL A   1      41.852  27.582  30.600  1.00  0.00    -0.203 F 
ATOM     91  F   UNL A   1      38.025  29.316  27.123  1.00  0.00    -0.200 F 
ATOM     92  C   UNL A   1      38.610  28.449  29.240  1.00  0.00     0.200 A 
ATOM     93  F   UNL A   1      39.250  27.598  31.347  1.00  0.00    -0.200 F 
ATOM     94  F   UNL A   1      37.325  28.474  29.622  1.00  0.00    -0.200 F 
ENDBRANCH  60  84
BRANCH  72  95
ATOM     95  C   UNL A   1      46.632  32.893  28.872  1.00  0.00     0.064 A 
ATOM     96  C   UNL A   1      47.007  33.162  30.197  1.00  0.00     0.173 A 
ATOM     97  C   UNL A   1      46.408  33.987  28.021  1.00  0.00     0.173 A 
ATOM     98  F   UNL A   1      47.222  32.154  31.056  1.00  0.00    -0.203 F 
ATOM     99  C   UNL A   1      47.128  34.472  30.656  1.00  0.00     0.198 A 
ATOM    100  C   UNL A   1      46.561  35.295  28.475  1.00  0.00     0.198 A 
ATOM    101  F   UNL A   1      46.055  33.789  26.742  1.00  0.00    -0.203 F 
ATOM    102  F   UNL A   1      47.442  34.705  31.938  1.00  0.00    -0.200 F 
ATOM    103  C   UNL A   1      46.914  35.536  29.793  1.00  0.00     0.200 A 
ATOM    104  F   UNL A   1      46.368  36.322  27.634  1.00  0.00    -0.200 F 
ATOM    105  F   UNL A   1      47.040  36.796  30.234  1.00  0.00    -0.200 F 
ENDBRANCH  72  95
ENDBRANCH  46  47
ENDBRANCH  39  41
ENDBRANCH  38  39
ENDBRANCH  37  38
ENDBRANCH  36  37
ENDBRANCH  35  36
ENDBRANCH  34  35
ENDBRANCH  33  34
ENDBRANCH  32  33
ENDBRANCH  31  32
ENDBRANCH   1  31
TORSDOF 26
ENDMDL
MODEL 2
REMARK VINA RESULT:      -8.8      3.744      6.980
REMARK SMILES CCCCCCNC(=O)Oc1cccc(-c2ccc([C@@H](C)C(=O)OCCOCCOCCOC(=O)c3ccc(-c4c5nc(c(-c6c(F)c(F)c(F)c(F)c6F)c6ccc([nH]6)c(-c6c(F)c(F)c(F)c(F)c6F)c6nc(c(-c7c(F)c(F)c(F)c(F)c7F)c7ccc4[nH]7)C=C6)C=C5)cc3)cc2F)c1
REMARK SMILES IDX 25 1 24 2 22 3 23 4 20 5 21 6 19 7 16 8 17 9 100 10 18 11
REMARK SMILES IDX 99 12 101 13 15 14 11 15 12 16 102 17 13 18 14 19 10 20 8 21
REMARK SMILES IDX 7 22 9 24 6 25 5 26 4 27 3 28 2 29 1 30 26 31 27 32 28 33
REMARK SMILES IDX 29 34 30 35 31 36 32 37 33 38 34 39 35 40 36 41 37 42 98 43
REMARK SMILES IDX 38 44 97 45 39 46 40 47 41 48 91 49 42 50 96 51 90 52 92 53
REMARK SMILES IDX 43 54 95 55 89 56 88 57 44 59 76 60 56 61 75 62 57 63 60 64
REMARK SMILES IDX 74 65 93 66 58 67 59 68 73 70 94 71 61 72 45 73 46 74 54 75
REMARK SMILES IDX 47 76 48 77 52 78 55 79 49 80 50 81 53 82 51 83 77 84 78 85
REMARK SMILES IDX 86 86 79 87 80 88 84 89 87 90 81 91 82 92 85 93 83 94 62 95
REMARK SMILES IDX 63 96 71 97 64 98 65 99 69 100 72 101 66 102 67 103 70 104
REMARK SMILES IDX 68 105
REMARK H PARENT 7 23 92 58 60 69
REMARK Flexibility Score: inf
ROOT
ATOM      1  C   UNL A   1      35.797  23.168  23.447  1.00  0.00     0.261 C 
ENDROOT
BRANCH   1   2
ATOM      2  O   UNL A   1      34.408  23.422  23.752  1.00  0.00    -0.463 OA
BRANCH   2   3
ATOM      3  C   UNL A   1      33.626  23.825  22.720  1.00  0.00     0.313 C 
ATOM      4  O   UNL A   1      33.652  23.300  21.608  1.00  0.00    -0.252 OA
BRANCH   3   5
ATOM      5  C   UNL A   1      32.677  24.991  23.006  1.00  0.00     0.126 C 
ATOM      6  C   UNL A   1      32.221  25.592  21.678  1.00  0.00     0.025 C 
BRANCH   5   7
ATOM      7  C   UNL A   1      33.056  26.094  23.990  1.00  0.00    -0.031 A 
ATOM      8  C   UNL A   1      33.790  28.244  25.747  1.00  0.00     0.018 A 
ATOM      9  C   UNL A   1      33.478  26.962  26.237  1.00  0.00     0.012 A 
ATOM     10  C   UNL A   1      33.738  28.417  24.361  1.00  0.00     0.131 A 
ATOM     11  C   UNL A   1      33.127  25.902  25.377  1.00  0.00     0.005 A 
ATOM     12  C   UNL A   1      33.389  27.370  23.497  1.00  0.00     0.044 A 
ATOM     13  F   UNL A   1      34.040  29.605  23.813  1.00  0.00    -0.206 F 
BRANCH   8  14
ATOM     14  C   UNL A   1      34.187  29.336  26.659  1.00  0.00    -0.012 A 
ATOM     15  C   UNL A   1      35.763  30.394  28.183  1.00  0.00     0.133 A 
ATOM     16  C   UNL A   1      34.882  31.447  28.413  1.00  0.00     0.047 A 
ATOM     17  C   UNL A   1      35.426  29.338  27.327  1.00  0.00     0.056 A 
ATOM     18  C   UNL A   1      33.652  31.459  27.762  1.00  0.00     0.004 A 
ATOM     19  C   UNL A   1      33.311  30.416  26.895  1.00  0.00     0.009 A 
BRANCH  15  20
ATOM     20  O   UNL A   1      36.946  30.383  28.943  1.00  0.00    -0.410 OA
BRANCH  20  21
ATOM     21  C   UNL A   1      36.853  29.996  30.269  1.00  0.00     0.412 C 
ATOM     22  N   UNL A   1      37.996  29.416  30.750  1.00  0.00    -0.321 N 
ATOM     23  H   UNL A   1      38.021  29.229  31.717  1.00  0.00     0.167 HD
ATOM     24  O   UNL A   1      35.857  30.107  30.986  1.00  0.00    -0.224 OA
BRANCH  22  25
ATOM     25  C   UNL A   1      39.175  29.045  29.990  1.00  0.00     0.119 C 
BRANCH  25  26
ATOM     26  C   UNL A   1      38.969  27.784  29.150  1.00  0.00     0.021 C 
BRANCH  26  27
ATOM     27  C   UNL A   1      40.247  27.177  28.555  1.00  0.00     0.002 C 
BRANCH  27  28
ATOM     28  C   UNL A   1      40.427  27.345  27.041  1.00  0.00    -0.000 C 
BRANCH  28  29
ATOM     29  C   UNL A   1      40.990  28.693  26.584  1.00  0.00    -0.003 C 
ATOM     30  C   UNL A   1      41.905  28.591  25.374  1.00  0.00     0.004 C 
ENDBRANCH  28  29
ENDBRANCH  27  28
ENDBRANCH  26  27
ENDBRANCH  25  26
ENDBRANCH  22  25
ENDBRANCH  20  21
ENDBRANCH  15  20
ENDBRANCH   8  14
ENDBRANCH   5   7
ENDBRANCH   3   5
ENDBRANCH   2   3
ENDBRANCH   1   2
BRANCH   1  31
ATOM     31  C   UNL A   1      36.466  22.092  24.311  1.00  0.00     0.202 C 
BRANCH  31  32
ATOM     32  O   UNL A   1      37.544  22.499  25.143  1.00  0.00    -0.376 OA
BRANCH  32  33
ATOM     33  C   UNL A   1      38.362  21.514  25.764  1.00  0.00     0.188 C 
BRANCH  33  34
ATOM     34  C   UNL A   1      39.658  21.925  26.475  1.00  0.00     0.188 C 
BRANCH  34  35
ATOM     35  O   UNL A   1      40.374  20.851  27.054  1.00  0.00    -0.376 OA
BRANCH  35  36
ATOM     36  C   UNL A   1      41.406  20.302  26.252  1.00  0.00     0.202 C 
BRANCH  36  37
ATOM     37  C   UNL A   1      42.586  21.271  26.144  1.00  0.00     0.261 C 
BRANCH  37  38
ATOM     38  O   UNL A   1      42.564  22.104  24.965  1.00  0.00    -0.460 OA
BRANCH  38  39
ATOM     39  C   UNL A   1      43.752  22.584  24.548  1.00  0.00     0.338 C 
ATOM     40  O   UNL A   1      44.394  22.227  23.566  1.00  0.00    -0.246 OA
BRANCH  39  41
ATOM     41  C   UNL A   1      44.087  23.779  25.343  1.00  0.00     0.060 A 
ATOM     42  C   UNL A   1      45.431  24.023  25.656  1.00  0.00     0.016 A 
ATOM     43  C   UNL A   1      43.086  24.642  25.796  1.00  0.00     0.016 A 
ATOM     44  C   UNL A   1      45.774  25.106  26.466  1.00  0.00     0.010 A 
ATOM     45  C   UNL A   1      43.429  25.718  26.619  1.00  0.00     0.010 A 
ATOM     46  C   UNL A   1      44.768  25.930  26.990  1.00  0.00    -0.014 A 
BRANCH  46  47
ATOM     47  C   UNL A   1      45.097  26.888  28.075  1.00  0.00     0.031 A 
ATOM     48  C   UNL A   1      45.146  26.380  29.490  1.00  0.00     0.074 A 
ATOM     49  C   UNL A   1      45.363  28.178  27.816  1.00  0.00     0.049 A 
ATOM     50  N   UNL A   1      45.395  27.024  30.600  1.00  0.00    -0.248 NA
ATOM     51  C   UNL A   1      44.868  24.946  29.674  1.00  0.00     0.031 C 
ATOM     52  C   UNL A   1      45.367  28.791  26.490  1.00  0.00     0.029 A 
ATOM     53  N   UNL A   1      45.673  29.210  28.668  1.00  0.00    -0.354 N 
ATOM     54  C   UNL A   1      45.301  26.079  31.614  1.00  0.00     0.074 A 
ATOM     55  C   UNL A   1      44.930  24.827  30.990  1.00  0.00     0.031 C 
ATOM     56  C   UNL A   1      45.652  30.097  26.617  1.00  0.00     0.029 A 
ATOM     57  C   UNL A   1      45.826  30.417  28.035  1.00  0.00     0.049 A 
ATOM     58  H   UNL A   1      45.774  29.094  29.640  1.00  0.00     0.167 HD
ATOM     59  C   UNL A   1      45.517  26.236  32.941  1.00  0.00     0.037 A 
ATOM     60  C   UNL A   1      46.063  31.643  28.544  1.00  0.00     0.037 A 
ATOM     61  C   UNL A   1      45.876  27.483  33.562  1.00  0.00     0.049 A 
ATOM     62  C   UNL A   1      46.243  31.809  30.031  1.00  0.00     0.074 A 
ATOM     63  C   UNL A   1      46.143  27.740  34.895  1.00  0.00     0.029 A 
ATOM     64  N   UNL A   1      46.004  28.690  32.890  1.00  0.00    -0.354 N 
ATOM     65  N   UNL A   1      46.197  30.904  30.979  1.00  0.00    -0.248 NA
ATOM     66  C   UNL A   1      46.518  33.169  30.518  1.00  0.00     0.031 C 
ATOM     67  C   UNL A   1      46.374  29.112  35.038  1.00  0.00     0.029 A 
ATOM     68  C   UNL A   1      46.316  29.701  33.785  1.00  0.00     0.049 A 
ATOM     69  H   UNL A   1      45.891  28.811  31.919  1.00  0.00     0.167 HD
ATOM     70  C   UNL A   1      46.464  31.575  32.166  1.00  0.00     0.074 A 
ATOM     71  C   UNL A   1      46.680  32.964  31.818  1.00  0.00     0.031 C 
ATOM     72  C   UNL A   1      46.529  31.083  33.428  1.00  0.00     0.037 A 
BRANCH  59  73
ATOM     73  C   UNL A   1      45.332  25.025  33.812  1.00  0.00     0.064 A 
ATOM     74  C   UNL A   1      44.085  24.694  34.366  1.00  0.00     0.173 A 
ATOM     75  C   UNL A   1      46.419  24.187  34.101  1.00  0.00     0.173 A 
ATOM     76  F   UNL A   1      43.016  25.471  34.134  1.00  0.00    -0.203 F 
ATOM     77  C   UNL A   1      43.945  23.597  35.211  1.00  0.00     0.198 A 
ATOM     78  C   UNL A   1      46.268  23.070  34.918  1.00  0.00     0.198 A 
ATOM     79  F   UNL A   1      47.633  24.453  33.594  1.00  0.00    -0.203 F 
ATOM     80  F   UNL A   1      42.760  23.342  35.785  1.00  0.00    -0.200 F 
ATOM     81  C   UNL A   1      45.034  22.784  35.483  1.00  0.00     0.200 A 
ATOM     82  F   UNL A   1      47.319  22.278  35.169  1.00  0.00    -0.200 F 
ATOM     83  F   UNL A   1      44.898  21.729  36.300  1.00  0.00    -0.200 F 
ENDBRANCH  59  73
BRANCH  60  84
ATOM     84  C   UNL A   1      46.144  32.811  27.629  1.00  0.00     0.064 A 
ATOM     85  C   UNL A   1      47.357  33.180  27.031  1.00  0.00     0.173 A 
ATOM     86  C   UNL A   1      45.007  33.571  27.323  1.00  0.00     0.173 A 
ATOM     87  F   UNL A   1      48.478  32.501  27.315  1.00  0.00    -0.203 F 
ATOM     88  C   UNL A   1      47.429  34.271  26.166  1.00  0.00     0.198 A 
ATOM     89  C   UNL A   1      45.075  34.644  26.436  1.00  0.00     0.198 A 
ATOM     90  F   UNL A   1      43.824  33.261  27.873  1.00  0.00    -0.203 F 
ATOM     91  F   UNL A   1      48.607  34.624  25.635  1.00  0.00    -0.200 F 
ATOM     92  C   UNL A   1      46.286  34.996  25.862  1.00  0.00     0.200 A 
ATOM     93  F   UNL A   1      43.966  35.335  26.139  1.00  0.00    -0.200 F 
ATOM     94  F   UNL A   1      46.355  36.036  25.020  1.00  0.00    -0.200 F 
ENDBRANCH  60  84
BRANCH  72  95
ATOM     95  C   UNL A   1      46.880  32.041  34.532  1.00  0.00     0.064 A 
ATOM     96  C   UNL A   1      48.211  32.352  34.849  1.00  0.00     0.173 A 
ATOM     97  C   UNL A   1      45.866  32.696  35.250  1.00  0.00     0.173 A 
ATOM     98  F   UNL A   1      49.218  31.747  34.202  1.00  0.00    -0.203 F 
ATOM     99  C   UNL A   1      48.513  33.262  35.860  1.00  0.00     0.198 A 
ATOM    100  C   UNL A   1      46.172  33.628  36.239  1.00  0.00     0.198 A 
ATOM    101  F   UNL A   1      44.576  32.443  34.983  1.00  0.00    -0.203 F 
ATOM    102  F   UNL A   1      49.792  33.508  36.177  1.00  0.00    -0.200 F 
ATOM    103  C   UNL A   1      47.494  33.905  36.548  1.00  0.00     0.200 A 
ATOM    104  F   UNL A   1      45.185  34.260  36.890  1.00  0.00    -0.200 F 
ATOM    105  F   UNL A   1      47.787  34.788  37.513  1.00  0.00    -0.200 F 
ENDBRANCH  72  95
ENDBRANCH  46  47
ENDBRANCH  39  41
ENDBRANCH  38  39
ENDBRANCH  37  38
ENDBRANCH  36  37
ENDBRANCH  35  36
ENDBRANCH  34  35
ENDBRANCH  33  34
ENDBRANCH  32  33
ENDBRANCH  31  32
ENDBRANCH   1  31
TORSDOF 26
ENDMDL
MODEL 3
REMARK VINA RESULT:      -8.7      4.109      7.171
REMARK SMILES CCCCCCNC(=O)Oc1cccc(-c2ccc([C@@H](C)C(=O)OCCOCCOCCOC(=O)c3ccc(-c4c5nc(c(-c6c(F)c(F)c(F)c(F)c6F)c6ccc([nH]6)c(-c6c(F)c(F)c(F)c(F)c6F)c6nc(c(-c7c(F)c(F)c(F)c(F)c7F)c7ccc4[nH]7)C=C6)C=C5)cc3)cc2F)c1
REMARK SMILES IDX 25 1 24 2 22 3 23 4 20 5 21 6 19 7 16 8 17 9 100 10 18 11
REMARK SMILES IDX 99 12 101 13 15 14 11 15 12 16 102 17 13 18 14 19 10 20 8 21
REMARK SMILES IDX 7 22 9 24 6 25 5 26 4 27 3 28 2 29 1 30 26 31 27 32 28 33
REMARK SMILES IDX 29 34 30 35 31 36 32 37 33 38 34 39 35 40 36 41 37 42 98 43
REMARK SMILES IDX 38 44 97 45 39 46 40 47 41 48 91 49 42 50 96 51 90 52 92 53
REMARK SMILES IDX 43 54 95 55 89 56 88 57 44 59 76 60 56 61 75 62 57 63 60 64
REMARK SMILES IDX 74 65 93 66 58 67 59 68 73 70 94 71 61 72 45 73 46 74 54 75
REMARK SMILES IDX 47 76 48 77 52 78 55 79 49 80 50 81 53 82 51 83 77 84 78 85
REMARK SMILES IDX 86 86 79 87 80 88 84 89 87 90 81 91 82 92 85 93 83 94 62 95
REMARK SMILES IDX 63 96 71 97 64 98 65 99 69 100 72 101 66 102 67 103 70 104
REMARK SMILES IDX 68 105
REMARK H PARENT 7 23 92 58 60 69
REMARK Flexibility Score: inf
ROOT
ATOM      1  C   UNL A   1      35.880  23.077  23.316  1.00  0.00     0.261 C 
ENDROOT
BRANCH   1   2
ATOM      2  O   UNL A   1      34.488  23.221  23.676  1.00  0.00    -0.463 OA
BRANCH   2   3
ATOM      3  C   UNL A   1      33.659  23.688  22.710  1.00  0.00     0.313 C 
ATOM      4  O   UNL A   1      33.709  23.317  21.539  1.00  0.00    -0.252 OA
BRANCH   3   5
ATOM      5  C   UNL A   1      32.623  24.725  23.152  1.00  0.00     0.126 C 
ATOM      6  C   UNL A   1      31.894  25.249  21.916  1.00  0.00     0.025 C 
BRANCH   5   7
ATOM      7  C   UNL A   1      33.005  25.877  24.077  1.00  0.00    -0.031 A 
ATOM      8  C   UNL A   1      33.738  28.116  25.718  1.00  0.00     0.018 A 
ATOM      9  C   UNL A   1      33.474  26.849  26.271  1.00  0.00     0.012 A 
ATOM     10  C   UNL A   1      33.640  28.230  24.328  1.00  0.00     0.131 A 
ATOM     11  C   UNL A   1      33.124  25.746  25.468  1.00  0.00     0.005 A 
ATOM     12  C   UNL A   1      33.291  27.139  23.521  1.00  0.00     0.044 A 
ATOM     13  F   UNL A   1      33.895  29.400  23.722  1.00  0.00    -0.206 F 
BRANCH   8  14
ATOM     14  C   UNL A   1      34.137  29.256  26.571  1.00  0.00    -0.012 A 
ATOM     15  C   UNL A   1      35.724  30.405  28.015  1.00  0.00     0.133 A 
ATOM     16  C   UNL A   1      34.832  31.456  28.212  1.00  0.00     0.047 A 
ATOM     17  C   UNL A   1      35.387  29.306  27.215  1.00  0.00     0.056 A 
ATOM     18  C   UNL A   1      33.590  31.420  27.584  1.00  0.00     0.004 A 
ATOM     19  C   UNL A   1      33.249  30.333  26.773  1.00  0.00     0.009 A 
BRANCH  15  20
ATOM     20  O   UNL A   1      36.920  30.446  28.752  1.00  0.00    -0.410 OA
BRANCH  20  21
ATOM     21  C   UNL A   1      36.905  29.913  30.029  1.00  0.00     0.412 C 
ATOM     22  N   UNL A   1      37.827  28.919  30.218  1.00  0.00    -0.321 N 
ATOM     23  H   UNL A   1      37.935  28.588  31.139  1.00  0.00     0.167 HD
ATOM     24  O   UNL A   1      36.140  30.238  30.939  1.00  0.00    -0.224 OA
BRANCH  22  25
ATOM     25  C   UNL A   1      38.662  28.297  29.206  1.00  0.00     0.119 C 
BRANCH  25  26
ATOM     26  C   UNL A   1      39.985  27.774  29.766  1.00  0.00     0.021 C 
BRANCH  26  27
ATOM     27  C   UNL A   1      40.964  28.853  30.250  1.00  0.00     0.002 C 
BRANCH  27  28
ATOM     28  C   UNL A   1      40.830  29.267  31.721  1.00  0.00    -0.000 C 
BRANCH  28  29
ATOM     29  C   UNL A   1      41.455  28.310  32.740  1.00  0.00    -0.003 C 
ATOM     30  C   UNL A   1      41.129  28.662  34.184  1.00  0.00     0.004 C 
ENDBRANCH  28  29
ENDBRANCH  27  28
ENDBRANCH  26  27
ENDBRANCH  25  26
ENDBRANCH  22  25
ENDBRANCH  20  21
ENDBRANCH  15  20
ENDBRANCH   8  14
ENDBRANCH   5   7
ENDBRANCH   3   5
ENDBRANCH   2   3
ENDBRANCH   1   2
BRANCH   1  31
ATOM     31  C   UNL A   1      36.658  22.035  24.131  1.00  0.00     0.202 C 
BRANCH  31  32
ATOM     32  O   UNL A   1      37.619  22.517  25.059  1.00  0.00    -0.376 OA
BRANCH  32  33
ATOM     33  C   UNL A   1      38.535  21.607  25.658  1.00  0.00     0.188 C 
BRANCH  33  34
ATOM     34  C   UNL A   1      39.748  22.133  26.437  1.00  0.00     0.188 C 
BRANCH  34  35
ATOM     35  O   UNL A   1      40.658  21.133  26.848  1.00  0.00    -0.376 OA
BRANCH  35  36
ATOM     36  C   UNL A   1      41.796  20.965  26.019  1.00  0.00     0.202 C 
BRANCH  36  37
ATOM     37  C   UNL A   1      42.773  22.131  26.190  1.00  0.00     0.261 C 
BRANCH  37  38
ATOM     38  O   UNL A   1      42.727  23.105  25.127  1.00  0.00    -0.460 OA
BRANCH  38  39
ATOM     39  C   UNL A   1      43.866  23.781  24.883  1.00  0.00     0.338 C 
ATOM     40  O   UNL A   1      44.662  23.590  23.969  1.00  0.00    -0.246 OA
BRANCH  39  41
ATOM     41  C   UNL A   1      43.923  24.953  25.773  1.00  0.00     0.060 A 
ATOM     42  C   UNL A   1      45.175  25.506  26.077  1.00  0.00     0.016 A 
ATOM     43  C   UNL A   1      42.758  25.492  26.323  1.00  0.00     0.016 A 
ATOM     44  C   UNL A   1      45.268  26.572  26.973  1.00  0.00     0.010 A 
ATOM     45  C   UNL A   1      42.854  26.550  27.231  1.00  0.00     0.010 A 
ATOM     46  C   UNL A   1      44.112  27.067  27.591  1.00  0.00    -0.014 A 
BRANCH  46  47
ATOM     47  C   UNL A   1      44.235  27.986  28.749  1.00  0.00     0.031 A 
ATOM     48  C   UNL A   1      44.401  27.392  30.121  1.00  0.00     0.074 A 
ATOM     49  C   UNL A   1      44.218  29.319  28.593  1.00  0.00     0.049 A 
ATOM     50  N   UNL A   1      44.515  27.987  31.280  1.00  0.00    -0.248 NA
ATOM     51  C   UNL A   1      44.438  25.923  30.192  1.00  0.00     0.031 C 
ATOM     52  C   UNL A   1      44.082  30.019  27.318  1.00  0.00     0.029 A 
ATOM     53  N   UNL A   1      44.305  30.324  29.524  1.00  0.00    -0.354 N 
ATOM     54  C   UNL A   1      44.632  26.968  32.217  1.00  0.00     0.074 A 
ATOM     55  C   UNL A   1      44.532  25.718  31.495  1.00  0.00     0.031 C 
ATOM     56  C   UNL A   1      44.082  31.343  27.548  1.00  0.00     0.029 A 
ATOM     57  C   UNL A   1      44.193  31.582  28.987  1.00  0.00     0.049 A 
ATOM     58  H   UNL A   1      44.435  30.158  30.486  1.00  0.00     0.167 HD
ATOM     59  C   UNL A   1      44.818  27.064  33.555  1.00  0.00     0.037 A 
ATOM     60  C   UNL A   1      44.166  32.787  29.592  1.00  0.00     0.037 A 
ATOM     61  C   UNL A   1      44.906  28.308  34.273  1.00  0.00     0.049 A 
ATOM     62  C   UNL A   1      44.316  32.872  31.090  1.00  0.00     0.074 A 
ATOM     63  C   UNL A   1      45.122  28.512  35.624  1.00  0.00     0.029 A 
ATOM     64  N   UNL A   1      44.769  29.563  33.697  1.00  0.00    -0.354 N 
ATOM     65  N   UNL A   1      44.471  31.908  31.964  1.00  0.00    -0.248 NA
ATOM     66  C   UNL A   1      44.297  34.218  31.682  1.00  0.00     0.031 C 
ATOM     67  C   UNL A   1      45.054  29.887  35.875  1.00  0.00     0.029 A 
ATOM     68  C   UNL A   1      44.863  30.545  34.671  1.00  0.00     0.049 A 
ATOM     69  H   UNL A   1      44.626  29.732  32.738  1.00  0.00     0.167 HD
ATOM     70  C   UNL A   1      44.596  32.526  33.202  1.00  0.00     0.074 A 
ATOM     71  C   UNL A   1      44.508  33.952  32.964  1.00  0.00     0.031 C 
ATOM     72  C   UNL A   1      44.774  31.964  34.423  1.00  0.00     0.037 A 
BRANCH  59  73
ATOM     73  C   UNL A   1      44.902  25.779  34.328  1.00  0.00     0.064 A 
ATOM     74  C   UNL A   1      46.132  25.176  34.633  1.00  0.00     0.173 A 
ATOM     75  C   UNL A   1      43.733  25.137  34.765  1.00  0.00     0.173 A 
ATOM     76  F   UNL A   1      47.280  25.740  34.225  1.00  0.00    -0.203 F 
ATOM     77  C   UNL A   1      46.188  23.959  35.307  1.00  0.00     0.198 A 
ATOM     78  C   UNL A   1      43.794  23.937  35.470  1.00  0.00     0.198 A 
ATOM     79  F   UNL A   1      42.530  25.671  34.505  1.00  0.00    -0.203 F 
ATOM     80  F   UNL A   1      47.372  23.369  35.525  1.00  0.00    -0.200 F 
ATOM     81  C   UNL A   1      45.020  23.343  35.728  1.00  0.00     0.200 A 
ATOM     82  F   UNL A   1      42.664  23.350  35.887  1.00  0.00    -0.200 F 
ATOM     83  F   UNL A   1      45.074  22.170  36.373  1.00  0.00    -0.200 F 
ENDBRANCH  59  73
BRANCH  60  84
ATOM     84  C   UNL A   1      43.989  34.012  28.770  1.00  0.00     0.064 A 
ATOM     85  C   UNL A   1      45.063  34.573  28.066  1.00  0.00     0.173 A 
ATOM     86  C   UNL A   1      42.738  34.637  28.662  1.00  0.00     0.173 A 
ATOM     87  F   UNL A   1      46.285  34.028  28.161  1.00  0.00    -0.203 F 
ATOM     88  C   UNL A   1      44.893  35.718  27.289  1.00  0.00     0.198 A 
ATOM     89  C   UNL A   1      42.564  35.764  27.862  1.00  0.00     0.198 A 
ATOM     90  F   UNL A   1      41.681  34.141  29.320  1.00  0.00    -0.203 F 
ATOM     91  F   UNL A   1      45.943  36.255  26.653  1.00  0.00    -0.200 F 
ATOM     92  C   UNL A   1      43.642  36.307  27.180  1.00  0.00     0.200 A 
ATOM     93  F   UNL A   1      41.352  36.324  27.753  1.00  0.00    -0.200 F 
ATOM     94  F   UNL A   1      43.477  37.400  26.422  1.00  0.00    -0.200 F 
ENDBRANCH  60  84
BRANCH  72  95
ATOM     95  C   UNL A   1      44.919  32.886  35.601  1.00  0.00     0.064 A 
ATOM     96  C   UNL A   1      43.820  33.269  36.383  1.00  0.00     0.173 A 
ATOM     97  C   UNL A   1      46.188  33.356  35.979  1.00  0.00     0.173 A 
ATOM     98  F   UNL A   1      42.585  32.859  36.059  1.00  0.00    -0.203 F 
ATOM     99  C   UNL A   1      43.981  34.107  37.485  1.00  0.00     0.198 A 
ATOM    100  C   UNL A   1      46.349  34.167  37.100  1.00  0.00     0.198 A 
ATOM    101  F   UNL A   1      47.275  33.015  35.272  1.00  0.00    -0.203 F 
ATOM    102  F   UNL A   1      42.910  34.496  38.191  1.00  0.00    -0.200 F 
ATOM    103  C   UNL A   1      45.246  34.547  37.848  1.00  0.00     0.200 A 
ATOM    104  F   UNL A   1      47.574  34.578  37.458  1.00  0.00    -0.200 F 
ATOM    105  F   UNL A   1      45.400  35.345  38.914  1.00  0.00    -0.200 F 
ENDBRANCH  72  95
ENDBRANCH  46  47
ENDBRANCH  39  41
ENDBRANCH  38  39
ENDBRANCH  37  38
ENDBRANCH  36  37
ENDBRANCH  35  36
ENDBRANCH  34  35
ENDBRANCH  33  34
ENDBRANCH  32  33
ENDBRANCH  31  32
ENDBRANCH   1  31
TORSDOF 26
ENDMDL
