MODEL 1
REMARK VINA RESULT:     -10.5      0.000      0.000
REMARK SMILES CCCCNC(=O)c1cnn([C@@H](C)C(=O)OCCOCCOCCOC(=O)c2ccc(-c3c4nc(c(-c5c(F)c(F)c(F)c(F)c5F)c5ccc([nH]5)c(-c5c(F)c(F)c(F)c(F)c5F)c5nc(c(-c6c(F)c(F)c(F)c(F)c6F)c6ccc3[nH]6)C=C5)C=C4)cc2)c1
REMARK SMILES IDX 19 1 18 2 17 3 16 4 14 5 15 6 12 7 13 8 11 9 8 10 9 11 91 12
REMARK SMILES IDX 10 13 6 14 5 15 7 17 4 18 3 19 2 20 1 21 20 22 21 23 22 24
REMARK SMILES IDX 23 25 24 26 25 27 26 28 27 29 28 30 29 31 90 32 30 33 89 34
REMARK SMILES IDX 31 35 32 36 33 37 83 38 34 39 88 40 82 41 84 42 35 43 87 44
REMARK SMILES IDX 81 45 80 46 36 48 68 49 48 50 67 51 49 52 52 53 66 54 85 55
REMARK SMILES IDX 50 56 51 57 65 59 86 60 53 61 37 62 38 63 46 64 39 65 40 66
REMARK SMILES IDX 44 67 47 68 41 69 42 70 45 71 43 72 69 73 70 74 78 75 71 76
REMARK SMILES IDX 72 77 76 78 79 79 73 80 74 81 77 82 75 83 54 84 55 85 63 86
REMARK SMILES IDX 56 87 57 88 61 89 64 90 58 91 59 92 62 93 60 94
REMARK H PARENT 5 16 84 47 52 58
REMARK Flexibility Score: inf
ROOT
ATOM      1  O   UNL A   1      37.740  23.258  25.634  1.00  0.00    -0.376 OA
ENDROOT
BRANCH   1   2
ATOM      2  C   UNL A   1      36.909  23.290  24.479  1.00  0.00     0.202 C 
BRANCH   2   3
ATOM      3  C   UNL A   1      35.496  22.657  24.499  1.00  0.00     0.261 C 
BRANCH   3   4
ATOM      4  O   UNL A   1      34.594  23.054  23.438  1.00  0.00    -0.462 OA
BRANCH   4   5
ATOM      5  C   UNL A   1      33.450  23.684  23.779  1.00  0.00     0.330 C 
ATOM      6  O   UNL A   1      33.368  24.911  23.860  1.00  0.00    -0.250 OA
BRANCH   5   7
ATOM      7  C   UNL A   1      32.218  22.822  24.013  1.00  0.00     0.213 C 
ATOM      8  C   UNL A   1      31.416  23.373  25.183  1.00  0.00     0.046 C 
BRANCH   7   9
ATOM      9  N   UNL A   1      32.357  21.368  24.133  1.00  0.00    -0.258 N 
ATOM     10  C   UNL A   1      32.542  19.221  23.600  1.00  0.00     0.077 A 
ATOM     11  C   UNL A   1      32.420  19.440  24.992  1.00  0.00     0.149 A 
ATOM     12  C   UNL A   1      32.491  20.497  23.074  1.00  0.00     0.123 A 
ATOM     13  N   UNL A   1      32.198  20.723  25.306  1.00  0.00    -0.180 NA
BRANCH  10  14
ATOM     14  C   UNL A   1      32.751  18.001  22.844  1.00  0.00     0.254 C 
ATOM     15  N   UNL A   1      33.843  17.213  23.118  1.00  0.00    -0.352 N 
ATOM     16  H   UNL A   1      34.021  16.499  22.464  1.00  0.00     0.163 HD
ATOM     17  O   UNL A   1      31.955  17.633  21.981  1.00  0.00    -0.269 OA
BRANCH  15  18
ATOM     18  C   UNL A   1      34.771  17.282  24.232  1.00  0.00     0.116 C 
BRANCH  18  19
ATOM     19  C   UNL A   1      34.575  16.132  25.220  1.00  0.00     0.021 C 
BRANCH  19  20
ATOM     20  C   UNL A   1      33.157  15.987  25.778  1.00  0.00    -0.002 C 
ATOM     21  C   UNL A   1      32.493  14.669  25.411  1.00  0.00     0.004 C 
ENDBRANCH  19  20
ENDBRANCH  18  19
ENDBRANCH  15  18
ENDBRANCH  10  14
ENDBRANCH   7   9
ENDBRANCH   5   7
ENDBRANCH   4   5
ENDBRANCH   3   4
ENDBRANCH   2   3
ENDBRANCH   1   2
BRANCH   1  22
ATOM     22  C   UNL A   1      38.395  22.042  25.950  1.00  0.00     0.188 C 
BRANCH  22  23
ATOM     23  C   UNL A   1      39.879  22.068  26.356  1.00  0.00     0.188 C 
BRANCH  23  24
ATOM     24  O   UNL A   1      40.247  21.238  27.431  1.00  0.00    -0.376 OA
BRANCH  24  25
ATOM     25  C   UNL A   1      41.060  20.083  27.366  1.00  0.00     0.202 C 
BRANCH  25  26
ATOM     26  C   UNL A   1      42.096  19.832  26.276  1.00  0.00     0.261 C 
BRANCH  26  27
ATOM     27  O   UNL A   1      43.148  20.764  26.269  1.00  0.00    -0.460 OA
BRANCH  27  28
ATOM     28  C   UNL A   1      43.950  20.681  25.200  1.00  0.00     0.338 C 
ATOM     29  O   UNL A   1      44.111  19.713  24.454  1.00  0.00    -0.246 OA
BRANCH  28  30
ATOM     30  C   UNL A   1      44.594  21.984  25.043  1.00  0.00     0.060 A 
ATOM     31  C   UNL A   1      45.651  22.257  25.907  1.00  0.00     0.016 A 
ATOM     32  C   UNL A   1      43.886  22.983  24.357  1.00  0.00     0.016 A 
ATOM     33  C   UNL A   1      45.708  23.523  26.418  1.00  0.00     0.010 A 
ATOM     34  C   UNL A   1      43.921  24.234  24.887  1.00  0.00     0.010 A 
ATOM     35  C   UNL A   1      44.724  24.425  26.005  1.00  0.00    -0.014 A 
BRANCH  35  36
ATOM     36  C   UNL A   1      44.479  25.576  26.829  1.00  0.00     0.031 A 
ATOM     37  C   UNL A   1      45.517  26.596  26.655  1.00  0.00     0.074 A 
ATOM     38  C   UNL A   1      43.361  25.658  27.575  1.00  0.00     0.049 A 
ATOM     39  N   UNL A   1      46.466  26.893  27.475  1.00  0.00    -0.248 NA
ATOM     40  C   UNL A   1      45.662  27.186  25.315  1.00  0.00     0.031 C 
ATOM     41  C   UNL A   1      42.181  24.782  27.537  1.00  0.00     0.029 A 
ATOM     42  N   UNL A   1      43.004  26.617  28.470  1.00  0.00    -0.354 N 
ATOM     43  C   UNL A   1      47.187  27.887  26.830  1.00  0.00     0.074 A 
ATOM     44  C   UNL A   1      46.822  27.829  25.442  1.00  0.00     0.031 C 
ATOM     45  C   UNL A   1      41.162  25.376  28.199  1.00  0.00     0.029 A 
ATOM     46  C   UNL A   1      41.659  26.590  28.821  1.00  0.00     0.049 A 
ATOM     47  H   UNL A   1      43.641  27.272  28.838  1.00  0.00     0.167 HD
ATOM     48  C   UNL A   1      47.733  28.904  27.545  1.00  0.00     0.037 A 
ATOM     49  C   UNL A   1      41.015  27.566  29.505  1.00  0.00     0.037 A 
ATOM     50  C   UNL A   1      47.775  28.577  28.948  1.00  0.00     0.049 A 
ATOM     51  C   UNL A   1      42.050  28.368  30.204  1.00  0.00     0.074 A 
ATOM     52  C   UNL A   1      48.529  27.748  29.748  1.00  0.00     0.029 A 
ATOM     53  N   UNL A   1      46.619  28.866  29.627  1.00  0.00    -0.354 N 
ATOM     54  N   UNL A   1      42.789  27.897  31.173  1.00  0.00    -0.248 NA
ATOM     55  C   UNL A   1      42.559  29.578  29.569  1.00  0.00     0.031 C 
ATOM     56  C   UNL A   1      47.692  27.395  30.848  1.00  0.00     0.029 A 
ATOM     57  C   UNL A   1      46.465  28.043  30.709  1.00  0.00     0.049 A 
ATOM     58  H   UNL A   1      45.984  29.574  29.371  1.00  0.00     0.167 HD
ATOM     59  C   UNL A   1      44.026  28.493  30.992  1.00  0.00     0.074 A 
ATOM     60  C   UNL A   1      43.782  29.626  30.109  1.00  0.00     0.031 C 
ATOM     61  C   UNL A   1      45.170  27.825  31.320  1.00  0.00     0.037 A 
BRANCH  48  62
ATOM     62  C   UNL A   1      47.754  30.337  27.070  1.00  0.00     0.064 A 
ATOM     63  C   UNL A   1      48.973  31.040  27.096  1.00  0.00     0.173 A 
ATOM     64  C   UNL A   1      46.599  31.131  26.876  1.00  0.00     0.173 A 
ATOM     65  F   UNL A   1      50.127  30.391  27.308  1.00  0.00    -0.203 F 
ATOM     66  C   UNL A   1      49.022  32.432  26.989  1.00  0.00     0.198 A 
ATOM     67  C   UNL A   1      46.658  32.512  26.709  1.00  0.00     0.198 A 
ATOM     68  F   UNL A   1      45.360  30.636  26.958  1.00  0.00    -0.203 F 
ATOM     69  F   UNL A   1      50.192  33.068  27.135  1.00  0.00    -0.200 F 
ATOM     70  C   UNL A   1      47.866  33.167  26.795  1.00  0.00     0.200 A 
ATOM     71  F   UNL A   1      45.522  33.204  26.549  1.00  0.00    -0.200 F 
ATOM     72  F   UNL A   1      47.906  34.503  26.742  1.00  0.00    -0.200 F 
ENDBRANCH  48  62
BRANCH  49  73
ATOM     73  C   UNL A   1      39.629  28.042  29.311  1.00  0.00     0.064 A 
ATOM     74  C   UNL A   1      38.728  28.138  30.382  1.00  0.00     0.173 A 
ATOM     75  C   UNL A   1      39.247  28.673  28.110  1.00  0.00     0.173 A 
ATOM     76  F   UNL A   1      39.040  27.606  31.573  1.00  0.00    -0.203 F 
ATOM     77  C   UNL A   1      37.523  28.840  30.264  1.00  0.00     0.198 A 
ATOM     78  C   UNL A   1      38.046  29.371  27.993  1.00  0.00     0.198 A 
ATOM     79  F   UNL A   1      40.081  28.707  27.060  1.00  0.00    -0.203 F 
ATOM     80  F   UNL A   1      36.711  28.959  31.325  1.00  0.00    -0.200 F 
ATOM     81  C   UNL A   1      37.188  29.464  29.073  1.00  0.00     0.200 A 
ATOM     82  F   UNL A   1      37.755  30.007  26.848  1.00  0.00    -0.200 F 
ATOM     83  F   UNL A   1      36.064  30.188  28.978  1.00  0.00    -0.200 F 
ENDBRANCH  49  73
BRANCH  61  84
ATOM     84  C   UNL A   1      45.034  26.672  32.269  1.00  0.00     0.064 A 
ATOM     85  C   UNL A   1      44.968  26.798  33.665  1.00  0.00     0.173 A 
ATOM     86  C   UNL A   1      44.875  25.391  31.726  1.00  0.00     0.173 A 
ATOM     87  F   UNL A   1      45.031  28.001  34.251  1.00  0.00    -0.203 F 
ATOM     88  C   UNL A   1      44.793  25.681  34.482  1.00  0.00     0.198 A 
ATOM     89  C   UNL A   1      44.662  24.283  32.539  1.00  0.00     0.198 A 
ATOM     90  F   UNL A   1      44.884  25.221  30.394  1.00  0.00    -0.203 F 
ATOM     91  F   UNL A   1      44.754  25.821  35.816  1.00  0.00    -0.200 F 
ATOM     92  C   UNL A   1      44.633  24.426  33.916  1.00  0.00     0.200 A 
ATOM     93  F   UNL A   1      44.464  23.079  31.984  1.00  0.00    -0.200 F 
ATOM     94  F   UNL A   1      44.429  23.356  34.698  1.00  0.00    -0.200 F 
ENDBRANCH  61  84
ENDBRANCH  35  36
ENDBRANCH  28  30
ENDBRANCH  27  28
ENDBRANCH  26  27
ENDBRANCH  25  26
ENDBRANCH  24  25
ENDBRANCH  23  24
ENDBRANCH  22  23
ENDBRANCH   1  22
TORSDOF 22
ENDMDL
MODEL 2
REMARK VINA RESULT:     -10.4      1.967      3.843
REMARK SMILES CCCCNC(=O)c1cnn([C@@H](C)C(=O)OCCOCCOCCOC(=O)c2ccc(-c3c4nc(c(-c5c(F)c(F)c(F)c(F)c5F)c5ccc([nH]5)c(-c5c(F)c(F)c(F)c(F)c5F)c5nc(c(-c6c(F)c(F)c(F)c(F)c6F)c6ccc3[nH]6)C=C5)C=C4)cc2)c1
REMARK SMILES IDX 19 1 18 2 17 3 16 4 14 5 15 6 12 7 13 8 11 9 8 10 9 11 91 12
REMARK SMILES IDX 10 13 6 14 5 15 7 17 4 18 3 19 2 20 1 21 20 22 21 23 22 24
REMARK SMILES IDX 23 25 24 26 25 27 26 28 27 29 28 30 29 31 90 32 30 33 89 34
REMARK SMILES IDX 31 35 32 36 33 37 83 38 34 39 88 40 82 41 84 42 35 43 87 44
REMARK SMILES IDX 81 45 80 46 36 48 68 49 48 50 67 51 49 52 52 53 66 54 85 55
REMARK SMILES IDX 50 56 51 57 65 59 86 60 53 61 37 62 38 63 46 64 39 65 40 66
REMARK SMILES IDX 44 67 47 68 41 69 42 70 45 71 43 72 69 73 70 74 78 75 71 76
REMARK SMILES IDX 72 77 76 78 79 79 73 80 74 81 77 82 75 83 54 84 55 85 63 86
REMARK SMILES IDX 56 87 57 88 61 89 64 90 58 91 59 92 62 93 60 94
REMARK H PARENT 5 16 84 47 52 58
REMARK Flexibility Score: inf
ROOT
ATOM      1  O   UNL A   1      36.168  23.097  25.101  1.00  0.00    -0.376 OA
ENDROOT
BRANCH   1   2
ATOM      2  C   UNL A   1      35.717  21.819  24.664  1.00  0.00     0.202 C 
BRANCH   2   3
ATOM      3  C   UNL A   1      34.519  21.121  25.354  1.00  0.00     0.261 C 
BRANCH   3   4
ATOM      4  O   UNL A   1      33.200  21.477  24.875  1.00  0.00    -0.462 OA
BRANCH   4   5
ATOM      5  C   UNL A   1      32.885  22.787  24.794  1.00  0.00     0.330 C 
ATOM      6  O   UNL A   1      32.649  23.347  23.722  1.00  0.00    -0.250 OA
BRANCH   5   7
ATOM      7  C   UNL A   1      32.771  23.561  26.099  1.00  0.00     0.213 C 
ATOM      8  C   UNL A   1      31.714  22.922  26.989  1.00  0.00     0.046 C 
BRANCH   7   9
ATOM      9  N   UNL A   1      32.600  25.016  26.073  1.00  0.00    -0.258 N 
ATOM     10  C   UNL A   1      33.044  27.184  25.900  1.00  0.00     0.077 A 
ATOM     11  C   UNL A   1      31.716  26.919  26.308  1.00  0.00     0.149 A 
ATOM     12  C   UNL A   1      33.590  25.922  25.763  1.00  0.00     0.123 A 
ATOM     13  N   UNL A   1      31.479  25.619  26.518  1.00  0.00    -0.180 NA
BRANCH  10  14
ATOM     14  C   UNL A   1      33.717  28.434  25.602  1.00  0.00     0.254 C 
ATOM     15  N   UNL A   1      33.633  28.963  24.337  1.00  0.00    -0.352 N 
ATOM     16  H   UNL A   1      34.245  29.712  24.153  1.00  0.00     0.163 HD
ATOM     17  O   UNL A   1      34.335  29.055  26.465  1.00  0.00    -0.269 OA
BRANCH  15  18
ATOM     18  C   UNL A   1      32.776  28.576  23.232  1.00  0.00     0.116 C 
BRANCH  18  19
ATOM     19  C   UNL A   1      31.348  29.097  23.398  1.00  0.00     0.021 C 
BRANCH  19  20
ATOM     20  C   UNL A   1      30.282  28.343  22.598  1.00  0.00    -0.002 C 
ATOM     21  C   UNL A   1      29.279  27.604  23.470  1.00  0.00     0.004 C 
ENDBRANCH  19  20
ENDBRANCH  18  19
ENDBRANCH  15  18
ENDBRANCH  10  14
ENDBRANCH   7   9
ENDBRANCH   5   7
ENDBRANCH   4   5
ENDBRANCH   3   4
ENDBRANCH   2   3
ENDBRANCH   1   2
BRANCH   1  22
ATOM     22  C   UNL A   1      37.557  23.274  25.317  1.00  0.00     0.188 C 
BRANCH  22  23
ATOM     23  C   UNL A   1      38.405  22.080  25.788  1.00  0.00     0.188 C 
BRANCH  23  24
ATOM     24  O   UNL A   1      39.425  22.364  26.715  1.00  0.00    -0.376 OA
BRANCH  24  25
ATOM     25  C   UNL A   1      40.393  21.461  27.210  1.00  0.00     0.202 C 
BRANCH  25  26
ATOM     26  C   UNL A   1      41.298  20.614  26.322  1.00  0.00     0.261 C 
BRANCH  26  27
ATOM     27  O   UNL A   1      42.668  20.788  26.580  1.00  0.00    -0.460 OA
BRANCH  27  28
ATOM     28  C   UNL A   1      43.452  20.664  25.502  1.00  0.00     0.338 C 
ATOM     29  O   UNL A   1      43.592  19.671  24.784  1.00  0.00    -0.246 OA
BRANCH  28  30
ATOM     30  C   UNL A   1      44.106  21.955  25.293  1.00  0.00     0.060 A 
ATOM     31  C   UNL A   1      45.174  22.247  26.138  1.00  0.00     0.016 A 
ATOM     32  C   UNL A   1      43.400  22.936  24.581  1.00  0.00     0.016 A 
ATOM     33  C   UNL A   1      45.247  23.530  26.604  1.00  0.00     0.010 A 
ATOM     34  C   UNL A   1      43.451  24.204  25.067  1.00  0.00     0.010 A 
ATOM     35  C   UNL A   1      44.267  24.426  26.170  1.00  0.00    -0.014 A 
BRANCH  35  36
ATOM     36  C   UNL A   1      44.040  25.606  26.957  1.00  0.00     0.031 A 
ATOM     37  C   UNL A   1      45.089  26.608  26.742  1.00  0.00     0.074 A 
ATOM     38  C   UNL A   1      42.928  25.727  27.706  1.00  0.00     0.049 A 
ATOM     39  N   UNL A   1      46.046  26.921  27.547  1.00  0.00    -0.248 NA
ATOM     40  C   UNL A   1      45.232  27.151  25.383  1.00  0.00     0.031 C 
ATOM     41  C   UNL A   1      41.738  24.864  27.704  1.00  0.00     0.029 A 
ATOM     42  N   UNL A   1      42.588  26.719  28.570  1.00  0.00    -0.354 N 
ATOM     43  C   UNL A   1      46.775  27.885  26.864  1.00  0.00     0.074 A 
ATOM     44  C   UNL A   1      46.401  27.784  25.481  1.00  0.00     0.031 C 
ATOM     45  C   UNL A   1      40.730  25.491  28.351  1.00  0.00     0.029 A 
ATOM     46  C   UNL A   1      41.244  26.720  28.929  1.00  0.00     0.049 A 
ATOM     47  H   UNL A   1      43.234  27.378  28.912  1.00  0.00     0.167 HD
ATOM     48  C   UNL A   1      47.337  28.918  27.542  1.00  0.00     0.037 A 
ATOM     49  C   UNL A   1      40.616  27.725  29.584  1.00  0.00     0.037 A 
ATOM     50  C   UNL A   1      47.384  28.639  28.954  1.00  0.00     0.049 A 
ATOM     51  C   UNL A   1      41.664  28.538  30.250  1.00  0.00     0.074 A 
ATOM     52  C   UNL A   1      48.133  27.828  29.777  1.00  0.00     0.029 A 
ATOM     53  N   UNL A   1      46.235  28.963  29.631  1.00  0.00    -0.354 N 
ATOM     54  N   UNL A   1      42.404  28.092  31.230  1.00  0.00    -0.248 NA
ATOM     55  C   UNL A   1      42.184  29.720  29.572  1.00  0.00     0.031 C 
ATOM     56  C   UNL A   1      47.299  27.521  30.894  1.00  0.00     0.029 A 
ATOM     57  C   UNL A   1      46.078  28.179  30.741  1.00  0.00     0.049 A 
ATOM     58  H   UNL A   1      45.606  29.670  29.354  1.00  0.00     0.167 HD
ATOM     59  C   UNL A   1      43.647  28.666  31.022  1.00  0.00     0.074 A 
ATOM     60  C   UNL A   1      43.410  29.772  30.103  1.00  0.00     0.031 C 
ATOM     61  C   UNL A   1      44.785  27.997  31.365  1.00  0.00     0.037 A 
BRANCH  48  62
ATOM     62  C   UNL A   1      47.371  30.335  27.019  1.00  0.00     0.064 A 
ATOM     63  C   UNL A   1      48.575  31.057  27.106  1.00  0.00     0.173 A 
ATOM     64  C   UNL A   1      46.222  31.103  26.717  1.00  0.00     0.173 A 
ATOM     65  F   UNL A   1      49.721  30.435  27.421  1.00  0.00    -0.203 F 
ATOM     66  C   UNL A   1      48.613  32.446  26.953  1.00  0.00     0.198 A 
ATOM     67  C   UNL A   1      46.274  32.477  26.506  1.00  0.00     0.198 A 
ATOM     68  F   UNL A   1      44.987  30.590  26.729  1.00  0.00    -0.203 F 
ATOM     69  F   UNL A   1      49.760  33.106  27.157  1.00  0.00    -0.200 F 
ATOM     70  C   UNL A   1      47.463  33.154  26.652  1.00  0.00     0.200 A 
ATOM     71  F   UNL A   1      45.142  33.145  26.242  1.00  0.00    -0.200 F 
ATOM     72  F   UNL A   1      47.488  34.489  26.555  1.00  0.00    -0.200 F 
ENDBRANCH  48  62
BRANCH  49  73
ATOM     73  C   UNL A   1      39.234  28.210  29.382  1.00  0.00     0.064 A 
ATOM     74  C   UNL A   1      38.348  28.373  30.458  1.00  0.00     0.173 A 
ATOM     75  C   UNL A   1      38.847  28.787  28.156  1.00  0.00     0.173 A 
ATOM     76  F   UNL A   1      38.667  27.896  31.670  1.00  0.00    -0.203 F 
ATOM     77  C   UNL A   1      37.151  29.085  30.318  1.00  0.00     0.198 A 
ATOM     78  C   UNL A   1      37.654  29.495  28.018  1.00  0.00     0.198 A 
ATOM     79  F   UNL A   1      39.669  28.756  27.096  1.00  0.00    -0.203 F 
ATOM     80  F   UNL A   1      36.354  29.268  31.380  1.00  0.00    -0.200 F 
ATOM     81  C   UNL A   1      36.810  29.654  29.101  1.00  0.00     0.200 A 
ATOM     82  F   UNL A   1      37.358  30.077  26.846  1.00  0.00    -0.200 F 
ATOM     83  F   UNL A   1      35.695  30.388  28.983  1.00  0.00    -0.200 F 
ENDBRANCH  49  73
BRANCH  61  84
ATOM     84  C   UNL A   1      44.641  26.877  32.353  1.00  0.00     0.064 A 
ATOM     85  C   UNL A   1      44.516  27.056  33.740  1.00  0.00     0.173 A 
ATOM     86  C   UNL A   1      44.538  25.572  31.856  1.00  0.00     0.173 A 
ATOM     87  F   UNL A   1      44.524  28.282  34.279  1.00  0.00    -0.203 F 
ATOM     88  C   UNL A   1      44.338  25.967  34.592  1.00  0.00     0.198 A 
ATOM     89  C   UNL A   1      44.323  24.492  32.703  1.00  0.00     0.198 A 
ATOM     90  F   UNL A   1      44.606  25.351  30.533  1.00  0.00    -0.203 F 
ATOM     91  F   UNL A   1      44.242  26.157  35.917  1.00  0.00    -0.200 F 
ATOM     92  C   UNL A   1      44.234  24.687  34.071  1.00  0.00     0.200 A 
ATOM     93  F   UNL A   1      44.178  23.262  32.189  1.00  0.00    -0.200 F 
ATOM     94  F   UNL A   1      44.028  23.642  34.886  1.00  0.00    -0.200 F 
ENDBRANCH  61  84
ENDBRANCH  35  36
ENDBRANCH  28  30
ENDBRANCH  27  28
ENDBRANCH  26  27
ENDBRANCH  25  26
ENDBRANCH  24  25
ENDBRANCH  23  24
ENDBRANCH  22  23
ENDBRANCH   1  22
TORSDOF 22
ENDMDL
MODEL 3
REMARK VINA RESULT:     -10.3      2.078      3.928
REMARK SMILES CCCCNC(=O)c1cnn([C@@H](C)C(=O)OCCOCCOCCOC(=O)c2ccc(-c3c4nc(c(-c5c(F)c(F)c(F)c(F)c5F)c5ccc([nH]5)c(-c5c(F)c(F)c(F)c(F)c5F)c5nc(c(-c6c(F)c(F)c(F)c(F)c6F)c6ccc3[nH]6)C=C5)C=C4)cc2)c1
REMARK SMILES IDX 19 1 18 2 17 3 16 4 14 5 15 6 12 7 13 8 11 9 8 10 9 11 91 12
REMARK SMILES IDX 10 13 6 14 5 15 7 17 4 18 3 19 2 20 1 21 20 22 21 23 22 24
REMARK SMILES IDX 23 25 24 26 25 27 26 28 27 29 28 30 29 31 90 32 30 33 89 34
REMARK SMILES IDX 31 35 32 36 33 37 83 38 34 39 88 40 82 41 84 42 35 43 87 44
REMARK SMILES IDX 81 45 80 46 36 48 68 49 48 50 67 51 49 52 52 53 66 54 85 55
REMARK SMILES IDX 50 56 51 57 65 59 86 60 53 61 37 62 38 63 46 64 39 65 40 66
REMARK SMILES IDX 44 67 47 68 41 69 42 70 45 71 43 72 69 73 70 74 78 75 71 76
REMARK SMILES IDX 72 77 76 78 79 79 73 80 74 81 77 82 75 83 54 84 55 85 63 86
REMARK SMILES IDX 56 87 57 88 61 89 64 90 58 91 59 92 62 93 60 94
REMARK H PARENT 5 16 84 47 52 58
REMARK Flexibility Score: inf
ROOT
ATOM      1  O   UNL A   1      37.127  22.883  25.677  1.00  0.00    -0.376 OA
ENDROOT
BRANCH   1   2
ATOM      2  C   UNL A   1      35.762  22.478  25.652  1.00  0.00     0.202 C 
BRANCH   2   3
ATOM      3  C   UNL A   1      34.671  23.319  26.358  1.00  0.00     0.261 C 
BRANCH   3   4
ATOM      4  O   UNL A   1      33.438  22.633  26.688  1.00  0.00    -0.462 OA
BRANCH   4   5
ATOM      5  C   UNL A   1      32.277  23.305  26.538  1.00  0.00     0.330 C 
ATOM      6  O   UNL A   1      31.663  23.789  27.490  1.00  0.00    -0.250 OA
BRANCH   5   7
ATOM      7  C   UNL A   1      31.761  23.502  25.120  1.00  0.00     0.213 C 
ATOM      8  C   UNL A   1      32.039  22.256  24.291  1.00  0.00     0.046 C 
BRANCH   7   9
ATOM      9  N   UNL A   1      32.130  24.705  24.369  1.00  0.00    -0.258 N 
ATOM     10  C   UNL A   1      32.143  26.791  23.612  1.00  0.00     0.077 A 
ATOM     11  C   UNL A   1      33.051  25.948  22.932  1.00  0.00     0.149 A 
ATOM     12  C   UNL A   1      31.558  25.947  24.535  1.00  0.00     0.123 A 
ATOM     13  N   UNL A   1      32.966  24.667  23.312  1.00  0.00    -0.180 NA
BRANCH  10  14
ATOM     14  C   UNL A   1      31.887  28.214  23.485  1.00  0.00     0.254 C 
ATOM     15  N   UNL A   1      32.562  29.097  24.293  1.00  0.00    -0.352 N 
ATOM     16  H   UNL A   1      32.224  30.022  24.279  1.00  0.00     0.163 HD
ATOM     17  O   UNL A   1      31.104  28.656  22.646  1.00  0.00    -0.269 OA
BRANCH  15  18
ATOM     18  C   UNL A   1      33.699  28.865  25.164  1.00  0.00     0.116 C 
BRANCH  18  19
ATOM     19  C   UNL A   1      33.532  29.539  26.526  1.00  0.00     0.021 C 
BRANCH  19  20
ATOM     20  C   UNL A   1      32.102  29.553  27.074  1.00  0.00    -0.002 C 
ATOM     21  C   UNL A   1      31.599  28.178  27.489  1.00  0.00     0.004 C 
ENDBRANCH  19  20
ENDBRANCH  18  19
ENDBRANCH  15  18
ENDBRANCH  10  14
ENDBRANCH   7   9
ENDBRANCH   5   7
ENDBRANCH   4   5
ENDBRANCH   3   4
ENDBRANCH   2   3
ENDBRANCH   1   2
BRANCH   1  22
ATOM     22  C   UNL A   1      38.122  21.878  25.598  1.00  0.00     0.188 C 
BRANCH  22  23
ATOM     23  C   UNL A   1      39.542  22.181  26.106  1.00  0.00     0.188 C 
BRANCH  23  24
ATOM     24  O   UNL A   1      39.890  21.631  27.354  1.00  0.00    -0.376 OA
BRANCH  24  25
ATOM     25  C   UNL A   1      41.037  20.857  27.645  1.00  0.00     0.202 C 
BRANCH  25  26
ATOM     26  C   UNL A   1      41.908  20.194  26.584  1.00  0.00     0.261 C 
BRANCH  26  27
ATOM     27  O   UNL A   1      43.234  20.658  26.569  1.00  0.00    -0.460 OA
BRANCH  27  28
ATOM     28  C   UNL A   1      43.813  20.632  25.362  1.00  0.00     0.338 C 
ATOM     29  O   UNL A   1      43.859  19.688  24.570  1.00  0.00    -0.246 OA
BRANCH  28  30
ATOM     30  C   UNL A   1      44.366  21.964  25.120  1.00  0.00     0.060 A 
ATOM     31  C   UNL A   1      45.481  22.314  25.876  1.00  0.00     0.016 A 
ATOM     32  C   UNL A   1      43.543  22.906  24.485  1.00  0.00     0.016 A 
ATOM     33  C   UNL A   1      45.514  23.593  26.355  1.00  0.00     0.010 A 
ATOM     34  C   UNL A   1      43.557  24.170  24.984  1.00  0.00     0.010 A 
ATOM     35  C   UNL A   1      44.448  24.431  26.019  1.00  0.00    -0.014 A 
BRANCH  35  36
ATOM     36  C   UNL A   1      44.216  25.586  26.840  1.00  0.00     0.031 A 
ATOM     37  C   UNL A   1      45.259  26.600  26.653  1.00  0.00     0.074 A 
ATOM     38  C   UNL A   1      43.105  25.678  27.594  1.00  0.00     0.049 A 
ATOM     39  N   UNL A   1      46.215  26.894  27.465  1.00  0.00    -0.248 NA
ATOM     40  C   UNL A   1      45.396  27.183  25.310  1.00  0.00     0.031 C 
ATOM     41  C   UNL A   1      41.919  24.809  27.570  1.00  0.00     0.029 A 
ATOM     42  N   UNL A   1      42.760  26.643  28.488  1.00  0.00    -0.354 N 
ATOM     43  C   UNL A   1      46.937  27.882  26.809  1.00  0.00     0.074 A 
ATOM     44  C   UNL A   1      46.561  27.820  25.425  1.00  0.00     0.031 C 
ATOM     45  C   UNL A   1      40.909  25.412  28.237  1.00  0.00     0.029 A 
ATOM     46  C   UNL A   1      41.418  26.626  28.850  1.00  0.00     0.049 A 
ATOM     47  H   UNL A   1      43.404  27.296  28.848  1.00  0.00     0.167 HD
ATOM     48  C   UNL A   1      47.495  28.898  27.515  1.00  0.00     0.037 A 
ATOM     49  C   UNL A   1      40.785  27.608  29.535  1.00  0.00     0.037 A 
ATOM     50  C   UNL A   1      47.546  28.578  28.919  1.00  0.00     0.049 A 
ATOM     51  C   UNL A   1      41.830  28.406  30.222  1.00  0.00     0.074 A 
ATOM     52  C   UNL A   1      48.302  27.748  29.717  1.00  0.00     0.029 A 
ATOM     53  N   UNL A   1      46.397  28.876  29.607  1.00  0.00    -0.354 N 
ATOM     54  N   UNL A   1      42.574  27.936  31.187  1.00  0.00    -0.248 NA
ATOM     55  C   UNL A   1      42.342  29.611  29.578  1.00  0.00     0.031 C 
ATOM     56  C   UNL A   1      47.471  27.403  30.825  1.00  0.00     0.029 A 
ATOM     57  C   UNL A   1      46.247  28.058  30.694  1.00  0.00     0.049 A 
ATOM     58  H   UNL A   1      45.764  29.587  29.352  1.00  0.00     0.167 HD
ATOM     59  C   UNL A   1      43.813  28.523  30.994  1.00  0.00     0.074 A 
ATOM     60  C   UNL A   1      43.568  29.654  30.108  1.00  0.00     0.031 C 
ATOM     61  C   UNL A   1      44.956  27.851  31.315  1.00  0.00     0.037 A 
BRANCH  48  62
ATOM     62  C   UNL A   1      47.520  30.330  27.034  1.00  0.00     0.064 A 
ATOM     63  C   UNL A   1      48.719  31.058  27.145  1.00  0.00     0.173 A 
ATOM     64  C   UNL A   1      46.366  31.098  26.752  1.00  0.00     0.173 A 
ATOM     65  F   UNL A   1      49.868  30.435  27.446  1.00  0.00    -0.203 F 
ATOM     66  C   UNL A   1      48.746  32.451  27.034  1.00  0.00     0.198 A 
ATOM     67  C   UNL A   1      46.408  32.478  26.581  1.00  0.00     0.198 A 
ATOM     68  F   UNL A   1      45.135  30.576  26.745  1.00  0.00    -0.203 F 
ATOM     69  F   UNL A   1      49.888  33.113  27.260  1.00  0.00    -0.200 F 
ATOM     70  C   UNL A   1      47.592  33.159  26.751  1.00  0.00     0.200 A 
ATOM     71  F   UNL A   1      45.272  33.145  26.334  1.00  0.00    -0.200 F 
ATOM     72  F   UNL A   1      47.608  34.496  26.692  1.00  0.00    -0.200 F 
ENDBRANCH  48  62
BRANCH  49  73
ATOM     73  C   UNL A   1      39.400  28.091  29.350  1.00  0.00     0.064 A 
ATOM     74  C   UNL A   1      38.515  28.216  30.431  1.00  0.00     0.173 A 
ATOM     75  C   UNL A   1      39.008  28.701  28.142  1.00  0.00     0.173 A 
ATOM     76  F   UNL A   1      38.839  27.704  31.628  1.00  0.00    -0.203 F 
ATOM     77  C   UNL A   1      37.314  28.925  30.315  1.00  0.00     0.198 A 
ATOM     78  C   UNL A   1      37.810  29.407  28.027  1.00  0.00     0.198 A 
ATOM     79  F   UNL A   1      39.828  28.707  27.081  1.00  0.00    -0.203 F 
ATOM     80  F   UNL A   1      36.517  29.071  31.384  1.00  0.00    -0.200 F 
ATOM     81  C   UNL A   1      36.967  29.528  29.116  1.00  0.00     0.200 A 
ATOM     82  F   UNL A   1      37.509  30.022  26.874  1.00  0.00    -0.200 F 
ATOM     83  F   UNL A   1      35.848  30.258  29.022  1.00  0.00    -0.200 F 
ENDBRANCH  49  73
BRANCH  61  84
ATOM     84  C   UNL A   1      44.821  26.702  32.270  1.00  0.00     0.064 A 
ATOM     85  C   UNL A   1      44.645  25.364  31.880  1.00  0.00     0.173 A 
ATOM     86  C   UNL A   1      44.963  26.964  33.638  1.00  0.00     0.173 A 
ATOM     87  F   UNL A   1      44.582  25.028  30.585  1.00  0.00    -0.203 F 
ATOM     88  C   UNL A   1      44.574  24.343  32.826  1.00  0.00     0.198 A 
ATOM     89  C   UNL A   1      44.930  25.940  34.577  1.00  0.00     0.198 A 
ATOM     90  F   UNL A   1      45.178  28.220  34.061  1.00  0.00    -0.203 F 
ATOM     91  F   UNL A   1      44.385  23.073  32.433  1.00  0.00    -0.200 F 
ATOM     92  C   UNL A   1      44.724  24.631  34.173  1.00  0.00     0.200 A 
ATOM     93  F   UNL A   1      45.121  26.220  35.874  1.00  0.00    -0.200 F 
ATOM     94  F   UNL A   1      44.692  23.645  35.081  1.00  0.00    -0.200 F 
ENDBRANCH  61  84
ENDBRANCH  35  36
ENDBRANCH  28  30
ENDBRANCH  27  28
ENDBRANCH  26  27
ENDBRANCH  25  26
ENDBRANCH  24  25
ENDBRANCH  23  24
ENDBRANCH  22  23
ENDBRANCH   1  22
TORSDOF 22
ENDMDL
