MODEL 1
REMARK VINA RESULT:     -11.2      0.000      0.000
REMARK SMILES O=C1CC[C@H](CNC(=O)N[C@@H]2C=C[C@@H](C(=O)OCCOCCOCCOC(=O)c3ccc(-c4c5nc(c(-c6c(F)c(F)c(F)c(F)c6F)c6ccc([nH]6)c(-c6c(F)c(F)c(F)c(F)c6F)c6nc(c(-c7c(F)c(F)c(F)c(F)c7F)c7ccc4[nH]7)C=C6)C=C5)cc3)C2)N1
REMARK SMILES IDX 21 1 20 2 19 3 18 4 17 5 15 6 16 7 14 8 11 9 12 10 92 11
REMARK SMILES IDX 13 12 10 13 7 14 8 15 9 17 6 19 5 20 1 21 2 22 3 23 93 24
REMARK SMILES IDX 4 25 22 27 23 28 24 29 25 30 26 31 27 32 28 33 29 34 30 35
REMARK SMILES IDX 91 36 31 37 90 38 32 39 33 40 34 41 84 42 35 43 89 44 83 45
REMARK SMILES IDX 85 46 36 47 88 48 82 49 81 50 37 52 69 53 49 54 68 55 50 56
REMARK SMILES IDX 53 57 67 58 86 59 51 60 52 61 66 63 87 64 54 65 38 66 39 67
REMARK SMILES IDX 47 68 40 69 41 70 45 71 48 72 42 73 43 74 46 75 44 76 70 77
REMARK SMILES IDX 71 78 79 79 72 80 73 81 77 82 80 83 74 84 75 85 78 86 76 87
REMARK SMILES IDX 55 88 56 89 64 90 57 91 58 92 62 93 65 94 59 95 60 96 63 97
REMARK SMILES IDX 61 98
REMARK H PARENT 7 16 10 18 93 26 85 51 53 62
REMARK Flexibility Score: inf
ROOT
ATOM      1  C   UNL A   1      40.119  21.480  26.513  1.00  0.00     0.188 C 
ENDROOT
BRANCH   1   2
ATOM      2  O   UNL A   1      38.833  22.049  26.696  1.00  0.00    -0.376 OA
BRANCH   2   3
ATOM      3  C   UNL A   1      38.303  22.902  25.692  1.00  0.00     0.202 C 
BRANCH   3   4
ATOM      4  C   UNL A   1      37.406  22.274  24.622  1.00  0.00     0.261 C 
BRANCH   4   5
ATOM      5  O   UNL A   1      36.031  22.219  25.034  1.00  0.00    -0.463 OA
BRANCH   5   6
ATOM      6  C   UNL A   1      35.495  20.979  25.193  1.00  0.00     0.312 C 
ATOM      7  O   UNL A   1      36.100  19.935  24.979  1.00  0.00    -0.252 OA
BRANCH   6   8
ATOM      8  C   UNL A   1      34.076  21.027  25.775  1.00  0.00     0.124 C 
ATOM      9  C   UNL A   1      32.002  22.371  25.457  1.00  0.00     0.107 C 
ATOM     10  C   UNL A   1      31.964  21.065  24.730  1.00  0.00    -0.006 C 
ATOM     11  C   UNL A   1      33.455  22.419  25.928  1.00  0.00     0.048 C 
ATOM     12  C   UNL A   1      33.082  20.345  24.888  1.00  0.00    -0.014 C 
BRANCH   9  13
ATOM     13  N   UNL A   1      31.044  22.350  26.540  1.00  0.00    -0.332 N 
ATOM     14  N   UNL A   1      29.845  24.401  26.434  1.00  0.00    -0.336 N 
ATOM     15  C   UNL A   1      30.063  23.174  26.933  1.00  0.00     0.315 C 
ATOM     16  H   UNL A   1      28.996  24.798  26.738  1.00  0.00     0.165 HD
ATOM     17  O   UNL A   1      29.308  22.784  27.826  1.00  0.00    -0.249 OA
ATOM     18  H   UNL A   1      31.132  21.556  27.116  1.00  0.00     0.165 HD
BRANCH  14  19
ATOM     19  C   UNL A   1      30.594  25.266  25.544  1.00  0.00     0.142 C 
BRANCH  19  20
ATOM     20  C   UNL A   1      31.488  26.304  26.244  1.00  0.00     0.101 C 
ATOM     21  O   UNL A   1      32.668  29.245  24.708  1.00  0.00    -0.275 OA
ATOM     22  C   UNL A   1      32.556  28.179  25.260  1.00  0.00     0.220 C 
ATOM     23  C   UNL A   1      33.672  27.296  25.748  1.00  0.00     0.102 C 
ATOM     24  N   UNL A   1      31.362  27.584  25.594  1.00  0.00    -0.352 N 
ATOM     25  C   UNL A   1      32.986  25.996  26.175  1.00  0.00     0.036 C 
ATOM     26  H   UNL A   1      30.490  27.999  25.403  1.00  0.00     0.163 HD
ENDBRANCH  19  20
ENDBRANCH  14  19
ENDBRANCH   9  13
ENDBRANCH   6   8
ENDBRANCH   5   6
ENDBRANCH   4   5
ENDBRANCH   3   4
ENDBRANCH   2   3
ENDBRANCH   1   2
BRANCH   1  27
ATOM     27  C   UNL A   1      40.280  20.026  26.033  1.00  0.00     0.188 C 
BRANCH  27  28
ATOM     28  O   UNL A   1      41.533  19.443  25.754  1.00  0.00    -0.376 OA
BRANCH  28  29
ATOM     29  C   UNL A   1      42.694  19.964  26.378  1.00  0.00     0.202 C 
BRANCH  29  30
ATOM     30  C   UNL A   1      43.571  20.926  25.576  1.00  0.00     0.261 C 
BRANCH  30  31
ATOM     31  O   UNL A   1      43.705  22.219  26.194  1.00  0.00    -0.460 OA
BRANCH  31  32
ATOM     32  C   UNL A   1      43.308  23.257  25.423  1.00  0.00     0.338 C 
ATOM     33  O   UNL A   1      43.251  23.308  24.206  1.00  0.00    -0.246 OA
BRANCH  32  34
ATOM     34  C   UNL A   1      42.767  24.345  26.243  1.00  0.00     0.060 A 
ATOM     35  C   UNL A   1      43.333  25.621  26.112  1.00  0.00     0.016 A 
ATOM     36  C   UNL A   1      41.828  24.069  27.235  1.00  0.00     0.016 A 
ATOM     37  C   UNL A   1      42.977  26.630  26.999  1.00  0.00     0.010 A 
ATOM     38  C   UNL A   1      41.484  25.079  28.131  1.00  0.00     0.010 A 
ATOM     39  C   UNL A   1      42.074  26.352  28.031  1.00  0.00    -0.014 A 
BRANCH  39  40
ATOM     40  C   UNL A   1      41.788  27.366  29.068  1.00  0.00     0.031 A 
ATOM     41  C   UNL A   1      42.599  27.372  30.329  1.00  0.00     0.074 A 
ATOM     42  C   UNL A   1      40.777  28.230  28.884  1.00  0.00     0.049 A 
ATOM     43  N   UNL A   1      42.409  28.049  31.432  1.00  0.00    -0.248 NA
ATOM     44  C   UNL A   1      43.778  26.491  30.358  1.00  0.00     0.031 C 
ATOM     45  C   UNL A   1      39.956  28.319  27.676  1.00  0.00     0.029 A 
ATOM     46  N   UNL A   1      40.246  29.173  29.723  1.00  0.00    -0.354 N 
ATOM     47  C   UNL A   1      43.425  27.656  32.294  1.00  0.00     0.074 A 
ATOM     48  C   UNL A   1      44.227  26.679  31.591  1.00  0.00     0.031 C 
ATOM     49  C   UNL A   1      38.999  29.242  27.866  1.00  0.00     0.029 A 
ATOM     50  C   UNL A   1      39.116  29.771  29.223  1.00  0.00     0.049 A 
ATOM     51  H   UNL A   1      40.636  29.400  30.599  1.00  0.00     0.167 HD
ATOM     52  C   UNL A   1      43.652  28.077  33.560  1.00  0.00     0.037 A 
ATOM     53  C   UNL A   1      38.248  30.611  29.816  1.00  0.00     0.037 A 
ATOM     54  C   UNL A   1      42.846  29.060  34.234  1.00  0.00     0.049 A 
ATOM     55  C   UNL A   1      38.505  31.030  31.240  1.00  0.00     0.074 A 
ATOM     56  C   UNL A   1      43.006  29.588  35.504  1.00  0.00     0.029 A 
ATOM     57  N   UNL A   1      41.719  29.661  33.690  1.00  0.00    -0.354 N 
ATOM     58  N   UNL A   1      39.478  30.675  32.044  1.00  0.00    -0.248 NA
ATOM     59  C   UNL A   1      37.545  31.966  31.838  1.00  0.00     0.031 C 
ATOM     60  C   UNL A   1      41.948  30.468  35.746  1.00  0.00     0.029 A 
ATOM     61  C   UNL A   1      41.159  30.533  34.608  1.00  0.00     0.049 A 
ATOM     62  H   UNL A   1      41.369  29.491  32.786  1.00  0.00     0.167 HD
ATOM     63  C   UNL A   1      39.264  31.362  33.230  1.00  0.00     0.074 A 
ATOM     64  C   UNL A   1      38.077  32.168  33.035  1.00  0.00     0.031 C 
ATOM     65  C   UNL A   1      39.981  31.330  34.381  1.00  0.00     0.037 A 
BRANCH  52  66
ATOM     66  C   UNL A   1      44.792  27.460  34.317  1.00  0.00     0.064 A 
ATOM     67  C   UNL A   1      44.646  26.261  35.031  1.00  0.00     0.173 A 
ATOM     68  C   UNL A   1      46.068  28.043  34.269  1.00  0.00     0.173 A 
ATOM     69  F   UNL A   1      43.446  25.670  35.119  1.00  0.00    -0.203 F 
ATOM     70  C   UNL A   1      45.734  25.675  35.677  1.00  0.00     0.198 A 
ATOM     71  C   UNL A   1      47.157  27.441  34.894  1.00  0.00     0.198 A 
ATOM     72  F   UNL A   1      46.263  29.188  33.599  1.00  0.00    -0.203 F 
ATOM     73  F   UNL A   1      45.565  24.546  36.378  1.00  0.00    -0.200 F 
ATOM     74  C   UNL A   1      46.989  26.260  35.599  1.00  0.00     0.200 A 
ATOM     75  F   UNL A   1      48.371  28.002  34.808  1.00  0.00    -0.200 F 
ATOM     76  F   UNL A   1      48.036  25.686  36.207  1.00  0.00    -0.200 F 
ENDBRANCH  52  66
BRANCH  53  77
ATOM     77  C   UNL A   1      37.042  31.078  29.083  1.00  0.00     0.064 A 
ATOM     78  C   UNL A   1      36.952  32.390  28.598  1.00  0.00     0.173 A 
ATOM     79  C   UNL A   1      35.947  30.227  28.867  1.00  0.00     0.173 A 
ATOM     80  F   UNL A   1      37.964  33.248  28.797  1.00  0.00    -0.203 F 
ATOM     81  C   UNL A   1      35.804  32.840  27.949  1.00  0.00     0.198 A 
ATOM     82  C   UNL A   1      34.813  30.669  28.189  1.00  0.00     0.198 A 
ATOM     83  F   UNL A   1      35.983  28.961  29.307  1.00  0.00    -0.203 F 
ATOM     84  F   UNL A   1      35.723  34.115  27.545  1.00  0.00    -0.200 F 
ATOM     85  C   UNL A   1      34.738  31.979  27.740  1.00  0.00     0.200 A 
ATOM     86  F   UNL A   1      33.792  29.827  27.976  1.00  0.00    -0.200 F 
ATOM     87  F   UNL A   1      33.634  32.412  27.115  1.00  0.00    -0.200 F 
ENDBRANCH  53  77
BRANCH  65  88
ATOM     88  C   UNL A   1      39.521  32.222  35.496  1.00  0.00     0.064 A 
ATOM     89  C   UNL A   1      38.661  31.759  36.502  1.00  0.00     0.173 A 
ATOM     90  C   UNL A   1      39.980  33.545  35.579  1.00  0.00     0.173 A 
ATOM     91  F   UNL A   1      38.183  30.506  36.456  1.00  0.00    -0.203 F 
ATOM     92  C   UNL A   1      38.255  32.598  37.536  1.00  0.00     0.198 A 
ATOM     93  C   UNL A   1      39.597  34.371  36.631  1.00  0.00     0.198 A 
ATOM     94  F   UNL A   1      40.811  34.033  34.645  1.00  0.00    -0.203 F 
ATOM     95  F   UNL A   1      37.393  32.150  38.458  1.00  0.00    -0.200 F 
ATOM     96  C   UNL A   1      38.730  33.899  37.604  1.00  0.00     0.200 A 
ATOM     97  F   UNL A   1      40.068  35.623  36.703  1.00  0.00    -0.200 F 
ATOM     98  F   UNL A   1      38.343  34.702  38.604  1.00  0.00    -0.200 F 
ENDBRANCH  65  88
ENDBRANCH  39  40
ENDBRANCH  32  34
ENDBRANCH  31  32
ENDBRANCH  30  31
ENDBRANCH  29  30
ENDBRANCH  28  29
ENDBRANCH  27  28
ENDBRANCH   1  27
TORSDOF 20
ENDMDL
MODEL 2
REMARK VINA RESULT:     -11.1      3.329      8.942
REMARK SMILES O=C1CC[C@H](CNC(=O)N[C@@H]2C=C[C@@H](C(=O)OCCOCCOCCOC(=O)c3ccc(-c4c5nc(c(-c6c(F)c(F)c(F)c(F)c6F)c6ccc([nH]6)c(-c6c(F)c(F)c(F)c(F)c6F)c6nc(c(-c7c(F)c(F)c(F)c(F)c7F)c7ccc4[nH]7)C=C6)C=C5)cc3)C2)N1
REMARK SMILES IDX 21 1 20 2 19 3 18 4 17 5 15 6 16 7 14 8 11 9 12 10 92 11
REMARK SMILES IDX 13 12 10 13 7 14 8 15 9 17 6 19 5 20 1 21 2 22 3 23 93 24
REMARK SMILES IDX 4 25 22 27 23 28 24 29 25 30 26 31 27 32 28 33 29 34 30 35
REMARK SMILES IDX 91 36 31 37 90 38 32 39 33 40 34 41 84 42 35 43 89 44 83 45
REMARK SMILES IDX 85 46 36 47 88 48 82 49 81 50 37 52 69 53 49 54 68 55 50 56
REMARK SMILES IDX 53 57 67 58 86 59 51 60 52 61 66 63 87 64 54 65 38 66 39 67
REMARK SMILES IDX 47 68 40 69 41 70 45 71 48 72 42 73 43 74 46 75 44 76 70 77
REMARK SMILES IDX 71 78 79 79 72 80 73 81 77 82 80 83 74 84 75 85 78 86 76 87
REMARK SMILES IDX 55 88 56 89 64 90 57 91 58 92 62 93 65 94 59 95 60 96 63 97
REMARK SMILES IDX 61 98
REMARK H PARENT 7 16 10 18 93 26 85 51 53 62
REMARK Flexibility Score: inf
ROOT
ATOM      1  C   UNL A   1      33.612  28.609  25.923  1.00  0.00     0.188 C 
ENDROOT
BRANCH   1   2
ATOM      2  O   UNL A   1      33.974  27.814  24.805  1.00  0.00    -0.376 OA
BRANCH   2   3
ATOM      3  C   UNL A   1      34.054  28.417  23.522  1.00  0.00     0.202 C 
BRANCH   3   4
ATOM      4  C   UNL A   1      33.421  27.674  22.343  1.00  0.00     0.261 C 
BRANCH   4   5
ATOM      5  O   UNL A   1      31.986  27.732  22.375  1.00  0.00    -0.463 OA
BRANCH   5   6
ATOM      6  C   UNL A   1      31.326  26.576  22.095  1.00  0.00     0.312 C 
ATOM      7  O   UNL A   1      31.370  26.003  21.013  1.00  0.00    -0.252 OA
BRANCH   6   8
ATOM      8  C   UNL A   1      30.600  26.007  23.322  1.00  0.00     0.124 C 
ATOM      9  C   UNL A   1      31.192  25.239  25.617  1.00  0.00     0.107 C 
ATOM     10  C   UNL A   1      30.653  26.634  25.593  1.00  0.00    -0.006 C 
ATOM     11  C   UNL A   1      31.361  24.948  24.127  1.00  0.00     0.048 C 
ATOM     12  C   UNL A   1      30.346  27.055  24.360  1.00  0.00    -0.014 C 
BRANCH   9  13
ATOM     13  N   UNL A   1      30.244  24.365  26.273  1.00  0.00    -0.332 N 
ATOM     14  N   UNL A   1      31.495  22.566  27.194  1.00  0.00    -0.336 N 
ATOM     15  C   UNL A   1      30.359  23.256  27.016  1.00  0.00     0.315 C 
ATOM     16  H   UNL A   1      31.421  21.868  27.885  1.00  0.00     0.165 HD
ATOM     17  O   UNL A   1      29.344  22.828  27.569  1.00  0.00    -0.249 OA
ATOM     18  H   UNL A   1      29.309  24.648  26.146  1.00  0.00     0.165 HD
BRANCH  14  19
ATOM     19  C   UNL A   1      32.810  22.628  26.586  1.00  0.00     0.142 C 
BRANCH  19  20
ATOM     20  C   UNL A   1      32.978  21.789  25.308  1.00  0.00     0.101 C 
ATOM     21  O   UNL A   1      32.071  18.398  25.041  1.00  0.00    -0.275 OA
ATOM     22  C   UNL A   1      32.654  19.453  25.068  1.00  0.00     0.220 C 
ATOM     23  C   UNL A   1      34.112  19.684  24.778  1.00  0.00     0.102 C 
ATOM     24  N   UNL A   1      32.071  20.671  25.328  1.00  0.00    -0.352 N 
ATOM     25  C   UNL A   1      34.359  21.148  25.153  1.00  0.00     0.036 C 
ATOM     26  H   UNL A   1      31.109  20.771  25.512  1.00  0.00     0.163 HD
ENDBRANCH  19  20
ENDBRANCH  14  19
ENDBRANCH   9  13
ENDBRANCH   6   8
ENDBRANCH   5   6
ENDBRANCH   4   5
ENDBRANCH   3   4
ENDBRANCH   2   3
ENDBRANCH   1   2
BRANCH   1  27
ATOM     27  C   UNL A   1      32.524  29.691  25.806  1.00  0.00     0.188 C 
BRANCH  27  28
ATOM     28  O   UNL A   1      32.338  30.701  26.771  1.00  0.00    -0.376 OA
BRANCH  28  29
ATOM     29  C   UNL A   1      31.392  31.728  26.525  1.00  0.00     0.202 C 
BRANCH  29  30
ATOM     30  C   UNL A   1      31.762  33.157  26.920  1.00  0.00     0.261 C 
BRANCH  30  31
ATOM     31  O   UNL A   1      33.096  33.272  27.450  1.00  0.00    -0.460 OA
BRANCH  31  32
ATOM     32  C   UNL A   1      33.248  34.228  28.394  1.00  0.00     0.338 C 
ATOM     33  O   UNL A   1      32.501  35.157  28.647  1.00  0.00    -0.246 OA
BRANCH  32  34
ATOM     34  C   UNL A   1      34.402  33.941  29.251  1.00  0.00     0.060 A 
ATOM     35  C   UNL A   1      35.667  34.375  28.830  1.00  0.00     0.016 A 
ATOM     36  C   UNL A   1      34.254  33.122  30.368  1.00  0.00     0.016 A 
ATOM     37  C   UNL A   1      36.803  33.963  29.516  1.00  0.00     0.010 A 
ATOM     38  C   UNL A   1      35.396  32.700  31.046  1.00  0.00     0.010 A 
ATOM     39  C   UNL A   1      36.672  33.099  30.609  1.00  0.00    -0.014 A 
BRANCH  39  40
ATOM     40  C   UNL A   1      37.871  32.537  31.266  1.00  0.00     0.031 A 
ATOM     41  C   UNL A   1      38.582  31.381  30.628  1.00  0.00     0.074 A 
ATOM     42  C   UNL A   1      38.272  33.039  32.445  1.00  0.00     0.049 A 
ATOM     43  N   UNL A   1      39.536  30.628  31.111  1.00  0.00    -0.248 NA
ATOM     44  C   UNL A   1      38.155  31.016  29.267  1.00  0.00     0.031 C 
ATOM     45  C   UNL A   1      37.662  34.183  33.123  1.00  0.00     0.029 A 
ATOM     46  N   UNL A   1      39.264  32.630  33.297  1.00  0.00    -0.354 N 
ATOM     47  C   UNL A   1      39.804  29.684  30.127  1.00  0.00     0.074 A 
ATOM     48  C   UNL A   1      38.911  29.955  29.021  1.00  0.00     0.031 C 
ATOM     49  C   UNL A   1      38.272  34.363  34.307  1.00  0.00     0.029 A 
ATOM     50  C   UNL A   1      39.278  33.320  34.484  1.00  0.00     0.049 A 
ATOM     51  H   UNL A   1      39.904  31.914  33.079  1.00  0.00     0.167 HD
ATOM     52  C   UNL A   1      40.713  28.682  30.160  1.00  0.00     0.037 A 
ATOM     53  C   UNL A   1      39.990  33.097  35.604  1.00  0.00     0.037 A 
ATOM     54  C   UNL A   1      41.600  28.441  31.268  1.00  0.00     0.049 A 
ATOM     55  C   UNL A   1      40.965  31.949  35.625  1.00  0.00     0.074 A 
ATOM     56  C   UNL A   1      42.585  27.477  31.394  1.00  0.00     0.029 A 
ATOM     57  N   UNL A   1      41.601  29.172  32.449  1.00  0.00    -0.354 N 
ATOM     58  N   UNL A   1      41.233  31.074  34.686  1.00  0.00    -0.248 NA
ATOM     59  C   UNL A   1      41.737  31.759  36.859  1.00  0.00     0.031 C 
ATOM     60  C   UNL A   1      43.147  27.593  32.669  1.00  0.00     0.029 A 
ATOM     61  C   UNL A   1      42.552  28.663  33.318  1.00  0.00     0.049 A 
ATOM     62  H   UNL A   1      41.013  29.937  32.640  1.00  0.00     0.167 HD
ATOM     63  C   UNL A   1      42.221  30.248  35.203  1.00  0.00     0.074 A 
ATOM     64  C   UNL A   1      42.516  30.737  36.534  1.00  0.00     0.031 C 
ATOM     65  C   UNL A   1      42.829  29.178  34.633  1.00  0.00     0.037 A 
BRANCH  52  66
ATOM     66  C   UNL A   1      40.781  27.749  28.986  1.00  0.00     0.064 A 
ATOM     67  C   UNL A   1      41.733  27.907  27.968  1.00  0.00     0.173 A 
ATOM     68  C   UNL A   1      39.924  26.640  28.916  1.00  0.00     0.173 A 
ATOM     69  F   UNL A   1      42.568  28.956  27.980  1.00  0.00    -0.203 F 
ATOM     70  C   UNL A   1      41.816  26.993  26.918  1.00  0.00     0.198 A 
ATOM     71  C   UNL A   1      40.027  25.716  27.880  1.00  0.00     0.198 A 
ATOM     72  F   UNL A   1      38.996  26.442  29.865  1.00  0.00    -0.203 F 
ATOM     73  F   UNL A   1      42.713  27.179  25.940  1.00  0.00    -0.200 F 
ATOM     74  C   UNL A   1      40.971  25.895  26.880  1.00  0.00     0.200 A 
ATOM     75  F   UNL A   1      39.217  24.649  27.851  1.00  0.00    -0.200 F 
ATOM     76  F   UNL A   1      41.064  25.009  25.879  1.00  0.00    -0.200 F 
ENDBRANCH  52  66
BRANCH  53  77
ATOM     77  C   UNL A   1      39.780  33.949  36.803  1.00  0.00     0.064 A 
ATOM     78  C   UNL A   1      38.948  33.532  37.851  1.00  0.00     0.173 A 
ATOM     79  C   UNL A   1      40.392  35.207  36.919  1.00  0.00     0.173 A 
ATOM     80  F   UNL A   1      38.324  32.347  37.779  1.00  0.00    -0.203 F 
ATOM     81  C   UNL A   1      38.716  34.350  38.955  1.00  0.00     0.198 A 
ATOM     82  C   UNL A   1      40.185  36.010  38.038  1.00  0.00     0.198 A 
ATOM     83  F   UNL A   1      41.200  35.653  35.946  1.00  0.00    -0.203 F 
ATOM     84  F   UNL A   1      37.872  33.950  39.916  1.00  0.00    -0.200 F 
ATOM     85  C   UNL A   1      39.338  35.586  39.051  1.00  0.00     0.200 A 
ATOM     86  F   UNL A   1      40.801  37.196  38.133  1.00  0.00    -0.200 F 
ATOM     87  F   UNL A   1      39.115  36.372  40.113  1.00  0.00    -0.200 F 
ENDBRANCH  53  77
BRANCH  65  88
ATOM     88  C   UNL A   1      43.900  28.496  35.433  1.00  0.00     0.064 A 
ATOM     89  C   UNL A   1      43.599  27.472  36.343  1.00  0.00     0.173 A 
ATOM     90  C   UNL A   1      45.246  28.846  35.257  1.00  0.00     0.173 A 
ATOM     91  F   UNL A   1      42.324  27.114  36.558  1.00  0.00    -0.203 F 
ATOM     92  C   UNL A   1      44.607  26.842  37.067  1.00  0.00     0.198 A 
ATOM     93  C   UNL A   1      46.254  28.193  35.959  1.00  0.00     0.198 A 
ATOM     94  F   UNL A   1      45.586  29.814  34.392  1.00  0.00    -0.203 F 
ATOM     95  F   UNL A   1      44.293  25.901  37.968  1.00  0.00    -0.200 F 
ATOM     96  C   UNL A   1      45.933  27.197  36.869  1.00  0.00     0.200 A 
ATOM     97  F   UNL A   1      47.535  28.527  35.755  1.00  0.00    -0.200 F 
ATOM     98  F   UNL A   1      46.902  26.584  37.562  1.00  0.00    -0.200 F 
ENDBRANCH  65  88
ENDBRANCH  39  40
ENDBRANCH  32  34
ENDBRANCH  31  32
ENDBRANCH  30  31
ENDBRANCH  29  30
ENDBRANCH  28  29
ENDBRANCH  27  28
ENDBRANCH   1  27
TORSDOF 20
ENDMDL
MODEL 3
REMARK VINA RESULT:     -11.1      2.032      3.740
REMARK SMILES O=C1CC[C@H](CNC(=O)N[C@@H]2C=C[C@@H](C(=O)OCCOCCOCCOC(=O)c3ccc(-c4c5nc(c(-c6c(F)c(F)c(F)c(F)c6F)c6ccc([nH]6)c(-c6c(F)c(F)c(F)c(F)c6F)c6nc(c(-c7c(F)c(F)c(F)c(F)c7F)c7ccc4[nH]7)C=C6)C=C5)cc3)C2)N1
REMARK SMILES IDX 21 1 20 2 19 3 18 4 17 5 15 6 16 7 14 8 11 9 12 10 92 11
REMARK SMILES IDX 13 12 10 13 7 14 8 15 9 17 6 19 5 20 1 21 2 22 3 23 93 24
REMARK SMILES IDX 4 25 22 27 23 28 24 29 25 30 26 31 27 32 28 33 29 34 30 35
REMARK SMILES IDX 91 36 31 37 90 38 32 39 33 40 34 41 84 42 35 43 89 44 83 45
REMARK SMILES IDX 85 46 36 47 88 48 82 49 81 50 37 52 69 53 49 54 68 55 50 56
REMARK SMILES IDX 53 57 67 58 86 59 51 60 52 61 66 63 87 64 54 65 38 66 39 67
REMARK SMILES IDX 47 68 40 69 41 70 45 71 48 72 42 73 43 74 46 75 44 76 70 77
REMARK SMILES IDX 71 78 79 79 72 80 73 81 77 82 80 83 74 84 75 85 78 86 76 87
REMARK SMILES IDX 55 88 56 89 64 90 57 91 58 92 62 93 65 94 59 95 60 96 63 97
REMARK SMILES IDX 61 98
REMARK H PARENT 7 16 10 18 93 26 85 51 53 62
REMARK Flexibility Score: inf
ROOT
ATOM      1  C   UNL A   1      43.079  19.487  25.735  1.00  0.00     0.188 C 
ENDROOT
BRANCH   1   2
ATOM      2  O   UNL A   1      41.810  18.860  25.832  1.00  0.00    -0.376 OA
BRANCH   2   3
ATOM      3  C   UNL A   1      40.736  19.558  26.443  1.00  0.00     0.202 C 
BRANCH   3   4
ATOM      4  C   UNL A   1      40.156  20.766  25.703  1.00  0.00     0.261 C 
BRANCH   4   5
ATOM      5  O   UNL A   1      38.912  21.204  26.273  1.00  0.00    -0.463 OA
BRANCH   5   6
ATOM      6  C   UNL A   1      38.611  22.523  26.131  1.00  0.00     0.312 C 
ATOM      7  O   UNL A   1      39.348  23.438  26.481  1.00  0.00    -0.252 OA
BRANCH   6   8
ATOM      8  C   UNL A   1      37.288  22.742  25.385  1.00  0.00     0.124 C 
ATOM      9  C   UNL A   1      34.951  21.888  25.496  1.00  0.00     0.107 C 
ATOM     10  C   UNL A   1      35.116  23.211  26.171  1.00  0.00    -0.006 C 
ATOM     11  C   UNL A   1      36.401  21.506  25.204  1.00  0.00     0.048 C 
ATOM     12  C   UNL A   1      36.374  23.668  26.124  1.00  0.00    -0.014 C 
BRANCH   9  13
ATOM     13  N   UNL A   1      34.145  22.048  24.305  1.00  0.00    -0.332 N 
ATOM     14  N   UNL A   1      32.516  20.317  24.342  1.00  0.00    -0.336 N 
ATOM     15  C   UNL A   1      33.054  21.433  23.829  1.00  0.00     0.315 C 
ATOM     16  H   UNL A   1      31.638  20.095  23.954  1.00  0.00     0.165 HD
ATOM     17  O   UNL A   1      32.507  21.921  22.838  1.00  0.00    -0.249 OA
ATOM     18  H   UNL A   1      34.470  22.767  23.716  1.00  0.00     0.165 HD
BRANCH  14  19
ATOM     19  C   UNL A   1      32.951  19.367  25.347  1.00  0.00     0.142 C 
BRANCH  19  20
ATOM     20  C   UNL A   1      32.790  17.887  24.959  1.00  0.00     0.101 C 
ATOM     21  O   UNL A   1      35.299  15.453  25.376  1.00  0.00    -0.275 OA
ATOM     22  C   UNL A   1      34.468  16.212  24.945  1.00  0.00     0.220 C 
ATOM     23  C   UNL A   1      34.030  16.350  23.512  1.00  0.00     0.102 C 
ATOM     24  N   UNL A   1      33.716  17.076  25.706  1.00  0.00    -0.352 N 
ATOM     25  C   UNL A   1      33.118  17.579  23.496  1.00  0.00     0.036 C 
ATOM     26  H   UNL A   1      33.804  17.135  26.685  1.00  0.00     0.163 HD
ENDBRANCH  19  20
ENDBRANCH  14  19
ENDBRANCH   9  13
ENDBRANCH   6   8
ENDBRANCH   5   6
ENDBRANCH   4   5
ENDBRANCH   3   4
ENDBRANCH   2   3
ENDBRANCH   1   2
BRANCH   1  27
ATOM     27  C   UNL A   1      44.115  19.023  24.697  1.00  0.00     0.188 C 
BRANCH  27  28
ATOM     28  O   UNL A   1      44.752  19.903  23.798  1.00  0.00    -0.376 OA
BRANCH  28  29
ATOM     29  C   UNL A   1      45.601  20.917  24.306  1.00  0.00     0.202 C 
BRANCH  29  30
ATOM     30  C   UNL A   1      45.123  22.366  24.221  1.00  0.00     0.261 C 
BRANCH  30  31
ATOM     31  O   UNL A   1      44.802  22.934  25.505  1.00  0.00    -0.460 OA
BRANCH  31  32
ATOM     32  C   UNL A   1      43.550  23.435  25.603  1.00  0.00     0.338 C 
ATOM     33  O   UNL A   1      42.570  23.139  24.942  1.00  0.00    -0.246 OA
BRANCH  32  34
ATOM     34  C   UNL A   1      43.429  24.323  26.764  1.00  0.00     0.060 A 
ATOM     35  C   UNL A   1      42.525  23.974  27.777  1.00  0.00     0.016 A 
ATOM     36  C   UNL A   1      44.081  25.554  26.770  1.00  0.00     0.016 A 
ATOM     37  C   UNL A   1      42.246  24.877  28.796  1.00  0.00     0.010 A 
ATOM     38  C   UNL A   1      43.789  26.462  27.786  1.00  0.00     0.010 A 
ATOM     39  C   UNL A   1      42.855  26.136  28.786  1.00  0.00    -0.014 A 
BRANCH  39  40
ATOM     40  C   UNL A   1      42.469  27.161  29.778  1.00  0.00     0.031 A 
ATOM     41  C   UNL A   1      43.189  27.215  31.093  1.00  0.00     0.074 A 
ATOM     42  C   UNL A   1      41.449  27.991  29.506  1.00  0.00     0.049 A 
ATOM     43  N   UNL A   1      42.903  27.907  32.165  1.00  0.00    -0.248 NA
ATOM     44  C   UNL A   1      44.387  26.370  31.223  1.00  0.00     0.031 C 
ATOM     45  C   UNL A   1      40.713  28.032  28.242  1.00  0.00     0.029 A 
ATOM     46  N   UNL A   1      40.834  28.934  30.287  1.00  0.00    -0.354 N 
ATOM     47  C   UNL A   1      43.866  27.561  33.105  1.00  0.00     0.074 A 
ATOM     48  C   UNL A   1      44.743  26.595  32.480  1.00  0.00     0.031 C 
ATOM     49  C   UNL A   1      39.720  28.930  28.346  1.00  0.00     0.029 A 
ATOM     50  C   UNL A   1      39.726  29.488  29.696  1.00  0.00     0.049 A 
ATOM     51  H   UNL A   1      41.155  29.189  31.182  1.00  0.00     0.167 HD
ATOM     52  C   UNL A   1      43.992  28.012  34.374  1.00  0.00     0.037 A 
ATOM     53  C   UNL A   1      38.795  30.314  30.209  1.00  0.00     0.037 A 
ATOM     54  C   UNL A   1      43.113  28.985  34.969  1.00  0.00     0.049 A 
ATOM     55  C   UNL A   1      38.940  30.767  31.638  1.00  0.00     0.074 A 
ATOM     56  C   UNL A   1      43.168  29.541  36.235  1.00  0.00     0.029 A 
ATOM     57  N   UNL A   1      42.010  29.541  34.335  1.00  0.00    -0.354 N 
ATOM     58  N   UNL A   1      39.863  30.456  32.515  1.00  0.00    -0.248 NA
ATOM     59  C   UNL A   1      37.914  31.686  32.147  1.00  0.00     0.031 C 
ATOM     60  C   UNL A   1      42.071  30.394  36.384  1.00  0.00     0.029 A 
ATOM     61  C   UNL A   1      41.363  30.414  35.193  1.00  0.00     0.049 A 
ATOM     62  H   UNL A   1      41.730  29.344  33.412  1.00  0.00     0.167 HD
ATOM     63  C   UNL A   1      39.547  31.160  33.669  1.00  0.00     0.074 A 
ATOM     64  C   UNL A   1      38.354  31.927  33.374  1.00  0.00     0.031 C 
ATOM     65  C   UNL A   1      40.182  31.172  34.867  1.00  0.00     0.037 A 
BRANCH  52  66
ATOM     66  C   UNL A   1      45.092  27.444  35.222  1.00  0.00     0.064 A 
ATOM     67  C   UNL A   1      46.352  28.055  35.309  1.00  0.00     0.173 A 
ATOM     68  C   UNL A   1      44.859  26.308  36.013  1.00  0.00     0.173 A 
ATOM     69  F   UNL A   1      46.631  29.135  34.565  1.00  0.00    -0.203 F 
ATOM     70  C   UNL A   1      47.340  27.543  36.149  1.00  0.00     0.198 A 
ATOM     71  C   UNL A   1      45.839  25.816  36.870  1.00  0.00     0.198 A 
ATOM     72  F   UNL A   1      43.671  25.687  35.968  1.00  0.00    -0.203 F 
ATOM     73  F   UNL A   1      48.546  28.125  36.194  1.00  0.00    -0.200 F 
ATOM     74  C   UNL A   1      47.079  26.432  36.935  1.00  0.00     0.200 A 
ATOM     75  F   UNL A   1      45.581  24.747  37.637  1.00  0.00    -0.200 F 
ATOM     76  F   UNL A   1      48.025  25.951  37.754  1.00  0.00    -0.200 F 
ENDBRANCH  52  66
BRANCH  53  77
ATOM     77  C   UNL A   1      37.631  30.731  29.384  1.00  0.00     0.064 A 
ATOM     78  C   UNL A   1      37.526  32.038  28.889  1.00  0.00     0.173 A 
ATOM     79  C   UNL A   1      36.592  29.836  29.087  1.00  0.00     0.173 A 
ATOM     80  F   UNL A   1      38.483  32.936  29.163  1.00  0.00    -0.203 F 
ATOM     81  C   UNL A   1      36.414  32.440  28.152  1.00  0.00     0.198 A 
ATOM     82  C   UNL A   1      35.496  30.230  28.322  1.00  0.00     0.198 A 
ATOM     83  F   UNL A   1      36.645  28.572  29.533  1.00  0.00    -0.203 F 
ATOM     84  F   UNL A   1      36.311  33.711  27.739  1.00  0.00    -0.200 F 
ATOM     85  C   UNL A   1      35.402  31.536  27.865  1.00  0.00     0.200 A 
ATOM     86  F   UNL A   1      34.530  29.348  28.034  1.00  0.00    -0.200 F 
ATOM     87  F   UNL A   1      34.333  31.924  27.156  1.00  0.00    -0.200 F 
ENDBRANCH  53  77
BRANCH  65  88
ATOM     88  C   UNL A   1      39.620  32.070  35.929  1.00  0.00     0.064 A 
ATOM     89  C   UNL A   1      38.570  31.659  36.761  1.00  0.00     0.173 A 
ATOM     90  C   UNL A   1      40.167  33.345  36.139  1.00  0.00     0.173 A 
ATOM     91  F   UNL A   1      38.003  30.455  36.588  1.00  0.00    -0.203 F 
ATOM     92  C   UNL A   1      38.070  32.503  37.749  1.00  0.00     0.198 A 
ATOM     93  C   UNL A   1      39.686  34.173  37.148  1.00  0.00     0.198 A 
ATOM     94  F   UNL A   1      41.180  33.782  35.373  1.00  0.00    -0.203 F 
ATOM     95  F   UNL A   1      37.033  32.109  38.500  1.00  0.00    -0.200 F 
ATOM     96  C   UNL A   1      38.634  33.755  37.946  1.00  0.00     0.200 A 
ATOM     97  F   UNL A   1      40.242  35.376  37.347  1.00  0.00    -0.200 F 
ATOM     98  F   UNL A   1      38.155  34.562  38.903  1.00  0.00    -0.200 F 
ENDBRANCH  65  88
ENDBRANCH  39  40
ENDBRANCH  32  34
ENDBRANCH  31  32
ENDBRANCH  30  31
ENDBRANCH  29  30
ENDBRANCH  28  29
ENDBRANCH  27  28
ENDBRANCH   1  27
TORSDOF 20
ENDMDL
