MODEL 1
REMARK VINA RESULT:     -11.8      0.000      0.000
REMARK SMILES O=C(C[C@@H](C(=O)OCCOCCOCCOC(=O)c1ccc(-c2c3nc(c(-c4c(F)c(F)c(F)c(F)c4F)c4ccc([nH]4)c(-c4c(F)c(F)c(F)c(F)c4F)c4nc(c(-c5c(F)c(F)c(F)c(F)c5F)c5ccc2[nH]5)C=C4)C=C3)cc1)[NH+]1CCN(c2cccc(Cl)c2)CC1)c1ccc(F)cc1
REMARK SMILES IDX 11 1 10 2 9 3 8 4 7 5 5 6 6 7 4 8 3 9 2 10 1 11 95 12 96 13
REMARK SMILES IDX 101 14 97 15 100 16 98 17 99 18 82 19 83 20 94 21 84 23
REMARK SMILES IDX 93 24 85 25 86 26 87 27 92 28 88 29 90 30 89 31 91 32 12 33
REMARK SMILES IDX 13 34 14 35 15 36 16 37 17 38 18 39 19 40 20 41 81 42 21 43
REMARK SMILES IDX 80 44 22 45 23 46 24 47 74 48 25 49 79 50 73 51 75 52 26 53
REMARK SMILES IDX 78 54 72 55 71 56 27 58 59 59 39 60 58 61 40 62 43 63 57 64
REMARK SMILES IDX 76 65 41 66 42 67 56 69 77 70 44 71 28 72 29 73 37 74 30 75
REMARK SMILES IDX 31 76 35 77 38 78 32 79 33 80 36 81 34 82 60 83 61 84 69 85
REMARK SMILES IDX 62 86 63 87 67 88 70 89 64 90 65 91 68 92 66 93 45 94 46 95
REMARK SMILES IDX 54 96 47 97 48 98 52 99 55 100 49 101 50 102 53 103 51 104
REMARK H PARENT 82 22 75 57 43 68
REMARK Flexibility Score: inf
ROOT
ATOM      1  C   UNL A   1      33.590  27.097  26.034  1.00  0.00     0.188 C 
ENDROOT
BRANCH   1   2
ATOM      2  O   UNL A   1      32.729  25.980  25.873  1.00  0.00    -0.376 OA
BRANCH   2   3
ATOM      3  C   UNL A   1      31.401  26.104  26.377  1.00  0.00     0.202 C 
BRANCH   3   4
ATOM      4  C   UNL A   1      30.344  25.284  25.632  1.00  0.00     0.261 C 
BRANCH   4   5
ATOM      5  O   UNL A   1      30.791  23.918  25.456  1.00  0.00    -0.459 OA
BRANCH   5   6
ATOM      6  C   UNL A   1      31.090  23.559  24.179  1.00  0.00     0.365 C 
ATOM      7  O   UNL A   1      30.506  24.018  23.202  1.00  0.00    -0.245 OA
BRANCH   6   8
ATOM      8  C   UNL A   1      32.304  22.582  24.074  1.00  0.00     0.303 C 
BRANCH   8   9
ATOM      9  C   UNL A   1      32.059  21.143  24.578  1.00  0.00     0.158 C 
BRANCH   9  10
ATOM     10  C   UNL A   1      32.274  20.069  23.531  1.00  0.00     0.169 C 
ATOM     11  O   UNL A   1      32.097  20.273  22.336  1.00  0.00    -0.294 OA
BRANCH  10  12
ATOM     12  C   UNL A   1      32.687  18.718  23.977  1.00  0.00     0.018 A 
ATOM     13  C   UNL A   1      32.603  18.431  25.344  1.00  0.00     0.015 A 
ATOM     14  C   UNL A   1      33.146  17.751  23.075  1.00  0.00     0.015 A 
ATOM     15  C   UNL A   1      33.054  17.203  25.824  1.00  0.00     0.040 A 
ATOM     16  C   UNL A   1      33.568  16.508  23.562  1.00  0.00     0.040 A 
ATOM     17  C   UNL A   1      33.542  16.256  24.931  1.00  0.00     0.123 A 
ATOM     18  F   UNL A   1      34.000  15.088  25.400  1.00  0.00    -0.207 F 
ENDBRANCH  10  12
ENDBRANCH   9  10
ENDBRANCH   8   9
BRANCH   8  19
ATOM     19  N   UNL A   1      33.467  23.288  24.680  1.00  0.00    -0.320 N 
ATOM     20  C   UNL A   1      34.056  22.724  25.892  1.00  0.00     0.284 C 
ATOM     21  C   UNL A   1      34.509  23.800  23.770  1.00  0.00     0.284 C 
ATOM     22  H   UNL A   1      32.941  24.106  24.988  1.00  0.00     0.348 HD
ATOM     23  C   UNL A   1      35.158  21.686  25.616  1.00  0.00     0.178 C 
ATOM     24  C   UNL A   1      35.865  23.030  23.660  1.00  0.00     0.178 C 
ATOM     25  N   UNL A   1      36.244  22.330  24.895  1.00  0.00    -0.360 N 
BRANCH  25  26
ATOM     26  C   UNL A   1      37.425  22.496  25.592  1.00  0.00     0.038 A 
ATOM     27  C   UNL A   1      37.730  23.756  26.145  1.00  0.00     0.026 A 
ATOM     28  C   UNL A   1      38.402  21.500  25.677  1.00  0.00     0.046 A 
ATOM     29  C   UNL A   1      38.969  24.032  26.726  1.00  0.00     0.004 A 
ATOM     30  C   UNL A   1      39.651  21.779  26.247  1.00  0.00     0.043 A 
ATOM     31  C   UNL A   1      39.941  23.039  26.767  1.00  0.00     0.020 A 
ATOM     32  Cl  UNL A   1      40.868  20.561  26.267  1.00  0.00    -0.084 Cl
ENDBRANCH  25  26
ENDBRANCH   8  19
ENDBRANCH   6   8
ENDBRANCH   5   6
ENDBRANCH   4   5
ENDBRANCH   3   4
ENDBRANCH   2   3
ENDBRANCH   1   2
BRANCH   1  33
ATOM     33  C   UNL A   1      33.764  28.043  24.835  1.00  0.00     0.188 C 
BRANCH  33  34
ATOM     34  O   UNL A   1      33.245  29.358  24.884  1.00  0.00    -0.376 OA
BRANCH  34  35
ATOM     35  C   UNL A   1      31.976  29.538  25.493  1.00  0.00     0.202 C 
BRANCH  35  36
ATOM     36  C   UNL A   1      31.883  30.748  26.424  1.00  0.00     0.261 C 
BRANCH  36  37
ATOM     37  O   UNL A   1      32.844  30.657  27.497  1.00  0.00    -0.460 OA
BRANCH  37  38
ATOM     38  C   UNL A   1      33.664  31.717  27.635  1.00  0.00     0.338 C 
ATOM     39  O   UNL A   1      33.342  32.905  27.719  1.00  0.00    -0.246 OA
BRANCH  38  40
ATOM     40  C   UNL A   1      35.029  31.266  27.933  1.00  0.00     0.060 A 
ATOM     41  C   UNL A   1      35.228  29.887  28.061  1.00  0.00     0.016 A 
ATOM     42  C   UNL A   1      36.072  32.149  28.196  1.00  0.00     0.016 A 
ATOM     43  C   UNL A   1      36.450  29.370  28.477  1.00  0.00     0.010 A 
ATOM     44  C   UNL A   1      37.297  31.635  28.645  1.00  0.00     0.010 A 
ATOM     45  C   UNL A   1      37.479  30.247  28.823  1.00  0.00    -0.014 A 
BRANCH  45  46
ATOM     46  C   UNL A   1      38.628  29.738  29.613  1.00  0.00     0.031 A 
ATOM     47  C   UNL A   1      38.806  30.271  31.007  1.00  0.00     0.074 A 
ATOM     48  C   UNL A   1      39.462  28.792  29.147  1.00  0.00     0.049 A 
ATOM     49  N   UNL A   1      39.824  30.169  31.820  1.00  0.00    -0.248 NA
ATOM     50  C   UNL A   1      37.672  31.035  31.557  1.00  0.00     0.031 C 
ATOM     51  C   UNL A   1      39.326  28.090  27.875  1.00  0.00     0.029 A 
ATOM     52  N   UNL A   1      40.604  28.267  29.702  1.00  0.00    -0.354 N 
ATOM     53  C   UNL A   1      39.471  30.885  32.956  1.00  0.00     0.074 A 
ATOM     54  C   UNL A   1      38.148  31.423  32.730  1.00  0.00     0.031 C 
ATOM     55  C   UNL A   1      40.360  27.240  27.733  1.00  0.00     0.029 A 
ATOM     56  C   UNL A   1      41.261  27.389  28.875  1.00  0.00     0.049 A 
ATOM     57  H   UNL A   1      40.921  28.499  30.604  1.00  0.00     0.167 HD
ATOM     58  C   UNL A   1      40.192  31.080  34.084  1.00  0.00     0.037 A 
ATOM     59  C   UNL A   1      42.474  26.815  29.009  1.00  0.00     0.037 A 
ATOM     60  C   UNL A   1      41.497  30.521  34.311  1.00  0.00     0.049 A 
ATOM     61  C   UNL A   1      43.303  27.124  30.234  1.00  0.00     0.074 A 
ATOM     62  C   UNL A   1      42.338  30.696  35.395  1.00  0.00     0.029 A 
ATOM     63  N   UNL A   1      42.142  29.659  33.437  1.00  0.00    -0.354 N 
ATOM     64  N   UNL A   1      43.011  27.875  31.270  1.00  0.00    -0.248 NA
ATOM     65  C   UNL A   1      44.638  26.513  30.304  1.00  0.00     0.031 C 
ATOM     66  C   UNL A   1      43.509  29.969  35.161  1.00  0.00     0.029 A 
ATOM     67  C   UNL A   1      43.373  29.297  33.957  1.00  0.00     0.049 A 
ATOM     68  H   UNL A   1      41.779  29.350  32.575  1.00  0.00     0.167 HD
ATOM     69  C   UNL A   1      44.102  27.791  32.127  1.00  0.00     0.074 A 
ATOM     70  C   UNL A   1      45.061  26.910  31.495  1.00  0.00     0.031 C 
ATOM     71  C   UNL A   1      44.297  28.389  33.328  1.00  0.00     0.037 A 
BRANCH  58  72
ATOM     72  C   UNL A   1      39.603  31.968  35.140  1.00  0.00     0.064 A 
ATOM     73  C   UNL A   1      38.834  31.456  36.194  1.00  0.00     0.173 A 
ATOM     74  C   UNL A   1      39.838  33.351  35.109  1.00  0.00     0.173 A 
ATOM     75  F   UNL A   1      38.559  30.143  36.254  1.00  0.00    -0.203 F 
ATOM     76  C   UNL A   1      38.309  32.297  37.171  1.00  0.00     0.198 A 
ATOM     77  C   UNL A   1      39.336  34.186  36.103  1.00  0.00     0.198 A 
ATOM     78  F   UNL A   1      40.563  33.892  34.119  1.00  0.00    -0.203 F 
ATOM     79  F   UNL A   1      37.538  31.793  38.144  1.00  0.00    -0.200 F 
ATOM     80  C   UNL A   1      38.567  33.659  37.129  1.00  0.00     0.200 A 
ATOM     81  F   UNL A   1      39.595  35.501  36.065  1.00  0.00    -0.200 F 
ATOM     82  F   UNL A   1      38.068  34.468  38.075  1.00  0.00    -0.200 F 
ENDBRANCH  58  72
BRANCH  59  83
ATOM     83  C   UNL A   1      43.026  25.945  27.933  1.00  0.00     0.064 A 
ATOM     84  C   UNL A   1      42.915  24.549  27.996  1.00  0.00     0.173 A 
ATOM     85  C   UNL A   1      43.744  26.489  26.856  1.00  0.00     0.173 A 
ATOM     86  F   UNL A   1      42.267  23.974  29.022  1.00  0.00    -0.203 F 
ATOM     87  C   UNL A   1      43.529  23.731  27.048  1.00  0.00     0.198 A 
ATOM     88  C   UNL A   1      44.326  25.672  25.889  1.00  0.00     0.198 A 
ATOM     89  F   UNL A   1      43.892  27.818  26.748  1.00  0.00    -0.203 F 
ATOM     90  F   UNL A   1      43.470  22.398  27.178  1.00  0.00    -0.200 F 
ATOM     91  C   UNL A   1      44.232  24.293  25.994  1.00  0.00     0.200 A 
ATOM     92  F   UNL A   1      44.998  26.222  24.867  1.00  0.00    -0.200 F 
ATOM     93  F   UNL A   1      44.831  23.507  25.089  1.00  0.00    -0.200 F 
ENDBRANCH  59  83
BRANCH  71  94
ATOM     94  C   UNL A   1      45.557  28.054  34.075  1.00  0.00     0.064 A 
ATOM     95  C   UNL A   1      46.744  28.777  33.891  1.00  0.00     0.173 A 
ATOM     96  C   UNL A   1      45.555  27.022  35.027  1.00  0.00     0.173 A 
ATOM     97  F   UNL A   1      46.800  29.766  32.986  1.00  0.00    -0.203 F 
ATOM     98  C   UNL A   1      47.892  28.459  34.610  1.00  0.00     0.198 A 
ATOM     99  C   UNL A   1      46.696  26.729  35.768  1.00  0.00     0.198 A 
ATOM    100  F   UNL A   1      44.442  26.308  35.250  1.00  0.00    -0.203 F 
ATOM    101  F   UNL A   1      49.030  29.130  34.383  1.00  0.00    -0.200 F 
ATOM    102  C   UNL A   1      47.866  27.441  35.554  1.00  0.00     0.200 A 
ATOM    103  F   UNL A   1      46.663  25.758  36.690  1.00  0.00    -0.200 F 
ATOM    104  F   UNL A   1      48.971  27.144  36.251  1.00  0.00    -0.200 F 
ENDBRANCH  71  94
ENDBRANCH  45  46
ENDBRANCH  38  40
ENDBRANCH  37  38
ENDBRANCH  36  37
ENDBRANCH  35  36
ENDBRANCH  34  35
ENDBRANCH  33  34
ENDBRANCH   1  33
TORSDOF 22
ENDMDL
MODEL 2
REMARK VINA RESULT:     -11.7      1.029      7.048
REMARK SMILES O=C(C[C@@H](C(=O)OCCOCCOCCOC(=O)c1ccc(-c2c3nc(c(-c4c(F)c(F)c(F)c(F)c4F)c4ccc([nH]4)c(-c4c(F)c(F)c(F)c(F)c4F)c4nc(c(-c5c(F)c(F)c(F)c(F)c5F)c5ccc2[nH]5)C=C4)C=C3)cc1)[NH+]1CCN(c2cccc(Cl)c2)CC1)c1ccc(F)cc1
REMARK SMILES IDX 11 1 10 2 9 3 8 4 7 5 5 6 6 7 4 8 3 9 2 10 1 11 95 12 96 13
REMARK SMILES IDX 101 14 97 15 100 16 98 17 99 18 82 19 83 20 94 21 84 23
REMARK SMILES IDX 93 24 85 25 86 26 87 27 92 28 88 29 90 30 89 31 91 32 12 33
REMARK SMILES IDX 13 34 14 35 15 36 16 37 17 38 18 39 19 40 20 41 81 42 21 43
REMARK SMILES IDX 80 44 22 45 23 46 24 47 74 48 25 49 79 50 73 51 75 52 26 53
REMARK SMILES IDX 78 54 72 55 71 56 27 58 59 59 39 60 58 61 40 62 43 63 57 64
REMARK SMILES IDX 76 65 41 66 42 67 56 69 77 70 44 71 28 72 29 73 37 74 30 75
REMARK SMILES IDX 31 76 35 77 38 78 32 79 33 80 36 81 34 82 60 83 61 84 69 85
REMARK SMILES IDX 62 86 63 87 67 88 70 89 64 90 65 91 68 92 66 93 45 94 46 95
REMARK SMILES IDX 54 96 47 97 48 98 52 99 55 100 49 101 50 102 53 103 51 104
REMARK H PARENT 82 22 75 57 43 68
REMARK Flexibility Score: inf
ROOT
ATOM      1  C   UNL A   1      33.594  27.615  22.316  1.00  0.00     0.188 C 
ENDROOT
BRANCH   1   2
ATOM      2  O   UNL A   1      33.135  26.350  22.772  1.00  0.00    -0.376 OA
BRANCH   2   3
ATOM      3  C   UNL A   1      31.727  26.125  22.758  1.00  0.00     0.202 C 
BRANCH   3   4
ATOM      4  C   UNL A   1      31.282  24.760  23.292  1.00  0.00     0.261 C 
BRANCH   4   5
ATOM      5  O   UNL A   1      30.581  24.911  24.551  1.00  0.00    -0.459 OA
BRANCH   5   6
ATOM      6  C   UNL A   1      31.120  24.240  25.604  1.00  0.00     0.365 C 
ATOM      7  O   UNL A   1      30.735  24.392  26.760  1.00  0.00    -0.245 OA
BRANCH   6   8
ATOM      8  C   UNL A   1      32.207  23.199  25.189  1.00  0.00     0.303 C 
BRANCH   8   9
ATOM      9  C   UNL A   1      31.780  21.716  25.244  1.00  0.00     0.158 C 
BRANCH   9  10
ATOM     10  C   UNL A   1      32.156  20.911  24.018  1.00  0.00     0.169 C 
ATOM     11  O   UNL A   1      32.156  21.393  22.891  1.00  0.00    -0.294 OA
BRANCH  10  12
ATOM     12  C   UNL A   1      32.510  19.483  24.189  1.00  0.00     0.018 A 
ATOM     13  C   UNL A   1      32.692  18.716  23.032  1.00  0.00     0.015 A 
ATOM     14  C   UNL A   1      32.664  18.906  25.455  1.00  0.00     0.015 A 
ATOM     15  C   UNL A   1      32.949  17.350  23.139  1.00  0.00     0.040 A 
ATOM     16  C   UNL A   1      32.952  17.540  25.554  1.00  0.00     0.040 A 
ATOM     17  C   UNL A   1      33.067  16.771  24.398  1.00  0.00     0.123 A 
ATOM     18  F   UNL A   1      33.286  15.454  24.496  1.00  0.00    -0.207 F 
ENDBRANCH  10  12
ENDBRANCH   9  10
ENDBRANCH   8   9
BRANCH   8  19
ATOM     19  N   UNL A   1      33.436  23.545  25.955  1.00  0.00    -0.320 N 
ATOM     20  C   UNL A   1      34.184  22.456  26.580  1.00  0.00     0.284 C 
ATOM     21  C   UNL A   1      34.346  24.551  25.377  1.00  0.00     0.284 C 
ATOM     22  H   UNL A   1      32.952  24.015  26.720  1.00  0.00     0.348 HD
ATOM     23  C   UNL A   1      35.245  21.829  25.658  1.00  0.00     0.178 C 
ATOM     24  C   UNL A   1      35.679  24.077  24.713  1.00  0.00     0.178 C 
ATOM     25  N   UNL A   1      36.223  22.846  25.303  1.00  0.00    -0.360 N 
BRANCH  25  26
ATOM     26  C   UNL A   1      37.485  22.693  25.843  1.00  0.00     0.038 A 
ATOM     27  C   UNL A   1      38.136  23.810  26.406  1.00  0.00     0.026 A 
ATOM     28  C   UNL A   1      38.209  21.502  25.753  1.00  0.00     0.046 A 
ATOM     29  C   UNL A   1      39.465  23.760  26.828  1.00  0.00     0.004 A 
ATOM     30  C   UNL A   1      39.548  21.453  26.163  1.00  0.00     0.043 A 
ATOM     31  C   UNL A   1      40.180  22.576  26.695  1.00  0.00     0.020 A 
ATOM     32  Cl  UNL A   1      40.446  19.997  25.966  1.00  0.00    -0.084 Cl
ENDBRANCH  25  26
ENDBRANCH   8  19
ENDBRANCH   6   8
ENDBRANCH   5   6
ENDBRANCH   4   5
ENDBRANCH   3   4
ENDBRANCH   2   3
ENDBRANCH   1   2
BRANCH   1  33
ATOM     33  C   UNL A   1      33.958  28.667  23.376  1.00  0.00     0.188 C 
BRANCH  33  34
ATOM     34  O   UNL A   1      33.306  28.669  24.631  1.00  0.00    -0.376 OA
BRANCH  34  35
ATOM     35  C   UNL A   1      32.052  29.327  24.715  1.00  0.00     0.202 C 
BRANCH  35  36
ATOM     36  C   UNL A   1      31.728  29.905  26.094  1.00  0.00     0.261 C 
BRANCH  36  37
ATOM     37  O   UNL A   1      32.884  29.872  26.959  1.00  0.00    -0.460 OA
BRANCH  37  38
ATOM     38  C   UNL A   1      33.443  31.068  27.228  1.00  0.00     0.338 C 
ATOM     39  O   UNL A   1      32.872  32.157  27.319  1.00  0.00    -0.246 OA
BRANCH  38  40
ATOM     40  C   UNL A   1      34.835  30.890  27.662  1.00  0.00     0.060 A 
ATOM     41  C   UNL A   1      35.244  29.586  27.963  1.00  0.00     0.016 A 
ATOM     42  C   UNL A   1      35.695  31.960  27.885  1.00  0.00     0.016 A 
ATOM     43  C   UNL A   1      36.495  29.330  28.512  1.00  0.00     0.010 A 
ATOM     44  C   UNL A   1      36.946  31.712  28.468  1.00  0.00     0.010 A 
ATOM     45  C   UNL A   1      37.336  30.401  28.817  1.00  0.00    -0.014 A 
BRANCH  45  46
ATOM     46  C   UNL A   1      38.484  30.181  29.732  1.00  0.00     0.031 A 
ATOM     47  C   UNL A   1      39.623  29.336  29.232  1.00  0.00     0.074 A 
ATOM     48  C   UNL A   1      38.559  30.752  30.948  1.00  0.00     0.049 A 
ATOM     49  N   UNL A   1      40.627  28.812  29.884  1.00  0.00    -0.248 NA
ATOM     50  C   UNL A   1      39.620  29.037  27.789  1.00  0.00     0.031 C 
ATOM     51  C   UNL A   1      37.598  31.701  31.501  1.00  0.00     0.029 A 
ATOM     52  N   UNL A   1      39.495  30.600  31.941  1.00  0.00    -0.354 N 
ATOM     53  C   UNL A   1      41.350  28.092  28.942  1.00  0.00     0.074 A 
ATOM     54  C   UNL A   1      40.670  28.239  27.675  1.00  0.00     0.031 C 
ATOM     55  C   UNL A   1      37.981  32.030  32.749  1.00  0.00     0.029 A 
ATOM     56  C   UNL A   1      39.177  31.266  33.100  1.00  0.00     0.049 A 
ATOM     57  H   UNL A   1      40.314  30.066  31.833  1.00  0.00     0.167 HD
ATOM     58  C   UNL A   1      42.478  27.367  29.125  1.00  0.00     0.037 A 
ATOM     59  C   UNL A   1      39.760  31.217  34.314  1.00  0.00     0.037 A 
ATOM     60  C   UNL A   1      43.161  27.246  30.384  1.00  0.00     0.049 A 
ATOM     61  C   UNL A   1      40.962  30.325  34.519  1.00  0.00     0.074 A 
ATOM     62  C   UNL A   1      44.282  26.496  30.692  1.00  0.00     0.029 A 
ATOM     63  N   UNL A   1      42.792  27.912  31.543  1.00  0.00    -0.354 N 
ATOM     64  N   UNL A   1      41.596  29.569  33.653  1.00  0.00    -0.248 NA
ATOM     65  C   UNL A   1      41.527  30.271  35.876  1.00  0.00     0.031 C 
ATOM     66  C   UNL A   1      44.570  26.679  32.048  1.00  0.00     0.029 A 
ATOM     67  C   UNL A   1      43.662  27.587  32.570  1.00  0.00     0.049 A 
ATOM     68  H   UNL A   1      42.025  28.525  31.623  1.00  0.00     0.167 HD
ATOM     69  C   UNL A   1      42.650  28.988  34.348  1.00  0.00     0.074 A 
ATOM     70  C   UNL A   1      42.578  29.483  35.705  1.00  0.00     0.031 C 
ATOM     71  C   UNL A   1      43.593  28.120  33.905  1.00  0.00     0.037 A 
BRANCH  58  72
ATOM     72  C   UNL A   1      43.018  26.614  27.945  1.00  0.00     0.064 A 
ATOM     73  C   UNL A   1      43.778  27.244  26.950  1.00  0.00     0.173 A 
ATOM     74  C   UNL A   1      42.793  25.234  27.826  1.00  0.00     0.173 A 
ATOM     75  F   UNL A   1      43.999  28.567  27.003  1.00  0.00    -0.203 F 
ATOM     76  C   UNL A   1      44.280  26.522  25.870  1.00  0.00     0.198 A 
ATOM     77  C   UNL A   1      43.321  24.510  26.761  1.00  0.00     0.198 A 
ATOM     78  F   UNL A   1      42.067  24.585  28.749  1.00  0.00    -0.203 F 
ATOM     79  F   UNL A   1      44.966  27.153  24.905  1.00  0.00    -0.200 F 
ATOM     80  C   UNL A   1      44.060  25.156  25.781  1.00  0.00     0.200 A 
ATOM     81  F   UNL A   1      43.114  23.188  26.683  1.00  0.00    -0.200 F 
ATOM     82  F   UNL A   1      44.552  24.461  24.746  1.00  0.00    -0.200 F 
ENDBRANCH  58  72
BRANCH  59  83
ATOM     83  C   UNL A   1      39.187  31.974  35.463  1.00  0.00     0.064 A 
ATOM     84  C   UNL A   1      39.543  33.309  35.706  1.00  0.00     0.173 A 
ATOM     85  C   UNL A   1      38.330  31.355  36.386  1.00  0.00     0.173 A 
ATOM     86  F   UNL A   1      40.386  33.939  34.874  1.00  0.00    -0.203 F 
ATOM     87  C   UNL A   1      39.095  33.981  36.843  1.00  0.00     0.198 A 
ATOM     88  C   UNL A   1      37.854  32.039  37.503  1.00  0.00     0.198 A 
ATOM     89  F   UNL A   1      37.963  30.077  36.212  1.00  0.00    -0.203 F 
ATOM     90  F   UNL A   1      39.515  35.230  37.088  1.00  0.00    -0.200 F 
ATOM     91  C   UNL A   1      38.249  33.347  37.739  1.00  0.00     0.200 A 
ATOM     92  F   UNL A   1      37.029  31.423  38.361  1.00  0.00    -0.200 F 
ATOM     93  F   UNL A   1      37.828  33.989  38.837  1.00  0.00    -0.200 F 
ENDBRANCH  59  83
BRANCH  71  94
ATOM     94  C   UNL A   1      44.668  27.710  34.871  1.00  0.00     0.064 A 
ATOM     95  C   UNL A   1      45.850  28.449  35.025  1.00  0.00     0.173 A 
ATOM     96  C   UNL A   1      44.485  26.584  35.689  1.00  0.00     0.173 A 
ATOM     97  F   UNL A   1      46.077  29.527  34.259  1.00  0.00    -0.203 F 
ATOM     98  C   UNL A   1      46.822  28.058  35.941  1.00  0.00     0.198 A 
ATOM     99  C   UNL A   1      45.444  26.216  36.627  1.00  0.00     0.198 A 
ATOM    100  F   UNL A   1      43.367  25.850  35.590  1.00  0.00    -0.203 F 
ATOM    101  F   UNL A   1      47.966  28.750  36.037  1.00  0.00    -0.200 F 
ATOM    102  C   UNL A   1      46.616  26.947  36.747  1.00  0.00     0.200 A 
ATOM    103  F   UNL A   1      45.235  25.153  37.416  1.00  0.00    -0.200 F 
ATOM    104  F   UNL A   1      47.550  26.579  37.635  1.00  0.00    -0.200 F 
ENDBRANCH  71  94
ENDBRANCH  45  46
ENDBRANCH  38  40
ENDBRANCH  37  38
ENDBRANCH  36  37
ENDBRANCH  35  36
ENDBRANCH  34  35
ENDBRANCH  33  34
ENDBRANCH   1  33
TORSDOF 22
ENDMDL
MODEL 3
REMARK VINA RESULT:     -11.3      1.094      6.996
REMARK SMILES O=C(C[C@@H](C(=O)OCCOCCOCCOC(=O)c1ccc(-c2c3nc(c(-c4c(F)c(F)c(F)c(F)c4F)c4ccc([nH]4)c(-c4c(F)c(F)c(F)c(F)c4F)c4nc(c(-c5c(F)c(F)c(F)c(F)c5F)c5ccc2[nH]5)C=C4)C=C3)cc1)[NH+]1CCN(c2cccc(Cl)c2)CC1)c1ccc(F)cc1
REMARK SMILES IDX 11 1 10 2 9 3 8 4 7 5 5 6 6 7 4 8 3 9 2 10 1 11 95 12 96 13
REMARK SMILES IDX 101 14 97 15 100 16 98 17 99 18 82 19 83 20 94 21 84 23
REMARK SMILES IDX 93 24 85 25 86 26 87 27 92 28 88 29 90 30 89 31 91 32 12 33
REMARK SMILES IDX 13 34 14 35 15 36 16 37 17 38 18 39 19 40 20 41 81 42 21 43
REMARK SMILES IDX 80 44 22 45 23 46 24 47 74 48 25 49 79 50 73 51 75 52 26 53
REMARK SMILES IDX 78 54 72 55 71 56 27 58 59 59 39 60 58 61 40 62 43 63 57 64
REMARK SMILES IDX 76 65 41 66 42 67 56 69 77 70 44 71 28 72 29 73 37 74 30 75
REMARK SMILES IDX 31 76 35 77 38 78 32 79 33 80 36 81 34 82 60 83 61 84 69 85
REMARK SMILES IDX 62 86 63 87 67 88 70 89 64 90 65 91 68 92 66 93 45 94 46 95
REMARK SMILES IDX 54 96 47 97 48 98 52 99 55 100 49 101 50 102 53 103 51 104
REMARK H PARENT 82 22 75 57 43 68
REMARK Flexibility Score: inf
ROOT
ATOM      1  C   UNL A   1      30.436  28.823  22.498  1.00  0.00     0.188 C 
ENDROOT
BRANCH   1   2
ATOM      2  O   UNL A   1      30.299  27.412  22.587  1.00  0.00    -0.376 OA
BRANCH   2   3
ATOM      3  C   UNL A   1      30.618  26.806  23.838  1.00  0.00     0.202 C 
BRANCH   3   4
ATOM      4  C   UNL A   1      30.943  25.310  23.770  1.00  0.00     0.261 C 
BRANCH   4   5
ATOM      5  O   UNL A   1      30.250  24.591  24.819  1.00  0.00    -0.459 OA
BRANCH   5   6
ATOM      6  C   UNL A   1      31.037  24.113  25.819  1.00  0.00     0.365 C 
ATOM      7  O   UNL A   1      30.840  24.367  27.004  1.00  0.00    -0.245 OA
BRANCH   6   8
ATOM      8  C   UNL A   1      32.155  23.142  25.322  1.00  0.00     0.303 C 
BRANCH   8   9
ATOM      9  C   UNL A   1      31.798  21.640  25.327  1.00  0.00     0.158 C 
BRANCH   9  10
ATOM     10  C   UNL A   1      32.169  20.905  24.056  1.00  0.00     0.169 C 
ATOM     11  O   UNL A   1      32.146  21.443  22.955  1.00  0.00    -0.294 OA
BRANCH  10  12
ATOM     12  C   UNL A   1      32.549  19.476  24.149  1.00  0.00     0.018 A 
ATOM     13  C   UNL A   1      32.612  18.742  22.960  1.00  0.00     0.015 A 
ATOM     14  C   UNL A   1      32.840  18.867  25.376  1.00  0.00     0.015 A 
ATOM     15  C   UNL A   1      32.887  17.376  23.001  1.00  0.00     0.040 A 
ATOM     16  C   UNL A   1      33.146  17.501  25.406  1.00  0.00     0.040 A 
ATOM     17  C   UNL A   1      33.142  16.765  24.224  1.00  0.00     0.123 A 
ATOM     18  F   UNL A   1      33.379  15.448  24.262  1.00  0.00    -0.207 F 
ENDBRANCH  10  12
ENDBRANCH   9  10
ENDBRANCH   8   9
BRANCH   8  19
ATOM     19  N   UNL A   1      33.394  23.514  26.059  1.00  0.00    -0.320 N 
ATOM     20  C   UNL A   1      34.181  22.440  26.664  1.00  0.00     0.284 C 
ATOM     21  C   UNL A   1      34.268  24.541  25.462  1.00  0.00     0.284 C 
ATOM     22  H   UNL A   1      32.918  23.972  26.837  1.00  0.00     0.348 HD
ATOM     23  C   UNL A   1      35.233  21.839  25.715  1.00  0.00     0.178 C 
ATOM     24  C   UNL A   1      35.595  24.097  24.766  1.00  0.00     0.178 C 
ATOM     25  N   UNL A   1      36.179  22.878  25.340  1.00  0.00    -0.360 N 
BRANCH  25  26
ATOM     26  C   UNL A   1      37.457  22.751  25.849  1.00  0.00     0.038 A 
ATOM     27  C   UNL A   1      38.098  23.882  26.394  1.00  0.00     0.026 A 
ATOM     28  C   UNL A   1      38.202  21.574  25.744  1.00  0.00     0.046 A 
ATOM     29  C   UNL A   1      39.438  23.859  26.783  1.00  0.00     0.004 A 
ATOM     30  C   UNL A   1      39.551  21.553  26.122  1.00  0.00     0.043 A 
ATOM     31  C   UNL A   1      40.173  22.689  26.636  1.00  0.00     0.020 A 
ATOM     32  Cl  UNL A   1      40.473  20.114  25.907  1.00  0.00    -0.084 Cl
ENDBRANCH  25  26
ENDBRANCH   8  19
ENDBRANCH   6   8
ENDBRANCH   5   6
ENDBRANCH   4   5
ENDBRANCH   3   4
ENDBRANCH   2   3
ENDBRANCH   1   2
BRANCH   1  33
ATOM     33  C   UNL A   1      29.978  29.662  23.702  1.00  0.00     0.188 C 
BRANCH  33  34
ATOM     34  O   UNL A   1      30.912  30.436  24.428  1.00  0.00    -0.376 OA
BRANCH  34  35
ATOM     35  C   UNL A   1      31.386  29.907  25.657  1.00  0.00     0.202 C 
BRANCH  35  36
ATOM     36  C   UNL A   1      32.889  30.074  25.885  1.00  0.00     0.261 C 
BRANCH  36  37
ATOM     37  O   UNL A   1      33.183  30.321  27.276  1.00  0.00    -0.460 OA
BRANCH  37  38
ATOM     38  C   UNL A   1      33.878  31.445  27.534  1.00  0.00     0.338 C 
ATOM     39  O   UNL A   1      33.433  32.591  27.641  1.00  0.00    -0.246 OA
BRANCH  38  40
ATOM     40  C   UNL A   1      35.251  31.112  27.933  1.00  0.00     0.060 A 
ATOM     41  C   UNL A   1      35.486  29.803  28.367  1.00  0.00     0.016 A 
ATOM     42  C   UNL A   1      36.266  32.061  27.998  1.00  0.00     0.016 A 
ATOM     43  C   UNL A   1      36.716  29.427  28.895  1.00  0.00     0.010 A 
ATOM     44  C   UNL A   1      37.499  31.696  28.558  1.00  0.00     0.010 A 
ATOM     45  C   UNL A   1      37.716  30.389  29.042  1.00  0.00    -0.014 A 
BRANCH  45  46
ATOM     46  C   UNL A   1      38.869  30.103  29.932  1.00  0.00     0.031 A 
ATOM     47  C   UNL A   1      39.964  29.223  29.395  1.00  0.00     0.074 A 
ATOM     48  C   UNL A   1      38.987  30.644  31.158  1.00  0.00     0.049 A 
ATOM     49  N   UNL A   1      40.957  28.645  30.018  1.00  0.00    -0.248 NA
ATOM     50  C   UNL A   1      39.925  28.955  27.947  1.00  0.00     0.031 C 
ATOM     51  C   UNL A   1      38.075  31.619  31.747  1.00  0.00     0.029 A 
ATOM     52  N   UNL A   1      39.933  30.433  32.132  1.00  0.00    -0.354 N 
ATOM     53  C   UNL A   1      41.633  27.916  29.050  1.00  0.00     0.074 A 
ATOM     54  C   UNL A   1      40.940  28.117  27.798  1.00  0.00     0.031 C 
ATOM     55  C   UNL A   1      38.492  31.906  32.995  1.00  0.00     0.029 A 
ATOM     56  C   UNL A   1      39.661  31.087  33.309  1.00  0.00     0.049 A 
ATOM     57  H   UNL A   1      40.727  29.868  31.999  1.00  0.00     0.167 HD
ATOM     58  C   UNL A   1      42.734  27.142  29.198  1.00  0.00     0.037 A 
ATOM     59  C   UNL A   1      40.262  30.988  34.512  1.00  0.00     0.037 A 
ATOM     60  C   UNL A   1      43.432  26.966  30.443  1.00  0.00     0.049 A 
ATOM     61  C   UNL A   1      41.429  30.044  34.677  1.00  0.00     0.074 A 
ATOM     62  C   UNL A   1      44.526  26.166  30.716  1.00  0.00     0.029 A 
ATOM     63  N   UNL A   1      43.109  27.622  31.621  1.00  0.00    -0.354 N 
ATOM     64  N   UNL A   1      42.017  29.281  33.785  1.00  0.00    -0.248 NA
ATOM     65  C   UNL A   1      42.013  29.938  36.023  1.00  0.00     0.031 C 
ATOM     66  C   UNL A   1      44.844  26.308  32.070  1.00  0.00     0.029 A 
ATOM     67  C   UNL A   1      43.982  27.240  32.626  1.00  0.00     0.049 A 
ATOM     68  H   UNL A   1      42.370  28.264  31.727  1.00  0.00     0.167 HD
ATOM     69  C   UNL A   1      43.058  28.643  34.449  1.00  0.00     0.074 A 
ATOM     70  C   UNL A   1      43.028  29.112  35.818  1.00  0.00     0.031 C 
ATOM     71  C   UNL A   1      43.957  27.747  33.973  1.00  0.00     0.037 A 
BRANCH  58  72
ATOM     72  C   UNL A   1      43.223  26.393  27.993  1.00  0.00     0.064 A 
ATOM     73  C   UNL A   1      42.935  25.036  27.798  1.00  0.00     0.173 A 
ATOM     74  C   UNL A   1      43.968  27.056  27.006  1.00  0.00     0.173 A 
ATOM     75  F   UNL A   1      42.248  24.350  28.726  1.00  0.00    -0.203 F 
ATOM     76  C   UNL A   1      43.387  24.364  26.666  1.00  0.00     0.198 A 
ATOM     77  C   UNL A   1      44.394  26.390  25.861  1.00  0.00     0.198 A 
ATOM     78  F   UNL A   1      44.275  28.354  27.147  1.00  0.00    -0.203 F 
ATOM     79  F   UNL A   1      43.140  23.055  26.521  1.00  0.00    -0.200 F 
ATOM     80  C   UNL A   1      44.108  25.043  25.694  1.00  0.00     0.200 A 
ATOM     81  F   UNL A   1      45.082  27.051  24.920  1.00  0.00    -0.200 F 
ATOM     82  F   UNL A   1      44.536  24.398  24.600  1.00  0.00    -0.200 F 
ENDBRANCH  58  72
BRANCH  59  83
ATOM     83  C   UNL A   1      39.739  31.743  35.686  1.00  0.00     0.064 A 
ATOM     84  C   UNL A   1      38.665  31.257  36.445  1.00  0.00     0.173 A 
ATOM     85  C   UNL A   1      40.252  33.005  36.025  1.00  0.00     0.173 A 
ATOM     86  F   UNL A   1      38.113  30.071  36.143  1.00  0.00    -0.203 F 
ATOM     87  C   UNL A   1      38.103  32.015  37.472  1.00  0.00     0.198 A 
ATOM     88  C   UNL A   1      39.714  33.746  37.075  1.00  0.00     0.198 A 
ATOM     89  F   UNL A   1      41.273  33.526  35.328  1.00  0.00    -0.203 F 
ATOM     90  F   UNL A   1      37.029  31.557  38.129  1.00  0.00    -0.200 F 
ATOM     91  C   UNL A   1      38.630  33.257  37.788  1.00  0.00     0.200 A 
ATOM     92  F   UNL A   1      40.233  34.943  37.382  1.00  0.00    -0.200 F 
ATOM     93  F   UNL A   1      38.083  33.991  38.767  1.00  0.00    -0.200 F 
ENDBRANCH  59  83
BRANCH  71  94
ATOM     94  C   UNL A   1      45.030  27.273  34.911  1.00  0.00     0.064 A 
ATOM     95  C   UNL A   1      44.877  26.120  35.693  1.00  0.00     0.173 A 
ATOM     96  C   UNL A   1      46.251  27.962  34.987  1.00  0.00     0.173 A 
ATOM     97  F   UNL A   1      43.725  25.432  35.664  1.00  0.00    -0.203 F 
ATOM     98  C   UNL A   1      45.894  25.691  36.540  1.00  0.00     0.198 A 
ATOM     99  C   UNL A   1      47.278  27.512  35.810  1.00  0.00     0.198 A 
ATOM    100  F   UNL A   1      46.454  29.065  34.250  1.00  0.00    -0.203 F 
ATOM    101  F   UNL A   1      45.708  24.614  37.317  1.00  0.00    -0.200 F 
ATOM    102  C   UNL A   1      47.097  26.381  36.593  1.00  0.00     0.200 A 
ATOM    103  F   UNL A   1      48.445  28.170  35.846  1.00  0.00    -0.200 F 
ATOM    104  F   UNL A   1      48.078  25.961  37.403  1.00  0.00    -0.200 F 
ENDBRANCH  71  94
ENDBRANCH  45  46
ENDBRANCH  38  40
ENDBRANCH  37  38
ENDBRANCH  36  37
ENDBRANCH  35  36
ENDBRANCH  34  35
ENDBRANCH  33  34
ENDBRANCH   1  33
TORSDOF 22
ENDMDL
