MODEL 1
REMARK VINA RESULT:     -11.4      0.000      0.000
REMARK SMILES O=C(C[C@H]1S/C(=[NH+]/N=C/c2cccc(Cl)c2)NC1=O)OCCOCCOCCOC(=O)c1ccc(-c2c3nc(c(-c4c(F)c(F)c(F)c(F)c4F)c4ccc([nH]4)c(-c4c(F)c(F)c(F)c(F)c4F)c4nc(c(-c5c(F)c(F)c(F)c(F)c5F)c5ccc2[nH]5)C=C4)C=C3)cc1
REMARK SMILES IDX 24 1 23 2 22 3 21 4 20 5 2 6 1 7 3 8 4 9 5 10 18 11 6 12
REMARK SMILES IDX 17 13 19 14 7 15 8 18 9 19 10 20 11 21 16 22 12 23 14 24
REMARK SMILES IDX 13 25 15 26 25 27 26 28 27 29 28 30 29 31 30 32 31 33 32 34
REMARK SMILES IDX 33 35 94 36 34 37 93 38 35 39 36 40 37 41 87 42 38 43 92 44
REMARK SMILES IDX 86 45 88 46 39 47 91 48 85 49 84 50 40 52 72 53 52 54 71 55
REMARK SMILES IDX 53 56 56 57 70 58 89 59 54 60 55 61 69 63 90 64 57 65 41 66
REMARK SMILES IDX 42 67 50 68 43 69 44 70 48 71 51 72 45 73 46 74 49 75 47 76
REMARK SMILES IDX 73 77 74 78 82 79 75 80 76 81 80 82 83 83 77 84 78 85 81 86
REMARK SMILES IDX 79 87 58 88 59 89 67 90 60 91 61 92 65 93 68 94 62 95 63 96
REMARK SMILES IDX 66 97 64 98
REMARK H PARENT 17 16 7 17 88 51 56 62
REMARK Flexibility Score: inf
ROOT
ATOM      1  C   UNL A   1      32.704  18.869  24.231  1.00  0.00     0.188 C 
ENDROOT
BRANCH   1   2
ATOM      2  O   UNL A   1      31.959  19.775  25.006  1.00  0.00    -0.376 OA
BRANCH   2   3
ATOM      3  C   UNL A   1      32.188  21.158  24.883  1.00  0.00     0.202 C 
BRANCH   3   4
ATOM      4  C   UNL A   1      31.316  22.116  25.702  1.00  0.00     0.261 C 
BRANCH   4   5
ATOM      5  O   UNL A   1      31.500  23.547  25.572  1.00  0.00    -0.463 OA
BRANCH   5   6
ATOM      6  C   UNL A   1      32.206  24.455  26.267  1.00  0.00     0.307 C 
ATOM      7  O   UNL A   1      31.609  25.246  26.998  1.00  0.00    -0.252 OA
BRANCH   6   8
ATOM      8  C   UNL A   1      33.666  24.682  25.987  1.00  0.00     0.150 C 
BRANCH   8   9
ATOM      9  C   UNL A   1      33.989  25.651  24.885  1.00  0.00     0.184 C 
ATOM     10  S   UNL A   1      33.121  25.142  23.357  1.00  0.00    -0.020 SA
ATOM     11  C   UNL A   1      33.524  27.044  25.195  1.00  0.00     0.322 C 
ATOM     12  C   UNL A   1      32.407  26.700  23.177  1.00  0.00     0.337 C 
ATOM     13  N   UNL A   1      32.710  27.509  24.220  1.00  0.00    -0.202 N 
ATOM     14  O   UNL A   1      33.893  27.690  26.164  1.00  0.00    -0.246 OA
ATOM     15  N   UNL A   1      31.669  27.058  22.182  1.00  0.00    -0.142 N 
ATOM     16  H   UNL A   1      32.344  28.423  24.268  1.00  0.00     0.316 HD
ATOM     17  H   UNL A   1      31.393  26.474  21.439  1.00  0.00     0.343 HD
BRANCH  15  18
ATOM     18  N   UNL A   1      31.322  28.395  22.326  1.00  0.00    -0.093 NA
ATOM     19  C   UNL A   1      30.068  28.619  22.123  1.00  0.00     0.166 C 
BRANCH  19  20
ATOM     20  C   UNL A   1      29.542  29.966  22.377  1.00  0.00    -0.002 A 
ATOM     21  C   UNL A   1      29.526  30.478  23.684  1.00  0.00     0.010 A 
ATOM     22  C   UNL A   1      28.981  30.682  21.324  1.00  0.00     0.030 A 
ATOM     23  C   UNL A   1      28.934  31.711  23.940  1.00  0.00     0.002 A 
ATOM     24  C   UNL A   1      28.386  31.913  21.593  1.00  0.00     0.041 A 
ATOM     25  C   UNL A   1      28.359  32.428  22.892  1.00  0.00     0.020 A 
ATOM     26  Cl  UNL A   1      27.652  32.796  20.313  1.00  0.00    -0.084 Cl
ENDBRANCH  19  20
ENDBRANCH  15  18
ENDBRANCH   8   9
ENDBRANCH   6   8
ENDBRANCH   5   6
ENDBRANCH   4   5
ENDBRANCH   3   4
ENDBRANCH   2   3
ENDBRANCH   1   2
BRANCH   1  27
ATOM     27  C   UNL A   1      33.898  18.279  24.989  1.00  0.00     0.188 C 
BRANCH  27  28
ATOM     28  O   UNL A   1      35.209  18.674  24.614  1.00  0.00    -0.376 OA
BRANCH  28  29
ATOM     29  C   UNL A   1      35.686  19.959  25.001  1.00  0.00     0.202 C 
BRANCH  29  30
ATOM     30  C   UNL A   1      37.190  20.271  24.889  1.00  0.00     0.261 C 
BRANCH  30  31
ATOM     31  O   UNL A   1      37.687  21.321  25.748  1.00  0.00    -0.460 OA
BRANCH  31  32
ATOM     32  C   UNL A   1      39.006  21.253  26.056  1.00  0.00     0.338 C 
ATOM     33  O   UNL A   1      39.779  20.348  25.794  1.00  0.00    -0.246 OA
BRANCH  32  34
ATOM     34  C   UNL A   1      39.474  22.510  26.678  1.00  0.00     0.060 A 
ATOM     35  C   UNL A   1      38.986  23.728  26.184  1.00  0.00     0.016 A 
ATOM     36  C   UNL A   1      40.496  22.498  27.627  1.00  0.00     0.016 A 
ATOM     37  C   UNL A   1      39.540  24.937  26.613  1.00  0.00     0.010 A 
ATOM     38  C   UNL A   1      41.064  23.711  28.042  1.00  0.00     0.010 A 
ATOM     39  C   UNL A   1      40.615  24.936  27.512  1.00  0.00    -0.014 A 
BRANCH  39  40
ATOM     40  C   UNL A   1      41.382  26.185  27.764  1.00  0.00     0.031 A 
ATOM     41  C   UNL A   1      40.711  27.316  28.499  1.00  0.00     0.074 A 
ATOM     42  C   UNL A   1      42.657  26.321  27.359  1.00  0.00     0.049 A 
ATOM     43  N   UNL A   1      41.154  28.521  28.762  1.00  0.00    -0.248 NA
ATOM     44  C   UNL A   1      39.356  27.050  29.006  1.00  0.00     0.031 C 
ATOM     45  C   UNL A   1      43.443  25.292  26.684  1.00  0.00     0.029 A 
ATOM     46  N   UNL A   1      43.511  27.395  27.448  1.00  0.00    -0.354 N 
ATOM     47  C   UNL A   1      40.131  29.157  29.455  1.00  0.00     0.074 A 
ATOM     48  C   UNL A   1      39.035  28.215  29.546  1.00  0.00     0.031 C 
ATOM     49  C   UNL A   1      44.661  25.788  26.406  1.00  0.00     0.029 A 
ATOM     50  C   UNL A   1      44.728  27.182  26.850  1.00  0.00     0.049 A 
ATOM     51  H   UNL A   1      43.272  28.236  27.900  1.00  0.00     0.167 HD
ATOM     52  C   UNL A   1      40.108  30.408  29.975  1.00  0.00     0.037 A 
ATOM     53  C   UNL A   1      45.765  28.022  26.660  1.00  0.00     0.037 A 
ATOM     54  C   UNL A   1      41.194  31.349  29.882  1.00  0.00     0.049 A 
ATOM     55  C   UNL A   1      45.681  29.441  27.167  1.00  0.00     0.074 A 
ATOM     56  C   UNL A   1      41.265  32.638  30.384  1.00  0.00     0.029 A 
ATOM     57  N   UNL A   1      42.397  31.107  29.235  1.00  0.00    -0.354 N 
ATOM     58  N   UNL A   1      44.719  30.029  27.833  1.00  0.00    -0.248 NA
ATOM     59  C   UNL A   1      46.835  30.312  26.893  1.00  0.00     0.031 C 
ATOM     60  C   UNL A   1      42.488  33.193  29.994  1.00  0.00     0.029 A 
ATOM     61  C   UNL A   1      43.206  32.231  29.303  1.00  0.00     0.049 A 
ATOM     62  H   UNL A   1      42.641  30.262  28.793  1.00  0.00     0.167 HD
ATOM     63  C   UNL A   1      45.162  31.322  28.088  1.00  0.00     0.074 A 
ATOM     64  C   UNL A   1      46.486  31.430  27.514  1.00  0.00     0.031 C 
ATOM     65  C   UNL A   1      44.529  32.327  28.741  1.00  0.00     0.037 A 
BRANCH  52  66
ATOM     66  C   UNL A   1      38.853  30.846  30.673  1.00  0.00     0.064 A 
ATOM     67  C   UNL A   1      37.775  31.408  29.970  1.00  0.00     0.173 A 
ATOM     68  C   UNL A   1      38.710  30.667  32.057  1.00  0.00     0.173 A 
ATOM     69  F   UNL A   1      37.864  31.611  28.648  1.00  0.00    -0.203 F 
ATOM     70  C   UNL A   1      36.614  31.797  30.632  1.00  0.00     0.198 A 
ATOM     71  C   UNL A   1      37.536  31.028  32.711  1.00  0.00     0.198 A 
ATOM     72  F   UNL A   1      39.707  30.128  32.775  1.00  0.00    -0.203 F 
ATOM     73  F   UNL A   1      35.616  32.375  29.948  1.00  0.00    -0.200 F 
ATOM     74  C   UNL A   1      36.492  31.601  32.000  1.00  0.00     0.200 A 
ATOM     75  F   UNL A   1      37.414  30.823  34.030  1.00  0.00    -0.200 F 
ATOM     76  F   UNL A   1      35.370  31.968  32.634  1.00  0.00    -0.200 F 
ENDBRANCH  52  66
BRANCH  53  77
ATOM     77  C   UNL A   1      46.981  27.553  25.941  1.00  0.00     0.064 A 
ATOM     78  C   UNL A   1      48.086  27.050  26.643  1.00  0.00     0.173 A 
ATOM     79  C   UNL A   1      47.076  27.626  24.543  1.00  0.00     0.173 A 
ATOM     80  F   UNL A   1      48.057  26.991  27.983  1.00  0.00    -0.203 F 
ATOM     81  C   UNL A   1      49.245  26.656  25.977  1.00  0.00     0.198 A 
ATOM     82  C   UNL A   1      48.223  27.201  23.876  1.00  0.00     0.198 A 
ATOM     83  F   UNL A   1      46.052  28.106  23.824  1.00  0.00    -0.203 F 
ATOM     84  F   UNL A   1      50.304  26.229  26.676  1.00  0.00    -0.200 F 
ATOM     85  C   UNL A   1      49.309  26.724  24.593  1.00  0.00     0.200 A 
ATOM     86  F   UNL A   1      48.280  27.259  22.538  1.00  0.00    -0.200 F 
ATOM     87  F   UNL A   1      50.421  26.339  23.952  1.00  0.00    -0.200 F 
ENDBRANCH  53  77
BRANCH  65  88
ATOM     88  C   UNL A   1      45.273  33.622  28.919  1.00  0.00     0.064 A 
ATOM     89  C   UNL A   1      45.153  34.678  28.003  1.00  0.00     0.173 A 
ATOM     90  C   UNL A   1      46.082  33.825  30.048  1.00  0.00     0.173 A 
ATOM     91  F   UNL A   1      44.404  34.534  26.900  1.00  0.00    -0.203 F 
ATOM     92  C   UNL A   1      45.836  35.877  28.198  1.00  0.00     0.198 A 
ATOM     93  C   UNL A   1      46.736  35.036  30.257  1.00  0.00     0.198 A 
ATOM     94  F   UNL A   1      46.226  32.852  30.961  1.00  0.00    -0.203 F 
ATOM     95  F   UNL A   1      45.745  36.854  27.284  1.00  0.00    -0.200 F 
ATOM     96  C   UNL A   1      46.619  36.058  29.328  1.00  0.00     0.200 A 
ATOM     97  F   UNL A   1      47.480  35.214  31.357  1.00  0.00    -0.200 F 
ATOM     98  F   UNL A   1      47.267  37.216  29.518  1.00  0.00    -0.200 F 
ENDBRANCH  65  88
ENDBRANCH  39  40
ENDBRANCH  32  34
ENDBRANCH  31  32
ENDBRANCH  30  31
ENDBRANCH  29  30
ENDBRANCH  28  29
ENDBRANCH  27  28
ENDBRANCH   1  27
TORSDOF 20
ENDMDL
MODEL 2
REMARK VINA RESULT:     -11.2      5.198      9.612
REMARK SMILES O=C(C[C@H]1S/C(=[NH+]/N=C/c2cccc(Cl)c2)NC1=O)OCCOCCOCCOC(=O)c1ccc(-c2c3nc(c(-c4c(F)c(F)c(F)c(F)c4F)c4ccc([nH]4)c(-c4c(F)c(F)c(F)c(F)c4F)c4nc(c(-c5c(F)c(F)c(F)c(F)c5F)c5ccc2[nH]5)C=C4)C=C3)cc1
REMARK SMILES IDX 24 1 23 2 22 3 21 4 20 5 2 6 1 7 3 8 4 9 5 10 18 11 6 12
REMARK SMILES IDX 17 13 19 14 7 15 8 18 9 19 10 20 11 21 16 22 12 23 14 24
REMARK SMILES IDX 13 25 15 26 25 27 26 28 27 29 28 30 29 31 30 32 31 33 32 34
REMARK SMILES IDX 33 35 94 36 34 37 93 38 35 39 36 40 37 41 87 42 38 43 92 44
REMARK SMILES IDX 86 45 88 46 39 47 91 48 85 49 84 50 40 52 72 53 52 54 71 55
REMARK SMILES IDX 53 56 56 57 70 58 89 59 54 60 55 61 69 63 90 64 57 65 41 66
REMARK SMILES IDX 42 67 50 68 43 69 44 70 48 71 51 72 45 73 46 74 49 75 47 76
REMARK SMILES IDX 73 77 74 78 82 79 75 80 76 81 80 82 83 83 77 84 78 85 81 86
REMARK SMILES IDX 79 87 58 88 59 89 67 90 60 91 61 92 65 93 68 94 62 95 63 96
REMARK SMILES IDX 66 97 64 98
REMARK H PARENT 17 16 7 17 88 51 56 62
REMARK Flexibility Score: inf
ROOT
ATOM      1  C   UNL A   1      45.913  18.670  25.430  1.00  0.00     0.188 C 
ENDROOT
BRANCH   1   2
ATOM      2  O   UNL A   1      44.595  18.348  25.060  1.00  0.00    -0.376 OA
BRANCH   2   3
ATOM      3  C   UNL A   1      43.555  18.465  25.999  1.00  0.00     0.202 C 
BRANCH   3   4
ATOM      4  C   UNL A   1      42.464  19.514  25.749  1.00  0.00     0.261 C 
BRANCH   4   5
ATOM      5  O   UNL A   1      42.278  20.598  26.693  1.00  0.00    -0.463 OA
BRANCH   5   6
ATOM      6  C   UNL A   1      41.353  20.856  27.633  1.00  0.00     0.307 C 
ATOM      7  O   UNL A   1      40.829  19.916  28.231  1.00  0.00    -0.252 OA
BRANCH   6   8
ATOM      8  C   UNL A   1      40.774  22.234  27.795  1.00  0.00     0.150 C 
BRANCH   8   9
ATOM      9  C   UNL A   1      40.187  22.859  26.560  1.00  0.00     0.184 C 
ATOM     10  S   UNL A   1      39.064  21.662  25.751  1.00  0.00    -0.020 SA
ATOM     11  C   UNL A   1      39.363  24.074  26.871  1.00  0.00     0.322 C 
ATOM     12  C   UNL A   1      37.769  22.798  25.743  1.00  0.00     0.337 C 
ATOM     13  N   UNL A   1      38.110  23.945  26.378  1.00  0.00    -0.202 N 
ATOM     14  O   UNL A   1      39.794  25.070  27.431  1.00  0.00    -0.246 OA
ATOM     15  N   UNL A   1      36.614  22.589  25.211  1.00  0.00    -0.142 N 
ATOM     16  H   UNL A   1      37.456  24.675  26.479  1.00  0.00     0.316 HD
ATOM     17  H   UNL A   1      36.324  21.748  24.789  1.00  0.00     0.343 HD
BRANCH  15  18
ATOM     18  N   UNL A   1      35.840  23.738  25.328  1.00  0.00    -0.093 NA
ATOM     19  C   UNL A   1      34.592  23.489  25.537  1.00  0.00     0.166 C 
BRANCH  19  20
ATOM     20  C   UNL A   1      33.687  24.612  25.817  1.00  0.00    -0.002 A 
ATOM     21  C   UNL A   1      32.412  24.369  26.348  1.00  0.00     0.010 A 
ATOM     22  C   UNL A   1      34.080  25.899  25.462  1.00  0.00     0.030 A 
ATOM     23  C   UNL A   1      31.517  25.422  26.516  1.00  0.00     0.002 A 
ATOM     24  C   UNL A   1      33.174  26.945  25.628  1.00  0.00     0.041 A 
ATOM     25  C   UNL A   1      31.898  26.713  26.151  1.00  0.00     0.020 A 
ATOM     26  Cl  UNL A   1      33.624  28.537  25.160  1.00  0.00    -0.084 Cl
ENDBRANCH  19  20
ENDBRANCH  15  18
ENDBRANCH   8   9
ENDBRANCH   6   8
ENDBRANCH   5   6
ENDBRANCH   4   5
ENDBRANCH   3   4
ENDBRANCH   2   3
ENDBRANCH   1   2
BRANCH   1  27
ATOM     27  C   UNL A   1      46.400  19.984  24.810  1.00  0.00     0.188 C 
BRANCH  27  28
ATOM     28  O   UNL A   1      45.638  21.163  25.020  1.00  0.00    -0.376 OA
BRANCH  28  29
ATOM     29  C   UNL A   1      44.888  21.708  23.938  1.00  0.00     0.202 C 
BRANCH  29  30
ATOM     30  C   UNL A   1      43.798  22.757  24.229  1.00  0.00     0.261 C 
BRANCH  30  31
ATOM     31  O   UNL A   1      43.873  23.413  25.514  1.00  0.00    -0.460 OA
BRANCH  31  32
ATOM     32  C   UNL A   1      44.543  24.592  25.534  1.00  0.00     0.338 C 
ATOM     33  O   UNL A   1      45.190  25.087  24.628  1.00  0.00    -0.246 OA
BRANCH  32  34
ATOM     34  C   UNL A   1      44.305  25.318  26.799  1.00  0.00     0.060 A 
ATOM     35  C   UNL A   1      43.443  24.752  27.748  1.00  0.00     0.016 A 
ATOM     36  C   UNL A   1      44.799  26.610  26.983  1.00  0.00     0.016 A 
ATOM     37  C   UNL A   1      43.045  25.488  28.869  1.00  0.00     0.010 A 
ATOM     38  C   UNL A   1      44.384  27.354  28.097  1.00  0.00     0.010 A 
ATOM     39  C   UNL A   1      43.477  26.811  29.028  1.00  0.00    -0.014 A 
BRANCH  39  40
ATOM     40  C   UNL A   1      42.852  27.684  30.057  1.00  0.00     0.031 A 
ATOM     41  C   UNL A   1      43.507  27.798  31.409  1.00  0.00     0.074 A 
ATOM     42  C   UNL A   1      41.728  28.377  29.804  1.00  0.00     0.049 A 
ATOM     43  N   UNL A   1      43.103  28.433  32.482  1.00  0.00    -0.248 NA
ATOM     44  C   UNL A   1      44.791  27.100  31.572  1.00  0.00     0.031 C 
ATOM     45  C   UNL A   1      41.019  28.400  28.528  1.00  0.00     0.029 A 
ATOM     46  N   UNL A   1      40.977  29.188  30.622  1.00  0.00    -0.354 N 
ATOM     47  C   UNL A   1      44.078  28.204  33.447  1.00  0.00     0.074 A 
ATOM     48  C   UNL A   1      45.076  27.348  32.842  1.00  0.00     0.031 C 
ATOM     49  C   UNL A   1      39.927  29.174  28.651  1.00  0.00     0.029 A 
ATOM     50  C   UNL A   1      39.839  29.671  30.025  1.00  0.00     0.049 A 
ATOM     51  H   UNL A   1      41.232  29.402  31.549  1.00  0.00     0.167 HD
ATOM     52  C   UNL A   1      44.139  28.668  34.718  1.00  0.00     0.037 A 
ATOM     53  C   UNL A   1      38.831  30.406  30.536  1.00  0.00     0.037 A 
ATOM     54  C   UNL A   1      43.146  29.516  35.325  1.00  0.00     0.049 A 
ATOM     55  C   UNL A   1      38.877  30.836  31.982  1.00  0.00     0.074 A 
ATOM     56  C   UNL A   1      43.127  30.043  36.606  1.00  0.00     0.029 A 
ATOM     57  N   UNL A   1      41.989  29.953  34.698  1.00  0.00    -0.354 N 
ATOM     58  N   UNL A   1      39.806  30.628  32.881  1.00  0.00    -0.248 NA
ATOM     59  C   UNL A   1      37.727  31.606  32.481  1.00  0.00     0.031 C 
ATOM     60  C   UNL A   1      41.933  30.752  36.770  1.00  0.00     0.029 A 
ATOM     61  C   UNL A   1      41.237  30.721  35.572  1.00  0.00     0.049 A 
ATOM     62  H   UNL A   1      41.739  29.748  33.768  1.00  0.00     0.167 HD
ATOM     63  C   UNL A   1      39.373  31.267  34.037  1.00  0.00     0.074 A 
ATOM     64  C   UNL A   1      38.101  31.881  33.722  1.00  0.00     0.031 C 
ATOM     65  C   UNL A   1      39.977  31.341  35.249  1.00  0.00     0.037 A 
BRANCH  52  66
ATOM     66  C   UNL A   1      45.314  28.248  35.553  1.00  0.00     0.064 A 
ATOM     67  C   UNL A   1      45.255  27.130  36.400  1.00  0.00     0.173 A 
ATOM     68  C   UNL A   1      46.527  28.949  35.478  1.00  0.00     0.173 A 
ATOM     69  F   UNL A   1      44.116  26.431  36.518  1.00  0.00    -0.203 F 
ATOM     70  C   UNL A   1      46.358  26.747  37.159  1.00  0.00     0.198 A 
ATOM     71  C   UNL A   1      47.637  28.545  36.214  1.00  0.00     0.198 A 
ATOM     72  F   UNL A   1      46.640  30.021  34.679  1.00  0.00    -0.203 F 
ATOM     73  F   UNL A   1      46.264  25.705  37.996  1.00  0.00    -0.200 F 
ATOM     74  C   UNL A   1      47.550  27.450  37.060  1.00  0.00     0.200 A 
ATOM     75  F   UNL A   1      48.793  29.215  36.104  1.00  0.00    -0.200 F 
ATOM     76  F   UNL A   1      48.613  27.074  37.784  1.00  0.00    -0.200 F 
ENDBRANCH  52  66
BRANCH  53  77
ATOM     77  C   UNL A   1      37.674  30.780  29.678  1.00  0.00     0.064 A 
ATOM     78  C   UNL A   1      36.690  29.839  29.343  1.00  0.00     0.173 A 
ATOM     79  C   UNL A   1      37.542  32.075  29.154  1.00  0.00     0.173 A 
ATOM     80  F   UNL A   1      36.788  28.579  29.794  1.00  0.00    -0.203 F 
ATOM     81  C   UNL A   1      35.631  30.172  28.501  1.00  0.00     0.198 A 
ATOM     82  C   UNL A   1      36.465  32.415  28.338  1.00  0.00     0.198 A 
ATOM     83  F   UNL A   1      38.459  33.011  29.437  1.00  0.00    -0.203 F 
ATOM     84  F   UNL A   1      34.735  29.239  28.154  1.00  0.00    -0.200 F 
ATOM     85  C   UNL A   1      35.515  31.462  28.006  1.00  0.00     0.200 A 
ATOM     86  F   UNL A   1      36.350  33.665  27.868  1.00  0.00    -0.200 F 
ATOM     87  F   UNL A   1      34.493  31.784  27.201  1.00  0.00    -0.200 F 
ENDBRANCH  53  77
BRANCH  65  88
ATOM     88  C   UNL A   1      39.300  32.153  36.319  1.00  0.00     0.064 A 
ATOM     89  C   UNL A   1      38.284  31.618  37.124  1.00  0.00     0.173 A 
ATOM     90  C   UNL A   1      39.708  33.472  36.571  1.00  0.00     0.173 A 
ATOM     91  F   UNL A   1      37.847  30.367  36.918  1.00  0.00    -0.203 F 
ATOM     92  C   UNL A   1      37.685  32.382  38.123  1.00  0.00     0.198 A 
ATOM     93  C   UNL A   1      39.130  34.222  37.592  1.00  0.00     0.198 A 
ATOM     94  F   UNL A   1      40.682  34.032  35.837  1.00  0.00    -0.203 F 
ATOM     95  F   UNL A   1      36.682  31.865  38.848  1.00  0.00    -0.200 F 
ATOM     96  C   UNL A   1      38.113  33.679  38.362  1.00  0.00     0.200 A 
ATOM     97  F   UNL A   1      39.557  35.469  37.831  1.00  0.00    -0.200 F 
ATOM     98  F   UNL A   1      37.541  34.408  39.330  1.00  0.00    -0.200 F 
ENDBRANCH  65  88
ENDBRANCH  39  40
ENDBRANCH  32  34
ENDBRANCH  31  32
ENDBRANCH  30  31
ENDBRANCH  29  30
ENDBRANCH  28  29
ENDBRANCH  27  28
ENDBRANCH   1  27
TORSDOF 20
ENDMDL
MODEL 3
REMARK VINA RESULT:     -11.1      2.212      3.228
REMARK SMILES O=C(C[C@H]1S/C(=[NH+]/N=C/c2cccc(Cl)c2)NC1=O)OCCOCCOCCOC(=O)c1ccc(-c2c3nc(c(-c4c(F)c(F)c(F)c(F)c4F)c4ccc([nH]4)c(-c4c(F)c(F)c(F)c(F)c4F)c4nc(c(-c5c(F)c(F)c(F)c(F)c5F)c5ccc2[nH]5)C=C4)C=C3)cc1
REMARK SMILES IDX 24 1 23 2 22 3 21 4 20 5 2 6 1 7 3 8 4 9 5 10 18 11 6 12
REMARK SMILES IDX 17 13 19 14 7 15 8 18 9 19 10 20 11 21 16 22 12 23 14 24
REMARK SMILES IDX 13 25 15 26 25 27 26 28 27 29 28 30 29 31 30 32 31 33 32 34
REMARK SMILES IDX 33 35 94 36 34 37 93 38 35 39 36 40 37 41 87 42 38 43 92 44
REMARK SMILES IDX 86 45 88 46 39 47 91 48 85 49 84 50 40 52 72 53 52 54 71 55
REMARK SMILES IDX 53 56 56 57 70 58 89 59 54 60 55 61 69 63 90 64 57 65 41 66
REMARK SMILES IDX 42 67 50 68 43 69 44 70 48 71 51 72 45 73 46 74 49 75 47 76
REMARK SMILES IDX 73 77 74 78 82 79 75 80 76 81 80 82 83 83 77 84 78 85 81 86
REMARK SMILES IDX 79 87 58 88 59 89 67 90 60 91 61 92 65 93 68 94 62 95 63 96
REMARK SMILES IDX 66 97 64 98
REMARK H PARENT 17 16 7 17 88 51 56 62
REMARK Flexibility Score: inf
ROOT
ATOM      1  C   UNL A   1      34.367  17.037  23.496  1.00  0.00     0.188 C 
ENDROOT
BRANCH   1   2
ATOM      2  O   UNL A   1      32.985  17.292  23.530  1.00  0.00    -0.376 OA
BRANCH   2   3
ATOM      3  C   UNL A   1      32.511  18.611  23.407  1.00  0.00     0.202 C 
BRANCH   3   4
ATOM      4  C   UNL A   1      32.529  19.510  24.649  1.00  0.00     0.261 C 
BRANCH   4   5
ATOM      5  O   UNL A   1      32.277  20.930  24.514  1.00  0.00    -0.463 OA
BRANCH   5   6
ATOM      6  C   UNL A   1      32.955  21.939  23.942  1.00  0.00     0.307 C 
ATOM      7  O   UNL A   1      33.925  22.417  24.530  1.00  0.00    -0.252 OA
BRANCH   6   8
ATOM      8  C   UNL A   1      32.417  22.648  22.730  1.00  0.00     0.150 C 
BRANCH   8   9
ATOM      9  C   UNL A   1      32.003  24.079  22.927  1.00  0.00     0.184 C 
ATOM     10  S   UNL A   1      31.065  24.228  24.491  1.00  0.00    -0.020 SA
ATOM     11  C   UNL A   1      33.180  25.002  23.046  1.00  0.00     0.322 C 
ATOM     12  C   UNL A   1      32.101  25.484  25.057  1.00  0.00     0.337 C 
ATOM     13  N   UNL A   1      33.123  25.710  24.197  1.00  0.00    -0.202 N 
ATOM     14  O   UNL A   1      34.032  25.142  22.182  1.00  0.00    -0.246 OA
ATOM     15  N   UNL A   1      31.938  26.126  26.163  1.00  0.00    -0.142 N 
ATOM     16  H   UNL A   1      33.814  26.380  24.407  1.00  0.00     0.316 HD
ATOM     17  H   UNL A   1      31.234  25.946  26.827  1.00  0.00     0.343 HD
BRANCH  15  18
ATOM     18  N   UNL A   1      32.913  27.109  26.270  1.00  0.00    -0.093 NA
ATOM     19  C   UNL A   1      32.469  28.212  26.771  1.00  0.00     0.166 C 
BRANCH  19  20
ATOM     20  C   UNL A   1      33.425  29.287  27.066  1.00  0.00    -0.002 A 
ATOM     21  C   UNL A   1      34.782  28.985  27.260  1.00  0.00     0.010 A 
ATOM     22  C   UNL A   1      32.951  30.583  27.241  1.00  0.00     0.030 A 
ATOM     23  C   UNL A   1      35.670  29.987  27.641  1.00  0.00     0.002 A 
ATOM     24  C   UNL A   1      33.846  31.577  27.629  1.00  0.00     0.041 A 
ATOM     25  C   UNL A   1      35.198  31.286  27.831  1.00  0.00     0.020 A 
ATOM     26  Cl  UNL A   1      33.274  33.178  27.889  1.00  0.00    -0.084 Cl
ENDBRANCH  19  20
ENDBRANCH  15  18
ENDBRANCH   8   9
ENDBRANCH   6   8
ENDBRANCH   5   6
ENDBRANCH   4   5
ENDBRANCH   3   4
ENDBRANCH   2   3
ENDBRANCH   1   2
BRANCH   1  27
ATOM     27  C   UNL A   1      35.102  17.579  24.727  1.00  0.00     0.188 C 
BRANCH  27  28
ATOM     28  O   UNL A   1      36.241  18.404  24.534  1.00  0.00    -0.376 OA
BRANCH  28  29
ATOM     29  C   UNL A   1      36.208  19.753  24.991  1.00  0.00     0.202 C 
BRANCH  29  30
ATOM     30  C   UNL A   1      37.346  20.712  24.594  1.00  0.00     0.261 C 
BRANCH  30  31
ATOM     31  O   UNL A   1      37.764  21.656  25.605  1.00  0.00    -0.460 OA
BRANCH  31  32
ATOM     32  C   UNL A   1      39.013  21.471  26.101  1.00  0.00     0.338 C 
ATOM     33  O   UNL A   1      39.716  20.483  25.979  1.00  0.00    -0.246 OA
BRANCH  32  34
ATOM     34  C   UNL A   1      39.517  22.700  26.749  1.00  0.00     0.060 A 
ATOM     35  C   UNL A   1      39.005  23.937  26.334  1.00  0.00     0.016 A 
ATOM     36  C   UNL A   1      40.590  22.648  27.638  1.00  0.00     0.016 A 
ATOM     37  C   UNL A   1      39.585  25.128  26.782  1.00  0.00     0.010 A 
ATOM     38  C   UNL A   1      41.183  23.844  28.072  1.00  0.00     0.010 A 
ATOM     39  C   UNL A   1      40.707  25.089  27.619  1.00  0.00    -0.014 A 
BRANCH  39  40
ATOM     40  C   UNL A   1      41.490  26.327  27.881  1.00  0.00     0.031 A 
ATOM     41  C   UNL A   1      40.846  27.444  28.659  1.00  0.00     0.074 A 
ATOM     42  C   UNL A   1      42.755  26.463  27.447  1.00  0.00     0.049 A 
ATOM     43  N   UNL A   1      41.305  28.640  28.939  1.00  0.00    -0.248 NA
ATOM     44  C   UNL A   1      39.503  27.176  29.194  1.00  0.00     0.031 C 
ATOM     45  C   UNL A   1      43.517  25.445  26.728  1.00  0.00     0.029 A 
ATOM     46  N   UNL A   1      43.620  27.529  27.540  1.00  0.00    -0.354 N 
ATOM     47  C   UNL A   1      40.304  29.266  29.672  1.00  0.00     0.074 A 
ATOM     48  C   UNL A   1      39.204  28.331  29.769  1.00  0.00     0.031 C 
ATOM     49  C   UNL A   1      44.731  25.939  26.431  1.00  0.00     0.029 A 
ATOM     50  C   UNL A   1      44.819  27.321  26.906  1.00  0.00     0.049 A 
ATOM     51  H   UNL A   1      43.398  28.361  28.016  1.00  0.00     0.167 HD
ATOM     52  C   UNL A   1      40.304  30.505  30.221  1.00  0.00     0.037 A 
ATOM     53  C   UNL A   1      45.858  28.159  26.708  1.00  0.00     0.037 A 
ATOM     54  C   UNL A   1      41.395  31.441  30.122  1.00  0.00     0.049 A 
ATOM     55  C   UNL A   1      45.797  29.566  27.250  1.00  0.00     0.074 A 
ATOM     56  C   UNL A   1      41.487  32.717  30.653  1.00  0.00     0.029 A 
ATOM     57  N   UNL A   1      42.578  31.206  29.440  1.00  0.00    -0.354 N 
ATOM     58  N   UNL A   1      44.856  30.145  27.954  1.00  0.00    -0.248 NA
ATOM     59  C   UNL A   1      46.949  30.435  26.968  1.00  0.00     0.031 C 
ATOM     60  C   UNL A   1      42.704  33.273  30.245  1.00  0.00     0.029 A 
ATOM     61  C   UNL A   1      43.397  32.322  29.513  1.00  0.00     0.049 A 
ATOM     62  H   UNL A   1      42.805  30.370  28.973  1.00  0.00     0.167 HD
ATOM     63  C   UNL A   1      45.315  31.428  28.228  1.00  0.00     0.074 A 
ATOM     64  C   UNL A   1      46.625  31.541  27.623  1.00  0.00     0.031 C 
ATOM     65  C   UNL A   1      44.706  32.423  28.920  1.00  0.00     0.037 A 
BRANCH  52  66
ATOM     66  C   UNL A   1      39.070  30.935  30.961  1.00  0.00     0.064 A 
ATOM     67  C   UNL A   1      38.897  30.666  32.328  1.00  0.00     0.173 A 
ATOM     68  C   UNL A   1      38.064  31.659  30.303  1.00  0.00     0.173 A 
ATOM     69  F   UNL A   1      39.823  29.968  33.001  1.00  0.00    -0.203 F 
ATOM     70  C   UNL A   1      37.751  31.083  33.000  1.00  0.00     0.198 A 
ATOM     71  C   UNL A   1      36.935  32.102  30.986  1.00  0.00     0.198 A 
ATOM     72  F   UNL A   1      38.182  31.950  28.999  1.00  0.00    -0.203 F 
ATOM     73  F   UNL A   1      37.586  30.774  34.294  1.00  0.00    -0.200 F 
ATOM     74  C   UNL A   1      36.775  31.806  32.332  1.00  0.00     0.200 A 
ATOM     75  F   UNL A   1      36.000  32.814  30.342  1.00  0.00    -0.200 F 
ATOM     76  F   UNL A   1      35.677  32.214  32.983  1.00  0.00    -0.200 F 
ENDBRANCH  52  66
BRANCH  53  77
ATOM     77  C   UNL A   1      47.051  27.699  25.948  1.00  0.00     0.064 A 
ATOM     78  C   UNL A   1      47.085  27.767  24.548  1.00  0.00     0.173 A 
ATOM     79  C   UNL A   1      48.168  27.156  26.601  1.00  0.00     0.173 A 
ATOM     80  F   UNL A   1      46.029  28.249  23.875  1.00  0.00    -0.203 F 
ATOM     81  C   UNL A   1      48.181  27.293  23.829  1.00  0.00     0.198 A 
ATOM     82  C   UNL A   1      49.277  26.711  25.883  1.00  0.00     0.198 A 
ATOM     83  F   UNL A   1      48.184  27.060  27.938  1.00  0.00    -0.203 F 
ATOM     84  F   UNL A   1      48.165  27.321  22.490  1.00  0.00    -0.200 F 
ATOM     85  C   UNL A   1      49.279  26.773  24.498  1.00  0.00     0.200 A 
ATOM     86  F   UNL A   1      50.340  26.217  26.532  1.00  0.00    -0.200 F 
ATOM     87  F   UNL A   1      50.335  26.321  23.808  1.00  0.00    -0.200 F 
ENDBRANCH  53  77
BRANCH  65  88
ATOM     88  C   UNL A   1      45.464  33.708  29.109  1.00  0.00     0.064 A 
ATOM     89  C   UNL A   1      46.324  33.908  30.198  1.00  0.00     0.173 A 
ATOM     90  C   UNL A   1      45.362  34.736  28.159  1.00  0.00     0.173 A 
ATOM     91  F   UNL A   1      46.449  32.964  31.142  1.00  0.00    -0.203 F 
ATOM     92  C   UNL A   1      47.032  35.100  30.344  1.00  0.00     0.198 A 
ATOM     93  C   UNL A   1      46.096  35.912  28.289  1.00  0.00     0.198 A 
ATOM     94  F   UNL A   1      44.561  34.596  27.092  1.00  0.00    -0.203 F 
ATOM     95  F   UNL A   1      47.811  35.287  31.419  1.00  0.00    -0.200 F 
ATOM     96  C   UNL A   1      46.925  36.096  29.386  1.00  0.00     0.200 A 
ATOM     97  F   UNL A   1      46.003  36.867  27.354  1.00  0.00    -0.200 F 
ATOM     98  F   UNL A   1      47.614  37.238  29.523  1.00  0.00    -0.200 F 
ENDBRANCH  65  88
ENDBRANCH  39  40
ENDBRANCH  32  34
ENDBRANCH  31  32
ENDBRANCH  30  31
ENDBRANCH  29  30
ENDBRANCH  28  29
ENDBRANCH  27  28
ENDBRANCH   1  27
TORSDOF 20
ENDMDL
