MODEL 1
REMARK VINA RESULT:     -11.7      0.000      0.000
REMARK SMILES Cc1cc(NC(=O)[C@H]2[C@@H](C(=O)OCCOCCOCCOC(=O)c3ccc(-c4c5nc(c(-c6c(F)c(F)c(F)c(F)c6F)c6ccc([nH]6)c(-c6c(F)c(F)c(F)c(F)c6F)c6nc(c(-c7c(F)c(F)c(F)c(F)c7F)c7ccc4[nH]7)C=C6)C=C5)cc3)C2(C)C)n(-c2ccc(F)cc2)n1
REMARK SMILES IDX 16 1 15 2 14 3 13 4 12 5 10 6 11 7 9 8 8 9 87 10 88 11 89 12
REMARK SMILES IDX 6 13 5 14 7 16 4 17 1 18 2 19 3 20 98 21 90 22 91 23 92 24
REMARK SMILES IDX 97 25 93 26 96 27 94 28 95 29 17 30 18 31 19 32 20 33 21 34
REMARK SMILES IDX 22 35 23 36 24 37 25 38 86 39 26 40 85 41 27 42 28 43 29 44
REMARK SMILES IDX 79 45 30 46 84 47 78 48 80 49 31 50 83 51 77 52 76 53 32 55
REMARK SMILES IDX 64 56 44 57 63 58 45 59 48 60 62 61 81 62 46 63 47 64 61 66
REMARK SMILES IDX 82 67 49 68 33 69 34 70 42 71 35 72 36 73 40 74 43 75 37 76
REMARK SMILES IDX 38 77 41 78 39 79 65 80 66 81 74 82 67 83 68 84 72 85 75 86
REMARK SMILES IDX 69 87 70 88 73 89 71 90 50 91 51 92 59 93 52 94 53 95 57 96
REMARK SMILES IDX 60 97 54 98 55 99 58 100 56 101
REMARK H PARENT 5 15 80 54 48 65
REMARK Flexibility Score: inf
ROOT
ATOM      1  C   UNL A   1      40.924  21.392  26.428  1.00  0.00     0.188 C 
ENDROOT
BRANCH   1   2
ATOM      2  O   UNL A   1      39.962  22.150  27.125  1.00  0.00    -0.376 OA
BRANCH   2   3
ATOM      3  C   UNL A   1      38.945  22.823  26.384  1.00  0.00     0.202 C 
BRANCH   3   4
ATOM      4  C   UNL A   1      37.846  22.034  25.639  1.00  0.00     0.261 C 
BRANCH   4   5
ATOM      5  O   UNL A   1      37.183  22.822  24.634  1.00  0.00    -0.463 OA
BRANCH   5   6
ATOM      6  C   UNL A   1      36.022  22.314  24.146  1.00  0.00     0.310 C 
ATOM      7  O   UNL A   1      35.524  21.239  24.444  1.00  0.00    -0.252 OA
BRANCH   6   8
ATOM      8  C   UNL A   1      35.194  23.349  23.485  1.00  0.00     0.118 C 
ATOM      9  C   UNL A   1      34.342  24.277  24.289  1.00  0.00     0.100 C 
ATOM     10  C   UNL A   1      33.691  23.376  23.239  1.00  0.00    -0.009 C 
ATOM     11  C   UNL A   1      32.827  22.221  23.678  1.00  0.00     0.013 C 
ATOM     12  C   UNL A   1      33.165  24.025  21.973  1.00  0.00     0.013 C 
BRANCH   9  13
ATOM     13  C   UNL A   1      34.058  24.123  25.711  1.00  0.00     0.230 C 
ATOM     14  N   UNL A   1      33.002  24.837  26.332  1.00  0.00    -0.310 N 
ATOM     15  H   UNL A   1      32.942  24.693  27.304  1.00  0.00     0.171 HD
ATOM     16  O   UNL A   1      34.589  23.280  26.416  1.00  0.00    -0.274 OA
BRANCH  14  17
ATOM     17  C   UNL A   1      32.032  25.703  25.832  1.00  0.00     0.136 A 
ATOM     18  C   UNL A   1      28.891  26.085  23.969  1.00  0.00     0.069 C 
ATOM     19  C   UNL A   1      30.134  26.185  24.769  1.00  0.00     0.062 A 
ATOM     20  C   UNL A   1      30.930  25.125  25.231  1.00  0.00     0.072 A 
ATOM     21  N   UNL A   1      30.644  27.367  25.110  1.00  0.00    -0.171 NA
ATOM     22  N   UNL A   1      31.802  27.086  25.754  1.00  0.00    -0.217 N 
BRANCH  22  23
ATOM     23  C   UNL A   1      32.548  28.186  26.226  1.00  0.00     0.067 A 
ATOM     24  C   UNL A   1      31.857  29.313  26.686  1.00  0.00     0.031 A 
ATOM     25  C   UNL A   1      33.940  28.119  26.342  1.00  0.00     0.031 A 
ATOM     26  C   UNL A   1      32.565  30.462  27.044  1.00  0.00     0.041 A 
ATOM     27  C   UNL A   1      34.641  29.253  26.773  1.00  0.00     0.041 A 
ATOM     28  C   UNL A   1      33.952  30.427  27.068  1.00  0.00     0.123 A 
ATOM     29  F   UNL A   1      34.631  31.536  27.384  1.00  0.00    -0.207 F 
ENDBRANCH  22  23
ENDBRANCH  14  17
ENDBRANCH   9  13
ENDBRANCH   6   8
ENDBRANCH   5   6
ENDBRANCH   4   5
ENDBRANCH   3   4
ENDBRANCH   2   3
ENDBRANCH   1   2
BRANCH   1  30
ATOM     30  C   UNL A   1      40.684  19.883  26.336  1.00  0.00     0.188 C 
BRANCH  30  31
ATOM     31  O   UNL A   1      41.545  18.963  25.686  1.00  0.00    -0.376 OA
BRANCH  31  32
ATOM     32  C   UNL A   1      42.699  18.355  26.251  1.00  0.00     0.202 C 
BRANCH  32  33
ATOM     33  C   UNL A   1      44.111  18.857  25.962  1.00  0.00     0.261 C 
BRANCH  33  34
ATOM     34  O   UNL A   1      44.170  20.245  25.776  1.00  0.00    -0.460 OA
BRANCH  34  35
ATOM     35  C   UNL A   1      44.483  20.601  24.515  1.00  0.00     0.338 C 
ATOM     36  O   UNL A   1      44.464  19.909  23.505  1.00  0.00    -0.246 OA
BRANCH  35  37
ATOM     37  C   UNL A   1      44.849  22.016  24.551  1.00  0.00     0.060 A 
ATOM     38  C   UNL A   1      45.988  22.346  25.282  1.00  0.00     0.016 A 
ATOM     39  C   UNL A   1      43.911  22.965  24.120  1.00  0.00     0.016 A 
ATOM     40  C   UNL A   1      45.985  23.558  25.912  1.00  0.00     0.010 A 
ATOM     41  C   UNL A   1      43.883  24.152  24.784  1.00  0.00     0.010 A 
ATOM     42  C   UNL A   1      44.852  24.359  25.758  1.00  0.00    -0.014 A 
BRANCH  42  43
ATOM     43  C   UNL A   1      44.678  25.461  26.663  1.00  0.00     0.031 A 
ATOM     44  C   UNL A   1      45.736  26.460  26.480  1.00  0.00     0.074 A 
ATOM     45  C   UNL A   1      43.595  25.527  27.461  1.00  0.00     0.049 A 
ATOM     46  N   UNL A   1      46.742  26.682  27.255  1.00  0.00    -0.248 NA
ATOM     47  C   UNL A   1      45.830  27.120  25.165  1.00  0.00     0.031 C 
ATOM     48  C   UNL A   1      42.402  24.670  27.400  1.00  0.00     0.029 A 
ATOM     49  N   UNL A   1      43.270  26.446  28.412  1.00  0.00    -0.354 N 
ATOM     50  C   UNL A   1      47.410  27.736  26.648  1.00  0.00     0.074 A 
ATOM     51  C   UNL A   1      47.005  27.741  25.272  1.00  0.00     0.031 C 
ATOM     52  C   UNL A   1      41.401  25.248  28.101  1.00  0.00     0.029 A 
ATOM     53  C   UNL A   1      41.924  26.427  28.767  1.00  0.00     0.049 A 
ATOM     54  H   UNL A   1      43.924  27.063  28.811  1.00  0.00     0.167 HD
ATOM     55  C   UNL A   1      47.853  28.765  27.418  1.00  0.00     0.037 A 
ATOM     56  C   UNL A   1      41.290  27.377  29.494  1.00  0.00     0.037 A 
ATOM     57  C   UNL A   1      47.897  28.379  28.805  1.00  0.00     0.049 A 
ATOM     58  C   UNL A   1      42.325  28.143  30.232  1.00  0.00     0.074 A 
ATOM     59  C   UNL A   1      48.726  27.632  29.610  1.00  0.00     0.029 A 
ATOM     60  N   UNL A   1      46.693  28.490  29.450  1.00  0.00    -0.354 N 
ATOM     61  N   UNL A   1      43.049  27.628  31.187  1.00  0.00    -0.248 NA
ATOM     62  C   UNL A   1      42.836  29.386  29.659  1.00  0.00     0.031 C 
ATOM     63  C   UNL A   1      47.952  27.246  30.744  1.00  0.00     0.029 A 
ATOM     64  C   UNL A   1      46.676  27.789  30.624  1.00  0.00     0.049 A 
ATOM     65  H   UNL A   1      45.931  29.012  29.109  1.00  0.00     0.167 HD
ATOM     66  C   UNL A   1      44.281  28.237  31.046  1.00  0.00     0.074 A 
ATOM     67  C   UNL A   1      44.048  29.413  30.219  1.00  0.00     0.031 C 
ATOM     68  C   UNL A   1      45.428  27.552  31.309  1.00  0.00     0.037 A 
BRANCH  55  69
ATOM     69  C   UNL A   1      47.728  30.224  27.031  1.00  0.00     0.064 A 
ATOM     70  C   UNL A   1      48.851  31.054  27.202  1.00  0.00     0.173 A 
ATOM     71  C   UNL A   1      46.507  30.900  26.798  1.00  0.00     0.173 A 
ATOM     72  F   UNL A   1      50.058  30.524  27.452  1.00  0.00    -0.203 F 
ATOM     73  C   UNL A   1      48.747  32.448  27.203  1.00  0.00     0.198 A 
ATOM     74  C   UNL A   1      46.417  32.288  26.745  1.00  0.00     0.198 A 
ATOM     75  F   UNL A   1      45.331  30.271  26.723  1.00  0.00    -0.203 F 
ATOM     76  F   UNL A   1      49.822  33.194  27.485  1.00  0.00    -0.200 F 
ATOM     77  C   UNL A   1      47.529  33.063  26.977  1.00  0.00     0.200 A 
ATOM     78  F   UNL A   1      45.220  32.861  26.548  1.00  0.00    -0.200 F 
ATOM     79  F   UNL A   1      47.416  34.396  27.030  1.00  0.00    -0.200 F 
ENDBRANCH  55  69
BRANCH  56  80
ATOM     80  C   UNL A   1      39.893  27.848  29.375  1.00  0.00     0.064 A 
ATOM     81  C   UNL A   1      39.056  27.928  30.498  1.00  0.00     0.173 A 
ATOM     82  C   UNL A   1      39.445  28.494  28.207  1.00  0.00     0.173 A 
ATOM     83  F   UNL A   1      39.433  27.373  31.659  1.00  0.00    -0.203 F 
ATOM     84  C   UNL A   1      37.850  28.637  30.463  1.00  0.00     0.198 A 
ATOM     85  C   UNL A   1      38.240  29.198  28.172  1.00  0.00     0.198 A 
ATOM     86  F   UNL A   1      40.213  28.536  27.108  1.00  0.00    -0.203 F 
ATOM     87  F   UNL A   1      37.105  28.742  31.571  1.00  0.00    -0.200 F 
ATOM     88  C   UNL A   1      37.450  29.281  29.304  1.00  0.00     0.200 A 
ATOM     89  F   UNL A   1      37.884  29.850  27.055  1.00  0.00    -0.200 F 
ATOM     90  F   UNL A   1      36.330  30.016  29.288  1.00  0.00    -0.200 F 
ENDBRANCH  56  80
BRANCH  68  91
ATOM     91  C   UNL A   1      45.341  26.400  32.255  1.00  0.00     0.064 A 
ATOM     92  C   UNL A   1      45.492  26.499  33.646  1.00  0.00     0.173 A 
ATOM     93  C   UNL A   1      45.012  25.147  31.720  1.00  0.00     0.173 A 
ATOM     94  F   UNL A   1      45.740  27.681  34.228  1.00  0.00    -0.203 F 
ATOM     95  C   UNL A   1      45.343  25.378  34.462  1.00  0.00     0.198 A 
ATOM     96  C   UNL A   1      44.830  24.040  32.538  1.00  0.00     0.198 A 
ATOM     97  F   UNL A   1      44.824  25.012  30.397  1.00  0.00    -0.203 F 
ATOM     98  F   UNL A   1      45.499  25.486  35.790  1.00  0.00    -0.200 F 
ATOM     99  C   UNL A   1      45.004  24.152  33.906  1.00  0.00     0.200 A 
ATOM    100  F   UNL A   1      44.462  22.869  31.999  1.00  0.00    -0.200 F 
ATOM    101  F   UNL A   1      44.821  23.083  34.694  1.00  0.00    -0.200 F 
ENDBRANCH  68  91
ENDBRANCH  42  43
ENDBRANCH  35  37
ENDBRANCH  34  35
ENDBRANCH  33  34
ENDBRANCH  32  33
ENDBRANCH  31  32
ENDBRANCH  30  31
ENDBRANCH   1  30
TORSDOF 20
ENDMDL
MODEL 2
REMARK VINA RESULT:     -11.7      1.514      2.498
REMARK SMILES Cc1cc(NC(=O)[C@H]2[C@@H](C(=O)OCCOCCOCCOC(=O)c3ccc(-c4c5nc(c(-c6c(F)c(F)c(F)c(F)c6F)c6ccc([nH]6)c(-c6c(F)c(F)c(F)c(F)c6F)c6nc(c(-c7c(F)c(F)c(F)c(F)c7F)c7ccc4[nH]7)C=C6)C=C5)cc3)C2(C)C)n(-c2ccc(F)cc2)n1
REMARK SMILES IDX 16 1 15 2 14 3 13 4 12 5 10 6 11 7 9 8 8 9 87 10 88 11 89 12
REMARK SMILES IDX 6 13 5 14 7 16 4 17 1 18 2 19 3 20 98 21 90 22 91 23 92 24
REMARK SMILES IDX 97 25 93 26 96 27 94 28 95 29 17 30 18 31 19 32 20 33 21 34
REMARK SMILES IDX 22 35 23 36 24 37 25 38 86 39 26 40 85 41 27 42 28 43 29 44
REMARK SMILES IDX 79 45 30 46 84 47 78 48 80 49 31 50 83 51 77 52 76 53 32 55
REMARK SMILES IDX 64 56 44 57 63 58 45 59 48 60 62 61 81 62 46 63 47 64 61 66
REMARK SMILES IDX 82 67 49 68 33 69 34 70 42 71 35 72 36 73 40 74 43 75 37 76
REMARK SMILES IDX 38 77 41 78 39 79 65 80 66 81 74 82 67 83 68 84 72 85 75 86
REMARK SMILES IDX 69 87 70 88 73 89 71 90 50 91 51 92 59 93 52 94 53 95 57 96
REMARK SMILES IDX 60 97 54 98 55 99 58 100 56 101
REMARK H PARENT 5 15 80 54 48 65
REMARK Flexibility Score: inf
ROOT
ATOM      1  C   UNL A   1      38.029  22.159  25.738  1.00  0.00     0.188 C 
ENDROOT
BRANCH   1   2
ATOM      2  O   UNL A   1      37.342  21.797  24.563  1.00  0.00    -0.376 OA
BRANCH   2   3
ATOM      3  C   UNL A   1      35.916  21.820  24.563  1.00  0.00     0.202 C 
BRANCH   3   4
ATOM      4  C   UNL A   1      35.096  20.562  24.925  1.00  0.00     0.261 C 
BRANCH   4   5
ATOM      5  O   UNL A   1      33.768  20.878  25.381  1.00  0.00    -0.463 OA
BRANCH   5   6
ATOM      6  C   UNL A   1      32.913  21.360  24.443  1.00  0.00     0.310 C 
ATOM      7  O   UNL A   1      32.661  20.844  23.365  1.00  0.00    -0.252 OA
BRANCH   6   8
ATOM      8  C   UNL A   1      32.006  22.394  24.993  1.00  0.00     0.118 C 
ATOM      9  C   UNL A   1      31.917  23.747  24.364  1.00  0.00     0.100 C 
ATOM     10  C   UNL A   1      32.334  23.623  25.831  1.00  0.00    -0.009 C 
ATOM     11  C   UNL A   1      33.758  23.916  26.230  1.00  0.00     0.013 C 
ATOM     12  C   UNL A   1      31.347  24.075  26.890  1.00  0.00     0.013 C 
BRANCH   9  13
ATOM     13  C   UNL A   1      32.833  24.253  23.349  1.00  0.00     0.230 C 
ATOM     14  N   UNL A   1      33.266  25.604  23.357  1.00  0.00    -0.310 N 
ATOM     15  H   UNL A   1      33.837  25.843  22.593  1.00  0.00     0.171 HD
ATOM     16  O   UNL A   1      33.398  23.541  22.537  1.00  0.00    -0.274 OA
BRANCH  14  17
ATOM     17  C   UNL A   1      33.037  26.658  24.239  1.00  0.00     0.136 A 
ATOM     18  C   UNL A   1      34.357  28.785  26.925  1.00  0.00     0.069 C 
ATOM     19  C   UNL A   1      33.622  28.089  25.844  1.00  0.00     0.062 A 
ATOM     20  C   UNL A   1      34.106  27.066  25.014  1.00  0.00     0.072 A 
ATOM     21  N   UNL A   1      32.350  28.378  25.576  1.00  0.00    -0.171 NA
ATOM     22  N   UNL A   1      31.982  27.510  24.603  1.00  0.00    -0.217 N 
BRANCH  22  23
ATOM     23  C   UNL A   1      30.656  27.610  24.132  1.00  0.00     0.067 A 
ATOM     24  C   UNL A   1      30.305  28.721  23.356  1.00  0.00     0.031 A 
ATOM     25  C   UNL A   1      29.737  26.575  24.334  1.00  0.00     0.031 A 
ATOM     26  C   UNL A   1      28.974  28.910  22.979  1.00  0.00     0.041 A 
ATOM     27  C   UNL A   1      28.419  26.739  23.889  1.00  0.00     0.041 A 
ATOM     28  C   UNL A   1      28.039  27.925  23.264  1.00  0.00     0.123 A 
ATOM     29  F   UNL A   1      26.758  28.120  22.928  1.00  0.00    -0.207 F 
ENDBRANCH  22  23
ENDBRANCH  14  17
ENDBRANCH   9  13
ENDBRANCH   6   8
ENDBRANCH   5   6
ENDBRANCH   4   5
ENDBRANCH   3   4
ENDBRANCH   2   3
ENDBRANCH   1   2
BRANCH   1  30
ATOM     30  C   UNL A   1      39.330  21.409  26.041  1.00  0.00     0.188 C 
BRANCH  30  31
ATOM     31  O   UNL A   1      40.045  21.486  27.263  1.00  0.00    -0.376 OA
BRANCH  31  32
ATOM     32  C   UNL A   1      41.400  21.108  27.463  1.00  0.00     0.202 C 
BRANCH  32  33
ATOM     33  C   UNL A   1      42.054  19.971  26.683  1.00  0.00     0.261 C 
BRANCH  33  34
ATOM     34  O   UNL A   1      42.478  20.359  25.404  1.00  0.00    -0.460 OA
BRANCH  34  35
ATOM     35  C   UNL A   1      43.817  20.331  25.255  1.00  0.00     0.338 C 
ATOM     36  O   UNL A   1      44.549  19.354  25.163  1.00  0.00    -0.246 OA
BRANCH  35  37
ATOM     37  C   UNL A   1      44.267  21.721  25.200  1.00  0.00     0.060 A 
ATOM     38  C   UNL A   1      45.384  22.043  25.968  1.00  0.00     0.016 A 
ATOM     39  C   UNL A   1      43.416  22.684  24.642  1.00  0.00     0.016 A 
ATOM     40  C   UNL A   1      45.424  23.301  26.500  1.00  0.00     0.010 A 
ATOM     41  C   UNL A   1      43.426  23.920  25.207  1.00  0.00     0.010 A 
ATOM     42  C   UNL A   1      44.353  24.150  26.217  1.00  0.00    -0.014 A 
BRANCH  42  43
ATOM     43  C   UNL A   1      44.200  25.332  27.021  1.00  0.00     0.031 A 
ATOM     44  C   UNL A   1      45.285  26.283  26.764  1.00  0.00     0.074 A 
ATOM     45  C   UNL A   1      43.112  25.495  27.797  1.00  0.00     0.049 A 
ATOM     46  N   UNL A   1      46.290  26.546  27.528  1.00  0.00    -0.248 NA
ATOM     47  C   UNL A   1      45.409  26.823  25.397  1.00  0.00     0.031 C 
ATOM     48  C   UNL A   1      41.896  24.666  27.798  1.00  0.00     0.029 A 
ATOM     49  N   UNL A   1      42.802  26.501  28.661  1.00  0.00    -0.354 N 
ATOM     50  C   UNL A   1      46.991  27.525  26.839  1.00  0.00     0.074 A 
ATOM     51  C   UNL A   1      46.599  27.420  25.464  1.00  0.00     0.031 C 
ATOM     52  C   UNL A   1      40.905  25.330  28.433  1.00  0.00     0.029 A 
ATOM     53  C   UNL A   1      41.453  26.548  29.001  1.00  0.00     0.049 A 
ATOM     54  H   UNL A   1      43.469  27.133  29.013  1.00  0.00     0.167 HD
ATOM     55  C   UNL A   1      47.454  28.606  27.522  1.00  0.00     0.037 A 
ATOM     56  C   UNL A   1      40.838  27.574  29.635  1.00  0.00     0.037 A 
ATOM     57  C   UNL A   1      47.475  28.341  28.938  1.00  0.00     0.049 A 
ATOM     58  C   UNL A   1      41.886  28.375  30.315  1.00  0.00     0.074 A 
ATOM     59  C   UNL A   1      48.277  27.646  29.815  1.00  0.00     0.029 A 
ATOM     60  N   UNL A   1      46.268  28.539  29.557  1.00  0.00    -0.354 N 
ATOM     61  N   UNL A   1      42.587  27.926  31.320  1.00  0.00    -0.248 NA
ATOM     62  C   UNL A   1      42.435  29.549  29.643  1.00  0.00     0.031 C 
ATOM     63  C   UNL A   1      47.482  27.381  30.969  1.00  0.00     0.029 A 
ATOM     64  C   UNL A   1      46.222  27.944  30.787  1.00  0.00     0.049 A 
ATOM     65  H   UNL A   1      45.524  29.049  29.163  1.00  0.00     0.167 HD
ATOM     66  C   UNL A   1      43.836  28.489  31.141  1.00  0.00     0.074 A 
ATOM     67  C   UNL A   1      43.643  29.594  30.212  1.00  0.00     0.031 C 
ATOM     68  C   UNL A   1      44.962  27.800  31.476  1.00  0.00     0.037 A 
BRANCH  55  69
ATOM     69  C   UNL A   1      47.372  30.028  27.008  1.00  0.00     0.064 A 
ATOM     70  C   UNL A   1      48.513  30.843  27.125  1.00  0.00     0.173 A 
ATOM     71  C   UNL A   1      46.172  30.711  26.698  1.00  0.00     0.173 A 
ATOM     72  F   UNL A   1      49.702  30.307  27.439  1.00  0.00    -0.203 F 
ATOM     73  C   UNL A   1      48.445  32.234  27.003  1.00  0.00     0.198 A 
ATOM     74  C   UNL A   1      46.118  32.091  26.524  1.00  0.00     0.198 A 
ATOM     75  F   UNL A   1      44.981  30.106  26.659  1.00  0.00    -0.203 F 
ATOM     76  F   UNL A   1      49.534  32.975  27.237  1.00  0.00    -0.200 F 
ATOM     77  C   UNL A   1      47.246  32.856  26.706  1.00  0.00     0.200 A 
ATOM     78  F   UNL A   1      44.938  32.673  26.259  1.00  0.00    -0.200 F 
ATOM     79  F   UNL A   1      47.166  34.191  26.641  1.00  0.00    -0.200 F 
ENDBRANCH  55  69
BRANCH  56  80
ATOM     80  C   UNL A   1      39.455  28.068  29.460  1.00  0.00     0.064 A 
ATOM     81  C   UNL A   1      38.591  28.212  30.556  1.00  0.00     0.173 A 
ATOM     82  C   UNL A   1      39.052  28.675  28.255  1.00  0.00     0.173 A 
ATOM     83  F   UNL A   1      38.925  27.698  31.748  1.00  0.00    -0.203 F 
ATOM     84  C   UNL A   1      37.403  28.944  30.460  1.00  0.00     0.198 A 
ATOM     85  C   UNL A   1      37.864  29.402  28.158  1.00  0.00     0.198 A 
ATOM     86  F   UNL A   1      39.849  28.655  27.176  1.00  0.00    -0.203 F 
ATOM     87  F   UNL A   1      36.631  29.111  31.542  1.00  0.00    -0.200 F 
ATOM     88  C   UNL A   1      37.047  29.548  29.264  1.00  0.00     0.200 A 
ATOM     89  F   UNL A   1      37.551  30.014  27.007  1.00  0.00    -0.200 F 
ATOM     90  F   UNL A   1      35.944  30.305  29.188  1.00  0.00    -0.200 F 
ENDBRANCH  56  80
BRANCH  68  91
ATOM     91  C   UNL A   1      44.836  26.737  32.517  1.00  0.00     0.064 A 
ATOM     92  C   UNL A   1      44.786  26.978  33.898  1.00  0.00     0.173 A 
ATOM     93  C   UNL A   1      44.681  25.416  32.077  1.00  0.00     0.173 A 
ATOM     94  F   UNL A   1      44.860  28.226  34.381  1.00  0.00    -0.203 F 
ATOM     95  C   UNL A   1      44.614  25.928  34.800  1.00  0.00     0.198 A 
ATOM     96  C   UNL A   1      44.475  24.377  32.975  1.00  0.00     0.198 A 
ATOM     97  F   UNL A   1      44.687  25.142  30.762  1.00  0.00    -0.203 F 
ATOM     98  F   UNL A   1      44.578  26.172  36.119  1.00  0.00    -0.200 F 
ATOM     99  C   UNL A   1      44.450  24.631  34.336  1.00  0.00     0.200 A 
ATOM    100  F   UNL A   1      44.276  23.132  32.518  1.00  0.00    -0.200 F 
ATOM    101  F   UNL A   1      44.245  23.627  35.201  1.00  0.00    -0.200 F 
ENDBRANCH  68  91
ENDBRANCH  42  43
ENDBRANCH  35  37
ENDBRANCH  34  35
ENDBRANCH  33  34
ENDBRANCH  32  33
ENDBRANCH  31  32
ENDBRANCH  30  31
ENDBRANCH   1  30
TORSDOF 20
ENDMDL
MODEL 3
REMARK VINA RESULT:     -11.5      3.984      9.401
REMARK SMILES Cc1cc(NC(=O)[C@H]2[C@@H](C(=O)OCCOCCOCCOC(=O)c3ccc(-c4c5nc(c(-c6c(F)c(F)c(F)c(F)c6F)c6ccc([nH]6)c(-c6c(F)c(F)c(F)c(F)c6F)c6nc(c(-c7c(F)c(F)c(F)c(F)c7F)c7ccc4[nH]7)C=C6)C=C5)cc3)C2(C)C)n(-c2ccc(F)cc2)n1
REMARK SMILES IDX 16 1 15 2 14 3 13 4 12 5 10 6 11 7 9 8 8 9 87 10 88 11 89 12
REMARK SMILES IDX 6 13 5 14 7 16 4 17 1 18 2 19 3 20 98 21 90 22 91 23 92 24
REMARK SMILES IDX 97 25 93 26 96 27 94 28 95 29 17 30 18 31 19 32 20 33 21 34
REMARK SMILES IDX 22 35 23 36 24 37 25 38 86 39 26 40 85 41 27 42 28 43 29 44
REMARK SMILES IDX 79 45 30 46 84 47 78 48 80 49 31 50 83 51 77 52 76 53 32 55
REMARK SMILES IDX 64 56 44 57 63 58 45 59 48 60 62 61 81 62 46 63 47 64 61 66
REMARK SMILES IDX 82 67 49 68 33 69 34 70 42 71 35 72 36 73 40 74 43 75 37 76
REMARK SMILES IDX 38 77 41 78 39 79 65 80 66 81 74 82 67 83 68 84 72 85 75 86
REMARK SMILES IDX 69 87 70 88 73 89 71 90 50 91 51 92 59 93 52 94 53 95 57 96
REMARK SMILES IDX 60 97 54 98 55 99 58 100 56 101
REMARK H PARENT 5 15 80 54 48 65
REMARK Flexibility Score: inf
ROOT
ATOM      1  C   UNL A   1      33.003  35.639  29.131  1.00  0.00     0.188 C 
ENDROOT
BRANCH   1   2
ATOM      2  O   UNL A   1      32.810  34.258  28.927  1.00  0.00    -0.376 OA
BRANCH   2   3
ATOM      3  C   UNL A   1      33.714  33.554  28.077  1.00  0.00     0.202 C 
BRANCH   3   4
ATOM      4  C   UNL A   1      34.109  32.090  28.369  1.00  0.00     0.261 C 
BRANCH   4   5
ATOM      5  O   UNL A   1      33.259  31.142  27.700  1.00  0.00    -0.463 OA
BRANCH   5   6
ATOM      6  C   UNL A   1      33.877  30.056  27.168  1.00  0.00     0.310 C 
ATOM      7  O   UNL A   1      34.561  29.246  27.776  1.00  0.00    -0.252 OA
BRANCH   6   8
ATOM      8  C   UNL A   1      33.346  29.711  25.829  1.00  0.00     0.118 C 
ATOM      9  C   UNL A   1      32.132  28.852  25.686  1.00  0.00     0.100 C 
ATOM     10  C   UNL A   1      33.451  28.405  25.053  1.00  0.00    -0.009 C 
ATOM     11  C   UNL A   1      34.198  27.231  25.634  1.00  0.00     0.013 C 
ATOM     12  C   UNL A   1      33.566  28.456  23.541  1.00  0.00     0.013 C 
BRANCH   9  13
ATOM     13  C   UNL A   1      31.511  28.101  26.771  1.00  0.00     0.230 C 
ATOM     14  N   UNL A   1      30.826  26.883  26.526  1.00  0.00    -0.310 N 
ATOM     15  H   UNL A   1      30.403  26.498  27.326  1.00  0.00     0.171 HD
ATOM     16  O   UNL A   1      31.663  28.374  27.950  1.00  0.00    -0.274 OA
BRANCH  14  17
ATOM     17  C   UNL A   1      30.637  26.129  25.371  1.00  0.00     0.136 A 
ATOM     18  C   UNL A   1      31.288  22.985  23.589  1.00  0.00     0.069 C 
ATOM     19  C   UNL A   1      30.867  24.306  24.110  1.00  0.00     0.062 A 
ATOM     20  C   UNL A   1      31.130  24.837  25.382  1.00  0.00     0.072 A 
ATOM     21  N   UNL A   1      30.186  25.163  23.351  1.00  0.00    -0.171 NA
ATOM     22  N   UNL A   1      30.044  26.278  24.107  1.00  0.00    -0.217 N 
BRANCH  22  23
ATOM     23  C   UNL A   1      29.345  27.355  23.523  1.00  0.00     0.067 A 
ATOM     24  C   UNL A   1      30.050  28.242  22.702  1.00  0.00     0.031 A 
ATOM     25  C   UNL A   1      27.958  27.477  23.664  1.00  0.00     0.031 A 
ATOM     26  C   UNL A   1      29.415  29.385  22.210  1.00  0.00     0.041 A 
ATOM     27  C   UNL A   1      27.314  28.588  23.105  1.00  0.00     0.041 A 
ATOM     28  C   UNL A   1      28.055  29.556  22.431  1.00  0.00     0.123 A 
ATOM     29  F   UNL A   1      27.453  30.665  21.984  1.00  0.00    -0.207 F 
ENDBRANCH  22  23
ENDBRANCH  14  17
ENDBRANCH   9  13
ENDBRANCH   6   8
ENDBRANCH   5   6
ENDBRANCH   4   5
ENDBRANCH   3   4
ENDBRANCH   2   3
ENDBRANCH   1   2
BRANCH   1  30
ATOM     30  C   UNL A   1      32.740  36.175  30.542  1.00  0.00     0.188 C 
BRANCH  30  31
ATOM     31  O   UNL A   1      33.741  36.429  31.512  1.00  0.00    -0.376 OA
BRANCH  31  32
ATOM     32  C   UNL A   1      34.360  35.460  32.348  1.00  0.00     0.202 C 
BRANCH  32  33
ATOM     33  C   UNL A   1      34.154  33.960  32.151  1.00  0.00     0.261 C 
BRANCH  33  34
ATOM     34  O   UNL A   1      35.157  33.370  31.369  1.00  0.00    -0.460 OA
BRANCH  34  35
ATOM     35  C   UNL A   1      35.820  32.386  32.006  1.00  0.00     0.338 C 
ATOM     36  O   UNL A   1      35.749  32.064  33.185  1.00  0.00    -0.246 OA
BRANCH  35  37
ATOM     37  C   UNL A   1      36.662  31.725  31.009  1.00  0.00     0.060 A 
ATOM     38  C   UNL A   1      36.532  30.343  30.903  1.00  0.00     0.016 A 
ATOM     39  C   UNL A   1      37.726  32.442  30.444  1.00  0.00     0.016 A 
ATOM     40  C   UNL A   1      37.658  29.642  30.575  1.00  0.00     0.010 A 
ATOM     41  C   UNL A   1      38.860  31.747  30.164  1.00  0.00     0.010 A 
ATOM     42  C   UNL A   1      38.829  30.372  30.364  1.00  0.00    -0.014 A 
BRANCH  42  43
ATOM     43  C   UNL A   1      40.075  29.658  30.355  1.00  0.00     0.031 A 
ATOM     44  C   UNL A   1      40.654  29.598  31.701  1.00  0.00     0.074 A 
ATOM     45  C   UNL A   1      40.517  29.067  29.228  1.00  0.00     0.049 A 
ATOM     46  N   UNL A   1      41.659  30.268  32.149  1.00  0.00    -0.248 NA
ATOM     47  C   UNL A   1      39.879  28.902  32.745  1.00  0.00     0.031 C 
ATOM     48  C   UNL A   1      39.768  28.884  27.977  1.00  0.00     0.029 A 
ATOM     49  N   UNL A   1      41.678  28.396  28.996  1.00  0.00    -0.354 N 
ATOM     50  C   UNL A   1      41.810  29.820  33.453  1.00  0.00     0.074 A 
ATOM     51  C   UNL A   1      40.551  29.254  33.841  1.00  0.00     0.031 C 
ATOM     52  C   UNL A   1      40.391  27.957  27.215  1.00  0.00     0.029 A 
ATOM     53  C   UNL A   1      41.642  27.597  27.857  1.00  0.00     0.049 A 
ATOM     54  H   UNL A   1      42.469  28.469  29.578  1.00  0.00     0.167 HD
ATOM     55  C   UNL A   1      43.059  29.537  33.912  1.00  0.00     0.037 A 
ATOM     56  C   UNL A   1      42.554  26.651  27.530  1.00  0.00     0.037 A 
ATOM     57  C   UNL A   1      44.059  30.142  33.069  1.00  0.00     0.049 A 
ATOM     58  C   UNL A   1      43.794  26.940  28.292  1.00  0.00     0.074 A 
ATOM     59  C   UNL A   1      44.586  31.400  32.886  1.00  0.00     0.029 A 
ATOM     60  N   UNL A   1      44.363  29.406  31.954  1.00  0.00    -0.354 N 
ATOM     61  N   UNL A   1      44.533  27.994  28.078  1.00  0.00    -0.248 NA
ATOM     62  C   UNL A   1      44.025  26.260  29.564  1.00  0.00     0.031 C 
ATOM     63  C   UNL A   1      45.172  31.410  31.586  1.00  0.00     0.029 A 
ATOM     64  C   UNL A   1      45.018  30.151  31.013  1.00  0.00     0.049 A 
ATOM     65  H   UNL A   1      44.137  28.453  31.843  1.00  0.00     0.167 HD
ATOM     66  C   UNL A   1      45.003  28.338  29.331  1.00  0.00     0.074 A 
ATOM     67  C   UNL A   1      44.807  27.161  30.165  1.00  0.00     0.031 C 
ATOM     68  C   UNL A   1      45.180  29.645  29.671  1.00  0.00     0.037 A 
BRANCH  55  69
ATOM     69  C   UNL A   1      43.395  28.321  34.749  1.00  0.00     0.064 A 
ATOM     70  C   UNL A   1      43.967  28.527  36.019  1.00  0.00     0.173 A 
ATOM     71  C   UNL A   1      43.470  26.995  34.262  1.00  0.00     0.173 A 
ATOM     72  F   UNL A   1      43.974  29.750  36.571  1.00  0.00    -0.203 F 
ATOM     73  C   UNL A   1      44.615  27.503  36.714  1.00  0.00     0.198 A 
ATOM     74  C   UNL A   1      44.070  25.964  34.981  1.00  0.00     0.198 A 
ATOM     75  F   UNL A   1      43.076  26.649  33.033  1.00  0.00    -0.203 F 
ATOM     76  F   UNL A   1      45.244  27.774  37.864  1.00  0.00    -0.200 F 
ATOM     77  C   UNL A   1      44.669  26.223  36.192  1.00  0.00     0.200 A 
ATOM     78  F   UNL A   1      44.130  24.737  34.443  1.00  0.00    -0.200 F 
ATOM     79  F   UNL A   1      45.335  25.252  36.829  1.00  0.00    -0.200 F 
ENDBRANCH  55  69
BRANCH  56  80
ATOM     80  C   UNL A   1      42.337  25.364  26.834  1.00  0.00     0.064 A 
ATOM     81  C   UNL A   1      43.056  25.035  25.675  1.00  0.00     0.173 A 
ATOM     82  C   UNL A   1      41.626  24.318  27.453  1.00  0.00     0.173 A 
ATOM     83  F   UNL A   1      43.791  25.969  25.052  1.00  0.00    -0.203 F 
ATOM     84  C   UNL A   1      43.084  23.728  25.177  1.00  0.00     0.198 A 
ATOM     85  C   UNL A   1      41.652  23.014  26.954  1.00  0.00     0.198 A 
ATOM     86  F   UNL A   1      40.973  24.521  28.607  1.00  0.00    -0.203 F 
ATOM     87  F   UNL A   1      43.830  23.439  24.102  1.00  0.00    -0.200 F 
ATOM     88  C   UNL A   1      42.393  22.717  25.824  1.00  0.00     0.200 A 
ATOM     89  F   UNL A   1      41.010  22.038  27.611  1.00  0.00    -0.200 F 
ATOM     90  F   UNL A   1      42.473  21.453  25.388  1.00  0.00    -0.200 F 
ENDBRANCH  56  80
BRANCH  68  91
ATOM     91  C   UNL A   1      45.410  30.620  28.564  1.00  0.00     0.064 A 
ATOM     92  C   UNL A   1      44.408  31.403  27.971  1.00  0.00     0.173 A 
ATOM     93  C   UNL A   1      46.732  30.821  28.143  1.00  0.00     0.173 A 
ATOM     94  F   UNL A   1      43.134  31.310  28.375  1.00  0.00    -0.203 F 
ATOM     95  C   UNL A   1      44.721  32.330  26.977  1.00  0.00     0.198 A 
ATOM     96  C   UNL A   1      47.045  31.768  27.178  1.00  0.00     0.198 A 
ATOM     97  F   UNL A   1      47.728  30.119  28.708  1.00  0.00    -0.203 F 
ATOM     98  F   UNL A   1      43.751  33.064  26.412  1.00  0.00    -0.200 F 
ATOM     99  C   UNL A   1      46.040  32.516  26.589  1.00  0.00     0.200 A 
ATOM    100  F   UNL A   1      48.325  31.973  26.838  1.00  0.00    -0.200 F 
ATOM    101  F   UNL A   1      46.346  33.435  25.661  1.00  0.00    -0.200 F 
ENDBRANCH  68  91
ENDBRANCH  42  43
ENDBRANCH  35  37
ENDBRANCH  34  35
ENDBRANCH  33  34
ENDBRANCH  32  33
ENDBRANCH  31  32
ENDBRANCH  30  31
ENDBRANCH   1  30
TORSDOF 20
ENDMDL
