MODEL 1
REMARK VINA RESULT:     -11.2      0.000      0.000
REMARK SMILES N#Cc1ccccc1S(=O)(=O)N1CCC(C(=O)OCCOCCOCCOC(=O)c2ccc(-c3c4nc(c(-c5c(F)c(F)c(F)c(F)c5F)c5ccc([nH]5)c(-c5c(F)c(F)c(F)c(F)c5F)c5nc(c(-c6c(F)c(F)c(F)c(F)c6F)c6ccc3[nH]6)C=C5)C=C4)cc2)CC1
REMARK SMILES IDX 22 1 21 2 20 3 19 4 18 5 16 6 17 7 15 8 12 9 13 10 94 11
REMARK SMILES IDX 14 12 93 13 9 14 10 15 11 16 8 17 3 18 4 19 5 20 7 21 6 22
REMARK SMILES IDX 2 23 1 24 23 25 24 26 25 27 26 28 27 29 28 30 29 31 30 32
REMARK SMILES IDX 31 33 92 34 32 35 91 36 33 37 34 38 35 39 85 40 36 41 90 42
REMARK SMILES IDX 84 43 86 44 37 45 89 46 83 47 82 48 38 50 70 51 50 52 69 53
REMARK SMILES IDX 51 54 54 55 68 56 87 57 52 58 53 59 67 61 88 62 55 63 39 64
REMARK SMILES IDX 40 65 48 66 41 67 42 68 46 69 49 70 43 71 44 72 47 73 45 74
REMARK SMILES IDX 71 75 72 76 80 77 73 78 74 79 78 80 81 81 75 82 76 83 79 84
REMARK SMILES IDX 77 85 56 86 57 87 65 88 58 89 59 90 63 91 66 92 60 93 61 94
REMARK SMILES IDX 64 95 62 96
REMARK H PARENT 86 49 54 60
REMARK Flexibility Score: inf
ROOT
ATOM      1  C   UNL A   1      33.880  35.406  28.971  1.00  0.00     0.188 C 
ENDROOT
BRANCH   1   2
ATOM      2  O   UNL A   1      34.192  34.019  29.054  1.00  0.00    -0.376 OA
BRANCH   2   3
ATOM      3  C   UNL A   1      33.751  33.192  27.978  1.00  0.00     0.202 C 
BRANCH   3   4
ATOM      4  C   UNL A   1      33.833  31.671  28.190  1.00  0.00     0.261 C 
BRANCH   4   5
ATOM      5  O   UNL A   1      33.607  30.878  27.004  1.00  0.00    -0.463 OA
BRANCH   5   6
ATOM      6  C   UNL A   1      34.174  29.646  27.003  1.00  0.00     0.309 C 
ATOM      7  O   UNL A   1      35.245  29.377  27.539  1.00  0.00    -0.252 OA
BRANCH   6   8
ATOM      8  C   UNL A   1      33.331  28.562  26.347  1.00  0.00     0.102 C 
ATOM      9  N   UNL A   1      31.760  26.145  26.027  1.00  0.00    -0.198 NA
ATOM     10  C   UNL A   1      33.099  26.170  25.405  1.00  0.00     0.103 C 
ATOM     11  C   UNL A   1      31.190  27.326  26.687  1.00  0.00     0.103 C 
ATOM     12  C   UNL A   1      34.030  27.295  25.862  1.00  0.00     0.032 C 
ATOM     13  C   UNL A   1      32.242  28.192  27.336  1.00  0.00     0.032 C 
BRANCH   9  14
ATOM     14  S   UNL A   1      30.698  24.921  25.556  1.00  0.00     0.244 S 
ATOM     15  O   UNL A   1      30.001  25.415  24.384  1.00  0.00    -0.207 OA
ATOM     16  O   UNL A   1      29.966  24.481  26.724  1.00  0.00    -0.207 OA
BRANCH  14  17
ATOM     17  C   UNL A   1      31.591  23.484  24.984  1.00  0.00     0.100 A 
ATOM     18  C   UNL A   1      32.408  22.628  25.725  1.00  0.00     0.072 A 
ATOM     19  C   UNL A   1      33.081  21.579  25.061  1.00  0.00     0.021 A 
ATOM     20  C   UNL A   1      32.913  21.355  23.697  1.00  0.00     0.001 A 
ATOM     21  C   UNL A   1      31.422  23.236  23.603  1.00  0.00     0.023 A 
ATOM     22  C   UNL A   1      32.070  22.177  22.968  1.00  0.00     0.001 A 
BRANCH  18  23
ATOM     23  C   UNL A   1      32.620  22.662  27.140  1.00  0.00     0.101 C 
ATOM     24  N   UNL A   1      32.791  22.576  28.281  1.00  0.00    -0.192 NA
ENDBRANCH  18  23
ENDBRANCH  14  17
ENDBRANCH   9  14
ENDBRANCH   6   8
ENDBRANCH   5   6
ENDBRANCH   4   5
ENDBRANCH   3   4
ENDBRANCH   2   3
ENDBRANCH   1   2
BRANCH   1  25
ATOM     25  C   UNL A   1      32.885  35.919  30.005  1.00  0.00     0.188 C 
BRANCH  25  26
ATOM     26  O   UNL A   1      32.966  35.374  31.302  1.00  0.00    -0.376 OA
BRANCH  26  27
ATOM     27  C   UNL A   1      33.997  35.833  32.177  1.00  0.00     0.202 C 
BRANCH  27  28
ATOM     28  C   UNL A   1      34.972  34.901  32.958  1.00  0.00     0.261 C 
BRANCH  28  29
ATOM     29  O   UNL A   1      35.844  33.992  32.250  1.00  0.00    -0.460 OA
BRANCH  29  30
ATOM     30  C   UNL A   1      35.425  32.718  32.064  1.00  0.00     0.338 C 
ATOM     31  O   UNL A   1      34.275  32.327  32.165  1.00  0.00    -0.246 OA
BRANCH  30  32
ATOM     32  C   UNL A   1      36.526  31.920  31.426  1.00  0.00     0.060 A 
ATOM     33  C   UNL A   1      37.411  31.229  32.271  1.00  0.00     0.016 A 
ATOM     34  C   UNL A   1      36.674  31.789  30.042  1.00  0.00     0.016 A 
ATOM     35  C   UNL A   1      38.456  30.454  31.752  1.00  0.00     0.010 A 
ATOM     36  C   UNL A   1      37.747  31.040  29.520  1.00  0.00     0.010 A 
ATOM     37  C   UNL A   1      38.668  30.396  30.370  1.00  0.00    -0.014 A 
BRANCH  37  38
ATOM     38  C   UNL A   1      39.947  29.844  29.831  1.00  0.00     0.031 A 
ATOM     39  C   UNL A   1      41.144  30.758  29.744  1.00  0.00     0.074 A 
ATOM     40  C   UNL A   1      40.076  28.560  29.445  1.00  0.00     0.049 A 
ATOM     41  N   UNL A   1      42.335  30.538  29.247  1.00  0.00    -0.248 NA
ATOM     42  C   UNL A   1      40.966  32.110  30.296  1.00  0.00     0.031 C 
ATOM     43  C   UNL A   1      39.033  27.543  29.526  1.00  0.00     0.029 A 
ATOM     44  N   UNL A   1      41.150  27.896  28.894  1.00  0.00    -0.354 N 
ATOM     45  C   UNL A   1      43.039  31.726  29.408  1.00  0.00     0.074 A 
ATOM     46  C   UNL A   1      42.132  32.673  30.020  1.00  0.00     0.031 C 
ATOM     47  C   UNL A   1      39.508  26.390  29.023  1.00  0.00     0.029 A 
ATOM     48  C   UNL A   1      40.877  26.594  28.549  1.00  0.00     0.049 A 
ATOM     49  H   UNL A   1      42.031  28.316  28.759  1.00  0.00     0.167 HD
ATOM     50  C   UNL A   1      44.325  32.005  29.082  1.00  0.00     0.037 A 
ATOM     51  C   UNL A   1      41.631  25.682  27.898  1.00  0.00     0.037 A 
ATOM     52  C   UNL A   1      45.232  31.068  28.470  1.00  0.00     0.049 A 
ATOM     53  C   UNL A   1      43.031  26.045  27.458  1.00  0.00     0.074 A 
ATOM     54  C   UNL A   1      46.559  31.254  28.122  1.00  0.00     0.029 A 
ATOM     55  N   UNL A   1      44.901  29.774  28.098  1.00  0.00    -0.354 N 
ATOM     56  N   UNL A   1      43.695  27.161  27.634  1.00  0.00    -0.248 NA
ATOM     57  C   UNL A   1      43.785  25.014  26.727  1.00  0.00     0.031 C 
ATOM     58  C   UNL A   1      47.007  30.101  27.470  1.00  0.00     0.029 A 
ATOM     59  C   UNL A   1      45.988  29.164  27.489  1.00  0.00     0.049 A 
ATOM     60  H   UNL A   1      44.025  29.349  28.246  1.00  0.00     0.167 HD
ATOM     61  C   UNL A   1      44.951  26.955  27.072  1.00  0.00     0.074 A 
ATOM     62  C   UNL A   1      44.962  25.601  26.563  1.00  0.00     0.031 C 
ATOM     63  C   UNL A   1      46.000  27.811  26.988  1.00  0.00     0.037 A 
BRANCH  50  64
ATOM     64  C   UNL A   1      44.823  33.401  29.344  1.00  0.00     0.064 A 
ATOM     65  C   UNL A   1      44.682  34.432  28.402  1.00  0.00     0.173 A 
ATOM     66  C   UNL A   1      45.426  33.719  30.573  1.00  0.00     0.173 A 
ATOM     67  F   UNL A   1      44.121  34.186  27.209  1.00  0.00    -0.203 F 
ATOM     68  C   UNL A   1      45.160  35.714  28.664  1.00  0.00     0.198 A 
ATOM     69  C   UNL A   1      45.866  35.011  30.846  1.00  0.00     0.198 A 
ATOM     70  F   UNL A   1      45.579  32.777  31.515  1.00  0.00    -0.203 F 
ATOM     71  F   UNL A   1      45.070  36.665  27.724  1.00  0.00    -0.200 F 
ATOM     72  C   UNL A   1      45.744  36.004  29.888  1.00  0.00     0.200 A 
ATOM     73  F   UNL A   1      46.411  35.293  32.038  1.00  0.00    -0.200 F 
ATOM     74  F   UNL A   1      46.197  37.240  30.140  1.00  0.00    -0.200 F 
ENDBRANCH  50  64
BRANCH  51  75
ATOM     75  C   UNL A   1      41.077  24.332  27.597  1.00  0.00     0.064 A 
ATOM     76  C   UNL A   1      41.575  23.184  28.230  1.00  0.00     0.173 A 
ATOM     77  C   UNL A   1      40.064  24.156  26.642  1.00  0.00     0.173 A 
ATOM     78  F   UNL A   1      42.568  23.291  29.126  1.00  0.00    -0.203 F 
ATOM     79  C   UNL A   1      41.097  21.914  27.906  1.00  0.00     0.198 A 
ATOM     80  C   UNL A   1      39.560  22.891  26.346  1.00  0.00     0.198 A 
ATOM     81  F   UNL A   1      39.558  25.217  25.996  1.00  0.00    -0.203 F 
ATOM     82  F   UNL A   1      41.635  20.832  28.485  1.00  0.00    -0.200 F 
ATOM     83  C   UNL A   1      40.084  21.770  26.971  1.00  0.00     0.200 A 
ATOM     84  F   UNL A   1      38.574  22.756  25.449  1.00  0.00    -0.200 F 
ATOM     85  F   UNL A   1      39.622  20.550  26.664  1.00  0.00    -0.200 F 
ENDBRANCH  51  75
BRANCH  63  86
ATOM     86  C   UNL A   1      47.274  27.303  26.368  1.00  0.00     0.064 A 
ATOM     87  C   UNL A   1      47.547  27.447  24.998  1.00  0.00     0.173 A 
ATOM     88  C   UNL A   1      48.258  26.698  27.167  1.00  0.00     0.173 A 
ATOM     89  F   UNL A   1      46.640  28.009  24.185  1.00  0.00    -0.203 F 
ATOM     90  C   UNL A   1      48.737  26.975  24.450  1.00  0.00     0.198 A 
ATOM     91  C   UNL A   1      49.464  26.264  26.622  1.00  0.00     0.198 A 
ATOM     92  F   UNL A   1      48.059  26.542  28.485  1.00  0.00    -0.203 F 
ATOM     93  F   UNL A   1      48.948  27.071  23.130  1.00  0.00    -0.200 F 
ATOM     94  C   UNL A   1      49.698  26.392  25.262  1.00  0.00     0.200 A 
ATOM     95  F   UNL A   1      50.400  25.722  27.414  1.00  0.00    -0.200 F 
ATOM     96  F   UNL A   1      50.847  25.948  24.733  1.00  0.00    -0.200 F 
ENDBRANCH  63  86
ENDBRANCH  37  38
ENDBRANCH  30  32
ENDBRANCH  29  30
ENDBRANCH  28  29
ENDBRANCH  27  28
ENDBRANCH  26  27
ENDBRANCH  25  26
ENDBRANCH   1  25
TORSDOF 20
ENDMDL
MODEL 2
REMARK VINA RESULT:     -10.8      5.090      7.343
REMARK SMILES N#Cc1ccccc1S(=O)(=O)N1CCC(C(=O)OCCOCCOCCOC(=O)c2ccc(-c3c4nc(c(-c5c(F)c(F)c(F)c(F)c5F)c5ccc([nH]5)c(-c5c(F)c(F)c(F)c(F)c5F)c5nc(c(-c6c(F)c(F)c(F)c(F)c6F)c6ccc3[nH]6)C=C5)C=C4)cc2)CC1
REMARK SMILES IDX 22 1 21 2 20 3 19 4 18 5 16 6 17 7 15 8 12 9 13 10 94 11
REMARK SMILES IDX 14 12 93 13 9 14 10 15 11 16 8 17 3 18 4 19 5 20 7 21 6 22
REMARK SMILES IDX 2 23 1 24 23 25 24 26 25 27 26 28 27 29 28 30 29 31 30 32
REMARK SMILES IDX 31 33 92 34 32 35 91 36 33 37 34 38 35 39 85 40 36 41 90 42
REMARK SMILES IDX 84 43 86 44 37 45 89 46 83 47 82 48 38 50 70 51 50 52 69 53
REMARK SMILES IDX 51 54 54 55 68 56 87 57 52 58 53 59 67 61 88 62 55 63 39 64
REMARK SMILES IDX 40 65 48 66 41 67 42 68 46 69 49 70 43 71 44 72 47 73 45 74
REMARK SMILES IDX 71 75 72 76 80 77 73 78 74 79 78 80 81 81 75 82 76 83 79 84
REMARK SMILES IDX 77 85 56 86 57 87 65 88 58 89 59 90 63 91 66 92 60 93 61 94
REMARK SMILES IDX 64 95 62 96
REMARK H PARENT 86 49 54 60
REMARK Flexibility Score: inf
ROOT
ATOM      1  C   UNL A   1      36.034  32.395  28.381  1.00  0.00     0.188 C 
ENDROOT
BRANCH   1   2
ATOM      2  O   UNL A   1      35.461  31.269  27.725  1.00  0.00    -0.376 OA
BRANCH   2   3
ATOM      3  C   UNL A   1      34.036  31.207  27.672  1.00  0.00     0.202 C 
BRANCH   3   4
ATOM      4  C   UNL A   1      33.415  29.931  27.078  1.00  0.00     0.261 C 
BRANCH   4   5
ATOM      5  O   UNL A   1      33.176  29.977  25.654  1.00  0.00    -0.463 OA
BRANCH   5   6
ATOM      6  C   UNL A   1      31.983  29.482  25.242  1.00  0.00     0.309 C 
ATOM      7  O   UNL A   1      31.004  30.171  24.969  1.00  0.00    -0.252 OA
BRANCH   6   8
ATOM      8  C   UNL A   1      31.956  27.972  25.049  1.00  0.00     0.102 C 
ATOM      9  N   UNL A   1      32.172  25.379  23.769  1.00  0.00    -0.198 NA
ATOM     10  C   UNL A   1      30.816  25.856  24.111  1.00  0.00     0.103 C 
ATOM     11  C   UNL A   1      33.376  26.125  24.155  1.00  0.00     0.103 C 
ATOM     12  C   UNL A   1      30.696  27.339  24.466  1.00  0.00     0.032 C 
ATOM     13  C   UNL A   1      33.150  27.617  24.182  1.00  0.00     0.032 C 
BRANCH   9  14
ATOM     14  S   UNL A   1      32.354  23.750  23.367  1.00  0.00     0.244 S 
ATOM     15  O   UNL A   1      33.126  23.717  22.140  1.00  0.00    -0.207 OA
ATOM     16  O   UNL A   1      31.055  23.117  23.443  1.00  0.00    -0.207 OA
BRANCH  14  17
ATOM     17  C   UNL A   1      33.368  22.904  24.569  1.00  0.00     0.100 A 
ATOM     18  C   UNL A   1      33.202  22.857  25.954  1.00  0.00     0.072 A 
ATOM     19  C   UNL A   1      34.163  22.180  26.736  1.00  0.00     0.021 A 
ATOM     20  C   UNL A   1      35.246  21.525  26.154  1.00  0.00     0.001 A 
ATOM     21  C   UNL A   1      34.465  22.225  23.992  1.00  0.00     0.023 A 
ATOM     22  C   UNL A   1      35.389  21.535  24.776  1.00  0.00     0.001 A 
BRANCH  18  23
ATOM     23  C   UNL A   1      32.108  23.396  26.702  1.00  0.00     0.101 C 
ATOM     24  N   UNL A   1      31.214  23.910  27.226  1.00  0.00    -0.192 NA
ENDBRANCH  18  23
ENDBRANCH  14  17
ENDBRANCH   9  14
ENDBRANCH   6   8
ENDBRANCH   5   6
ENDBRANCH   4   5
ENDBRANCH   3   4
ENDBRANCH   2   3
ENDBRANCH   1   2
BRANCH   1  25
ATOM     25  C   UNL A   1      35.475  33.751  27.968  1.00  0.00     0.188 C 
BRANCH  25  26
ATOM     26  O   UNL A   1      34.932  34.561  28.986  1.00  0.00    -0.376 OA
BRANCH  26  27
ATOM     27  C   UNL A   1      34.017  35.596  28.624  1.00  0.00     0.202 C 
BRANCH  27  28
ATOM     28  C   UNL A   1      32.868  36.119  29.539  1.00  0.00     0.261 C 
BRANCH  28  29
ATOM     29  O   UNL A   1      32.374  35.311  30.630  1.00  0.00    -0.460 OA
BRANCH  29  30
ATOM     30  C   UNL A   1      32.594  35.740  31.895  1.00  0.00     0.338 C 
ATOM     31  O   UNL A   1      31.837  36.432  32.553  1.00  0.00    -0.246 OA
BRANCH  30  32
ATOM     32  C   UNL A   1      33.765  34.999  32.475  1.00  0.00     0.060 A 
ATOM     33  C   UNL A   1      35.028  35.612  32.414  1.00  0.00     0.016 A 
ATOM     34  C   UNL A   1      33.646  33.763  33.117  1.00  0.00     0.016 A 
ATOM     35  C   UNL A   1      36.164  34.989  32.944  1.00  0.00     0.010 A 
ATOM     36  C   UNL A   1      34.795  33.119  33.618  1.00  0.00     0.010 A 
ATOM     37  C   UNL A   1      36.069  33.710  33.502  1.00  0.00    -0.014 A 
BRANCH  37  38
ATOM     38  C   UNL A   1      37.305  32.916  33.774  1.00  0.00     0.031 A 
ATOM     39  C   UNL A   1      38.061  33.180  35.053  1.00  0.00     0.074 A 
ATOM     40  C   UNL A   1      37.752  31.961  32.936  1.00  0.00     0.049 A 
ATOM     41  N   UNL A   1      39.194  32.680  35.478  1.00  0.00    -0.248 NA
ATOM     42  C   UNL A   1      37.450  34.148  35.977  1.00  0.00     0.031 C 
ATOM     43  C   UNL A   1      37.101  31.549  31.697  1.00  0.00     0.029 A 
ATOM     44  N   UNL A   1      38.878  31.170  33.002  1.00  0.00    -0.354 N 
ATOM     45  C   UNL A   1      39.439  33.285  36.705  1.00  0.00     0.074 A 
ATOM     46  C   UNL A   1      38.354  34.212  36.942  1.00  0.00     0.031 C 
ATOM     47  C   UNL A   1      37.845  30.598  31.108  1.00  0.00     0.029 A 
ATOM     48  C   UNL A   1      39.048  30.358  31.906  1.00  0.00     0.049 A 
ATOM     49  H   UNL A   1      39.503  31.186  33.763  1.00  0.00     0.167 HD
ATOM     50  C   UNL A   1      40.470  33.084  37.563  1.00  0.00     0.037 A 
ATOM     51  C   UNL A   1      40.068  29.540  31.570  1.00  0.00     0.037 A 
ATOM     52  C   UNL A   1      41.555  32.165  37.332  1.00  0.00     0.049 A 
ATOM     53  C   UNL A   1      41.255  29.403  32.496  1.00  0.00     0.074 A 
ATOM     54  C   UNL A   1      42.633  31.879  38.152  1.00  0.00     0.029 A 
ATOM     55  N   UNL A   1      41.710  31.394  36.189  1.00  0.00    -0.354 N 
ATOM     56  N   UNL A   1      41.467  29.959  33.664  1.00  0.00    -0.248 NA
ATOM     57  C   UNL A   1      42.345  28.519  32.053  1.00  0.00     0.031 C 
ATOM     58  C   UNL A   1      43.479  30.997  37.473  1.00  0.00     0.029 A 
ATOM     59  C   UNL A   1      42.886  30.663  36.267  1.00  0.00     0.049 A 
ATOM     60  H   UNL A   1      41.078  31.368  35.434  1.00  0.00     0.167 HD
ATOM     61  C   UNL A   1      42.690  29.468  34.108  1.00  0.00     0.074 A 
ATOM     62  C   UNL A   1      43.165  28.554  33.093  1.00  0.00     0.031 C 
ATOM     63  C   UNL A   1      43.356  29.747  35.257  1.00  0.00     0.037 A 
BRANCH  50  64
ATOM     64  C   UNL A   1      40.499  33.908  38.822  1.00  0.00     0.064 A 
ATOM     65  C   UNL A   1      41.154  35.147  38.887  1.00  0.00     0.173 A 
ATOM     66  C   UNL A   1      39.833  33.461  39.976  1.00  0.00     0.173 A 
ATOM     67  F   UNL A   1      41.813  35.621  37.819  1.00  0.00    -0.203 F 
ATOM     68  C   UNL A   1      41.176  35.888  40.067  1.00  0.00     0.198 A 
ATOM     69  C   UNL A   1      39.823  34.223  41.141  1.00  0.00     0.198 A 
ATOM     70  F   UNL A   1      39.181  32.289  39.970  1.00  0.00    -0.203 F 
ATOM     71  F   UNL A   1      41.861  37.037  40.122  1.00  0.00    -0.200 F 
ATOM     72  C   UNL A   1      40.504  35.428  41.190  1.00  0.00     0.200 A 
ATOM     73  F   UNL A   1      39.155  33.786  42.218  1.00  0.00    -0.200 F 
ATOM     74  F   UNL A   1      40.519  36.145  42.322  1.00  0.00    -0.200 F 
ENDBRANCH  50  64
BRANCH  51  75
ATOM     75  C   UNL A   1      40.033  28.793  30.281  1.00  0.00     0.064 A 
ATOM     76  C   UNL A   1      39.443  27.523  30.192  1.00  0.00     0.173 A 
ATOM     77  C   UNL A   1      40.622  29.315  29.119  1.00  0.00     0.173 A 
ATOM     78  F   UNL A   1      38.896  26.962  31.281  1.00  0.00    -0.203 F 
ATOM     79  C   UNL A   1      39.461  26.799  29.000  1.00  0.00     0.198 A 
ATOM     80  C   UNL A   1      40.607  28.606  27.919  1.00  0.00     0.198 A 
ATOM     81  F   UNL A   1      41.212  30.519  29.148  1.00  0.00    -0.203 F 
ATOM     82  F   UNL A   1      38.943  25.564  28.963  1.00  0.00    -0.200 F 
ATOM     83  C   UNL A   1      40.035  27.345  27.863  1.00  0.00     0.200 A 
ATOM     84  F   UNL A   1      41.155  29.142  26.819  1.00  0.00    -0.200 F 
ATOM     85  F   UNL A   1      40.049  26.649  26.717  1.00  0.00    -0.200 F 
ENDBRANCH  51  75
BRANCH  63  86
ATOM     86  C   UNL A   1      44.651  29.023  35.512  1.00  0.00     0.064 A 
ATOM     87  C   UNL A   1      44.697  27.784  36.169  1.00  0.00     0.173 A 
ATOM     88  C   UNL A   1      45.865  29.562  35.054  1.00  0.00     0.173 A 
ATOM     89  F   UNL A   1      43.570  27.226  36.637  1.00  0.00    -0.203 F 
ATOM     90  C   UNL A   1      45.908  27.130  36.386  1.00  0.00     0.198 A 
ATOM     91  C   UNL A   1      47.069  28.886  35.237  1.00  0.00     0.198 A 
ATOM     92  F   UNL A   1      45.883  30.739  34.410  1.00  0.00    -0.203 F 
ATOM     93  F   UNL A   1      45.931  25.977  37.069  1.00  0.00    -0.200 F 
ATOM     94  C   UNL A   1      47.091  27.676  35.913  1.00  0.00     0.200 A 
ATOM     95  F   UNL A   1      48.207  29.407  34.758  1.00  0.00    -0.200 F 
ATOM     96  F   UNL A   1      48.254  27.042  36.115  1.00  0.00    -0.200 F 
ENDBRANCH  63  86
ENDBRANCH  37  38
ENDBRANCH  30  32
ENDBRANCH  29  30
ENDBRANCH  28  29
ENDBRANCH  27  28
ENDBRANCH  26  27
ENDBRANCH  25  26
ENDBRANCH   1  25
TORSDOF 20
ENDMDL
MODEL 3
REMARK VINA RESULT:     -10.8      5.476     10.997
REMARK SMILES N#Cc1ccccc1S(=O)(=O)N1CCC(C(=O)OCCOCCOCCOC(=O)c2ccc(-c3c4nc(c(-c5c(F)c(F)c(F)c(F)c5F)c5ccc([nH]5)c(-c5c(F)c(F)c(F)c(F)c5F)c5nc(c(-c6c(F)c(F)c(F)c(F)c6F)c6ccc3[nH]6)C=C5)C=C4)cc2)CC1
REMARK SMILES IDX 22 1 21 2 20 3 19 4 18 5 16 6 17 7 15 8 12 9 13 10 94 11
REMARK SMILES IDX 14 12 93 13 9 14 10 15 11 16 8 17 3 18 4 19 5 20 7 21 6 22
REMARK SMILES IDX 2 23 1 24 23 25 24 26 25 27 26 28 27 29 28 30 29 31 30 32
REMARK SMILES IDX 31 33 92 34 32 35 91 36 33 37 34 38 35 39 85 40 36 41 90 42
REMARK SMILES IDX 84 43 86 44 37 45 89 46 83 47 82 48 38 50 70 51 50 52 69 53
REMARK SMILES IDX 51 54 54 55 68 56 87 57 52 58 53 59 67 61 88 62 55 63 39 64
REMARK SMILES IDX 40 65 48 66 41 67 42 68 46 69 49 70 43 71 44 72 47 73 45 74
REMARK SMILES IDX 71 75 72 76 80 77 73 78 74 79 78 80 81 81 75 82 76 83 79 84
REMARK SMILES IDX 77 85 56 86 57 87 65 88 58 89 59 90 63 91 66 92 60 93 61 94
REMARK SMILES IDX 64 95 62 96
REMARK H PARENT 86 49 54 60
REMARK Flexibility Score: inf
ROOT
ATOM      1  C   UNL A   1      41.864  19.440  26.732  1.00  0.00     0.188 C 
ENDROOT
BRANCH   1   2
ATOM      2  O   UNL A   1      42.065  20.523  27.633  1.00  0.00    -0.376 OA
BRANCH   2   3
ATOM      3  C   UNL A   1      41.130  21.600  27.568  1.00  0.00     0.202 C 
BRANCH   3   4
ATOM      4  C   UNL A   1      40.289  21.717  26.286  1.00  0.00     0.261 C 
BRANCH   4   5
ATOM      5  O   UNL A   1      38.861  21.774  26.499  1.00  0.00    -0.463 OA
BRANCH   5   6
ATOM      6  C   UNL A   1      38.252  22.918  26.102  1.00  0.00     0.309 C 
ATOM      7  O   UNL A   1      38.674  24.046  26.344  1.00  0.00    -0.252 OA
BRANCH   6   8
ATOM      8  C   UNL A   1      37.018  22.713  25.236  1.00  0.00     0.102 C 
ATOM      9  N   UNL A   1      34.235  22.635  24.424  1.00  0.00    -0.198 NA
ATOM     10  C   UNL A   1      34.921  21.341  24.618  1.00  0.00     0.103 C 
ATOM     11  C   UNL A   1      34.949  23.913  24.526  1.00  0.00     0.103 C 
ATOM     12  C   UNL A   1      36.258  21.395  25.360  1.00  0.00     0.032 C 
ATOM     13  C   UNL A   1      36.079  23.869  25.525  1.00  0.00     0.032 C 
BRANCH   9  14
ATOM     14  S   UNL A   1      32.755  22.625  23.612  1.00  0.00     0.244 S 
ATOM     15  O   UNL A   1      32.095  21.388  23.984  1.00  0.00    -0.207 OA
ATOM     16  O   UNL A   1      32.998  22.947  22.223  1.00  0.00    -0.207 OA
BRANCH  14  17
ATOM     17  C   UNL A   1      31.682  23.916  24.220  1.00  0.00     0.100 A 
ATOM     18  C   UNL A   1      31.268  24.142  25.535  1.00  0.00     0.072 A 
ATOM     19  C   UNL A   1      30.357  25.189  25.795  1.00  0.00     0.021 A 
ATOM     20  C   UNL A   1      29.897  26.024  24.779  1.00  0.00     0.001 A 
ATOM     21  C   UNL A   1      31.216  24.779  23.203  1.00  0.00     0.023 A 
ATOM     22  C   UNL A   1      30.340  25.827  23.480  1.00  0.00     0.001 A 
BRANCH  18  23
ATOM     23  C   UNL A   1      31.708  23.441  26.702  1.00  0.00     0.101 C 
ATOM     24  N   UNL A   1      32.163  22.924  27.631  1.00  0.00    -0.192 NA
ENDBRANCH  18  23
ENDBRANCH  14  17
ENDBRANCH   9  14
ENDBRANCH   6   8
ENDBRANCH   5   6
ENDBRANCH   4   5
ENDBRANCH   3   4
ENDBRANCH   2   3
ENDBRANCH   1   2
BRANCH   1  25
ATOM     25  C   UNL A   1      43.000  19.184  25.749  1.00  0.00     0.188 C 
BRANCH  25  26
ATOM     26  O   UNL A   1      43.388  20.255  24.920  1.00  0.00    -0.376 OA
BRANCH  26  27
ATOM     27  C   UNL A   1      44.711  20.777  25.047  1.00  0.00     0.202 C 
BRANCH  27  28
ATOM     28  C   UNL A   1      45.049  22.216  25.542  1.00  0.00     0.261 C 
BRANCH  28  29
ATOM     29  O   UNL A   1      44.066  23.271  25.456  1.00  0.00    -0.460 OA
BRANCH  29  30
ATOM     30  C   UNL A   1      44.502  24.554  25.476  1.00  0.00     0.338 C 
ATOM     31  O   UNL A   1      45.201  25.080  24.628  1.00  0.00    -0.246 OA
BRANCH  30  32
ATOM     32  C   UNL A   1      43.757  25.315  26.536  1.00  0.00     0.060 A 
ATOM     33  C   UNL A   1      44.091  26.666  26.731  1.00  0.00     0.016 A 
ATOM     34  C   UNL A   1      42.719  24.761  27.290  1.00  0.00     0.016 A 
ATOM     35  C   UNL A   1      43.434  27.445  27.692  1.00  0.00     0.010 A 
ATOM     36  C   UNL A   1      42.082  25.534  28.281  1.00  0.00     0.010 A 
ATOM     37  C   UNL A   1      42.460  26.871  28.516  1.00  0.00    -0.014 A 
BRANCH  37  38
ATOM     38  C   UNL A   1      41.989  27.593  29.735  1.00  0.00     0.031 A 
ATOM     39  C   UNL A   1      40.736  28.428  29.637  1.00  0.00     0.074 A 
ATOM     40  C   UNL A   1      42.625  27.506  30.920  1.00  0.00     0.049 A 
ATOM     41  N   UNL A   1      40.170  29.203  30.528  1.00  0.00    -0.248 NA
ATOM     42  C   UNL A   1      40.026  28.378  28.349  1.00  0.00     0.031 C 
ATOM     43  C   UNL A   1      43.808  26.696  31.188  1.00  0.00     0.029 A 
ATOM     44  N   UNL A   1      42.363  28.126  32.122  1.00  0.00    -0.354 N 
ATOM     45  C   UNL A   1      39.054  29.747  29.904  1.00  0.00     0.074 A 
ATOM     46  C   UNL A   1      39.039  29.238  28.549  1.00  0.00     0.031 C 
ATOM     47  C   UNL A   1      44.184  26.881  32.466  1.00  0.00     0.029 A 
ATOM     48  C   UNL A   1      43.292  27.854  33.098  1.00  0.00     0.049 A 
ATOM     49  H   UNL A   1      41.583  28.710  32.269  1.00  0.00     0.167 HD
ATOM     50  C   UNL A   1      38.120  30.589  30.411  1.00  0.00     0.037 A 
ATOM     51  C   UNL A   1      43.427  28.354  34.345  1.00  0.00     0.037 A 
ATOM     52  C   UNL A   1      38.131  31.102  31.757  1.00  0.00     0.049 A 
ATOM     53  C   UNL A   1      42.429  29.366  34.858  1.00  0.00     0.074 A 
ATOM     54  C   UNL A   1      37.216  31.944  32.367  1.00  0.00     0.029 A 
ATOM     55  N   UNL A   1      39.113  30.834  32.699  1.00  0.00    -0.354 N 
ATOM     56  N   UNL A   1      41.364  29.856  34.271  1.00  0.00    -0.248 NA
ATOM     57  C   UNL A   1      42.653  29.892  36.214  1.00  0.00     0.031 C 
ATOM     58  C   UNL A   1      37.686  32.249  33.647  1.00  0.00     0.029 A 
ATOM     59  C   UNL A   1      38.847  31.527  33.870  1.00  0.00     0.049 A 
ATOM     60  H   UNL A   1      39.885  30.240  32.557  1.00  0.00     0.167 HD
ATOM     61  C   UNL A   1      40.776  30.715  35.193  1.00  0.00     0.074 A 
ATOM     62  C   UNL A   1      41.592  30.667  36.386  1.00  0.00     0.031 C 
ATOM     63  C   UNL A   1      39.658  31.473  35.062  1.00  0.00     0.037 A 
BRANCH  50  64
ATOM     64  C   UNL A   1      37.022  31.047  29.489  1.00  0.00     0.064 A 
ATOM     65  C   UNL A   1      37.028  32.319  28.897  1.00  0.00     0.173 A 
ATOM     66  C   UNL A   1      35.958  30.185  29.172  1.00  0.00     0.173 A 
ATOM     67  F   UNL A   1      38.013  33.187  29.169  1.00  0.00    -0.203 F 
ATOM     68  C   UNL A   1      35.994  32.724  28.055  1.00  0.00     0.198 A 
ATOM     69  C   UNL A   1      34.949  30.579  28.298  1.00  0.00     0.198 A 
ATOM     70  F   UNL A   1      35.905  28.954  29.700  1.00  0.00    -0.203 F 
ATOM     71  F   UNL A   1      35.990  33.966  27.552  1.00  0.00    -0.200 F 
ATOM     72  C   UNL A   1      34.960  31.852  27.751  1.00  0.00     0.200 A 
ATOM     73  F   UNL A   1      33.962  29.726  27.990  1.00  0.00    -0.200 F 
ATOM     74  F   UNL A   1      33.971  32.241  26.935  1.00  0.00    -0.200 F 
ENDBRANCH  50  64
BRANCH  51  75
ATOM     75  C   UNL A   1      44.568  27.926  35.202  1.00  0.00     0.064 A 
ATOM     76  C   UNL A   1      45.808  28.580  35.143  1.00  0.00     0.173 A 
ATOM     77  C   UNL A   1      44.457  26.831  36.072  1.00  0.00     0.173 A 
ATOM     78  F   UNL A   1      45.981  29.612  34.302  1.00  0.00    -0.203 F 
ATOM     79  C   UNL A   1      46.893  28.144  35.902  1.00  0.00     0.198 A 
ATOM     80  C   UNL A   1      45.531  26.418  36.858  1.00  0.00     0.198 A 
ATOM     81  F   UNL A   1      43.299  26.159  36.161  1.00  0.00    -0.203 F 
ATOM     82  F   UNL A   1      48.081  28.752  35.778  1.00  0.00    -0.200 F 
ATOM     83  C   UNL A   1      46.751  27.069  36.765  1.00  0.00     0.200 A 
ATOM     84  F   UNL A   1      45.387  25.385  37.699  1.00  0.00    -0.200 F 
ATOM     85  F   UNL A   1      47.794  26.653  37.498  1.00  0.00    -0.200 F 
ENDBRANCH  51  75
BRANCH  63  86
ATOM     86  C   UNL A   1      39.213  32.280  36.252  1.00  0.00     0.064 A 
ATOM     87  C   UNL A   1      39.683  33.580  36.492  1.00  0.00     0.173 A 
ATOM     88  C   UNL A   1      38.265  31.756  37.147  1.00  0.00     0.173 A 
ATOM     89  F   UNL A   1      40.596  34.128  35.675  1.00  0.00    -0.203 F 
ATOM     90  C   UNL A   1      39.249  34.309  37.596  1.00  0.00     0.198 A 
ATOM     91  C   UNL A   1      37.803  32.504  38.228  1.00  0.00     0.198 A 
ATOM     92  F   UNL A   1      37.770  30.522  36.965  1.00  0.00    -0.203 F 
ATOM     93  F   UNL A   1      39.758  35.526  37.835  1.00  0.00    -0.200 F 
ATOM     94  C   UNL A   1      38.304  33.775  38.458  1.00  0.00     0.200 A 
ATOM     95  F   UNL A   1      36.872  31.992  39.046  1.00  0.00    -0.200 F 
ATOM     96  F   UNL A   1      37.880  34.482  39.516  1.00  0.00    -0.200 F 
ENDBRANCH  63  86
ENDBRANCH  37  38
ENDBRANCH  30  32
ENDBRANCH  29  30
ENDBRANCH  28  29
ENDBRANCH  27  28
ENDBRANCH  26  27
ENDBRANCH  25  26
ENDBRANCH   1  25
TORSDOF 20
ENDMDL
