MODEL 1
REMARK VINA RESULT:     -11.9      0.000      0.000
REMARK SMILES Cc1ccc(-c2csc(NC(=O)[C@H]3[C@@H](C(=O)OCCOCCOCCOC(=O)c4ccc(-c5c6nc(c(-c7c(F)c(F)c(F)c(F)c7F)c7ccc([nH]7)c(-c7c(F)c(F)c(F)c(F)c7F)c7nc(c(-c8c(F)c(F)c(F)c(F)c8F)c8ccc5[nH]8)C=C7)C=C6)cc4)[C@H]4C=C[C@@H]3C4)c2C(=O)NC2CC2)cc1
REMARK SMILES IDX 21 1 20 2 19 3 18 4 17 5 15 6 16 7 14 8 13 9 95 10 92 11
REMARK SMILES IDX 94 12 96 13 93 14 11 15 10 16 12 18 9 19 6 20 7 21 97 22
REMARK SMILES IDX 8 23 5 24 1 25 2 26 3 27 105 28 4 29 104 30 98 31 99 32
REMARK SMILES IDX 100 33 101 35 102 36 103 37 22 38 23 39 24 40 25 41 26 42
REMARK SMILES IDX 27 43 28 44 29 45 30 46 91 47 31 48 90 49 32 50 33 51 34 52
REMARK SMILES IDX 84 53 35 54 89 55 83 56 85 57 36 58 88 59 82 60 81 61 37 63
REMARK SMILES IDX 69 64 49 65 68 66 50 67 53 68 67 69 86 70 51 71 52 72 66 74
REMARK SMILES IDX 87 75 54 76 38 77 39 78 47 79 40 80 41 81 45 82 48 83 42 84
REMARK SMILES IDX 43 85 46 86 44 87 70 88 71 89 79 90 72 91 73 92 77 93 80 94
REMARK SMILES IDX 74 95 75 96 78 97 76 98 55 99 56 100 64 101 57 102 58 103
REMARK SMILES IDX 62 104 65 105 59 106 60 107 63 108 61 109
REMARK H PARENT 10 17 100 34 85 62 53 73
REMARK Flexibility Score: inf
ROOT
ATOM      1  C   UNL A   1      36.436  23.014  24.718  1.00  0.00     0.188 C 
ENDROOT
BRANCH   1   2
ATOM      2  O   UNL A   1      37.683  23.448  25.302  1.00  0.00    -0.376 OA
BRANCH   2   3
ATOM      3  C   UNL A   1      38.445  22.683  26.284  1.00  0.00     0.202 C 
BRANCH   3   4
ATOM      4  C   UNL A   1      40.128  22.366  26.231  1.00  0.00     0.261 C 
BRANCH   4   5
ATOM      5  O   UNL A   1      41.103  21.913  27.554  1.00  0.00    -0.463 OA
BRANCH   5   6
ATOM      6  C   UNL A   1      42.099  21.054  27.131  1.00  0.00     0.310 C 
ATOM      7  O   UNL A   1      41.786  20.139  27.865  1.00  0.00    -0.252 OA
BRANCH   6   8
ATOM      8  C   UNL A   1      43.855  21.257  26.225  1.00  0.00     0.119 C 
ATOM      9  C   UNL A   1      45.436  22.135  26.562  1.00  0.00     0.100 C 
ATOM     10  C   UNL A   1      46.019  22.532  25.151  1.00  0.00     0.025 C 
ATOM     11  C   UNL A   1      44.091  21.690  24.524  1.00  0.00     0.027 C 
ATOM     12  C   UNL A   1      45.256  23.691  24.574  1.00  0.00    -0.027 C 
ATOM     13  C   UNL A   1      45.562  21.434  24.261  1.00  0.00     0.017 C 
ATOM     14  C   UNL A   1      44.076  23.196  24.213  1.00  0.00    -0.027 C 
BRANCH   9  15
ATOM     15  C   UNL A   1      45.897  23.502  27.251  1.00  0.00     0.229 C 
ATOM     16  N   UNL A   1      44.902  24.249  27.889  1.00  0.00    -0.317 N 
ATOM     17  H   UNL A   1      44.291  24.800  27.347  1.00  0.00     0.170 HD
ATOM     18  O   UNL A   1      47.015  24.010  27.167  1.00  0.00    -0.274 OA
BRANCH  16  19
ATOM     19  C   UNL A   1      44.755  24.231  29.265  1.00  0.00     0.108 A 
ATOM     20  C   UNL A   1      44.935  24.659  31.515  1.00  0.00     0.007 A 
ATOM     21  C   UNL A   1      44.213  23.475  31.478  1.00  0.00     0.076 A 
ATOM     22  C   UNL A   1      45.179  25.198  30.183  1.00  0.00     0.082 A 
ATOM     23  S   UNL A   1      43.747  23.050  29.915  1.00  0.00    -0.125 S 
BRANCH  20  24
ATOM     24  C   UNL A   1      45.139  25.185  32.849  1.00  0.00    -0.017 A 
ATOM     25  C   UNL A   1      45.647  27.142  36.620  1.00  0.00     0.044 C 
ATOM     26  C   UNL A   1      45.454  26.297  35.396  1.00  0.00    -0.051 A 
ATOM     27  C   UNL A   1      44.182  26.206  34.823  1.00  0.00     0.004 A 
ATOM     28  C   UNL A   1      46.549  25.717  34.738  1.00  0.00     0.004 A 
ATOM     29  C   UNL A   1      44.022  25.625  33.570  1.00  0.00     0.009 A 
ATOM     30  C   UNL A   1      46.394  25.154  33.466  1.00  0.00     0.009 A 
ENDBRANCH  20  24
BRANCH  22  31
ATOM     31  C   UNL A   1      45.772  26.448  29.638  1.00  0.00     0.255 C 
ATOM     32  O   UNL A   1      45.333  26.938  28.590  1.00  0.00    -0.269 OA
ATOM     33  N   UNL A   1      46.954  26.972  30.119  1.00  0.00    -0.349 N 
ATOM     34  H   UNL A   1      47.798  26.566  29.814  1.00  0.00     0.164 HD
BRANCH  33  35
ATOM     35  C   UNL A   1      47.031  28.080  31.043  1.00  0.00     0.082 C 
ATOM     36  C   UNL A   1      46.337  29.380  30.816  1.00  0.00     0.027 C 
ATOM     37  C   UNL A   1      45.810  28.409  31.840  1.00  0.00     0.027 C 
ENDBRANCH  33  35
ENDBRANCH  22  31
ENDBRANCH  16  19
ENDBRANCH   9  15
ENDBRANCH   6   8
ENDBRANCH   5   6
ENDBRANCH   4   5
ENDBRANCH   3   4
ENDBRANCH   2   3
ENDBRANCH   1   2
BRANCH   1  38
ATOM     38  C   UNL A   1      35.267  23.952  24.379  1.00  0.00     0.188 C 
BRANCH  38  39
ATOM     39  O   UNL A   1      34.053  23.494  24.945  1.00  0.00    -0.376 OA
BRANCH  39  40
ATOM     40  C   UNL A   1      33.061  23.074  24.020  1.00  0.00     0.202 C 
BRANCH  40  41
ATOM     41  C   UNL A   1      32.575  24.169  23.059  1.00  0.00     0.261 C 
BRANCH  41  42
ATOM     42  O   UNL A   1      32.084  25.326  23.769  1.00  0.00    -0.460 OA
BRANCH  42  43
ATOM     43  C   UNL A   1      32.477  26.520  23.217  1.00  0.00     0.338 C 
ATOM     44  O   UNL A   1      32.620  26.730  22.049  1.00  0.00    -0.246 OA
BRANCH  43  45
ATOM     45  C   UNL A   1      32.855  27.451  24.312  1.00  0.00     0.060 A 
ATOM     46  C   UNL A   1      33.131  28.793  24.111  1.00  0.00     0.016 A 
ATOM     47  C   UNL A   1      33.115  26.963  25.547  1.00  0.00     0.016 A 
ATOM     48  C   UNL A   1      33.811  29.579  25.154  1.00  0.00     0.010 A 
ATOM     49  C   UNL A   1      33.962  27.727  26.375  1.00  0.00     0.010 A 
ATOM     50  C   UNL A   1      34.554  29.132  26.260  1.00  0.00    -0.014 A 
BRANCH  50  51
ATOM     51  C   UNL A   1      35.871  30.027  27.324  1.00  0.00     0.031 A 
ATOM     52  C   UNL A   1      35.866  31.723  28.238  1.00  0.00     0.074 A 
ATOM     53  C   UNL A   1      36.684  29.300  28.132  1.00  0.00     0.049 A 
ATOM     54  N   UNL A   1      36.493  32.100  29.354  1.00  0.00    -0.248 NA
ATOM     55  C   UNL A   1      35.132  33.132  27.887  1.00  0.00     0.031 C 
ATOM     56  C   UNL A   1      36.776  29.537  29.581  1.00  0.00     0.029 A 
ATOM     57  N   UNL A   1      37.486  28.194  27.971  1.00  0.00    -0.354 N 
ATOM     58  C   UNL A   1      35.942  33.311  29.858  1.00  0.00     0.074 A 
ATOM     59  C   UNL A   1      35.340  34.018  28.819  1.00  0.00     0.031 C 
ATOM     60  C   UNL A   1      37.752  28.817  30.120  1.00  0.00     0.029 A 
ATOM     61  C   UNL A   1      38.402  28.133  29.046  1.00  0.00     0.049 A 
ATOM     62  H   UNL A   1      37.431  27.551  27.228  1.00  0.00     0.167 HD
ATOM     63  C   UNL A   1      35.861  33.689  31.159  1.00  0.00     0.037 A 
ATOM     64  C   UNL A   1      39.755  28.128  28.873  1.00  0.00     0.037 A 
ATOM     65  C   UNL A   1      36.943  33.096  31.869  1.00  0.00     0.049 A 
ATOM     66  C   UNL A   1      40.435  29.405  29.330  1.00  0.00     0.074 A 
ATOM     67  C   UNL A   1      37.134  32.039  32.719  1.00  0.00     0.029 A 
ATOM     68  N   UNL A   1      38.182  33.469  31.404  1.00  0.00    -0.354 N 
ATOM     69  N   UNL A   1      40.003  30.204  30.271  1.00  0.00    -0.248 NA
ATOM     70  C   UNL A   1      41.623  29.939  28.659  1.00  0.00     0.031 C 
ATOM     71  C   UNL A   1      38.505  31.645  32.554  1.00  0.00     0.029 A 
ATOM     72  C   UNL A   1      39.119  32.498  31.644  1.00  0.00     0.049 A 
ATOM     73  H   UNL A   1      38.372  34.324  30.954  1.00  0.00     0.167 HD
ATOM     74  C   UNL A   1      40.690  31.394  30.189  1.00  0.00     0.074 A 
ATOM     75  C   UNL A   1      41.721  31.163  29.198  1.00  0.00     0.031 C 
ATOM     76  C   UNL A   1      40.339  32.538  30.851  1.00  0.00     0.037 A 
BRANCH  63  77
ATOM     77  C   UNL A   1      34.862  34.700  31.712  1.00  0.00     0.064 A 
ATOM     78  C   UNL A   1      35.079  35.304  32.962  1.00  0.00     0.173 A 
ATOM     79  C   UNL A   1      33.614  35.024  31.110  1.00  0.00     0.173 A 
ATOM     80  F   UNL A   1      36.218  35.083  33.634  1.00  0.00    -0.203 F 
ATOM     81  C   UNL A   1      34.135  36.151  33.562  1.00  0.00     0.198 A 
ATOM     82  C   UNL A   1      32.697  35.914  31.685  1.00  0.00     0.198 A 
ATOM     83  F   UNL A   1      33.220  34.466  29.957  1.00  0.00    -0.203 F 
ATOM     84  F   UNL A   1      34.375  36.656  34.781  1.00  0.00    -0.200 F 
ATOM     85  C   UNL A   1      32.949  36.463  32.922  1.00  0.00     0.200 A 
ATOM     86  F   UNL A   1      31.558  36.215  31.040  1.00  0.00    -0.200 F 
ATOM     87  F   UNL A   1      32.050  37.272  33.501  1.00  0.00    -0.200 F 
ENDBRANCH  63  77
BRANCH  64  88
ATOM     88  C   UNL A   1      40.105  27.223  27.753  1.00  0.00     0.064 A 
ATOM     89  C   UNL A   1      40.482  27.911  26.578  1.00  0.00     0.173 A 
ATOM     90  C   UNL A   1      40.675  25.971  27.998  1.00  0.00     0.173 A 
ATOM     91  F   UNL A   1      39.909  29.089  26.277  1.00  0.00    -0.203 F 
ATOM     92  C   UNL A   1      41.604  27.518  25.867  1.00  0.00     0.198 A 
ATOM     93  C   UNL A   1      41.756  25.545  27.232  1.00  0.00     0.198 A 
ATOM     94  F   UNL A   1      40.290  25.239  29.053  1.00  0.00    -0.203 F 
ATOM     95  F   UNL A   1      42.107  28.313  24.913  1.00  0.00    -0.200 F 
ATOM     96  C   UNL A   1      42.269  26.360  26.230  1.00  0.00     0.200 A 
ATOM     97  F   UNL A   1      42.359  24.386  27.520  1.00  0.00    -0.200 F 
ATOM     98  F   UNL A   1      43.424  26.045  25.626  1.00  0.00    -0.200 F 
ENDBRANCH  64  88
BRANCH  76  99
ATOM     99  C   UNL A   1      41.148  33.813  30.717  1.00  0.00     0.064 A 
ATOM    100  C   UNL A   1      40.940  34.665  29.622  1.00  0.00     0.173 A 
ATOM    101  C   UNL A   1      42.218  34.166  31.571  1.00  0.00     0.173 A 
ATOM    102  F   UNL A   1      39.950  34.419  28.751  1.00  0.00    -0.203 F 
ATOM    103  C   UNL A   1      41.745  35.782  29.391  1.00  0.00     0.198 A 
ATOM    104  C   UNL A   1      43.066  35.242  31.300  1.00  0.00     0.198 A 
ATOM    105  F   UNL A   1      42.465  33.494  32.705  1.00  0.00    -0.203 F 
ATOM    106  F   UNL A   1      41.475  36.593  28.359  1.00  0.00    -0.200 F 
ATOM    107  C   UNL A   1      42.826  36.054  30.212  1.00  0.00     0.200 A 
ATOM    108  F   UNL A   1      44.117  35.480  32.099  1.00  0.00    -0.200 F 
ATOM    109  F   UNL A   1      43.626  37.099  29.960  1.00  0.00    -0.200 F 
ENDBRANCH  76  99
ENDBRANCH  50  51
ENDBRANCH  43  45
ENDBRANCH  42  43
ENDBRANCH  41  42
ENDBRANCH  40  41
ENDBRANCH  39  40
ENDBRANCH  38  39
ENDBRANCH   1  38
TORSDOF 22
ENDMDL
MODEL 2
REMARK VINA RESULT:     -11.4      2.074      2.834
REMARK SMILES Cc1ccc(-c2csc(NC(=O)[C@H]3[C@@H](C(=O)OCCOCCOCCOC(=O)c4ccc(-c5c6nc(c(-c7c(F)c(F)c(F)c(F)c7F)c7ccc([nH]7)c(-c7c(F)c(F)c(F)c(F)c7F)c7nc(c(-c8c(F)c(F)c(F)c(F)c8F)c8ccc5[nH]8)C=C7)C=C6)cc4)[C@H]4C=C[C@@H]3C4)c2C(=O)NC2CC2)cc1
REMARK SMILES IDX 21 1 20 2 19 3 18 4 17 5 15 6 16 7 14 8 13 9 95 10 92 11
REMARK SMILES IDX 94 12 96 13 93 14 11 15 10 16 12 18 9 19 6 20 7 21 97 22
REMARK SMILES IDX 8 23 5 24 1 25 2 26 3 27 105 28 4 29 104 30 98 31 99 32
REMARK SMILES IDX 100 33 101 35 102 36 103 37 22 38 23 39 24 40 25 41 26 42
REMARK SMILES IDX 27 43 28 44 29 45 30 46 91 47 31 48 90 49 32 50 33 51 34 52
REMARK SMILES IDX 84 53 35 54 89 55 83 56 85 57 36 58 88 59 82 60 81 61 37 63
REMARK SMILES IDX 69 64 49 65 68 66 50 67 53 68 67 69 86 70 51 71 52 72 66 74
REMARK SMILES IDX 87 75 54 76 38 77 39 78 47 79 40 80 41 81 45 82 48 83 42 84
REMARK SMILES IDX 43 85 46 86 44 87 70 88 71 89 79 90 72 91 73 92 77 93 80 94
REMARK SMILES IDX 74 95 75 96 78 97 76 98 55 99 56 100 64 101 57 102 58 103
REMARK SMILES IDX 62 104 65 105 59 106 60 107 63 108 61 109
REMARK H PARENT 10 17 100 34 85 62 53 73
REMARK Flexibility Score: inf
ROOT
ATOM      1  C   UNL A   1      36.284  22.632  24.200  1.00  0.00     0.188 C 
ENDROOT
BRANCH   1   2
ATOM      2  O   UNL A   1      37.429  22.225  24.981  1.00  0.00    -0.376 OA
BRANCH   2   3
ATOM      3  C   UNL A   1      37.882  20.845  25.124  1.00  0.00     0.202 C 
BRANCH   3   4
ATOM      4  C   UNL A   1      39.476  20.340  25.494  1.00  0.00     0.261 C 
BRANCH   4   5
ATOM      5  O   UNL A   1      40.810  21.364  25.776  1.00  0.00    -0.463 OA
BRANCH   5   6
ATOM      6  C   UNL A   1      41.754  20.706  26.543  1.00  0.00     0.310 C 
ATOM      7  O   UNL A   1      41.241  20.968  27.612  1.00  0.00    -0.252 OA
BRANCH   6   8
ATOM      8  C   UNL A   1      43.630  20.110  26.279  1.00  0.00     0.119 C 
ATOM      9  C   UNL A   1      45.269  20.919  26.075  1.00  0.00     0.100 C 
ATOM     10  C   UNL A   1      46.105  19.970  25.133  1.00  0.00     0.025 C 
ATOM     11  C   UNL A   1      44.175  18.927  25.078  1.00  0.00     0.027 C 
ATOM     12  C   UNL A   1      45.635  20.095  23.710  1.00  0.00    -0.027 C 
ATOM     13  C   UNL A   1      45.606  18.613  25.468  1.00  0.00     0.017 C 
ATOM     14  C   UNL A   1      44.453  19.487  23.673  1.00  0.00    -0.027 C 
BRANCH   9  15
ATOM     15  C   UNL A   1      45.847  22.255  25.413  1.00  0.00     0.229 C 
ATOM     16  N   UNL A   1      45.327  23.464  25.887  1.00  0.00    -0.317 N 
ATOM     17  H   UNL A   1      44.443  23.764  25.573  1.00  0.00     0.170 HD
ATOM     18  O   UNL A   1      46.612  22.310  24.451  1.00  0.00    -0.274 OA
BRANCH  16  19
ATOM     19  C   UNL A   1      46.027  24.248  26.787  1.00  0.00     0.108 A 
ATOM     20  C   UNL A   1      47.516  25.694  27.771  1.00  0.00     0.007 A 
ATOM     21  C   UNL A   1      46.894  25.099  28.858  1.00  0.00     0.076 A 
ATOM     22  C   UNL A   1      46.930  25.278  26.503  1.00  0.00     0.082 A 
ATOM     23  S   UNL A   1      45.583  24.140  28.408  1.00  0.00    -0.125 S 
BRANCH  20  24
ATOM     24  C   UNL A   1      48.482  26.713  28.129  1.00  0.00    -0.017 A 
ATOM     25  C   UNL A   1      51.300  29.870  28.763  1.00  0.00     0.044 C 
ATOM     26  C   UNL A   1      50.298  28.754  28.727  1.00  0.00    -0.051 A 
ATOM     27  C   UNL A   1      48.948  29.055  28.520  1.00  0.00     0.004 A 
ATOM     28  C   UNL A   1      50.709  27.413  28.754  1.00  0.00     0.004 A 
ATOM     29  C   UNL A   1      48.041  28.036  28.253  1.00  0.00     0.009 A 
ATOM     30  C   UNL A   1      49.801  26.389  28.461  1.00  0.00     0.009 A 
ENDBRANCH  20  24
BRANCH  22  31
ATOM     31  C   UNL A   1      47.104  25.664  25.078  1.00  0.00     0.255 C 
ATOM     32  O   UNL A   1      46.120  25.969  24.393  1.00  0.00    -0.269 OA
ATOM     33  N   UNL A   1      48.293  25.474  24.404  1.00  0.00    -0.349 N 
ATOM     34  H   UNL A   1      48.497  24.570  24.072  1.00  0.00     0.164 HD
BRANCH  33  35
ATOM     35  C   UNL A   1      49.257  26.521  24.155  1.00  0.00     0.082 C 
ATOM     36  C   UNL A   1      49.542  27.615  25.128  1.00  0.00     0.027 C 
ATOM     37  C   UNL A   1      50.531  26.496  24.934  1.00  0.00     0.027 C 
ENDBRANCH  33  35
ENDBRANCH  22  31
ENDBRANCH  16  19
ENDBRANCH   9  15
ENDBRANCH   6   8
ENDBRANCH   5   6
ENDBRANCH   4   5
ENDBRANCH   3   4
ENDBRANCH   2   3
ENDBRANCH   1   2
BRANCH   1  38
ATOM     38  C   UNL A   1      35.375  23.820  24.551  1.00  0.00     0.188 C 
BRANCH  38  39
ATOM     39  O   UNL A   1      34.200  23.396  25.215  1.00  0.00    -0.376 OA
BRANCH  39  40
ATOM     40  C   UNL A   1      33.161  22.909  24.380  1.00  0.00     0.202 C 
BRANCH  40  41
ATOM     41  C   UNL A   1      32.638  23.921  23.350  1.00  0.00     0.261 C 
BRANCH  41  42
ATOM     42  O   UNL A   1      32.148  25.124  23.981  1.00  0.00    -0.460 OA
BRANCH  42  43
ATOM     43  C   UNL A   1      32.559  26.279  23.363  1.00  0.00     0.338 C 
ATOM     44  O   UNL A   1      32.716  26.417  22.186  1.00  0.00    -0.246 OA
BRANCH  43  45
ATOM     45  C   UNL A   1      32.937  27.270  24.404  1.00  0.00     0.060 A 
ATOM     46  C   UNL A   1      33.284  28.580  24.120  1.00  0.00     0.016 A 
ATOM     47  C   UNL A   1      33.125  26.861  25.681  1.00  0.00     0.016 A 
ATOM     48  C   UNL A   1      33.957  29.409  25.133  1.00  0.00     0.010 A 
ATOM     49  C   UNL A   1      33.974  27.646  26.488  1.00  0.00     0.010 A 
ATOM     50  C   UNL A   1      34.635  29.012  26.299  1.00  0.00    -0.014 A 
BRANCH  50  51
ATOM     51  C   UNL A   1      35.949  29.924  27.352  1.00  0.00     0.031 A 
ATOM     52  C   UNL A   1      35.943  31.635  28.236  1.00  0.00     0.074 A 
ATOM     53  C   UNL A   1      36.759  29.210  28.176  1.00  0.00     0.049 A 
ATOM     54  N   UNL A   1      36.567  32.031  29.348  1.00  0.00    -0.248 NA
ATOM     55  C   UNL A   1      35.212  33.039  27.858  1.00  0.00     0.031 C 
ATOM     56  C   UNL A   1      36.845  29.472  29.621  1.00  0.00     0.029 A 
ATOM     57  N   UNL A   1      37.559  28.101  28.037  1.00  0.00    -0.354 N 
ATOM     58  C   UNL A   1      36.015  33.252  29.828  1.00  0.00     0.074 A 
ATOM     59  C   UNL A   1      35.418  33.941  28.775  1.00  0.00     0.031 C 
ATOM     60  C   UNL A   1      37.819  28.760  30.176  1.00  0.00     0.029 A 
ATOM     61  C   UNL A   1      38.471  28.057  29.116  1.00  0.00     0.049 A 
ATOM     62  H   UNL A   1      37.506  27.444  27.305  1.00  0.00     0.167 HD
ATOM     63  C   UNL A   1      35.930  33.652  31.122  1.00  0.00     0.037 A 
ATOM     64  C   UNL A   1      39.825  28.048  28.948  1.00  0.00     0.037 A 
ATOM     65  C   UNL A   1      37.009  33.070  31.846  1.00  0.00     0.049 A 
ATOM     66  C   UNL A   1      40.505  29.331  29.385  1.00  0.00     0.074 A 
ATOM     67  C   UNL A   1      37.195  32.028  32.715  1.00  0.00     0.029 A 
ATOM     68  N   UNL A   1      38.250  33.434  31.379  1.00  0.00    -0.354 N 
ATOM     69  N   UNL A   1      40.070  30.147  30.311  1.00  0.00    -0.248 NA
ATOM     70  C   UNL A   1      41.696  29.852  28.710  1.00  0.00     0.031 C 
ATOM     71  C   UNL A   1      38.566  31.629  32.563  1.00  0.00     0.029 A 
ATOM     72  C   UNL A   1      39.184  32.466  31.640  1.00  0.00     0.049 A 
ATOM     73  H   UNL A   1      38.442  34.281  30.916  1.00  0.00     0.167 HD
ATOM     74  C   UNL A   1      40.759  31.335  30.210  1.00  0.00     0.074 A 
ATOM     75  C   UNL A   1      41.794  31.085  29.227  1.00  0.00     0.031 C 
ATOM     76  C   UNL A   1      40.407  32.490  30.851  1.00  0.00     0.037 A 
BRANCH  63  77
ATOM     77  C   UNL A   1      34.930  34.674  31.654  1.00  0.00     0.064 A 
ATOM     78  C   UNL A   1      35.134  35.286  32.902  1.00  0.00     0.173 A 
ATOM     79  C   UNL A   1      33.693  35.002  31.032  1.00  0.00     0.173 A 
ATOM     80  F   UNL A   1      36.262  35.063  33.591  1.00  0.00    -0.203 F 
ATOM     81  C   UNL A   1      34.188  36.144  33.483  1.00  0.00     0.198 A 
ATOM     82  C   UNL A   1      32.774  35.902  31.588  1.00  0.00     0.198 A 
ATOM     83  F   UNL A   1      33.311  34.438  29.878  1.00  0.00    -0.203 F 
ATOM     84  F   UNL A   1      34.415  36.657  34.701  1.00  0.00    -0.200 F 
ATOM     85  C   UNL A   1      33.013  36.459  32.824  1.00  0.00     0.200 A 
ATOM     86  F   UNL A   1      31.647  36.206  30.925  1.00  0.00    -0.200 F 
ATOM     87  F   UNL A   1      32.112  37.278  33.385  1.00  0.00    -0.200 F 
ENDBRANCH  63  77
BRANCH  64  88
ATOM     88  C   UNL A   1      40.177  27.123  27.845  1.00  0.00     0.064 A 
ATOM     89  C   UNL A   1      40.543  27.789  26.655  1.00  0.00     0.173 A 
ATOM     90  C   UNL A   1      40.759  25.881  28.114  1.00  0.00     0.173 A 
ATOM     91  F   UNL A   1      39.960  28.955  26.332  1.00  0.00    -0.203 F 
ATOM     92  C   UNL A   1      41.666  27.390  25.947  1.00  0.00     0.198 A 
ATOM     93  C   UNL A   1      41.840  25.448  27.352  1.00  0.00     0.198 A 
ATOM     94  F   UNL A   1      40.385  25.167  29.185  1.00  0.00    -0.203 F 
ATOM     95  F   UNL A   1      42.159  28.171  24.975  1.00  0.00    -0.200 F 
ATOM     96  C   UNL A   1      42.342  26.246  26.331  1.00  0.00     0.200 A 
ATOM     97  F   UNL A   1      42.454  24.300  27.660  1.00  0.00    -0.200 F 
ATOM     98  F   UNL A   1      43.498  25.929  25.729  1.00  0.00    -0.200 F 
ENDBRANCH  64  88
BRANCH  76  99
ATOM     99  C   UNL A   1      41.218  33.762  30.697  1.00  0.00     0.064 A 
ATOM    100  C   UNL A   1      40.979  34.622  29.615  1.00  0.00     0.173 A 
ATOM    101  C   UNL A   1      42.319  34.104  31.517  1.00  0.00     0.173 A 
ATOM    102  F   UNL A   1      39.958  34.386  28.777  1.00  0.00    -0.203 F 
ATOM    103  C   UNL A   1      41.782  35.736  29.365  1.00  0.00     0.198 A 
ATOM    104  C   UNL A   1      43.163  35.176  31.225  1.00  0.00     0.198 A 
ATOM    105  F   UNL A   1      42.600  33.423  32.638  1.00  0.00    -0.203 F 
ATOM    106  F   UNL A   1      41.481  36.555  28.347  1.00  0.00    -0.200 F 
ATOM    107  C   UNL A   1      42.891  35.997  30.150  1.00  0.00     0.200 A 
ATOM    108  F   UNL A   1      44.242  35.403  31.989  1.00  0.00    -0.200 F 
ATOM    109  F   UNL A   1      43.688  37.039  29.878  1.00  0.00    -0.200 F 
ENDBRANCH  76  99
ENDBRANCH  50  51
ENDBRANCH  43  45
ENDBRANCH  42  43
ENDBRANCH  41  42
ENDBRANCH  40  41
ENDBRANCH  39  40
ENDBRANCH  38  39
ENDBRANCH   1  38
TORSDOF 22
ENDMDL
MODEL 3
REMARK VINA RESULT:     -11.1      4.041      9.008
REMARK SMILES Cc1ccc(-c2csc(NC(=O)[C@H]3[C@@H](C(=O)OCCOCCOCCOC(=O)c4ccc(-c5c6nc(c(-c7c(F)c(F)c(F)c(F)c7F)c7ccc([nH]7)c(-c7c(F)c(F)c(F)c(F)c7F)c7nc(c(-c8c(F)c(F)c(F)c(F)c8F)c8ccc5[nH]8)C=C7)C=C6)cc4)[C@H]4C=C[C@@H]3C4)c2C(=O)NC2CC2)cc1
REMARK SMILES IDX 21 1 20 2 19 3 18 4 17 5 15 6 16 7 14 8 13 9 95 10 92 11
REMARK SMILES IDX 94 12 96 13 93 14 11 15 10 16 12 18 9 19 6 20 7 21 97 22
REMARK SMILES IDX 8 23 5 24 1 25 2 26 3 27 105 28 4 29 104 30 98 31 99 32
REMARK SMILES IDX 100 33 101 35 102 36 103 37 22 38 23 39 24 40 25 41 26 42
REMARK SMILES IDX 27 43 28 44 29 45 30 46 91 47 31 48 90 49 32 50 33 51 34 52
REMARK SMILES IDX 84 53 35 54 89 55 83 56 85 57 36 58 88 59 82 60 81 61 37 63
REMARK SMILES IDX 69 64 49 65 68 66 50 67 53 68 67 69 86 70 51 71 52 72 66 74
REMARK SMILES IDX 87 75 54 76 38 77 39 78 47 79 40 80 41 81 45 82 48 83 42 84
REMARK SMILES IDX 43 85 46 86 44 87 70 88 71 89 79 90 72 91 73 92 77 93 80 94
REMARK SMILES IDX 74 95 75 96 78 97 76 98 55 99 56 100 64 101 57 102 58 103
REMARK SMILES IDX 62 104 65 105 59 106 60 107 63 108 61 109
REMARK H PARENT 10 17 100 34 85 62 53 73
REMARK Flexibility Score: inf
ROOT
ATOM      1  C   UNL A   1      51.752  32.504  28.973  1.00  0.00     0.188 C 
ENDROOT
BRANCH   1   2
ATOM      2  O   UNL A   1      50.934  31.427  29.477  1.00  0.00    -0.376 OA
BRANCH   2   3
ATOM      3  C   UNL A   1      49.494  31.519  29.701  1.00  0.00     0.202 C 
BRANCH   3   4
ATOM      4  C   UNL A   1      48.272  31.273  28.527  1.00  0.00     0.261 C 
BRANCH   4   5
ATOM      5  O   UNL A   1      48.501  30.633  26.963  1.00  0.00    -0.463 OA
BRANCH   5   6
ATOM      6  C   UNL A   1      47.798  29.451  26.832  1.00  0.00     0.310 C 
ATOM      7  O   UNL A   1      47.487  29.367  28.002  1.00  0.00    -0.252 OA
BRANCH   6   8
ATOM      8  C   UNL A   1      47.763  27.960  25.519  1.00  0.00     0.119 C 
ATOM      9  C   UNL A   1      46.505  26.786  24.868  1.00  0.00     0.100 C 
ATOM     10  C   UNL A   1      47.284  25.454  24.547  1.00  0.00     0.025 C 
ATOM     11  C   UNL A   1      48.907  26.609  25.466  1.00  0.00     0.027 C 
ATOM     12  C   UNL A   1      47.616  24.719  25.816  1.00  0.00    -0.027 C 
ATOM     13  C   UNL A   1      48.633  25.923  24.142  1.00  0.00     0.017 C 
ATOM     14  C   UNL A   1      48.582  25.426  26.393  1.00  0.00    -0.027 C 
BRANCH   9  15
ATOM     15  C   UNL A   1      45.215  26.020  25.420  1.00  0.00     0.229 C 
ATOM     16  N   UNL A   1      44.815  26.327  26.724  1.00  0.00    -0.317 N 
ATOM     17  H   UNL A   1      45.300  25.930  27.484  1.00  0.00     0.170 HD
ATOM     18  O   UNL A   1      44.621  25.105  24.850  1.00  0.00    -0.274 OA
BRANCH  16  19
ATOM     19  C   UNL A   1      43.752  27.179  26.973  1.00  0.00     0.108 A 
ATOM     20  C   UNL A   1      41.683  28.052  27.455  1.00  0.00     0.007 A 
ATOM     21  C   UNL A   1      42.394  29.158  27.015  1.00  0.00     0.076 A 
ATOM     22  C   UNL A   1      42.517  26.860  27.546  1.00  0.00     0.082 A 
ATOM     23  S   UNL A   1      44.033  28.830  26.801  1.00  0.00    -0.125 S 
BRANCH  20  24
ATOM     24  C   UNL A   1      40.332  28.351  27.886  1.00  0.00    -0.017 A 
ATOM     25  C   UNL A   1      36.486  29.654  29.236  1.00  0.00     0.044 C 
ATOM     26  C   UNL A   1      37.745  29.052  28.686  1.00  0.00    -0.051 A 
ATOM     27  C   UNL A   1      38.262  29.535  27.479  1.00  0.00     0.004 A 
ATOM     28  C   UNL A   1      38.486  28.120  29.427  1.00  0.00     0.004 A 
ATOM     29  C   UNL A   1      39.536  29.161  27.067  1.00  0.00     0.009 A 
ATOM     30  C   UNL A   1      39.778  27.762  29.027  1.00  0.00     0.009 A 
ENDBRANCH  20  24
BRANCH  22  31
ATOM     31  C   UNL A   1      42.331  25.472  28.048  1.00  0.00     0.255 C 
ATOM     32  O   UNL A   1      42.827  25.132  29.130  1.00  0.00    -0.269 OA
ATOM     33  N   UNL A   1      41.825  24.464  27.254  1.00  0.00    -0.349 N 
ATOM     34  H   UNL A   1      42.433  24.034  26.610  1.00  0.00     0.164 HD
BRANCH  33  35
ATOM     35  C   UNL A   1      40.459  23.999  27.310  1.00  0.00     0.082 C 
ATOM     36  C   UNL A   1      39.339  24.821  27.853  1.00  0.00     0.027 C 
ATOM     37  C   UNL A   1      39.474  24.611  26.368  1.00  0.00     0.027 C 
ENDBRANCH  33  35
ENDBRANCH  22  31
ENDBRANCH  16  19
ENDBRANCH   9  15
ENDBRANCH   6   8
ENDBRANCH   5   6
ENDBRANCH   4   5
ENDBRANCH   3   4
ENDBRANCH   2   3
ENDBRANCH   1   2
BRANCH   1  38
ATOM     38  C   UNL A   1      51.886  32.866  27.485  1.00  0.00     0.188 C 
BRANCH  38  39
ATOM     39  O   UNL A   1      51.262  34.103  27.194  1.00  0.00    -0.376 OA
BRANCH  39  40
ATOM     40  C   UNL A   1      50.188  34.050  26.267  1.00  0.00     0.202 C 
BRANCH  40  41
ATOM     41  C   UNL A   1      48.911  34.771  26.723  1.00  0.00     0.261 C 
BRANCH  41  42
ATOM     42  O   UNL A   1      47.783  33.872  26.795  1.00  0.00    -0.460 OA
BRANCH  42  43
ATOM     43  C   UNL A   1      46.682  34.311  26.103  1.00  0.00     0.338 C 
ATOM     44  O   UNL A   1      46.694  35.123  25.225  1.00  0.00    -0.246 OA
BRANCH  43  45
ATOM     45  C   UNL A   1      45.463  33.741  26.733  1.00  0.00     0.060 A 
ATOM     46  C   UNL A   1      44.313  34.474  26.970  1.00  0.00     0.016 A 
ATOM     47  C   UNL A   1      45.503  32.497  27.266  1.00  0.00     0.016 A 
ATOM     48  C   UNL A   1      43.276  33.961  27.880  1.00  0.00     0.010 A 
ATOM     49  C   UNL A   1      44.579  32.207  28.289  1.00  0.00     0.010 A 
ATOM     50  C   UNL A   1      43.368  32.951  28.853  1.00  0.00    -0.014 A 
BRANCH  50  51
ATOM     51  C   UNL A   1      42.282  32.595  30.389  1.00  0.00     0.031 A 
ATOM     52  C   UNL A   1      40.564  33.264  30.946  1.00  0.00     0.074 A 
ATOM     53  C   UNL A   1      42.253  31.341  30.911  1.00  0.00     0.049 A 
ATOM     54  N   UNL A   1      39.602  32.675  31.660  1.00  0.00    -0.248 NA
ATOM     55  C   UNL A   1      39.848  34.709  30.725  1.00  0.00     0.031 C 
ATOM     56  C   UNL A   1      41.005  30.580  31.072  1.00  0.00     0.029 A 
ATOM     57  N   UNL A   1      43.200  30.423  31.299  1.00  0.00    -0.354 N 
ATOM     58  C   UNL A   1      38.377  33.390  31.541  1.00  0.00     0.074 A 
ATOM     59  C   UNL A   1      38.640  34.718  31.213  1.00  0.00     0.031 C 
ATOM     60  C   UNL A   1      41.214  29.459  31.750  1.00  0.00     0.029 A 
ATOM     61  C   UNL A   1      42.591  29.463  32.139  1.00  0.00     0.049 A 
ATOM     62  H   UNL A   1      44.149  30.433  31.036  1.00  0.00     0.167 HD
ATOM     63  C   UNL A   1      37.124  32.869  31.587  1.00  0.00     0.037 A 
ATOM     64  C   UNL A   1      43.008  29.215  33.414  1.00  0.00     0.037 A 
ATOM     65  C   UNL A   1      37.147  31.706  32.406  1.00  0.00     0.049 A 
ATOM     66  C   UNL A   1      42.035  29.686  34.478  1.00  0.00     0.074 A 
ATOM     67  C   UNL A   1      37.153  30.347  32.231  1.00  0.00     0.029 A 
ATOM     68  N   UNL A   1      37.544  31.948  33.701  1.00  0.00    -0.354 N 
ATOM     69  N   UNL A   1      40.739  29.792  34.334  1.00  0.00    -0.248 NA
ATOM     70  C   UNL A   1      42.485  30.188  35.779  1.00  0.00     0.031 C 
ATOM     71  C   UNL A   1      37.798  29.804  33.393  1.00  0.00     0.029 A 
ATOM     72  C   UNL A   1      38.127  30.841  34.259  1.00  0.00     0.049 A 
ATOM     73  H   UNL A   1      37.425  32.808  34.166  1.00  0.00     0.167 HD
ATOM     74  C   UNL A   1      40.238  30.536  35.378  1.00  0.00     0.074 A 
ATOM     75  C   UNL A   1      41.360  30.721  36.278  1.00  0.00     0.031 C 
ATOM     76  C   UNL A   1      38.972  31.050  35.426  1.00  0.00     0.037 A 
BRANCH  63  77
ATOM     77  C   UNL A   1      35.887  33.523  30.979  1.00  0.00     0.064 A 
ATOM     78  C   UNL A   1      35.658  33.464  29.594  1.00  0.00     0.173 A 
ATOM     79  C   UNL A   1      34.954  34.324  31.696  1.00  0.00     0.173 A 
ATOM     80  F   UNL A   1      36.463  32.740  28.804  1.00  0.00    -0.203 F 
ATOM     81  C   UNL A   1      34.598  34.145  28.977  1.00  0.00     0.198 A 
ATOM     82  C   UNL A   1      33.864  34.958  31.086  1.00  0.00     0.198 A 
ATOM     83  F   UNL A   1      35.081  34.550  33.012  1.00  0.00    -0.203 F 
ATOM     84  F   UNL A   1      34.461  34.094  27.644  1.00  0.00    -0.200 F 
ATOM     85  C   UNL A   1      33.697  34.885  29.721  1.00  0.00     0.200 A 
ATOM     86  F   UNL A   1      32.992  35.659  31.829  1.00  0.00    -0.200 F 
ATOM     87  F   UNL A   1      32.686  35.534  29.126  1.00  0.00    -0.200 F 
ENDBRANCH  63  77
BRANCH  64  88
ATOM     88  C   UNL A   1      44.488  29.165  33.446  1.00  0.00     0.064 A 
ATOM     89  C   UNL A   1      45.010  27.906  33.075  1.00  0.00     0.173 A 
ATOM     90  C   UNL A   1      45.247  30.304  33.166  1.00  0.00     0.173 A 
ATOM     91  F   UNL A   1      44.338  26.784  33.382  1.00  0.00    -0.203 F 
ATOM     92  C   UNL A   1      46.070  27.822  32.186  1.00  0.00     0.198 A 
ATOM     93  C   UNL A   1      46.357  30.204  32.332  1.00  0.00     0.198 A 
ATOM     94  F   UNL A   1      44.840  31.515  33.571  1.00  0.00    -0.203 F 
ATOM     95  F   UNL A   1      46.395  26.643  31.638  1.00  0.00    -0.200 F 
ATOM     96  C   UNL A   1      46.708  28.979  31.777  1.00  0.00     0.200 A 
ATOM     97  F   UNL A   1      47.036  31.306  31.993  1.00  0.00    -0.200 F 
ATOM     98  F   UNL A   1      47.648  28.913  30.823  1.00  0.00    -0.200 F 
ENDBRANCH  64  88
BRANCH  76  99
ATOM     99  C   UNL A   1      38.487  31.857  36.614  1.00  0.00     0.064 A 
ATOM    100  C   UNL A   1      38.857  33.204  36.747  1.00  0.00     0.173 A 
ATOM    101  C   UNL A   1      37.766  31.312  37.701  1.00  0.00     0.173 A 
ATOM    102  F   UNL A   1      39.545  33.816  35.771  1.00  0.00    -0.203 F 
ATOM    103  C   UNL A   1      38.539  33.949  37.884  1.00  0.00     0.198 A 
ATOM    104  C   UNL A   1      37.510  32.037  38.867  1.00  0.00     0.198 A 
ATOM    105  F   UNL A   1      37.268  30.067  37.662  1.00  0.00    -0.203 F 
ATOM    106  F   UNL A   1      38.872  35.246  37.942  1.00  0.00    -0.200 F 
ATOM    107  C   UNL A   1      37.893  33.359  38.956  1.00  0.00     0.200 A 
ATOM    108  F   UNL A   1      36.895  31.442  39.900  1.00  0.00    -0.200 F 
ATOM    109  F   UNL A   1      37.631  34.063  40.065  1.00  0.00    -0.200 F 
ENDBRANCH  76  99
ENDBRANCH  50  51
ENDBRANCH  43  45
ENDBRANCH  42  43
ENDBRANCH  41  42
ENDBRANCH  40  41
ENDBRANCH  39  40
ENDBRANCH  38  39
ENDBRANCH   1  38
TORSDOF 22
ENDMDL
