MODEL 1
REMARK VINA RESULT:     -10.6      0.000      0.000
REMARK SMILES Cc1ccc(C(=O)OCCOCCOCCOC(=O)c2ccc(-c3c4nc(c(-c5c(F)c(F)c(F)c(F)c5F)c5ccc([nH]5)c(-c5c(F)c(F)c(F)c(F)c5F)c5nc(c(-c6c(F)c(F)c(F)c(F)c6F)c6ccc3[nH]6)C=C5)C=C4)cc2)c(Cl)c1
REMARK SMILES IDX 13 1 12 2 11 3 10 4 9 5 8 6 6 7 7 8 5 9 1 10 2 11 3 12 85 13
REMARK SMILES IDX 4 14 83 15 84 16 14 17 15 18 16 19 17 20 18 21 19 22 20 23
REMARK SMILES IDX 21 24 82 25 22 26 81 27 23 28 24 29 25 30 75 31 26 32 80 33
REMARK SMILES IDX 74 34 76 35 27 36 79 37 73 38 72 39 28 41 60 42 40 43 59 44
REMARK SMILES IDX 41 45 44 46 58 47 77 48 42 49 43 50 57 52 78 53 45 54 29 55
REMARK SMILES IDX 30 56 38 57 31 58 32 59 36 60 39 61 33 62 34 63 37 64 35 65
REMARK SMILES IDX 61 66 62 67 70 68 63 69 64 70 68 71 71 72 65 73 66 74 69 75
REMARK SMILES IDX 67 76 46 77 47 78 55 79 48 80 49 81 53 82 56 83 50 84 51 85
REMARK SMILES IDX 54 86 52 87
REMARK H PARENT 76 40 44 51
REMARK Flexibility Score: inf
ROOT
ATOM      1  C   UNL A   1      40.860  20.590  26.860  1.00  0.00     0.188 C 
ENDROOT
BRANCH   1   2
ATOM      2  C   UNL A   1      39.849  21.746  26.717  1.00  0.00     0.188 C 
BRANCH   2   3
ATOM      3  O   UNL A   1      38.959  21.681  25.628  1.00  0.00    -0.376 OA
BRANCH   3   4
ATOM      4  C   UNL A   1      37.815  22.519  25.582  1.00  0.00     0.202 C 
BRANCH   4   5
ATOM      5  C   UNL A   1      36.397  22.093  25.149  1.00  0.00     0.261 C 
BRANCH   5   6
ATOM      6  O   UNL A   1      35.418  23.122  24.992  1.00  0.00    -0.460 OA
BRANCH   6   7
ATOM      7  C   UNL A   1      35.168  23.521  23.715  1.00  0.00     0.339 C 
ATOM      8  O   UNL A   1      35.777  23.197  22.719  1.00  0.00    -0.246 OA
BRANCH   7   9
ATOM      9  C   UNL A   1      33.945  24.356  23.709  1.00  0.00     0.078 A 
ATOM     10  C   UNL A   1      30.466  26.902  23.581  1.00  0.00     0.044 C 
ATOM     11  C   UNL A   1      31.669  26.008  23.667  1.00  0.00    -0.050 A 
ATOM     12  C   UNL A   1      32.798  26.380  24.406  1.00  0.00     0.004 A 
ATOM     13  C   UNL A   1      31.670  24.780  22.993  1.00  0.00     0.024 A 
ATOM     14  C   UNL A   1      33.931  25.561  24.428  1.00  0.00     0.017 A 
ATOM     15  C   UNL A   1      32.800  23.955  23.009  1.00  0.00     0.055 A 
ATOM     16  Cl  UNL A   1      32.667  22.431  22.203  1.00  0.00    -0.083 Cl
ENDBRANCH   7   9
ENDBRANCH   6   7
ENDBRANCH   5   6
ENDBRANCH   4   5
ENDBRANCH   3   4
ENDBRANCH   2   3
ENDBRANCH   1   2
BRANCH   1  17
ATOM     17  O   UNL A   1      41.619  20.166  25.746  1.00  0.00    -0.376 OA
BRANCH  17  18
ATOM     18  C   UNL A   1      43.034  20.278  25.771  1.00  0.00     0.202 C 
BRANCH  18  19
ATOM     19  C   UNL A   1      43.801  21.532  25.307  1.00  0.00     0.261 C 
BRANCH  19  20
ATOM     20  O   UNL A   1      43.028  22.702  25.012  1.00  0.00    -0.460 OA
BRANCH  20  21
ATOM     21  C   UNL A   1      43.715  23.872  25.013  1.00  0.00     0.338 C 
ATOM     22  O   UNL A   1      44.641  24.192  24.290  1.00  0.00    -0.246 OA
BRANCH  21  23
ATOM     23  C   UNL A   1      43.057  24.818  25.934  1.00  0.00     0.060 A 
ATOM     24  C   UNL A   1      43.427  26.170  25.891  1.00  0.00     0.016 A 
ATOM     25  C   UNL A   1      42.125  24.368  26.869  1.00  0.00     0.016 A 
ATOM     26  C   UNL A   1      42.874  27.077  26.794  1.00  0.00     0.010 A 
ATOM     27  C   UNL A   1      41.591  25.275  27.790  1.00  0.00     0.010 A 
ATOM     28  C   UNL A   1      41.982  26.627  27.775  1.00  0.00    -0.014 A 
BRANCH  28  29
ATOM     29  C   UNL A   1      41.589  27.530  28.884  1.00  0.00     0.031 A 
ATOM     30  C   UNL A   1      42.374  27.484  30.164  1.00  0.00     0.074 A 
ATOM     31  C   UNL A   1      40.561  28.388  28.753  1.00  0.00     0.049 A 
ATOM     32  N   UNL A   1      42.173  28.122  31.290  1.00  0.00    -0.248 NA
ATOM     33  C   UNL A   1      43.547  26.595  30.178  1.00  0.00     0.031 C 
ATOM     34  C   UNL A   1      39.754  28.564  27.549  1.00  0.00     0.029 A 
ATOM     35  N   UNL A   1      40.014  29.264  29.659  1.00  0.00    -0.354 N 
ATOM     36  C   UNL A   1      43.187  27.706  32.144  1.00  0.00     0.074 A 
ATOM     37  C   UNL A   1      43.984  26.740  31.421  1.00  0.00     0.031 C 
ATOM     38  C   UNL A   1      38.800  29.478  27.795  1.00  0.00     0.029 A 
ATOM     39  C   UNL A   1      38.906  29.922  29.185  1.00  0.00     0.049 A 
ATOM     40  H   UNL A   1      40.380  29.406  30.561  1.00  0.00     0.167 HD
ATOM     41  C   UNL A   1      43.434  28.102  33.416  1.00  0.00     0.037 A 
ATOM     42  C   UNL A   1      38.060  30.762  29.813  1.00  0.00     0.037 A 
ATOM     43  C   UNL A   1      42.638  29.061  34.136  1.00  0.00     0.049 A 
ATOM     44  C   UNL A   1      38.306  31.118  31.259  1.00  0.00     0.074 A 
ATOM     45  C   UNL A   1      42.816  29.538  35.423  1.00  0.00     0.029 A 
ATOM     46  N   UNL A   1      41.504  29.683  33.633  1.00  0.00    -0.354 N 
ATOM     47  N   UNL A   1      39.280  30.743  32.053  1.00  0.00    -0.248 NA
ATOM     48  C   UNL A   1      37.333  32.019  31.895  1.00  0.00     0.031 C 
ATOM     49  C   UNL A   1      41.757  30.400  35.721  1.00  0.00     0.029 A 
ATOM     50  C   UNL A   1      40.955  30.515  34.597  1.00  0.00     0.049 A 
ATOM     51  H   UNL A   1      41.142  29.552  32.727  1.00  0.00     0.167 HD
ATOM     52  C   UNL A   1      39.057  31.387  33.266  1.00  0.00     0.074 A 
ATOM     53  C   UNL A   1      37.864  32.189  33.097  1.00  0.00     0.031 C 
ATOM     54  C   UNL A   1      39.775  31.321  34.413  1.00  0.00     0.037 A 
BRANCH  41  55
ATOM     55  C   UNL A   1      44.601  27.477  34.125  1.00  0.00     0.064 A 
ATOM     56  C   UNL A   1      45.880  28.053  34.095  1.00  0.00     0.173 A 
ATOM     57  C   UNL A   1      44.425  26.310  34.883  1.00  0.00     0.173 A 
ATOM     58  F   UNL A   1      46.104  29.162  33.375  1.00  0.00    -0.203 F 
ATOM     59  C   UNL A   1      46.944  27.471  34.779  1.00  0.00     0.198 A 
ATOM     60  C   UNL A   1      45.484  25.748  35.592  1.00  0.00     0.198 A 
ATOM     61  F   UNL A   1      43.222  25.720  34.950  1.00  0.00    -0.203 F 
ATOM     62  F   UNL A   1      48.166  28.014  34.699  1.00  0.00    -0.200 F 
ATOM     63  C   UNL A   1      46.743  26.326  35.535  1.00  0.00     0.200 A 
ATOM     64  F   UNL A   1      45.284  24.650  36.335  1.00  0.00    -0.200 F 
ATOM     65  F   UNL A   1      47.765  25.774  36.202  1.00  0.00    -0.200 F 
ENDBRANCH  41  55
BRANCH  42  66
ATOM     66  C   UNL A   1      36.881  31.315  29.093  1.00  0.00     0.064 A 
ATOM     67  C   UNL A   1      36.815  32.671  28.742  1.00  0.00     0.173 A 
ATOM     68  C   UNL A   1      35.775  30.510  28.783  1.00  0.00     0.173 A 
ATOM     69  F   UNL A   1      37.834  33.490  29.043  1.00  0.00    -0.203 F 
ATOM     70  C   UNL A   1      35.680  33.206  28.138  1.00  0.00     0.198 A 
ATOM     71  C   UNL A   1      34.653  31.038  28.148  1.00  0.00     0.198 A 
ATOM     72  F   UNL A   1      35.780  29.207  29.103  1.00  0.00    -0.203 F 
ATOM     73  F   UNL A   1      35.618  34.518  27.875  1.00  0.00    -0.200 F 
ATOM     74  C   UNL A   1      34.601  32.388  27.837  1.00  0.00     0.200 A 
ATOM     75  F   UNL A   1      33.616  30.242  27.851  1.00  0.00    -0.200 F 
ATOM     76  F   UNL A   1      33.506  32.903  27.261  1.00  0.00    -0.200 F 
ENDBRANCH  42  66
BRANCH  54  77
ATOM     77  C   UNL A   1      39.325  32.174  35.568  1.00  0.00     0.064 A 
ATOM     78  C   UNL A   1      38.451  31.690  36.552  1.00  0.00     0.173 A 
ATOM     79  C   UNL A   1      39.812  33.484  35.712  1.00  0.00     0.173 A 
ATOM     80  F   UNL A   1      37.946  30.451  36.458  1.00  0.00    -0.203 F 
ATOM     81  C   UNL A   1      38.058  32.495  37.620  1.00  0.00     0.198 A 
ATOM     82  C   UNL A   1      39.446  34.271  36.799  1.00  0.00     0.198 A 
ATOM     83  F   UNL A   1      40.658  33.995  34.805  1.00  0.00    -0.203 F 
ATOM     84  F   UNL A   1      37.181  32.028  38.519  1.00  0.00    -0.200 F 
ATOM     85  C   UNL A   1      38.562  33.781  37.747  1.00  0.00     0.200 A 
ATOM     86  F   UNL A   1      39.949  35.507  36.930  1.00  0.00    -0.200 F 
ATOM     87  F   UNL A   1      38.191  34.548  38.781  1.00  0.00    -0.200 F 
ENDBRANCH  54  77
ENDBRANCH  28  29
ENDBRANCH  21  23
ENDBRANCH  20  21
ENDBRANCH  19  20
ENDBRANCH  18  19
ENDBRANCH  17  18
ENDBRANCH   1  17
TORSDOF 17
ENDMDL
MODEL 2
REMARK VINA RESULT:     -10.6      1.472      2.167
REMARK SMILES Cc1ccc(C(=O)OCCOCCOCCOC(=O)c2ccc(-c3c4nc(c(-c5c(F)c(F)c(F)c(F)c5F)c5ccc([nH]5)c(-c5c(F)c(F)c(F)c(F)c5F)c5nc(c(-c6c(F)c(F)c(F)c(F)c6F)c6ccc3[nH]6)C=C5)C=C4)cc2)c(Cl)c1
REMARK SMILES IDX 13 1 12 2 11 3 10 4 9 5 8 6 6 7 7 8 5 9 1 10 2 11 3 12 85 13
REMARK SMILES IDX 4 14 83 15 84 16 14 17 15 18 16 19 17 20 18 21 19 22 20 23
REMARK SMILES IDX 21 24 82 25 22 26 81 27 23 28 24 29 25 30 75 31 26 32 80 33
REMARK SMILES IDX 74 34 76 35 27 36 79 37 73 38 72 39 28 41 60 42 40 43 59 44
REMARK SMILES IDX 41 45 44 46 58 47 77 48 42 49 43 50 57 52 78 53 45 54 29 55
REMARK SMILES IDX 30 56 38 57 31 58 32 59 36 60 39 61 33 62 34 63 37 64 35 65
REMARK SMILES IDX 61 66 62 67 70 68 63 69 64 70 68 71 71 72 65 73 66 74 69 75
REMARK SMILES IDX 67 76 46 77 47 78 55 79 48 80 49 81 53 82 56 83 50 84 51 85
REMARK SMILES IDX 54 86 52 87
REMARK H PARENT 76 40 44 51
REMARK Flexibility Score: inf
ROOT
ATOM      1  C   UNL A   1      40.700  20.623  26.768  1.00  0.00     0.188 C 
ENDROOT
BRANCH   1   2
ATOM      2  C   UNL A   1      39.846  21.899  26.913  1.00  0.00     0.188 C 
BRANCH   2   3
ATOM      3  O   UNL A   1      38.822  22.089  25.966  1.00  0.00    -0.376 OA
BRANCH   3   4
ATOM      4  C   UNL A   1      38.029  23.266  25.988  1.00  0.00     0.202 C 
BRANCH   4   5
ATOM      5  C   UNL A   1      36.689  23.470  25.250  1.00  0.00     0.261 C 
BRANCH   5   6
ATOM      6  O   UNL A   1      36.041  22.309  24.728  1.00  0.00    -0.460 OA
BRANCH   6   7
ATOM      7  C   UNL A   1      34.909  21.914  25.374  1.00  0.00     0.339 C 
ATOM      8  O   UNL A   1      34.238  22.574  26.136  1.00  0.00    -0.246 OA
BRANCH   7   9
ATOM      9  C   UNL A   1      34.554  20.550  24.917  1.00  0.00     0.078 A 
ATOM     10  C   UNL A   1      33.525  16.525  23.761  1.00  0.00     0.044 C 
ATOM     11  C   UNL A   1      33.907  17.930  24.128  1.00  0.00    -0.050 A 
ATOM     12  C   UNL A   1      35.216  18.251  24.505  1.00  0.00     0.004 A 
ATOM     13  C   UNL A   1      32.939  18.941  24.100  1.00  0.00     0.024 A 
ATOM     14  C   UNL A   1      35.541  19.552  24.898  1.00  0.00     0.017 A 
ATOM     15  C   UNL A   1      33.254  20.246  24.494  1.00  0.00     0.055 A 
ATOM     16  Cl  UNL A   1      32.002  21.430  24.353  1.00  0.00    -0.083 Cl
ENDBRANCH   7   9
ENDBRANCH   6   7
ENDBRANCH   5   6
ENDBRANCH   4   5
ENDBRANCH   3   4
ENDBRANCH   2   3
ENDBRANCH   1   2
BRANCH   1  17
ATOM     17  O   UNL A   1      41.398  20.365  25.566  1.00  0.00    -0.376 OA
BRANCH  17  18
ATOM     18  C   UNL A   1      42.817  20.341  25.565  1.00  0.00     0.202 C 
BRANCH  18  19
ATOM     19  C   UNL A   1      43.693  21.551  25.186  1.00  0.00     0.261 C 
BRANCH  19  20
ATOM     20  O   UNL A   1      43.021  22.787  24.911  1.00  0.00    -0.460 OA
BRANCH  20  21
ATOM     21  C   UNL A   1      43.780  23.904  25.036  1.00  0.00     0.338 C 
ATOM     22  O   UNL A   1      44.779  24.199  24.406  1.00  0.00    -0.246 OA
BRANCH  21  23
ATOM     23  C   UNL A   1      43.112  24.842  25.959  1.00  0.00     0.060 A 
ATOM     24  C   UNL A   1      43.476  26.196  25.927  1.00  0.00     0.016 A 
ATOM     25  C   UNL A   1      42.178  24.381  26.887  1.00  0.00     0.016 A 
ATOM     26  C   UNL A   1      42.914  27.094  26.832  1.00  0.00     0.010 A 
ATOM     27  C   UNL A   1      41.635  25.279  27.811  1.00  0.00     0.010 A 
ATOM     28  C   UNL A   1      42.019  26.634  27.806  1.00  0.00    -0.014 A 
BRANCH  28  29
ATOM     29  C   UNL A   1      41.616  27.528  28.919  1.00  0.00     0.031 A 
ATOM     30  C   UNL A   1      42.396  27.478  30.203  1.00  0.00     0.074 A 
ATOM     31  C   UNL A   1      40.584  28.381  28.788  1.00  0.00     0.049 A 
ATOM     32  N   UNL A   1      42.186  28.108  31.331  1.00  0.00    -0.248 NA
ATOM     33  C   UNL A   1      43.573  26.595  30.216  1.00  0.00     0.031 C 
ATOM     34  C   UNL A   1      39.782  28.560  27.581  1.00  0.00     0.029 A 
ATOM     35  N   UNL A   1      40.028  29.248  29.697  1.00  0.00    -0.354 N 
ATOM     36  C   UNL A   1      43.198  27.692  32.188  1.00  0.00     0.074 A 
ATOM     37  C   UNL A   1      44.003  26.735  31.462  1.00  0.00     0.031 C 
ATOM     38  C   UNL A   1      38.822  29.468  27.828  1.00  0.00     0.029 A 
ATOM     39  C   UNL A   1      38.920  29.904  29.221  1.00  0.00     0.049 A 
ATOM     40  H   UNL A   1      40.390  29.386  30.601  1.00  0.00     0.167 HD
ATOM     41  C   UNL A   1      43.437  28.082  33.463  1.00  0.00     0.037 A 
ATOM     42  C   UNL A   1      38.066  30.736  29.851  1.00  0.00     0.037 A 
ATOM     43  C   UNL A   1      42.632  29.032  34.185  1.00  0.00     0.049 A 
ATOM     44  C   UNL A   1      38.303  31.084  31.300  1.00  0.00     0.074 A 
ATOM     45  C   UNL A   1      42.802  29.502  35.475  1.00  0.00     0.029 A 
ATOM     46  N   UNL A   1      41.497  29.651  33.680  1.00  0.00    -0.354 N 
ATOM     47  N   UNL A   1      39.275  30.708  32.097  1.00  0.00    -0.248 NA
ATOM     48  C   UNL A   1      37.322  31.975  31.937  1.00  0.00     0.031 C 
ATOM     49  C   UNL A   1      41.736  30.356  35.774  1.00  0.00     0.029 A 
ATOM     50  C   UNL A   1      40.940  30.474  34.646  1.00  0.00     0.049 A 
ATOM     51  H   UNL A   1      41.140  29.524  32.771  1.00  0.00     0.167 HD
ATOM     52  C   UNL A   1      39.043  31.344  33.312  1.00  0.00     0.074 A 
ATOM     53  C   UNL A   1      37.846  32.141  33.142  1.00  0.00     0.031 C 
ATOM     54  C   UNL A   1      39.756  31.275  34.462  1.00  0.00     0.037 A 
BRANCH  41  55
ATOM     55  C   UNL A   1      44.603  27.459  34.173  1.00  0.00     0.064 A 
ATOM     56  C   UNL A   1      45.909  27.951  34.025  1.00  0.00     0.173 A 
ATOM     57  C   UNL A   1      44.404  26.382  35.051  1.00  0.00     0.173 A 
ATOM     58  F   UNL A   1      46.155  28.970  33.189  1.00  0.00    -0.203 F 
ATOM     59  C   UNL A   1      46.975  27.374  34.712  1.00  0.00     0.198 A 
ATOM     60  C   UNL A   1      45.467  25.829  35.761  1.00  0.00     0.198 A 
ATOM     61  F   UNL A   1      43.176  25.875  35.233  1.00  0.00    -0.203 F 
ATOM     62  F   UNL A   1      48.219  27.833  34.521  1.00  0.00    -0.200 F 
ATOM     63  C   UNL A   1      46.751  26.321  35.586  1.00  0.00     0.200 A 
ATOM     64  F   UNL A   1      45.247  24.821  36.617  1.00  0.00    -0.200 F 
ATOM     65  F   UNL A   1      47.776  25.775  36.256  1.00  0.00    -0.200 F 
ENDBRANCH  41  55
BRANCH  42  66
ATOM     66  C   UNL A   1      36.887  31.286  29.129  1.00  0.00     0.064 A 
ATOM     67  C   UNL A   1      36.838  32.633  28.740  1.00  0.00     0.173 A 
ATOM     68  C   UNL A   1      35.765  30.490  28.853  1.00  0.00     0.173 A 
ATOM     69  F   UNL A   1      37.873  33.444  29.007  1.00  0.00    -0.203 F 
ATOM     70  C   UNL A   1      35.704  33.168  28.134  1.00  0.00     0.198 A 
ATOM     71  C   UNL A   1      34.644  31.018  28.216  1.00  0.00     0.198 A 
ATOM     72  F   UNL A   1      35.755  29.197  29.210  1.00  0.00    -0.203 F 
ATOM     73  F   UNL A   1      35.660  34.473  27.835  1.00  0.00    -0.200 F 
ATOM     74  C   UNL A   1      34.610  32.360  27.867  1.00  0.00     0.200 A 
ATOM     75  F   UNL A   1      33.592  30.231  27.953  1.00  0.00    -0.200 F 
ATOM     76  F   UNL A   1      33.517  32.876  27.290  1.00  0.00    -0.200 F 
ENDBRANCH  42  66
BRANCH  54  77
ATOM     77  C   UNL A   1      39.296  32.119  35.619  1.00  0.00     0.064 A 
ATOM     78  C   UNL A   1      38.397  31.634  36.581  1.00  0.00     0.173 A 
ATOM     79  C   UNL A   1      39.798  33.419  35.791  1.00  0.00     0.173 A 
ATOM     80  F   UNL A   1      37.877  30.403  36.460  1.00  0.00    -0.203 F 
ATOM     81  C   UNL A   1      37.995  32.429  37.652  1.00  0.00     0.198 A 
ATOM     82  C   UNL A   1      39.422  34.197  36.882  1.00  0.00     0.198 A 
ATOM     83  F   UNL A   1      40.668  33.931  34.908  1.00  0.00    -0.203 F 
ATOM     84  F   UNL A   1      37.094  31.963  38.528  1.00  0.00    -0.200 F 
ATOM     85  C   UNL A   1      38.514  33.706  37.806  1.00  0.00     0.200 A 
ATOM     86  F   UNL A   1      39.940  35.424  37.039  1.00  0.00    -0.200 F 
ATOM     87  F   UNL A   1      38.134  34.465  38.844  1.00  0.00    -0.200 F 
ENDBRANCH  54  77
ENDBRANCH  28  29
ENDBRANCH  21  23
ENDBRANCH  20  21
ENDBRANCH  19  20
ENDBRANCH  18  19
ENDBRANCH  17  18
ENDBRANCH   1  17
TORSDOF 17
ENDMDL
MODEL 3
REMARK VINA RESULT:     -10.3      3.606      8.836
REMARK SMILES Cc1ccc(C(=O)OCCOCCOCCOC(=O)c2ccc(-c3c4nc(c(-c5c(F)c(F)c(F)c(F)c5F)c5ccc([nH]5)c(-c5c(F)c(F)c(F)c(F)c5F)c5nc(c(-c6c(F)c(F)c(F)c(F)c6F)c6ccc3[nH]6)C=C5)C=C4)cc2)c(Cl)c1
REMARK SMILES IDX 13 1 12 2 11 3 10 4 9 5 8 6 6 7 7 8 5 9 1 10 2 11 3 12 85 13
REMARK SMILES IDX 4 14 83 15 84 16 14 17 15 18 16 19 17 20 18 21 19 22 20 23
REMARK SMILES IDX 21 24 82 25 22 26 81 27 23 28 24 29 25 30 75 31 26 32 80 33
REMARK SMILES IDX 74 34 76 35 27 36 79 37 73 38 72 39 28 41 60 42 40 43 59 44
REMARK SMILES IDX 41 45 44 46 58 47 77 48 42 49 43 50 57 52 78 53 45 54 29 55
REMARK SMILES IDX 30 56 38 57 31 58 32 59 36 60 39 61 33 62 34 63 37 64 35 65
REMARK SMILES IDX 61 66 62 67 70 68 63 69 64 70 68 71 71 72 65 73 66 74 69 75
REMARK SMILES IDX 67 76 46 77 47 78 55 79 48 80 49 81 53 82 56 83 50 84 51 85
REMARK SMILES IDX 54 86 52 87
REMARK H PARENT 76 40 44 51
REMARK Flexibility Score: inf
ROOT
ATOM      1  C   UNL A   1      32.688  29.763  26.154  1.00  0.00     0.188 C 
ENDROOT
BRANCH   1   2
ATOM      2  C   UNL A   1      31.539  29.547  25.147  1.00  0.00     0.188 C 
BRANCH   2   3
ATOM      3  O   UNL A   1      31.084  28.226  24.976  1.00  0.00    -0.376 OA
BRANCH   3   4
ATOM      4  C   UNL A   1      31.120  27.305  26.054  1.00  0.00     0.202 C 
BRANCH   4   5
ATOM      5  C   UNL A   1      30.942  25.776  25.947  1.00  0.00     0.261 C 
BRANCH   5   6
ATOM      6  O   UNL A   1      31.684  24.961  26.856  1.00  0.00    -0.460 OA
BRANCH   6   7
ATOM      7  C   UNL A   1      31.333  23.647  26.904  1.00  0.00     0.339 C 
ATOM      8  O   UNL A   1      30.257  23.193  27.228  1.00  0.00    -0.246 OA
BRANCH   7   9
ATOM      9  C   UNL A   1      32.462  22.834  26.394  1.00  0.00     0.078 A 
ATOM     10  C   UNL A   1      35.681  20.327  24.998  1.00  0.00     0.044 C 
ATOM     11  C   UNL A   1      34.587  21.233  25.487  1.00  0.00    -0.050 A 
ATOM     12  C   UNL A   1      34.566  21.696  26.808  1.00  0.00     0.004 A 
ATOM     13  C   UNL A   1      33.565  21.620  24.612  1.00  0.00     0.024 A 
ATOM     14  C   UNL A   1      33.510  22.492  27.261  1.00  0.00     0.017 A 
ATOM     15  C   UNL A   1      32.503  22.415  25.058  1.00  0.00     0.055 A 
ATOM     16  Cl  UNL A   1      31.333  22.892  23.878  1.00  0.00    -0.083 Cl
ENDBRANCH   7   9
ENDBRANCH   6   7
ENDBRANCH   5   6
ENDBRANCH   4   5
ENDBRANCH   3   4
ENDBRANCH   2   3
ENDBRANCH   1   2
BRANCH   1  17
ATOM     17  O   UNL A   1      32.632  30.828  27.082  1.00  0.00    -0.376 OA
BRANCH  17  18
ATOM     18  C   UNL A   1      31.748  31.915  26.855  1.00  0.00     0.202 C 
BRANCH  18  19
ATOM     19  C   UNL A   1      32.141  33.393  27.054  1.00  0.00     0.261 C 
BRANCH  19  20
ATOM     20  O   UNL A   1      32.709  33.756  28.319  1.00  0.00    -0.460 OA
BRANCH  20  21
ATOM     21  C   UNL A   1      33.888  34.423  28.260  1.00  0.00     0.338 C 
ATOM     22  O   UNL A   1      34.061  35.609  28.047  1.00  0.00    -0.246 OA
BRANCH  21  23
ATOM     23  C   UNL A   1      34.978  33.519  28.674  1.00  0.00     0.060 A 
ATOM     24  C   UNL A   1      34.653  32.346  29.371  1.00  0.00     0.016 A 
ATOM     25  C   UNL A   1      36.309  33.851  28.427  1.00  0.00     0.016 A 
ATOM     26  C   UNL A   1      35.663  31.505  29.836  1.00  0.00     0.010 A 
ATOM     27  C   UNL A   1      37.322  33.019  28.917  1.00  0.00     0.010 A 
ATOM     28  C   UNL A   1      37.005  31.857  29.646  1.00  0.00    -0.014 A 
BRANCH  28  29
ATOM     29  C   UNL A   1      38.071  31.104  30.350  1.00  0.00     0.031 A 
ATOM     30  C   UNL A   1      38.361  31.438  31.787  1.00  0.00     0.074 A 
ATOM     31  C   UNL A   1      38.762  30.131  29.731  1.00  0.00     0.049 A 
ATOM     32  N   UNL A   1      39.290  30.969  32.581  1.00  0.00    -0.248 NA
ATOM     33  C   UNL A   1      37.484  32.440  32.413  1.00  0.00     0.031 C 
ATOM     34  C   UNL A   1      38.543  29.679  28.359  1.00  0.00     0.029 A 
ATOM     35  N   UNL A   1      39.803  29.355  30.181  1.00  0.00    -0.354 N 
ATOM     36  C   UNL A   1      39.114  31.623  33.794  1.00  0.00     0.074 A 
ATOM     37  C   UNL A   1      38.010  32.542  33.625  1.00  0.00     0.031 C 
ATOM     38  C   UNL A   1      39.436  28.717  28.070  1.00  0.00     0.029 A 
ATOM     39  C   UNL A   1      40.313  28.514  29.224  1.00  0.00     0.049 A 
ATOM     40  H   UNL A   1      40.149  29.399  31.100  1.00  0.00     0.167 HD
ATOM     41  C   UNL A   1      39.806  31.462  34.948  1.00  0.00     0.037 A 
ATOM     42  C   UNL A   1      41.385  27.697  29.267  1.00  0.00     0.037 A 
ATOM     43  C   UNL A   1      40.906  30.549  35.113  1.00  0.00     0.049 A 
ATOM     44  C   UNL A   1      42.195  27.604  30.537  1.00  0.00     0.074 A 
ATOM     45  C   UNL A   1      41.661  30.305  36.247  1.00  0.00     0.029 A 
ATOM     46  N   UNL A   1      41.415  29.736  34.111  1.00  0.00    -0.354 N 
ATOM     47  N   UNL A   1      42.008  28.204  31.688  1.00  0.00    -0.248 NA
ATOM     48  C   UNL A   1      43.366  26.716  30.513  1.00  0.00     0.031 C 
ATOM     49  C   UNL A   1      42.666  29.391  35.915  1.00  0.00     0.029 A 
ATOM     50  C   UNL A   1      42.495  29.013  34.593  1.00  0.00     0.049 A 
ATOM     51  H   UNL A   1      41.063  29.681  33.193  1.00  0.00     0.167 HD
ATOM     52  C   UNL A   1      43.012  27.740  32.531  1.00  0.00     0.074 A 
ATOM     53  C   UNL A   1      43.797  26.797  31.763  1.00  0.00     0.031 C 
ATOM     54  C   UNL A   1      43.261  28.065  33.824  1.00  0.00     0.037 A 
BRANCH  41  55
ATOM     55  C   UNL A   1      39.412  32.315  36.119  1.00  0.00     0.064 A 
ATOM     56  C   UNL A   1      39.978  33.579  36.338  1.00  0.00     0.173 A 
ATOM     57  C   UNL A   1      38.418  31.879  37.009  1.00  0.00     0.173 A 
ATOM     58  F   UNL A   1      40.941  34.037  35.525  1.00  0.00    -0.203 F 
ATOM     59  C   UNL A   1      39.581  34.366  37.417  1.00  0.00     0.198 A 
ATOM     60  C   UNL A   1      38.000  32.680  38.067  1.00  0.00     0.198 A 
ATOM     61  F   UNL A   1      37.839  30.679  36.843  1.00  0.00    -0.203 F 
ATOM     62  F   UNL A   1      40.169  35.550  37.632  1.00  0.00    -0.200 F 
ATOM     63  C   UNL A   1      38.586  33.920  38.274  1.00  0.00     0.200 A 
ATOM     64  F   UNL A   1      37.028  32.255  38.886  1.00  0.00    -0.200 F 
ATOM     65  F   UNL A   1      38.197  34.683  39.305  1.00  0.00    -0.200 F 
ENDBRANCH  41  55
BRANCH  42  66
ATOM     66  C   UNL A   1      41.779  26.913  28.066  1.00  0.00     0.064 A 
ATOM     67  C   UNL A   1      42.621  27.459  27.087  1.00  0.00     0.173 A 
ATOM     68  C   UNL A   1      41.284  25.618  27.847  1.00  0.00     0.173 A 
ATOM     69  F   UNL A   1      43.096  28.705  27.233  1.00  0.00    -0.203 F 
ATOM     70  C   UNL A   1      42.927  26.756  25.924  1.00  0.00     0.198 A 
ATOM     71  C   UNL A   1      41.619  24.901  26.701  1.00  0.00     0.198 A 
ATOM     72  F   UNL A   1      40.469  25.049  28.748  1.00  0.00    -0.203 F 
ATOM     73  F   UNL A   1      43.680  27.329  24.975  1.00  0.00    -0.200 F 
ATOM     74  C   UNL A   1      42.431  25.475  25.734  1.00  0.00     0.200 A 
ATOM     75  F   UNL A   1      41.144  23.661  26.525  1.00  0.00    -0.200 F 
ATOM     76  F   UNL A   1      42.721  24.800  24.614  1.00  0.00    -0.200 F 
ENDBRANCH  42  66
BRANCH  54  77
ATOM     77  C   UNL A   1      44.398  27.362  34.513  1.00  0.00     0.064 A 
ATOM     78  C   UNL A   1      45.710  27.856  34.471  1.00  0.00     0.173 A 
ATOM     79  C   UNL A   1      44.161  26.198  35.262  1.00  0.00     0.173 A 
ATOM     80  F   UNL A   1      45.996  28.957  33.761  1.00  0.00    -0.203 F 
ATOM     81  C   UNL A   1      46.747  27.195  35.128  1.00  0.00     0.198 A 
ATOM     82  C   UNL A   1      45.191  25.561  35.947  1.00  0.00     0.198 A 
ATOM     83  F   UNL A   1      42.924  25.687  35.345  1.00  0.00    -0.203 F 
ATOM     84  F   UNL A   1      48.000  27.656  35.030  1.00  0.00    -0.200 F 
ATOM     85  C   UNL A   1      46.485  26.054  35.872  1.00  0.00     0.200 A 
ATOM     86  F   UNL A   1      44.933  24.469  36.681  1.00  0.00    -0.200 F 
ATOM     87  F   UNL A   1      47.481  25.426  36.512  1.00  0.00    -0.200 F 
ENDBRANCH  54  77
ENDBRANCH  28  29
ENDBRANCH  21  23
ENDBRANCH  20  21
ENDBRANCH  19  20
ENDBRANCH  18  19
ENDBRANCH  17  18
ENDBRANCH   1  17
TORSDOF 17
ENDMDL
