MODEL 1
REMARK VINA RESULT:     -10.6      0.000      0.000
REMARK SMILES CCC[NH2+][C@]1(C(=O)OCCOCCOCCOC(=O)c2ccc(-c3c4nc(c(-c5c(F)c(F)c(F)c(F)c5F)c5ccc([nH]5)c(-c5c(F)c(F)c(F)c(F)c5F)c5nc(c(-c6c(F)c(F)c(F)c(F)c6F)c6ccc3[nH]6)C=C5)C=C4)cc2)CC[C@@H](Sc2nnc(C)n2C)C1
REMARK SMILES IDX 12 1 11 2 10 3 9 4 8 5 6 6 7 7 5 8 83 9 94 10 84 11 85 12
REMARK SMILES IDX 4 13 3 16 2 17 1 18 86 19 87 20 88 21 92 22 89 23 90 24
REMARK SMILES IDX 93 25 91 26 13 27 14 28 15 29 16 30 17 31 18 32 19 33 20 34
REMARK SMILES IDX 21 35 82 36 22 37 81 38 23 39 24 40 25 41 75 42 26 43 80 44
REMARK SMILES IDX 74 45 76 46 27 47 79 48 73 49 72 50 28 52 60 53 40 54 59 55
REMARK SMILES IDX 41 56 44 57 58 58 77 59 42 60 43 61 57 63 78 64 45 65 29 66
REMARK SMILES IDX 30 67 38 68 31 69 32 70 36 71 39 72 33 73 34 74 37 75 35 76
REMARK SMILES IDX 61 77 62 78 70 79 63 80 64 81 68 82 71 83 65 84 66 85 69 86
REMARK SMILES IDX 67 87 46 88 47 89 55 90 48 91 49 92 53 93 56 94 50 95 51 96
REMARK SMILES IDX 54 97 52 98
REMARK H PARENT 4 14 4 15 76 51 44 62
REMARK Flexibility Score: inf
ROOT
ATOM      1  C   UNL A   1      39.115  21.797  26.249  1.00  0.00     0.188 C 
ENDROOT
BRANCH   1   2
ATOM      2  O   UNL A   1      38.022  22.108  25.387  1.00  0.00    -0.376 OA
BRANCH   2   3
ATOM      3  C   UNL A   1      37.432  21.073  24.616  1.00  0.00     0.202 C 
BRANCH   3   4
ATOM      4  C   UNL A   1      36.003  20.711  25.024  1.00  0.00     0.261 C 
BRANCH   4   5
ATOM      5  O   UNL A   1      35.085  21.823  25.025  1.00  0.00    -0.459 OA
BRANCH   5   6
ATOM      6  C   UNL A   1      34.221  21.890  26.074  1.00  0.00     0.368 C 
ATOM      7  O   UNL A   1      34.516  21.586  27.227  1.00  0.00    -0.245 OA
BRANCH   6   8
ATOM      8  C   UNL A   1      32.808  22.370  25.661  1.00  0.00     0.195 C 
ATOM      9  C   UNL A   1      32.207  23.329  26.703  1.00  0.00     0.082 C 
ATOM     10  C   UNL A   1      32.998  23.294  24.422  1.00  0.00     0.096 C 
ATOM     11  C   UNL A   1      31.311  24.264  25.907  1.00  0.00     0.022 C 
ATOM     12  C   UNL A   1      32.056  24.490  24.594  1.00  0.00     0.062 C 
BRANCH   8  13
ATOM     13  N   UNL A   1      31.948  21.264  25.173  1.00  0.00    -0.332 N 
ATOM     14  H   UNL A   1      31.826  20.616  25.951  1.00  0.00     0.347 HD
ATOM     15  H   UNL A   1      31.112  21.739  24.834  1.00  0.00     0.347 HD
BRANCH  13  16
ATOM     16  C   UNL A   1      32.384  20.476  24.030  1.00  0.00     0.261 C 
BRANCH  16  17
ATOM     17  C   UNL A   1      32.417  18.975  24.359  1.00  0.00     0.058 C 
ATOM     18  C   UNL A   1      32.906  18.633  25.752  1.00  0.00     0.010 C 
ENDBRANCH  16  17
ENDBRANCH  13  16
ENDBRANCH   8  13
BRANCH  12  19
ATOM     19  S   UNL A   1      32.969  26.072  24.438  1.00  0.00    -0.082 SA
BRANCH  19  20
ATOM     20  C   UNL A   1      31.866  27.079  23.573  1.00  0.00     0.191 A 
ATOM     21  N   UNL A   1      31.479  26.870  22.337  1.00  0.00    -0.123 NA
ATOM     22  N   UNL A   1      31.262  28.203  24.062  1.00  0.00    -0.309 N 
ATOM     23  N   UNL A   1      30.589  27.859  22.002  1.00  0.00    -0.135 NA
ATOM     24  C   UNL A   1      30.463  28.663  23.037  1.00  0.00     0.130 A 
ATOM     25  C   UNL A   1      31.367  28.807  25.364  1.00  0.00     0.154 C 
ATOM     26  C   UNL A   1      29.614  29.875  23.099  1.00  0.00     0.090 C 
ENDBRANCH  19  20
ENDBRANCH  12  19
ENDBRANCH   6   8
ENDBRANCH   5   6
ENDBRANCH   4   5
ENDBRANCH   3   4
ENDBRANCH   2   3
ENDBRANCH   1   2
BRANCH   1  27
ATOM     27  C   UNL A   1      39.785  20.423  26.139  1.00  0.00     0.188 C 
BRANCH  27  28
ATOM     28  O   UNL A   1      40.989  20.360  26.898  1.00  0.00    -0.376 OA
BRANCH  28  29
ATOM     29  C   UNL A   1      42.116  19.907  26.150  1.00  0.00     0.202 C 
BRANCH  29  30
ATOM     30  C   UNL A   1      43.048  21.074  25.817  1.00  0.00     0.261 C 
BRANCH  30  31
ATOM     31  O   UNL A   1      42.339  22.299  25.546  1.00  0.00    -0.460 OA
BRANCH  31  32
ATOM     32  C   UNL A   1      43.107  23.380  25.295  1.00  0.00     0.338 C 
ATOM     33  O   UNL A   1      43.963  23.500  24.439  1.00  0.00    -0.246 OA
BRANCH  32  34
ATOM     34  C   UNL A   1      42.674  24.467  26.187  1.00  0.00     0.060 A 
ATOM     35  C   UNL A   1      43.147  25.762  25.966  1.00  0.00     0.016 A 
ATOM     36  C   UNL A   1      41.852  24.194  27.277  1.00  0.00     0.016 A 
ATOM     37  C   UNL A   1      42.847  26.786  26.861  1.00  0.00     0.010 A 
ATOM     38  C   UNL A   1      41.517  25.230  28.154  1.00  0.00     0.010 A 
ATOM     39  C   UNL A   1      42.028  26.529  27.965  1.00  0.00    -0.014 A 
BRANCH  39  40
ATOM     40  C   UNL A   1      41.735  27.586  28.966  1.00  0.00     0.031 A 
ATOM     41  C   UNL A   1      42.597  27.701  30.188  1.00  0.00     0.074 A 
ATOM     42  C   UNL A   1      40.694  28.424  28.800  1.00  0.00     0.049 A 
ATOM     43  N   UNL A   1      42.374  28.342  31.306  1.00  0.00    -0.248 NA
ATOM     44  C   UNL A   1      43.888  26.996  30.142  1.00  0.00     0.031 C 
ATOM     45  C   UNL A   1      39.837  28.490  27.619  1.00  0.00     0.029 A 
ATOM     46  N   UNL A   1      40.169  29.366  29.651  1.00  0.00    -0.354 N 
ATOM     47  C   UNL A   1      43.470  28.080  32.115  1.00  0.00     0.074 A 
ATOM     48  C   UNL A   1      44.366  27.233  31.356  1.00  0.00     0.031 C 
ATOM     49  C   UNL A   1      38.882  29.411  27.824  1.00  0.00     0.029 A 
ATOM     50  C   UNL A   1      39.010  29.935  29.181  1.00  0.00     0.049 A 
ATOM     51  H   UNL A   1      40.582  29.611  30.511  1.00  0.00     0.167 HD
ATOM     52  C   UNL A   1      43.697  28.502  33.381  1.00  0.00     0.037 A 
ATOM     53  C   UNL A   1      38.115  30.728  29.799  1.00  0.00     0.037 A 
ATOM     54  C   UNL A   1      42.816  29.371  34.114  1.00  0.00     0.049 A 
ATOM     55  C   UNL A   1      38.331  31.097  31.243  1.00  0.00     0.074 A 
ATOM     56  C   UNL A   1      42.962  29.870  35.397  1.00  0.00     0.029 A 
ATOM     57  N   UNL A   1      41.621  29.876  33.623  1.00  0.00    -0.354 N 
ATOM     58  N   UNL A   1      39.331  30.796  32.034  1.00  0.00    -0.248 NA
ATOM     59  C   UNL A   1      37.273  31.889  31.889  1.00  0.00     0.031 C 
ATOM     60  C   UNL A   1      41.834  30.642  35.698  1.00  0.00     0.029 A 
ATOM     61  C   UNL A   1      41.004  30.655  34.587  1.00  0.00     0.049 A 
ATOM     62  H   UNL A   1      41.264  29.705  32.721  1.00  0.00     0.167 HD
ATOM     63  C   UNL A   1      39.030  31.363  33.265  1.00  0.00     0.074 A 
ATOM     64  C   UNL A   1      37.760  32.043  33.113  1.00  0.00     0.031 C 
ATOM     65  C   UNL A   1      39.737  31.318  34.420  1.00  0.00     0.037 A 
BRANCH  52  66
ATOM     66  C   UNL A   1      44.923  27.990  34.075  1.00  0.00     0.064 A 
ATOM     67  C   UNL A   1      44.920  26.790  34.800  1.00  0.00     0.173 A 
ATOM     68  C   UNL A   1      46.130  28.698  33.978  1.00  0.00     0.173 A 
ATOM     69  F   UNL A   1      43.786  26.086  34.935  1.00  0.00    -0.203 F 
ATOM     70  C   UNL A   1      46.079  26.327  35.417  1.00  0.00     0.198 A 
ATOM     71  C   UNL A   1      47.293  28.221  34.577  1.00  0.00     0.198 A 
ATOM     72  F   UNL A   1      46.185  29.852  33.294  1.00  0.00    -0.203 F 
ATOM     73  F   UNL A   1      46.048  25.197  36.136  1.00  0.00    -0.200 F 
ATOM     74  C   UNL A   1      47.265  27.039  35.299  1.00  0.00     0.200 A 
ATOM     75  F   UNL A   1      48.438  28.906  34.454  1.00  0.00    -0.200 F 
ATOM     76  F   UNL A   1      48.381  26.588  35.890  1.00  0.00    -0.200 F 
ENDBRANCH  52  66
BRANCH  53  77
ATOM     77  C   UNL A   1      36.886  31.155  29.082  1.00  0.00     0.064 A 
ATOM     78  C   UNL A   1      35.862  30.242  28.795  1.00  0.00     0.173 A 
ATOM     79  C   UNL A   1      36.712  32.483  28.665  1.00  0.00     0.173 A 
ATOM     80  F   UNL A   1      35.996  28.954  29.144  1.00  0.00    -0.203 F 
ATOM     81  C   UNL A   1      34.714  30.642  28.112  1.00  0.00     0.198 A 
ATOM     82  C   UNL A   1      35.552  32.888  28.009  1.00  0.00     0.198 A 
ATOM     83  F   UNL A   1      37.667  33.394  28.908  1.00  0.00    -0.203 F 
ATOM     84  F   UNL A   1      33.767  29.741  27.816  1.00  0.00    -0.200 F 
ATOM     85  C   UNL A   1      34.556  31.964  27.729  1.00  0.00     0.200 A 
ATOM     86  F   UNL A   1      35.400  34.169  27.649  1.00  0.00    -0.200 F 
ATOM     87  F   UNL A   1      33.448  32.350  27.081  1.00  0.00    -0.200 F 
ENDBRANCH  53  77
BRANCH  65  88
ATOM     88  C   UNL A   1      39.159  32.027  35.608  1.00  0.00     0.064 A 
ATOM     89  C   UNL A   1      38.332  31.361  36.522  1.00  0.00     0.173 A 
ATOM     90  C   UNL A   1      39.476  33.369  35.860  1.00  0.00     0.173 A 
ATOM     91  F   UNL A   1      37.987  30.081  36.312  1.00  0.00    -0.203 F 
ATOM     92  C   UNL A   1      37.831  32.019  37.642  1.00  0.00     0.198 A 
ATOM     93  C   UNL A   1      38.993  34.017  36.994  1.00  0.00     0.198 A 
ATOM     94  F   UNL A   1      40.268  34.048  35.016  1.00  0.00    -0.203 F 
ATOM     95  F   UNL A   1      37.015  31.373  38.487  1.00  0.00    -0.200 F 
ATOM     96  C   UNL A   1      38.168  33.342  37.882  1.00  0.00     0.200 A 
ATOM     97  F   UNL A   1      39.328  35.293  37.228  1.00  0.00    -0.200 F 
ATOM     98  F   UNL A   1      37.693  33.970  38.965  1.00  0.00    -0.200 F 
ENDBRANCH  65  88
ENDBRANCH  39  40
ENDBRANCH  32  34
ENDBRANCH  31  32
ENDBRANCH  30  31
ENDBRANCH  29  30
ENDBRANCH  28  29
ENDBRANCH  27  28
ENDBRANCH   1  27
TORSDOF 22
ENDMDL
MODEL 2
REMARK VINA RESULT:     -10.5      0.698      2.031
REMARK SMILES CCC[NH2+][C@]1(C(=O)OCCOCCOCCOC(=O)c2ccc(-c3c4nc(c(-c5c(F)c(F)c(F)c(F)c5F)c5ccc([nH]5)c(-c5c(F)c(F)c(F)c(F)c5F)c5nc(c(-c6c(F)c(F)c(F)c(F)c6F)c6ccc3[nH]6)C=C5)C=C4)cc2)CC[C@@H](Sc2nnc(C)n2C)C1
REMARK SMILES IDX 12 1 11 2 10 3 9 4 8 5 6 6 7 7 5 8 83 9 94 10 84 11 85 12
REMARK SMILES IDX 4 13 3 16 2 17 1 18 86 19 87 20 88 21 92 22 89 23 90 24
REMARK SMILES IDX 93 25 91 26 13 27 14 28 15 29 16 30 17 31 18 32 19 33 20 34
REMARK SMILES IDX 21 35 82 36 22 37 81 38 23 39 24 40 25 41 75 42 26 43 80 44
REMARK SMILES IDX 74 45 76 46 27 47 79 48 73 49 72 50 28 52 60 53 40 54 59 55
REMARK SMILES IDX 41 56 44 57 58 58 77 59 42 60 43 61 57 63 78 64 45 65 29 66
REMARK SMILES IDX 30 67 38 68 31 69 32 70 36 71 39 72 33 73 34 74 37 75 35 76
REMARK SMILES IDX 61 77 62 78 70 79 63 80 64 81 68 82 71 83 65 84 66 85 69 86
REMARK SMILES IDX 67 87 46 88 47 89 55 90 48 91 49 92 53 93 56 94 50 95 51 96
REMARK SMILES IDX 54 97 52 98
REMARK H PARENT 4 14 4 15 76 51 44 62
REMARK Flexibility Score: inf
ROOT
ATOM      1  C   UNL A   1      39.448  21.684  26.193  1.00  0.00     0.188 C 
ENDROOT
BRANCH   1   2
ATOM      2  O   UNL A   1      38.198  21.594  25.512  1.00  0.00    -0.376 OA
BRANCH   2   3
ATOM      3  C   UNL A   1      37.787  20.343  24.983  1.00  0.00     0.202 C 
BRANCH   3   4
ATOM      4  C   UNL A   1      36.275  20.110  25.003  1.00  0.00     0.261 C 
BRANCH   4   5
ATOM      5  O   UNL A   1      35.487  21.299  24.795  1.00  0.00    -0.459 OA
BRANCH   5   6
ATOM      6  C   UNL A   1      34.540  21.566  25.734  1.00  0.00     0.368 C 
ATOM      7  O   UNL A   1      34.738  21.508  26.945  1.00  0.00    -0.245 OA
BRANCH   6   8
ATOM      8  C   UNL A   1      33.167  21.930  25.118  1.00  0.00     0.195 C 
ATOM      9  C   UNL A   1      32.531  23.142  25.822  1.00  0.00     0.082 C 
ATOM     10  C   UNL A   1      33.452  22.481  23.690  1.00  0.00     0.096 C 
ATOM     11  C   UNL A   1      31.708  23.834  24.746  1.00  0.00     0.022 C 
ATOM     12  C   UNL A   1      32.535  23.687  23.471  1.00  0.00     0.062 C 
BRANCH   8  13
ATOM     13  N   UNL A   1      32.307  20.741  24.894  1.00  0.00    -0.332 N 
ATOM     14  H   UNL A   1      32.433  20.127  25.698  1.00  0.00     0.347 HD
ATOM     15  H   UNL A   1      31.378  21.136  24.758  1.00  0.00     0.347 HD
BRANCH  13  16
ATOM     16  C   UNL A   1      32.514  19.928  23.705  1.00  0.00     0.261 C 
BRANCH  16  17
ATOM     17  C   UNL A   1      32.528  18.429  24.041  1.00  0.00     0.058 C 
ATOM     18  C   UNL A   1      33.832  17.715  23.742  1.00  0.00     0.010 C 
ENDBRANCH  16  17
ENDBRANCH  13  16
ENDBRANCH   8  13
BRANCH  12  19
ATOM     19  S   UNL A   1      33.497  25.158  22.952  1.00  0.00    -0.082 SA
BRANCH  19  20
ATOM     20  C   UNL A   1      32.290  26.381  22.792  1.00  0.00     0.191 A 
ATOM     21  N   UNL A   1      31.492  26.511  21.759  1.00  0.00    -0.123 NA
ATOM     22  N   UNL A   1      32.013  27.353  23.713  1.00  0.00    -0.309 N 
ATOM     23  N   UNL A   1      30.658  27.573  22.001  1.00  0.00    -0.135 NA
ATOM     24  C   UNL A   1      30.976  28.083  23.172  1.00  0.00     0.130 A 
ATOM     25  C   UNL A   1      32.614  27.594  24.998  1.00  0.00     0.154 C 
ATOM     26  C   UNL A   1      30.338  29.256  23.813  1.00  0.00     0.090 C 
ENDBRANCH  19  20
ENDBRANCH  12  19
ENDBRANCH   6   8
ENDBRANCH   5   6
ENDBRANCH   4   5
ENDBRANCH   3   4
ENDBRANCH   2   3
ENDBRANCH   1   2
BRANCH   1  27
ATOM     27  C   UNL A   1      40.317  20.430  26.328  1.00  0.00     0.188 C 
BRANCH  27  28
ATOM     28  O   UNL A   1      41.600  20.732  26.870  1.00  0.00    -0.376 OA
BRANCH  28  29
ATOM     29  C   UNL A   1      42.682  20.156  26.140  1.00  0.00     0.202 C 
BRANCH  29  30
ATOM     30  C   UNL A   1      43.569  21.248  25.538  1.00  0.00     0.261 C 
BRANCH  30  31
ATOM     31  O   UNL A   1      42.840  22.448  25.213  1.00  0.00    -0.460 OA
BRANCH  31  32
ATOM     32  C   UNL A   1      43.589  23.549  24.991  1.00  0.00     0.338 C 
ATOM     33  O   UNL A   1      44.456  23.700  24.152  1.00  0.00    -0.246 OA
BRANCH  32  34
ATOM     34  C   UNL A   1      43.116  24.614  25.891  1.00  0.00     0.060 A 
ATOM     35  C   UNL A   1      43.415  25.944  25.591  1.00  0.00     0.016 A 
ATOM     36  C   UNL A   1      42.432  24.292  27.060  1.00  0.00     0.016 A 
ATOM     37  C   UNL A   1      43.081  26.961  26.483  1.00  0.00     0.010 A 
ATOM     38  C   UNL A   1      42.062  25.316  27.936  1.00  0.00     0.010 A 
ATOM     39  C   UNL A   1      42.401  26.656  27.665  1.00  0.00    -0.014 A 
BRANCH  39  40
ATOM     40  C   UNL A   1      42.081  27.710  28.660  1.00  0.00     0.031 A 
ATOM     41  C   UNL A   1      42.983  27.904  29.843  1.00  0.00     0.074 A 
ATOM     42  C   UNL A   1      40.982  28.475  28.525  1.00  0.00     0.049 A 
ATOM     43  N   UNL A   1      42.764  28.550  30.959  1.00  0.00    -0.248 NA
ATOM     44  C   UNL A   1      44.315  27.283  29.754  1.00  0.00     0.031 C 
ATOM     45  C   UNL A   1      40.074  28.464  27.380  1.00  0.00     0.029 A 
ATOM     46  N   UNL A   1      40.431  29.398  29.382  1.00  0.00    -0.354 N 
ATOM     47  C   UNL A   1      43.907  28.375  31.725  1.00  0.00     0.074 A 
ATOM     48  C   UNL A   1      44.825  27.573  30.943  1.00  0.00     0.031 C 
ATOM     49  C   UNL A   1      39.069  29.324  27.611  1.00  0.00     0.029 A 
ATOM     50  C   UNL A   1      39.218  29.880  28.952  1.00  0.00     0.049 A 
ATOM     51  H   UNL A   1      40.862  29.684  30.220  1.00  0.00     0.167 HD
ATOM     52  C   UNL A   1      44.158  28.835  32.974  1.00  0.00     0.037 A 
ATOM     53  C   UNL A   1      38.299  30.626  29.595  1.00  0.00     0.037 A 
ATOM     54  C   UNL A   1      43.252  29.658  33.729  1.00  0.00     0.049 A 
ATOM     55  C   UNL A   1      38.549  31.035  31.022  1.00  0.00     0.074 A 
ATOM     56  C   UNL A   1      43.418  30.189  34.997  1.00  0.00     0.029 A 
ATOM     57  N   UNL A   1      42.008  30.075  33.281  1.00  0.00    -0.354 N 
ATOM     58  N   UNL A   1      39.599  30.815  31.775  1.00  0.00    -0.248 NA
ATOM     59  C   UNL A   1      37.470  31.769  31.700  1.00  0.00     0.031 C 
ATOM     60  C   UNL A   1      42.255  30.892  35.332  1.00  0.00     0.029 A 
ATOM     61  C   UNL A   1      41.381  30.831  34.258  1.00  0.00     0.049 A 
ATOM     62  H   UNL A   1      41.627  29.864  32.398  1.00  0.00     0.167 HD
ATOM     63  C   UNL A   1      39.312  31.384  33.008  1.00  0.00     0.074 A 
ATOM     64  C   UNL A   1      37.995  31.977  32.900  1.00  0.00     0.031 C 
ATOM     65  C   UNL A   1      40.067  31.406  34.134  1.00  0.00     0.037 A 
BRANCH  52  66
ATOM     66  C   UNL A   1      45.442  28.416  33.624  1.00  0.00     0.064 A 
ATOM     67  C   UNL A   1      46.590  29.220  33.586  1.00  0.00     0.173 A 
ATOM     68  C   UNL A   1      45.508  27.205  34.329  1.00  0.00     0.173 A 
ATOM     69  F   UNL A   1      46.582  30.378  32.910  1.00  0.00    -0.203 F 
ATOM     70  C   UNL A   1      47.764  28.816  34.217  1.00  0.00     0.198 A 
ATOM     71  C   UNL A   1      46.676  26.816  34.978  1.00  0.00     0.198 A 
ATOM     72  F   UNL A   1      44.435  26.402  34.396  1.00  0.00    -0.203 F 
ATOM     73  F   UNL A   1      48.862  29.580  34.139  1.00  0.00    -0.200 F 
ATOM     74  C   UNL A   1      47.804  27.618  34.918  1.00  0.00     0.200 A 
ATOM     75  F   UNL A   1      46.709  25.663  35.660  1.00  0.00    -0.200 F 
ATOM     76  F   UNL A   1      48.934  27.234  35.529  1.00  0.00    -0.200 F 
ENDBRANCH  52  66
BRANCH  53  77
ATOM     77  C   UNL A   1      37.017  30.958  28.924  1.00  0.00     0.064 A 
ATOM     78  C   UNL A   1      36.720  32.273  28.540  1.00  0.00     0.173 A 
ATOM     79  C   UNL A   1      36.057  29.968  28.658  1.00  0.00     0.173 A 
ATOM     80  F   UNL A   1      37.590  33.259  28.803  1.00  0.00    -0.203 F 
ATOM     81  C   UNL A   1      35.511  32.584  27.921  1.00  0.00     0.198 A 
ATOM     82  C   UNL A   1      34.863  30.276  28.012  1.00  0.00     0.198 A 
ATOM     83  F   UNL A   1      36.290  28.696  29.014  1.00  0.00    -0.203 F 
ATOM     84  F   UNL A   1      35.235  33.855  27.598  1.00  0.00    -0.200 F 
ATOM     85  C   UNL A   1      34.589  31.586  27.649  1.00  0.00     0.200 A 
ATOM     86  F   UNL A   1      33.979  29.306  27.744  1.00  0.00    -0.200 F 
ATOM     87  F   UNL A   1      33.430  31.885  27.045  1.00  0.00    -0.200 F 
ENDBRANCH  53  77
BRANCH  65  88
ATOM     88  C   UNL A   1      39.494  32.099  35.333  1.00  0.00     0.064 A 
ATOM     89  C   UNL A   1      39.683  33.472  35.540  1.00  0.00     0.173 A 
ATOM     90  C   UNL A   1      38.708  31.394  36.255  1.00  0.00     0.173 A 
ATOM     91  F   UNL A   1      40.443  34.184  34.692  1.00  0.00    -0.203 F 
ATOM     92  C   UNL A   1      39.115  34.113  36.637  1.00  0.00     0.198 A 
ATOM     93  C   UNL A   1      38.122  32.043  37.338  1.00  0.00     0.198 A 
ATOM     94  F   UNL A   1      38.495  30.079  36.098  1.00  0.00    -0.203 F 
ATOM     95  F   UNL A   1      39.335  35.421  36.834  1.00  0.00    -0.200 F 
ATOM     96  C   UNL A   1      38.329  33.402  37.530  1.00  0.00     0.200 A 
ATOM     97  F   UNL A   1      37.354  31.355  38.195  1.00  0.00    -0.200 F 
ATOM     98  F   UNL A   1      37.775  34.022  38.580  1.00  0.00    -0.200 F 
ENDBRANCH  65  88
ENDBRANCH  39  40
ENDBRANCH  32  34
ENDBRANCH  31  32
ENDBRANCH  30  31
ENDBRANCH  29  30
ENDBRANCH  28  29
ENDBRANCH  27  28
ENDBRANCH   1  27
TORSDOF 22
ENDMDL
MODEL 3
REMARK VINA RESULT:     -10.5      3.357      8.574
REMARK SMILES CCC[NH2+][C@]1(C(=O)OCCOCCOCCOC(=O)c2ccc(-c3c4nc(c(-c5c(F)c(F)c(F)c(F)c5F)c5ccc([nH]5)c(-c5c(F)c(F)c(F)c(F)c5F)c5nc(c(-c6c(F)c(F)c(F)c(F)c6F)c6ccc3[nH]6)C=C5)C=C4)cc2)CC[C@@H](Sc2nnc(C)n2C)C1
REMARK SMILES IDX 12 1 11 2 10 3 9 4 8 5 6 6 7 7 5 8 83 9 94 10 84 11 85 12
REMARK SMILES IDX 4 13 3 16 2 17 1 18 86 19 87 20 88 21 92 22 89 23 90 24
REMARK SMILES IDX 93 25 91 26 13 27 14 28 15 29 16 30 17 31 18 32 19 33 20 34
REMARK SMILES IDX 21 35 82 36 22 37 81 38 23 39 24 40 25 41 75 42 26 43 80 44
REMARK SMILES IDX 74 45 76 46 27 47 79 48 73 49 72 50 28 52 60 53 40 54 59 55
REMARK SMILES IDX 41 56 44 57 58 58 77 59 42 60 43 61 57 63 78 64 45 65 29 66
REMARK SMILES IDX 30 67 38 68 31 69 32 70 36 71 39 72 33 73 34 74 37 75 35 76
REMARK SMILES IDX 61 77 62 78 70 79 63 80 64 81 68 82 71 83 65 84 66 85 69 86
REMARK SMILES IDX 67 87 46 88 47 89 55 90 48 91 49 92 53 93 56 94 50 95 51 96
REMARK SMILES IDX 54 97 52 98
REMARK H PARENT 4 14 4 15 76 51 44 62
REMARK Flexibility Score: inf
ROOT
ATOM      1  C   UNL A   1      29.803  27.434  23.094  1.00  0.00     0.188 C 
ENDROOT
BRANCH   1   2
ATOM      2  O   UNL A   1      30.736  26.403  22.776  1.00  0.00    -0.376 OA
BRANCH   2   3
ATOM      3  C   UNL A   1      31.887  26.723  22.011  1.00  0.00     0.202 C 
BRANCH   3   4
ATOM      4  C   UNL A   1      33.214  26.531  22.747  1.00  0.00     0.261 C 
BRANCH   4   5
ATOM      5  O   UNL A   1      33.244  25.393  23.632  1.00  0.00    -0.459 OA
BRANCH   5   6
ATOM      6  C   UNL A   1      33.728  24.235  23.109  1.00  0.00     0.368 C 
ATOM      7  O   UNL A   1      33.642  23.930  21.922  1.00  0.00    -0.245 OA
BRANCH   6   8
ATOM      8  C   UNL A   1      34.381  23.319  24.172  1.00  0.00     0.195 C 
ATOM      9  C   UNL A   1      33.518  23.217  25.442  1.00  0.00     0.082 C 
ATOM     10  C   UNL A   1      34.321  21.870  23.607  1.00  0.00     0.096 C 
ATOM     11  C   UNL A   1      33.797  21.829  25.997  1.00  0.00     0.022 C 
ATOM     12  C   UNL A   1      33.942  20.941  24.764  1.00  0.00     0.062 C 
BRANCH   8  13
ATOM     13  N   UNL A   1      35.829  23.591  24.349  1.00  0.00    -0.332 N 
ATOM     14  H   UNL A   1      36.322  22.719  24.156  1.00  0.00     0.347 HD
ATOM     15  H   UNL A   1      36.008  24.370  23.717  1.00  0.00     0.347 HD
BRANCH  13  16
ATOM     16  C   UNL A   1      36.310  24.073  25.636  1.00  0.00     0.261 C 
BRANCH  16  17
ATOM     17  C   UNL A   1      37.553  23.297  26.100  1.00  0.00     0.058 C 
ATOM     18  C   UNL A   1      38.635  24.141  26.744  1.00  0.00     0.010 C 
ENDBRANCH  16  17
ENDBRANCH  13  16
ENDBRANCH   8  13
BRANCH  12  19
ATOM     19  S   UNL A   1      32.490  19.909  24.329  1.00  0.00    -0.082 SA
BRANCH  19  20
ATOM     20  C   UNL A   1      32.967  18.329  24.832  1.00  0.00     0.191 A 
ATOM     21  N   UNL A   1      32.156  17.434  25.346  1.00  0.00    -0.123 NA
ATOM     22  N   UNL A   1      34.231  17.816  24.756  1.00  0.00    -0.309 N 
ATOM     23  N   UNL A   1      32.887  16.301  25.598  1.00  0.00    -0.135 NA
ATOM     24  C   UNL A   1      34.135  16.532  25.250  1.00  0.00     0.130 A 
ATOM     25  C   UNL A   1      35.436  18.420  24.250  1.00  0.00     0.154 C 
ATOM     26  C   UNL A   1      35.264  15.582  25.373  1.00  0.00     0.090 C 
ENDBRANCH  19  20
ENDBRANCH  12  19
ENDBRANCH   6   8
ENDBRANCH   5   6
ENDBRANCH   4   5
ENDBRANCH   3   4
ENDBRANCH   2   3
ENDBRANCH   1   2
BRANCH   1  27
ATOM     27  C   UNL A   1      30.204  28.897  22.877  1.00  0.00     0.188 C 
BRANCH  27  28
ATOM     28  O   UNL A   1      30.356  29.592  24.111  1.00  0.00    -0.376 OA
BRANCH  28  29
ATOM     29  C   UNL A   1      31.572  29.290  24.793  1.00  0.00     0.202 C 
BRANCH  29  30
ATOM     30  C   UNL A   1      31.809  30.277  25.938  1.00  0.00     0.261 C 
BRANCH  30  31
ATOM     31  O   UNL A   1      33.189  30.340  26.350  1.00  0.00    -0.460 OA
BRANCH  31  32
ATOM     32  C   UNL A   1      33.520  31.383  27.139  1.00  0.00     0.338 C 
ATOM     33  O   UNL A   1      32.852  32.369  27.387  1.00  0.00    -0.246 OA
BRANCH  32  34
ATOM     34  C   UNL A   1      34.826  31.095  27.755  1.00  0.00     0.060 A 
ATOM     35  C   UNL A   1      35.120  29.790  28.153  1.00  0.00     0.016 A 
ATOM     36  C   UNL A   1      35.730  32.126  27.995  1.00  0.00     0.016 A 
ATOM     37  C   UNL A   1      36.298  29.511  28.842  1.00  0.00     0.010 A 
ATOM     38  C   UNL A   1      36.931  31.840  28.651  1.00  0.00     0.010 A 
ATOM     39  C   UNL A   1      37.216  30.535  29.098  1.00  0.00    -0.014 A 
BRANCH  39  40
ATOM     40  C   UNL A   1      38.453  30.279  29.877  1.00  0.00     0.031 A 
ATOM     41  C   UNL A   1      39.493  29.351  29.323  1.00  0.00     0.074 A 
ATOM     42  C   UNL A   1      38.640  30.851  31.081  1.00  0.00     0.049 A 
ATOM     43  N   UNL A   1      40.496  28.769  29.928  1.00  0.00    -0.248 NA
ATOM     44  C   UNL A   1      39.387  29.036  27.889  1.00  0.00     0.031 C 
ATOM     45  C   UNL A   1      37.764  31.845  31.695  1.00  0.00     0.029 A 
ATOM     46  N   UNL A   1      39.628  30.649  32.016  1.00  0.00    -0.354 N 
ATOM     47  C   UNL A   1      41.111  27.983  28.965  1.00  0.00     0.074 A 
ATOM     48  C   UNL A   1      40.378  28.171  27.730  1.00  0.00     0.031 C 
ATOM     49  C   UNL A   1      38.241  32.157  32.911  1.00  0.00     0.029 A 
ATOM     50  C   UNL A   1      39.404  31.322  33.193  1.00  0.00     0.049 A 
ATOM     51  H   UNL A   1      40.416  30.081  31.857  1.00  0.00     0.167 HD
ATOM     52  C   UNL A   1      42.185  27.170  29.107  1.00  0.00     0.037 A 
ATOM     53  C   UNL A   1      40.022  31.221  34.385  1.00  0.00     0.037 A 
ATOM     54  C   UNL A   1      42.926  27.016  30.330  1.00  0.00     0.049 A 
ATOM     55  C   UNL A   1      41.144  30.230  34.553  1.00  0.00     0.074 A 
ATOM     56  C   UNL A   1      44.038  26.228  30.575  1.00  0.00     0.029 A 
ATOM     57  N   UNL A   1      42.630  27.669  31.517  1.00  0.00    -0.354 N 
ATOM     58  N   UNL A   1      41.685  29.435  33.663  1.00  0.00    -0.248 NA
ATOM     59  C   UNL A   1      41.717  30.100  35.901  1.00  0.00     0.031 C 
ATOM     60  C   UNL A   1      44.388  26.373  31.922  1.00  0.00     0.029 A 
ATOM     61  C   UNL A   1      43.518  27.280  32.506  1.00  0.00     0.049 A 
ATOM     62  H   UNL A   1      41.896  28.314  31.638  1.00  0.00     0.167 HD
ATOM     63  C   UNL A   1      42.663  28.715  34.338  1.00  0.00     0.074 A 
ATOM     64  C   UNL A   1      42.654  29.181  35.710  1.00  0.00     0.031 C 
ATOM     65  C   UNL A   1      43.488  27.749  33.867  1.00  0.00     0.037 A 
BRANCH  52  66
ATOM     66  C   UNL A   1      42.593  26.344  27.924  1.00  0.00     0.064 A 
ATOM     67  C   UNL A   1      42.068  25.065  27.695  1.00  0.00     0.173 A 
ATOM     68  C   UNL A   1      43.497  26.864  26.986  1.00  0.00     0.173 A 
ATOM     69  F   UNL A   1      41.213  24.518  28.572  1.00  0.00    -0.203 F 
ATOM     70  C   UNL A   1      42.450  24.328  26.576  1.00  0.00     0.198 A 
ATOM     71  C   UNL A   1      43.858  26.134  25.857  1.00  0.00     0.198 A 
ATOM     72  F   UNL A   1      44.026  28.085  27.160  1.00  0.00    -0.203 F 
ATOM     73  F   UNL A   1      41.966  23.092  26.393  1.00  0.00    -0.200 F 
ATOM     74  C   UNL A   1      43.338  24.866  25.655  1.00  0.00     0.200 A 
ATOM     75  F   UNL A   1      44.710  26.660  24.966  1.00  0.00    -0.200 F 
ATOM     76  F   UNL A   1      43.699  24.157  24.576  1.00  0.00    -0.200 F 
ENDBRANCH  52  66
BRANCH  53  77
ATOM     77  C   UNL A   1      39.535  32.017  35.540  1.00  0.00     0.064 A 
ATOM     78  C   UNL A   1      38.553  31.514  36.405  1.00  0.00     0.173 A 
ATOM     79  C   UNL A   1      40.036  33.302  35.800  1.00  0.00     0.173 A 
ATOM     80  F   UNL A   1      38.020  30.305  36.178  1.00  0.00    -0.203 F 
ATOM     81  C   UNL A   1      38.090  32.268  37.482  1.00  0.00     0.198 A 
ATOM     82  C   UNL A   1      39.593  34.043  36.894  1.00  0.00     0.198 A 
ATOM     83  F   UNL A   1      40.971  33.834  34.997  1.00  0.00    -0.203 F 
ATOM     84  F   UNL A   1      37.123  31.779  38.271  1.00  0.00    -0.200 F 
ATOM     85  C   UNL A   1      38.616  33.526  37.730  1.00  0.00     0.200 A 
ATOM     86  F   UNL A   1      40.112  35.254  37.135  1.00  0.00    -0.200 F 
ATOM     87  F   UNL A   1      38.176  34.246  38.771  1.00  0.00    -0.200 F 
ENDBRANCH  53  77
BRANCH  65  88
ATOM     88  C   UNL A   1      44.454  27.137  34.836  1.00  0.00     0.064 A 
ATOM     89  C   UNL A   1      44.145  25.956  35.524  1.00  0.00     0.173 A 
ATOM     90  C   UNL A   1      45.718  27.709  35.041  1.00  0.00     0.173 A 
ATOM     91  F   UNL A   1      42.940  25.383  35.374  1.00  0.00    -0.203 F 
ATOM     92  C   UNL A   1      45.064  25.375  36.394  1.00  0.00     0.198 A 
ATOM     93  C   UNL A   1      46.643  27.112  35.892  1.00  0.00     0.198 A 
ATOM     94  F   UNL A   1      46.061  28.837  34.401  1.00  0.00    -0.203 F 
ATOM     95  F   UNL A   1      44.736  24.264  37.067  1.00  0.00    -0.200 F 
ATOM     96  C   UNL A   1      46.313  25.948  36.572  1.00  0.00     0.200 A 
ATOM     97  F   UNL A   1      47.854  27.663  36.055  1.00  0.00    -0.200 F 
ATOM     98  F   UNL A   1      47.200  25.382  37.401  1.00  0.00    -0.200 F 
ENDBRANCH  65  88
ENDBRANCH  39  40
ENDBRANCH  32  34
ENDBRANCH  31  32
ENDBRANCH  30  31
ENDBRANCH  29  30
ENDBRANCH  28  29
ENDBRANCH  27  28
ENDBRANCH   1  27
TORSDOF 22
ENDMDL
