MODEL 1
REMARK VINA RESULT:     -13.0      0.000      0.000
REMARK SMILES Cc1ccc(C(=O)N2C[C@@H](C(=O)OCCOCCOCCOC(=O)c3ccc(-c4c5nc(c(-c6c(F)c(F)c(F)c(F)c6F)c6ccc([nH]6)c(-c6c(F)c(F)c(F)c(F)c6F)c6nc(c(-c7c(F)c(F)c(F)c(F)c7F)c7ccc4[nH]7)C=C6)C=C5)cc3)C[C@H](C(=O)N3CCOCC3)C2)cc1F
REMARK SMILES IDX 17 1 16 2 15 3 14 4 13 5 11 6 12 7 10 8 8 9 9 10 98 11 89 12
REMARK SMILES IDX 88 13 6 14 7 15 5 16 1 17 2 18 3 19 100 20 4 21 99 22 101 23
REMARK SMILES IDX 90 24 91 25 92 26 93 27 97 28 94 29 96 30 95 31 18 32 19 33
REMARK SMILES IDX 20 34 21 35 22 36 23 37 24 38 25 39 26 40 87 41 27 42 86 43
REMARK SMILES IDX 28 44 29 45 30 46 80 47 31 48 85 49 79 50 81 51 32 52 84 53
REMARK SMILES IDX 78 54 77 55 33 57 65 58 45 59 64 60 46 61 49 62 63 63 82 64
REMARK SMILES IDX 47 65 48 66 62 68 83 69 50 70 34 71 35 72 43 73 36 74 37 75
REMARK SMILES IDX 41 76 44 77 38 78 39 79 42 80 40 81 66 82 67 83 75 84 68 85
REMARK SMILES IDX 69 86 73 87 76 88 70 89 71 90 74 91 72 92 51 93 52 94 60 95
REMARK SMILES IDX 53 96 54 97 58 98 61 99 55 100 56 101 59 102 57 103
REMARK H PARENT 81 56 49 67
REMARK Flexibility Score: inf
ROOT
ATOM      1  C   UNL A   1      32.373  29.901  25.641  1.00  0.00     0.188 C 
ENDROOT
BRANCH   1   2
ATOM      2  O   UNL A   1      31.269  29.107  25.213  1.00  0.00    -0.376 OA
BRANCH   2   3
ATOM      3  C   UNL A   1      31.125  28.920  23.806  1.00  0.00     0.202 C 
BRANCH   3   4
ATOM      4  C   UNL A   1      29.788  28.329  23.314  1.00  0.00     0.261 C 
BRANCH   4   5
ATOM      5  O   UNL A   1      29.647  26.899  23.475  1.00  0.00    -0.463 OA
BRANCH   5   6
ATOM      6  C   UNL A   1      30.700  26.173  23.039  1.00  0.00     0.310 C 
ATOM      7  O   UNL A   1      31.319  26.410  22.007  1.00  0.00    -0.252 OA
BRANCH   6   8
ATOM      8  C   UNL A   1      31.095  25.019  23.941  1.00  0.00     0.119 C 
ATOM      9  N   UNL A   1      31.438  22.632  23.824  1.00  0.00    -0.337 N 
ATOM     10  C   UNL A   1      30.830  23.761  23.158  1.00  0.00     0.135 C 
ATOM     11  C   UNL A   1      30.989  22.333  25.181  1.00  0.00     0.133 C 
ATOM     12  C   UNL A   1      30.994  23.581  26.096  1.00  0.00     0.099 C 
ATOM     13  C   UNL A   1      30.553  24.881  25.377  1.00  0.00     0.032 C 
BRANCH   9  14
ATOM     14  C   UNL A   1      32.489  21.996  23.190  1.00  0.00     0.254 C 
ATOM     15  O   UNL A   1      33.158  22.530  22.311  1.00  0.00    -0.269 OA
BRANCH  14  16
ATOM     16  C   UNL A   1      32.654  20.546  23.431  1.00  0.00     0.042 A 
ATOM     17  C   UNL A   1      33.900  16.442  23.460  1.00  0.00     0.047 C 
ATOM     18  C   UNL A   1      33.396  17.852  23.497  1.00  0.00    -0.015 A 
ATOM     19  C   UNL A   1      32.425  18.285  22.590  1.00  0.00     0.007 A 
ATOM     20  C   UNL A   1      33.950  18.773  24.394  1.00  0.00     0.126 A 
ATOM     21  C   UNL A   1      32.058  19.628  22.554  1.00  0.00     0.014 A 
ATOM     22  C   UNL A   1      33.593  20.115  24.367  1.00  0.00     0.053 A 
ATOM     23  F   UNL A   1      34.887  18.370  25.264  1.00  0.00    -0.207 F 
ENDBRANCH  14  16
ENDBRANCH   9  14
BRANCH  12  24
ATOM     24  C   UNL A   1      32.268  23.515  26.968  1.00  0.00     0.227 C 
ATOM     25  O   UNL A   1      32.185  22.959  28.070  1.00  0.00    -0.275 OA
ATOM     26  N   UNL A   1      33.502  23.787  26.429  1.00  0.00    -0.338 N 
ATOM     27  C   UNL A   1      33.931  25.055  25.847  1.00  0.00     0.148 C 
ATOM     28  C   UNL A   1      34.637  22.926  26.775  1.00  0.00     0.148 C 
ATOM     29  C   UNL A   1      34.834  24.801  24.633  1.00  0.00     0.181 C 
ATOM     30  C   UNL A   1      35.507  22.716  25.529  1.00  0.00     0.181 C 
ATOM     31  O   UNL A   1      35.956  23.979  25.004  1.00  0.00    -0.378 OA
ENDBRANCH  12  24
ENDBRANCH   6   8
ENDBRANCH   5   6
ENDBRANCH   4   5
ENDBRANCH   3   4
ENDBRANCH   2   3
ENDBRANCH   1   2
BRANCH   1  32
ATOM     32  C   UNL A   1      33.537  29.137  26.281  1.00  0.00     0.188 C 
BRANCH  32  33
ATOM     33  O   UNL A   1      34.300  29.893  27.211  1.00  0.00    -0.376 OA
BRANCH  33  34
ATOM     34  C   UNL A   1      33.866  31.187  27.630  1.00  0.00     0.202 C 
BRANCH  34  35
ATOM     35  C   UNL A   1      34.805  32.094  28.451  1.00  0.00     0.261 C 
BRANCH  35  36
ATOM     36  O   UNL A   1      36.165  32.069  28.034  1.00  0.00    -0.460 OA
BRANCH  36  37
ATOM     37  C   UNL A   1      37.029  31.690  28.985  1.00  0.00     0.338 C 
ATOM     38  O   UNL A   1      37.354  32.313  29.997  1.00  0.00    -0.246 OA
BRANCH  37  39
ATOM     39  C   UNL A   1      37.437  30.312  28.730  1.00  0.00     0.060 A 
ATOM     40  C   UNL A   1      37.204  29.369  29.745  1.00  0.00     0.016 A 
ATOM     41  C   UNL A   1      38.186  30.020  27.591  1.00  0.00     0.016 A 
ATOM     42  C   UNL A   1      37.998  28.252  29.803  1.00  0.00     0.010 A 
ATOM     43  C   UNL A   1      38.991  28.920  27.655  1.00  0.00     0.010 A 
ATOM     44  C   UNL A   1      38.993  28.170  28.844  1.00  0.00    -0.014 A 
BRANCH  44  45
ATOM     45  C   UNL A   1      40.294  27.633  29.168  1.00  0.00     0.031 A 
ATOM     46  C   UNL A   1      40.628  26.287  28.728  1.00  0.00     0.074 A 
ATOM     47  C   UNL A   1      41.204  28.553  29.561  1.00  0.00     0.049 A 
ATOM     48  N   UNL A   1      41.741  25.710  28.997  1.00  0.00    -0.248 NA
ATOM     49  C   UNL A   1      39.703  25.462  27.961  1.00  0.00     0.031 C 
ATOM     50  C   UNL A   1      42.651  28.521  29.401  1.00  0.00     0.029 A 
ATOM     51  N   UNL A   1      40.969  29.712  30.327  1.00  0.00    -0.354 N 
ATOM     52  C   UNL A   1      41.812  24.589  28.211  1.00  0.00     0.074 A 
ATOM     53  C   UNL A   1      40.491  24.429  27.650  1.00  0.00     0.031 C 
ATOM     54  C   UNL A   1      43.200  29.415  30.242  1.00  0.00     0.029 A 
ATOM     55  C   UNL A   1      42.135  29.890  31.109  1.00  0.00     0.049 A 
ATOM     56  H   UNL A   1      40.163  30.278  30.320  1.00  0.00     0.167 HD
ATOM     57  C   UNL A   1      43.037  24.020  28.037  1.00  0.00     0.037 A 
ATOM     58  C   UNL A   1      42.087  29.681  32.462  1.00  0.00     0.037 A 
ATOM     59  C   UNL A   1      44.045  24.707  28.843  1.00  0.00     0.049 A 
ATOM     60  C   UNL A   1      42.939  28.518  32.939  1.00  0.00     0.074 A 
ATOM     61  C   UNL A   1      44.944  25.734  28.604  1.00  0.00     0.029 A 
ATOM     62  N   UNL A   1      43.947  24.601  30.214  1.00  0.00    -0.354 N 
ATOM     63  N   UNL A   1      43.499  27.647  32.145  1.00  0.00    -0.248 NA
ATOM     64  C   UNL A   1      43.148  28.193  34.350  1.00  0.00     0.031 C 
ATOM     65  C   UNL A   1      45.369  26.249  29.867  1.00  0.00     0.029 A 
ATOM     66  C   UNL A   1      44.736  25.525  30.862  1.00  0.00     0.049 A 
ATOM     67  H   UNL A   1      43.382  23.941  30.675  1.00  0.00     0.167 HD
ATOM     68  C   UNL A   1      44.081  26.657  32.885  1.00  0.00     0.074 A 
ATOM     69  C   UNL A   1      43.833  27.039  34.263  1.00  0.00     0.031 C 
ATOM     70  C   UNL A   1      44.685  25.577  32.314  1.00  0.00     0.037 A 
BRANCH  57  71
ATOM     71  C   UNL A   1      43.364  22.984  27.000  1.00  0.00     0.064 A 
ATOM     72  C   UNL A   1      42.767  21.708  27.070  1.00  0.00     0.173 A 
ATOM     73  C   UNL A   1      44.256  23.167  25.928  1.00  0.00     0.173 A 
ATOM     74  F   UNL A   1      41.852  21.413  28.004  1.00  0.00    -0.203 F 
ATOM     75  C   UNL A   1      43.090  20.682  26.183  1.00  0.00     0.198 A 
ATOM     76  C   UNL A   1      44.622  22.123  25.074  1.00  0.00     0.198 A 
ATOM     77  F   UNL A   1      44.761  24.371  25.632  1.00  0.00    -0.203 F 
ATOM     78  F   UNL A   1      42.479  19.494  26.294  1.00  0.00    -0.200 F 
ATOM     79  C   UNL A   1      44.039  20.881  25.202  1.00  0.00     0.200 A 
ATOM     80  F   UNL A   1      45.536  22.337  24.118  1.00  0.00    -0.200 F 
ATOM     81  F   UNL A   1      44.369  19.886  24.368  1.00  0.00    -0.200 F 
ENDBRANCH  57  71
BRANCH  58  82
ATOM     82  C   UNL A   1      40.759  30.043  33.043  1.00  0.00     0.064 A 
ATOM     83  C   UNL A   1      40.406  31.405  33.122  1.00  0.00     0.173 A 
ATOM     84  C   UNL A   1      39.724  29.101  33.104  1.00  0.00     0.173 A 
ATOM     85  F   UNL A   1      41.361  32.349  33.075  1.00  0.00    -0.203 F 
ATOM     86  C   UNL A   1      39.071  31.807  33.118  1.00  0.00     0.198 A 
ATOM     87  C   UNL A   1      38.390  29.509  33.108  1.00  0.00     0.198 A 
ATOM     88  F   UNL A   1      39.994  27.790  33.036  1.00  0.00    -0.203 F 
ATOM     89  F   UNL A   1      38.766  33.112  33.074  1.00  0.00    -0.200 F 
ATOM     90  C   UNL A   1      38.065  30.857  33.076  1.00  0.00     0.200 A 
ATOM     91  F   UNL A   1      37.417  28.590  33.032  1.00  0.00    -0.200 F 
ATOM     92  F   UNL A   1      36.784  31.236  32.946  1.00  0.00    -0.200 F 
ENDBRANCH  58  82
BRANCH  70  93
ATOM     93  C   UNL A   1      45.273  24.446  33.105  1.00  0.00     0.064 A 
ATOM     94  C   UNL A   1      44.504  23.355  33.528  1.00  0.00     0.173 A 
ATOM     95  C   UNL A   1      46.608  24.487  33.563  1.00  0.00     0.173 A 
ATOM     96  F   UNL A   1      43.212  23.254  33.182  1.00  0.00    -0.203 F 
ATOM     97  C   UNL A   1      45.048  22.350  34.329  1.00  0.00     0.198 A 
ATOM     98  C   UNL A   1      47.128  23.520  34.417  1.00  0.00     0.198 A 
ATOM     99  F   UNL A   1      47.458  25.448  33.172  1.00  0.00    -0.203 F 
ATOM    100  F   UNL A   1      44.300  21.291  34.664  1.00  0.00    -0.200 F 
ATOM    101  C   UNL A   1      46.353  22.441  34.787  1.00  0.00     0.200 A 
ATOM    102  F   UNL A   1      48.385  23.638  34.867  1.00  0.00    -0.200 F 
ATOM    103  F   UNL A   1      46.864  21.487  35.575  1.00  0.00    -0.200 F 
ENDBRANCH  70  93
ENDBRANCH  44  45
ENDBRANCH  37  39
ENDBRANCH  36  37
ENDBRANCH  35  36
ENDBRANCH  34  35
ENDBRANCH  33  34
ENDBRANCH  32  33
ENDBRANCH   1  32
TORSDOF 20
ENDMDL
MODEL 2
REMARK VINA RESULT:     -12.8      1.513      3.173
REMARK SMILES Cc1ccc(C(=O)N2C[C@@H](C(=O)OCCOCCOCCOC(=O)c3ccc(-c4c5nc(c(-c6c(F)c(F)c(F)c(F)c6F)c6ccc([nH]6)c(-c6c(F)c(F)c(F)c(F)c6F)c6nc(c(-c7c(F)c(F)c(F)c(F)c7F)c7ccc4[nH]7)C=C6)C=C5)cc3)C[C@H](C(=O)N3CCOCC3)C2)cc1F
REMARK SMILES IDX 17 1 16 2 15 3 14 4 13 5 11 6 12 7 10 8 8 9 9 10 98 11 89 12
REMARK SMILES IDX 88 13 6 14 7 15 5 16 1 17 2 18 3 19 100 20 4 21 99 22 101 23
REMARK SMILES IDX 90 24 91 25 92 26 93 27 97 28 94 29 96 30 95 31 18 32 19 33
REMARK SMILES IDX 20 34 21 35 22 36 23 37 24 38 25 39 26 40 87 41 27 42 86 43
REMARK SMILES IDX 28 44 29 45 30 46 80 47 31 48 85 49 79 50 81 51 32 52 84 53
REMARK SMILES IDX 78 54 77 55 33 57 65 58 45 59 64 60 46 61 49 62 63 63 82 64
REMARK SMILES IDX 47 65 48 66 62 68 83 69 50 70 34 71 35 72 43 73 36 74 37 75
REMARK SMILES IDX 41 76 44 77 38 78 39 79 42 80 40 81 66 82 67 83 75 84 68 85
REMARK SMILES IDX 69 86 73 87 76 88 70 89 71 90 74 91 72 92 51 93 52 94 60 95
REMARK SMILES IDX 53 96 54 97 58 98 61 99 55 100 56 101 59 102 57 103
REMARK H PARENT 81 56 49 67
REMARK Flexibility Score: inf
ROOT
ATOM      1  C   UNL A   1      31.769  29.647  26.777  1.00  0.00     0.188 C 
ENDROOT
BRANCH   1   2
ATOM      2  O   UNL A   1      31.551  28.377  26.168  1.00  0.00    -0.376 OA
BRANCH   2   3
ATOM      3  C   UNL A   1      31.896  27.230  26.944  1.00  0.00     0.202 C 
BRANCH   3   4
ATOM      4  C   UNL A   1      31.550  25.852  26.343  1.00  0.00     0.261 C 
BRANCH   4   5
ATOM      5  O   UNL A   1      31.611  24.741  27.267  1.00  0.00    -0.463 OA
BRANCH   5   6
ATOM      6  C   UNL A   1      31.020  23.608  26.830  1.00  0.00     0.310 C 
ATOM      7  O   UNL A   1      29.891  23.251  27.153  1.00  0.00    -0.252 OA
BRANCH   6   8
ATOM      8  C   UNL A   1      31.855  22.783  25.870  1.00  0.00     0.119 C 
ATOM      9  N   UNL A   1      32.237  22.556  23.496  1.00  0.00    -0.337 N 
ATOM     10  C   UNL A   1      31.326  23.075  24.491  1.00  0.00     0.135 C 
ATOM     11  C   UNL A   1      32.493  21.119  23.505  1.00  0.00     0.133 C 
ATOM     12  C   UNL A   1      32.855  20.590  24.914  1.00  0.00     0.099 C 
ATOM     13  C   UNL A   1      32.056  21.267  26.057  1.00  0.00     0.032 C 
BRANCH   9  14
ATOM     14  C   UNL A   1      32.903  23.464  22.693  1.00  0.00     0.254 C 
ATOM     15  O   UNL A   1      33.788  23.138  21.908  1.00  0.00    -0.269 OA
BRANCH  14  16
ATOM     16  C   UNL A   1      32.687  24.902  22.967  1.00  0.00     0.042 A 
ATOM     17  C   UNL A   1      32.452  29.181  22.820  1.00  0.00     0.047 C 
ATOM     18  C   UNL A   1      32.512  27.692  22.955  1.00  0.00    -0.015 A 
ATOM     19  C   UNL A   1      33.657  27.067  23.458  1.00  0.00     0.007 A 
ATOM     20  C   UNL A   1      31.448  26.902  22.506  1.00  0.00     0.126 A 
ATOM     21  C   UNL A   1      33.746  25.677  23.460  1.00  0.00     0.014 A 
ATOM     22  C   UNL A   1      31.524  25.515  22.501  1.00  0.00     0.053 A 
ATOM     23  F   UNL A   1      30.347  27.490  22.015  1.00  0.00    -0.207 F 
ENDBRANCH  14  16
ENDBRANCH   9  14
BRANCH  12  24
ATOM     24  C   UNL A   1      34.390  20.424  24.969  1.00  0.00     0.227 C 
ATOM     25  O   UNL A   1      34.868  19.345  24.597  1.00  0.00    -0.275 OA
ATOM     26  N   UNL A   1      35.208  21.515  25.133  1.00  0.00    -0.338 N 
ATOM     27  C   UNL A   1      35.234  22.411  26.286  1.00  0.00     0.148 C 
ATOM     28  C   UNL A   1      36.424  21.624  24.322  1.00  0.00     0.148 C 
ATOM     29  C   UNL A   1      35.478  23.855  25.827  1.00  0.00     0.181 C 
ATOM     30  C   UNL A   1      36.621  23.087  23.903  1.00  0.00     0.181 C 
ATOM     31  O   UNL A   1      36.692  23.941  25.059  1.00  0.00    -0.378 OA
ENDBRANCH  12  24
ENDBRANCH   6   8
ENDBRANCH   5   6
ENDBRANCH   4   5
ENDBRANCH   3   4
ENDBRANCH   2   3
ENDBRANCH   1   2
BRANCH   1  32
ATOM     32  C   UNL A   1      33.069  30.359  26.388  1.00  0.00     0.188 C 
BRANCH  32  33
ATOM     33  O   UNL A   1      34.006  30.495  27.447  1.00  0.00    -0.376 OA
BRANCH  33  34
ATOM     34  C   UNL A   1      34.529  31.775  27.801  1.00  0.00     0.202 C 
BRANCH  34  35
ATOM     35  C   UNL A   1      34.719  32.156  29.282  1.00  0.00     0.261 C 
BRANCH  35  36
ATOM     36  O   UNL A   1      35.871  31.589  29.896  1.00  0.00    -0.460 OA
BRANCH  36  37
ATOM     37  C   UNL A   1      36.994  31.696  29.173  1.00  0.00     0.338 C 
ATOM     38  O   UNL A   1      37.630  32.720  28.922  1.00  0.00    -0.246 OA
BRANCH  37  39
ATOM     39  C   UNL A   1      37.469  30.358  28.838  1.00  0.00     0.060 A 
ATOM     40  C   UNL A   1      37.226  29.332  29.768  1.00  0.00     0.016 A 
ATOM     41  C   UNL A   1      38.283  30.181  27.721  1.00  0.00     0.016 A 
ATOM     42  C   UNL A   1      38.061  28.244  29.783  1.00  0.00     0.010 A 
ATOM     43  C   UNL A   1      39.128  29.109  27.744  1.00  0.00     0.010 A 
ATOM     44  C   UNL A   1      39.103  28.271  28.872  1.00  0.00    -0.014 A 
BRANCH  44  45
ATOM     45  C   UNL A   1      40.408  27.760  29.221  1.00  0.00     0.031 A 
ATOM     46  C   UNL A   1      40.807  26.452  28.722  1.00  0.00     0.074 A 
ATOM     47  C   UNL A   1      41.269  28.685  29.702  1.00  0.00     0.049 A 
ATOM     48  N   UNL A   1      41.926  25.898  29.006  1.00  0.00    -0.248 NA
ATOM     49  C   UNL A   1      39.943  25.643  27.873  1.00  0.00     0.031 C 
ATOM     50  C   UNL A   1      42.721  28.709  29.603  1.00  0.00     0.029 A 
ATOM     51  N   UNL A   1      40.962  29.791  30.520  1.00  0.00    -0.354 N 
ATOM     52  C   UNL A   1      42.069  24.826  28.164  1.00  0.00     0.074 A 
ATOM     53  C   UNL A   1      40.778  24.655  27.540  1.00  0.00     0.031 C 
ATOM     54  C   UNL A   1      43.203  29.573  30.513  1.00  0.00     0.029 A 
ATOM     55  C   UNL A   1      42.089  29.963  31.360  1.00  0.00     0.049 A 
ATOM     56  H   UNL A   1      40.138  30.331  30.510  1.00  0.00     0.167 HD
ATOM     57  C   UNL A   1      43.319  24.307  28.011  1.00  0.00     0.037 A 
ATOM     58  C   UNL A   1      41.993  29.677  32.696  1.00  0.00     0.037 A 
ATOM     59  C   UNL A   1      44.269  24.981  28.895  1.00  0.00     0.049 A 
ATOM     60  C   UNL A   1      42.865  28.517  33.144  1.00  0.00     0.074 A 
ATOM     61  C   UNL A   1      45.140  26.048  28.752  1.00  0.00     0.029 A 
ATOM     62  N   UNL A   1      44.119  24.794  30.253  1.00  0.00    -0.354 N 
ATOM     63  N   UNL A   1      43.487  27.711  32.328  1.00  0.00    -0.248 NA
ATOM     64  C   UNL A   1      43.027  28.120  34.542  1.00  0.00     0.031 C 
ATOM     65  C   UNL A   1      45.496  26.505  30.058  1.00  0.00     0.029 A 
ATOM     66  C   UNL A   1      44.848  25.706  30.984  1.00  0.00     0.049 A 
ATOM     67  H   UNL A   1      43.559  24.092  30.653  1.00  0.00     0.167 HD
ATOM     68  C   UNL A   1      44.073  26.701  33.037  1.00  0.00     0.074 A 
ATOM     69  C   UNL A   1      43.756  26.996  34.422  1.00  0.00     0.031 C 
ATOM     70  C   UNL A   1      44.737  25.674  32.434  1.00  0.00     0.037 A 
BRANCH  57  71
ATOM     71  C   UNL A   1      43.724  23.343  26.934  1.00  0.00     0.064 A 
ATOM     72  C   UNL A   1      44.614  23.758  25.920  1.00  0.00     0.173 A 
ATOM     73  C   UNL A   1      43.275  22.015  26.827  1.00  0.00     0.173 A 
ATOM     74  F   UNL A   1      45.167  24.978  25.930  1.00  0.00    -0.203 F 
ATOM     75  C   UNL A   1      44.965  22.934  24.851  1.00  0.00     0.198 A 
ATOM     76  C   UNL A   1      43.584  21.208  25.728  1.00  0.00     0.198 A 
ATOM     77  F   UNL A   1      42.573  21.429  27.805  1.00  0.00    -0.203 F 
ATOM     78  F   UNL A   1      45.824  23.382  23.925  1.00  0.00    -0.200 F 
ATOM     79  C   UNL A   1      44.429  21.668  24.740  1.00  0.00     0.200 A 
ATOM     80  F   UNL A   1      43.064  19.976  25.642  1.00  0.00    -0.200 F 
ATOM     81  F   UNL A   1      44.746  20.887  23.700  1.00  0.00    -0.200 F 
ENDBRANCH  57  71
BRANCH  58  82
ATOM     82  C   UNL A   1      40.631  29.962  33.238  1.00  0.00     0.064 A 
ATOM     83  C   UNL A   1      40.239  31.305  33.407  1.00  0.00     0.173 A 
ATOM     84  C   UNL A   1      39.619  28.995  33.177  1.00  0.00     0.173 A 
ATOM     85  F   UNL A   1      41.170  32.271  33.479  1.00  0.00    -0.203 F 
ATOM     86  C   UNL A   1      38.896  31.677  33.370  1.00  0.00     0.198 A 
ATOM     87  C   UNL A   1      38.276  29.371  33.149  1.00  0.00     0.198 A 
ATOM     88  F   UNL A   1      39.926  27.700  33.020  1.00  0.00    -0.203 F 
ATOM     89  F   UNL A   1      38.559  32.973  33.412  1.00  0.00    -0.200 F 
ATOM     90  C   UNL A   1      37.918  30.711  33.206  1.00  0.00     0.200 A 
ATOM     91  F   UNL A   1      37.332  28.440  32.954  1.00  0.00    -0.200 F 
ATOM     92  F   UNL A   1      36.635  31.069  33.045  1.00  0.00    -0.200 F 
ENDBRANCH  58  82
BRANCH  70  93
ATOM     93  C   UNL A   1      45.331  24.521  33.185  1.00  0.00     0.064 A 
ATOM     94  C   UNL A   1      44.569  23.409  33.566  1.00  0.00     0.173 A 
ATOM     95  C   UNL A   1      46.665  24.556  33.649  1.00  0.00     0.173 A 
ATOM     96  F   UNL A   1      43.280  23.311  33.213  1.00  0.00    -0.203 F 
ATOM     97  C   UNL A   1      45.119  22.380  34.333  1.00  0.00     0.198 A 
ATOM     98  C   UNL A   1      47.189  23.562  34.469  1.00  0.00     0.198 A 
ATOM     99  F   UNL A   1      47.507  25.537  33.295  1.00  0.00    -0.203 F 
ATOM    100  F   UNL A   1      44.378  21.304  34.626  1.00  0.00    -0.200 F 
ATOM    101  C   UNL A   1      46.421  22.465  34.798  1.00  0.00     0.200 A 
ATOM    102  F   UNL A   1      48.444  23.675  34.928  1.00  0.00    -0.200 F 
ATOM    103  F   UNL A   1      46.938  21.487  35.553  1.00  0.00    -0.200 F 
ENDBRANCH  70  93
ENDBRANCH  44  45
ENDBRANCH  37  39
ENDBRANCH  36  37
ENDBRANCH  35  36
ENDBRANCH  34  35
ENDBRANCH  33  34
ENDBRANCH  32  33
ENDBRANCH   1  32
TORSDOF 20
ENDMDL
MODEL 3
REMARK VINA RESULT:     -12.8      3.983     10.181
REMARK SMILES Cc1ccc(C(=O)N2C[C@@H](C(=O)OCCOCCOCCOC(=O)c3ccc(-c4c5nc(c(-c6c(F)c(F)c(F)c(F)c6F)c6ccc([nH]6)c(-c6c(F)c(F)c(F)c(F)c6F)c6nc(c(-c7c(F)c(F)c(F)c(F)c7F)c7ccc4[nH]7)C=C6)C=C5)cc3)C[C@H](C(=O)N3CCOCC3)C2)cc1F
REMARK SMILES IDX 17 1 16 2 15 3 14 4 13 5 11 6 12 7 10 8 8 9 9 10 98 11 89 12
REMARK SMILES IDX 88 13 6 14 7 15 5 16 1 17 2 18 3 19 100 20 4 21 99 22 101 23
REMARK SMILES IDX 90 24 91 25 92 26 93 27 97 28 94 29 96 30 95 31 18 32 19 33
REMARK SMILES IDX 20 34 21 35 22 36 23 37 24 38 25 39 26 40 87 41 27 42 86 43
REMARK SMILES IDX 28 44 29 45 30 46 80 47 31 48 85 49 79 50 81 51 32 52 84 53
REMARK SMILES IDX 78 54 77 55 33 57 65 58 45 59 64 60 46 61 49 62 63 63 82 64
REMARK SMILES IDX 47 65 48 66 62 68 83 69 50 70 34 71 35 72 43 73 36 74 37 75
REMARK SMILES IDX 41 76 44 77 38 78 39 79 42 80 40 81 66 82 67 83 75 84 68 85
REMARK SMILES IDX 69 86 73 87 76 88 70 89 71 90 74 91 72 92 51 93 52 94 60 95
REMARK SMILES IDX 53 96 54 97 58 98 61 99 55 100 56 101 59 102 57 103
REMARK H PARENT 81 56 49 67
REMARK Flexibility Score: inf
ROOT
ATOM      1  C   UNL A   1      41.856  19.232  26.132  1.00  0.00     0.188 C 
ENDROOT
BRANCH   1   2
ATOM      2  O   UNL A   1      40.903  20.280  26.298  1.00  0.00    -0.376 OA
BRANCH   2   3
ATOM      3  C   UNL A   1      39.605  20.055  25.748  1.00  0.00     0.202 C 
BRANCH   3   4
ATOM      4  C   UNL A   1      38.651  21.266  25.696  1.00  0.00     0.261 C 
BRANCH   4   5
ATOM      5  O   UNL A   1      37.647  21.218  24.657  1.00  0.00    -0.463 OA
BRANCH   5   6
ATOM      6  C   UNL A   1      36.784  22.258  24.655  1.00  0.00     0.310 C 
ATOM      7  O   UNL A   1      37.121  23.433  24.765  1.00  0.00    -0.252 OA
BRANCH   6   8
ATOM      8  C   UNL A   1      35.326  21.876  24.486  1.00  0.00     0.119 C 
ATOM      9  N   UNL A   1      33.182  22.928  24.127  1.00  0.00    -0.337 N 
ATOM     10  C   UNL A   1      34.542  23.159  24.558  1.00  0.00     0.135 C 
ATOM     11  C   UNL A   1      32.393  21.961  24.885  1.00  0.00     0.133 C 
ATOM     12  C   UNL A   1      33.141  20.622  25.096  1.00  0.00     0.099 C 
ATOM     13  C   UNL A   1      34.660  20.791  25.353  1.00  0.00     0.032 C 
BRANCH   9  14
ATOM     14  C   UNL A   1      32.764  23.532  22.956  1.00  0.00     0.254 C 
ATOM     15  O   UNL A   1      33.035  23.091  21.843  1.00  0.00    -0.269 OA
BRANCH  14  16
ATOM     16  C   UNL A   1      32.162  24.880  23.061  1.00  0.00     0.042 A 
ATOM     17  C   UNL A   1      29.591  28.311  22.992  1.00  0.00     0.047 C 
ATOM     18  C   UNL A   1      30.554  27.166  23.035  1.00  0.00    -0.015 A 
ATOM     19  C   UNL A   1      31.346  26.858  21.926  1.00  0.00     0.007 A 
ATOM     20  C   UNL A   1      30.616  26.342  24.165  1.00  0.00     0.126 A 
ATOM     21  C   UNL A   1      32.144  25.717  21.936  1.00  0.00     0.014 A 
ATOM     22  C   UNL A   1      31.406  25.200  24.188  1.00  0.00     0.053 A 
ATOM     23  F   UNL A   1      29.855  26.624  25.233  1.00  0.00    -0.207 F 
ENDBRANCH  14  16
ENDBRANCH   9  14
BRANCH  12  24
ATOM     24  C   UNL A   1      32.588  19.612  24.066  1.00  0.00     0.227 C 
ATOM     25  O   UNL A   1      32.132  20.059  23.006  1.00  0.00    -0.275 OA
ATOM     26  N   UNL A   1      32.861  18.271  24.182  1.00  0.00    -0.338 N 
ATOM     27  C   UNL A   1      32.470  17.402  25.287  1.00  0.00     0.148 C 
ATOM     28  C   UNL A   1      33.223  17.510  22.982  1.00  0.00     0.148 C 
ATOM     29  C   UNL A   1      33.582  16.386  25.580  1.00  0.00     0.181 C 
ATOM     30  C   UNL A   1      34.328  16.507  23.337  1.00  0.00     0.181 C 
ATOM     31  O   UNL A   1      33.898  15.631  24.396  1.00  0.00    -0.378 OA
ENDBRANCH  12  24
ENDBRANCH   6   8
ENDBRANCH   5   6
ENDBRANCH   4   5
ENDBRANCH   3   4
ENDBRANCH   2   3
ENDBRANCH   1   2
BRANCH   1  32
ATOM     32  C   UNL A   1      43.271  19.673  25.746  1.00  0.00     0.188 C 
BRANCH  32  33
ATOM     33  O   UNL A   1      43.569  21.030  26.046  1.00  0.00    -0.376 OA
BRANCH  33  34
ATOM     34  C   UNL A   1      43.771  21.981  25.001  1.00  0.00     0.202 C 
BRANCH  34  35
ATOM     35  C   UNL A   1      43.005  23.319  25.008  1.00  0.00     0.261 C 
BRANCH  35  36
ATOM     36  O   UNL A   1      41.934  23.383  25.942  1.00  0.00    -0.460 OA
BRANCH  36  37
ATOM     37  C   UNL A   1      42.220  24.048  27.069  1.00  0.00     0.338 C 
ATOM     38  O   UNL A   1      43.214  23.922  27.785  1.00  0.00    -0.246 OA
BRANCH  37  39
ATOM     39  C   UNL A   1      41.226  25.100  27.261  1.00  0.00     0.060 A 
ATOM     40  C   UNL A   1      41.149  26.105  26.281  1.00  0.00     0.016 A 
ATOM     41  C   UNL A   1      40.527  25.169  28.465  1.00  0.00     0.016 A 
ATOM     42  C   UNL A   1      40.661  27.337  26.638  1.00  0.00     0.010 A 
ATOM     43  C   UNL A   1      40.058  26.398  28.829  1.00  0.00     0.010 A 
ATOM     44  C   UNL A   1      40.301  27.481  27.967  1.00  0.00    -0.014 A 
BRANCH  44  45
ATOM     45  C   UNL A   1      40.550  28.716  28.673  1.00  0.00     0.031 A 
ATOM     46  C   UNL A   1      39.480  29.699  28.768  1.00  0.00     0.074 A 
ATOM     47  C   UNL A   1      41.645  28.705  29.466  1.00  0.00     0.049 A 
ATOM     48  N   UNL A   1      39.614  30.837  29.341  1.00  0.00    -0.248 NA
ATOM     49  C   UNL A   1      38.162  29.478  28.188  1.00  0.00     0.031 C 
ATOM     50  C   UNL A   1      41.882  29.453  30.693  1.00  0.00     0.029 A 
ATOM     51  N   UNL A   1      42.867  28.049  29.223  1.00  0.00    -0.354 N 
ATOM     52  C   UNL A   1      38.357  31.369  29.476  1.00  0.00     0.074 A 
ATOM     53  C   UNL A   1      37.499  30.532  28.670  1.00  0.00     0.031 C 
ATOM     54  C   UNL A   1      43.200  29.447  30.956  1.00  0.00     0.029 A 
ATOM     55  C   UNL A   1      43.862  28.878  29.794  1.00  0.00     0.049 A 
ATOM     56  H   UNL A   1      43.002  27.193  28.754  1.00  0.00     0.167 HD
ATOM     57  C   UNL A   1      38.195  32.380  30.372  1.00  0.00     0.037 A 
ATOM     58  C   UNL A   1      44.727  29.563  28.982  1.00  0.00     0.037 A 
ATOM     59  C   UNL A   1      39.479  32.762  30.958  1.00  0.00     0.049 A 
ATOM     60  C   UNL A   1      44.586  31.073  29.062  1.00  0.00     0.074 A 
ATOM     61  C   UNL A   1      40.168  32.406  32.106  1.00  0.00     0.029 A 
ATOM     62  N   UNL A   1      40.408  33.353  30.128  1.00  0.00    -0.354 N 
ATOM     63  N   UNL A   1      43.605  31.685  29.666  1.00  0.00    -0.248 NA
ATOM     64  C   UNL A   1      45.490  32.007  28.391  1.00  0.00     0.031 C 
ATOM     65  C   UNL A   1      41.535  32.785  31.935  1.00  0.00     0.029 A 
ATOM     66  C   UNL A   1      41.665  33.377  30.691  1.00  0.00     0.049 A 
ATOM     67  H   UNL A   1      40.198  33.716  29.237  1.00  0.00     0.167 HD
ATOM     68  C   UNL A   1      43.697  33.031  29.445  1.00  0.00     0.074 A 
ATOM     69  C   UNL A   1      44.892  33.187  28.638  1.00  0.00     0.031 C 
ATOM     70  C   UNL A   1      42.763  33.912  29.904  1.00  0.00     0.037 A 
BRANCH  57  71
ATOM     71  C   UNL A   1      36.871  32.885  30.869  1.00  0.00     0.064 A 
ATOM     72  C   UNL A   1      36.067  33.686  30.031  1.00  0.00     0.173 A 
ATOM     73  C   UNL A   1      36.338  32.637  32.147  1.00  0.00     0.173 A 
ATOM     74  F   UNL A   1      36.422  33.954  28.766  1.00  0.00    -0.203 F 
ATOM     75  C   UNL A   1      34.866  34.249  30.462  1.00  0.00     0.198 A 
ATOM     76  C   UNL A   1      35.163  33.245  32.598  1.00  0.00     0.198 A 
ATOM     77  F   UNL A   1      36.900  31.756  32.983  1.00  0.00    -0.203 F 
ATOM     78  F   UNL A   1      34.141  34.992  29.614  1.00  0.00    -0.200 F 
ATOM     79  C   UNL A   1      34.427  34.051  31.755  1.00  0.00     0.200 A 
ATOM     80  F   UNL A   1      34.745  33.032  33.853  1.00  0.00    -0.200 F 
ATOM     81  F   UNL A   1      33.288  34.614  32.176  1.00  0.00    -0.200 F 
ENDBRANCH  57  71
BRANCH  58  82
ATOM     82  C   UNL A   1      45.037  28.815  27.728  1.00  0.00     0.064 A 
ATOM     83  C   UNL A   1      45.938  27.733  27.792  1.00  0.00     0.173 A 
ATOM     84  C   UNL A   1      44.171  28.871  26.628  1.00  0.00     0.173 A 
ATOM     85  F   UNL A   1      46.795  27.635  28.822  1.00  0.00    -0.203 F 
ATOM     86  C   UNL A   1      45.876  26.684  26.876  1.00  0.00     0.198 A 
ATOM     87  C   UNL A   1      44.118  27.823  25.709  1.00  0.00     0.198 A 
ATOM     88  F   UNL A   1      43.291  29.875  26.507  1.00  0.00    -0.203 F 
ATOM     89  F   UNL A   1      46.665  25.612  27.032  1.00  0.00    -0.200 F 
ATOM     90  C   UNL A   1      44.941  26.715  25.855  1.00  0.00     0.200 A 
ATOM     91  F   UNL A   1      43.189  27.836  24.743  1.00  0.00    -0.200 F 
ATOM     92  F   UNL A   1      44.790  25.656  25.046  1.00  0.00    -0.200 F 
ENDBRANCH  58  82
BRANCH  70  93
ATOM     93  C   UNL A   1      42.807  35.384  29.618  1.00  0.00     0.064 A 
ATOM     94  C   UNL A   1      42.209  35.940  28.481  1.00  0.00     0.173 A 
ATOM     95  C   UNL A   1      43.559  36.266  30.426  1.00  0.00     0.173 A 
ATOM     96  F   UNL A   1      41.515  35.171  27.629  1.00  0.00    -0.203 F 
ATOM     97  C   UNL A   1      42.327  37.300  28.190  1.00  0.00     0.198 A 
ATOM     98  C   UNL A   1      43.730  37.606  30.097  1.00  0.00     0.198 A 
ATOM     99  F   UNL A   1      44.122  35.862  31.574  1.00  0.00    -0.203 F 
ATOM    100  F   UNL A   1      41.690  37.808  27.126  1.00  0.00    -0.200 F 
ATOM    101  C   UNL A   1      43.100  38.128  28.987  1.00  0.00     0.200 A 
ATOM    102  F   UNL A   1      44.501  38.385  30.869  1.00  0.00    -0.200 F 
ATOM    103  F   UNL A   1      43.229  39.428  28.692  1.00  0.00    -0.200 F 
ENDBRANCH  70  93
ENDBRANCH  44  45
ENDBRANCH  37  39
ENDBRANCH  36  37
ENDBRANCH  35  36
ENDBRANCH  34  35
ENDBRANCH  33  34
ENDBRANCH  32  33
ENDBRANCH   1  32
TORSDOF 20
ENDMDL
