MODEL 1
REMARK VINA RESULT:      -9.4      0.000      0.000
REMARK SMILES CC(C)=CC[C@@]1(C(=O)OCCOCCOCCOC(=O)c2ccc(-c3c4nc(c(-c5c(F)c(F)c(F)c(F)c5F)c5ccc([nH]5)c(-c5c(F)c(F)c(F)c(F)c5F)c5nc(c(-c6c(F)c(F)c(F)c(F)c6F)c6ccc3[nH]6)C=C5)C=C4)cc2)CCC[C@H](C)C1
REMARK SMILES IDX 13 1 12 2 11 3 10 4 9 5 7 6 8 7 6 8 84 9 89 10 85 11 87 12
REMARK SMILES IDX 86 13 88 14 5 15 4 16 1 17 2 18 3 19 14 20 15 21 16 22 17 23
REMARK SMILES IDX 18 24 19 25 20 26 21 27 22 28 83 29 23 30 82 31 24 32 25 33
REMARK SMILES IDX 26 34 76 35 27 36 81 37 75 38 77 39 28 40 80 41 74 42 73 43
REMARK SMILES IDX 29 45 61 46 41 47 60 48 42 49 45 50 59 51 78 52 43 53 44 54
REMARK SMILES IDX 58 56 79 57 46 58 30 59 31 60 39 61 32 62 33 63 37 64 40 65
REMARK SMILES IDX 34 66 35 67 38 68 36 69 62 70 63 71 71 72 64 73 65 74 69 75
REMARK SMILES IDX 72 76 66 77 67 78 70 79 68 80 47 81 48 82 56 83 49 84 50 85
REMARK SMILES IDX 54 86 57 87 51 88 52 89 55 90 53 91
REMARK H PARENT 77 44 45 55
REMARK Flexibility Score: inf
ROOT
ATOM      1  C   UNL A   1      44.085  19.001  25.182  1.00  0.00     0.188 C 
ENDROOT
BRANCH   1   2
ATOM      2  O   UNL A   1      43.842  20.195  24.452  1.00  0.00    -0.376 OA
BRANCH   2   3
ATOM      3  C   UNL A   1      44.810  21.228  24.425  1.00  0.00     0.202 C 
BRANCH   3   4
ATOM      4  C   UNL A   1      44.358  22.694  24.374  1.00  0.00     0.261 C 
BRANCH   4   5
ATOM      5  O   UNL A   1      45.379  23.706  24.278  1.00  0.00    -0.463 OA
BRANCH   5   6
ATOM      6  C   UNL A   1      46.062  23.960  25.430  1.00  0.00     0.312 C 
ATOM      7  O   UNL A   1      46.886  23.176  25.885  1.00  0.00    -0.252 OA
BRANCH   6   8
ATOM      8  C   UNL A   1      45.708  25.329  26.084  1.00  0.00     0.072 C 
ATOM      9  C   UNL A   1      44.467  25.958  25.392  1.00  0.00     0.019 C 
ATOM     10  C   UNL A   1      46.866  26.363  25.958  1.00  0.00     0.022 C 
ATOM     11  C   UNL A   1      44.086  27.338  25.929  1.00  0.00     0.001 C 
ATOM     12  C   UNL A   1      46.512  27.717  26.607  1.00  0.00    -0.013 C 
ATOM     13  C   UNL A   1      45.263  28.312  25.941  1.00  0.00     0.003 C 
ATOM     14  C   UNL A   1      47.681  28.698  26.530  1.00  0.00     0.007 C 
BRANCH   8  15
ATOM     15  C   UNL A   1      45.394  25.010  27.591  1.00  0.00     0.046 C 
BRANCH  15  16
ATOM     16  C   UNL A   1      44.203  24.088  27.779  1.00  0.00    -0.027 C 
ATOM     17  C   UNL A   1      44.363  23.910  30.274  1.00  0.00     0.039 C 
ATOM     18  C   UNL A   1      43.686  23.685  28.956  1.00  0.00    -0.080 C 
ATOM     19  C   UNL A   1      42.311  23.073  29.002  1.00  0.00     0.039 C 
ENDBRANCH  15  16
ENDBRANCH   8  15
ENDBRANCH   6   8
ENDBRANCH   5   6
ENDBRANCH   4   5
ENDBRANCH   3   4
ENDBRANCH   2   3
ENDBRANCH   1   2
BRANCH   1  20
ATOM     20  C   UNL A   1      43.003  18.405  26.109  1.00  0.00     0.188 C 
BRANCH  20  21
ATOM     21  O   UNL A   1      41.705  18.891  25.900  1.00  0.00    -0.376 OA
BRANCH  21  22
ATOM     22  C   UNL A   1      41.188  19.935  26.694  1.00  0.00     0.202 C 
BRANCH  22  23
ATOM     23  C   UNL A   1      40.132  20.953  26.226  1.00  0.00     0.261 C 
BRANCH  23  24
ATOM     24  O   UNL A   1      40.276  22.324  26.615  1.00  0.00    -0.460 OA
BRANCH  24  25
ATOM     25  C   UNL A   1      39.217  23.141  26.388  1.00  0.00     0.338 C 
ATOM     26  O   UNL A   1      38.156  22.846  25.876  1.00  0.00    -0.246 OA
BRANCH  25  27
ATOM     27  C   UNL A   1      39.492  24.450  27.022  1.00  0.00     0.060 A 
ATOM     28  C   UNL A   1      40.203  25.422  26.304  1.00  0.00     0.016 A 
ATOM     29  C   UNL A   1      39.044  24.717  28.317  1.00  0.00     0.016 A 
ATOM     30  C   UNL A   1      40.471  26.666  26.883  1.00  0.00     0.010 A 
ATOM     31  C   UNL A   1      39.334  25.955  28.902  1.00  0.00     0.010 A 
ATOM     32  C   UNL A   1      40.059  26.933  28.196  1.00  0.00    -0.014 A 
BRANCH  32  33
ATOM     33  C   UNL A   1      40.465  28.186  28.886  1.00  0.00     0.031 A 
ATOM     34  C   UNL A   1      41.859  28.296  29.440  1.00  0.00     0.074 A 
ATOM     35  C   UNL A   1      39.599  29.201  29.051  1.00  0.00     0.049 A 
ATOM     36  N   UNL A   1      42.389  29.234  30.184  1.00  0.00    -0.248 NA
ATOM     37  C   UNL A   1      42.777  27.194  29.114  1.00  0.00     0.031 C 
ATOM     38  C   UNL A   1      38.236  29.241  28.529  1.00  0.00     0.029 A 
ATOM     39  N   UNL A   1      39.736  30.389  29.730  1.00  0.00    -0.354 N 
ATOM     40  C   UNL A   1      43.695  28.831  30.425  1.00  0.00     0.074 A 
ATOM     41  C   UNL A   1      43.872  27.554  29.767  1.00  0.00     0.031 C 
ATOM     42  C   UNL A   1      37.650  30.383  28.929  1.00  0.00     0.029 A 
ATOM     43  C   UNL A   1      38.583  31.133  29.770  1.00  0.00     0.049 A 
ATOM     44  H   UNL A   1      40.580  30.677  30.147  1.00  0.00     0.167 HD
ATOM     45  C   UNL A   1      44.660  29.469  31.130  1.00  0.00     0.037 A 
ATOM     46  C   UNL A   1      38.301  32.269  30.442  1.00  0.00     0.037 A 
ATOM     47  C   UNL A   1      44.482  30.738  31.790  1.00  0.00     0.049 A 
ATOM     48  C   UNL A   1      39.363  32.914  31.298  1.00  0.00     0.074 A 
ATOM     49  C   UNL A   1      45.412  31.478  32.500  1.00  0.00     0.029 A 
ATOM     50  N   UNL A   1      43.291  31.446  31.834  1.00  0.00    -0.354 N 
ATOM     51  N   UNL A   1      40.608  32.548  31.493  1.00  0.00    -0.248 NA
ATOM     52  C   UNL A   1      38.980  34.130  32.030  1.00  0.00     0.031 C 
ATOM     53  C   UNL A   1      44.767  32.599  33.030  1.00  0.00     0.029 A 
ATOM     54  C   UNL A   1      43.451  32.594  32.595  1.00  0.00     0.049 A 
ATOM     55  H   UNL A   1      42.455  31.175  31.391  1.00  0.00     0.167 HD
ATOM     56  C   UNL A   1      41.159  33.498  32.345  1.00  0.00     0.074 A 
ATOM     57  C   UNL A   1      40.121  34.468  32.616  1.00  0.00     0.031 C 
ATOM     58  C   UNL A   1      42.413  33.558  32.859  1.00  0.00     0.037 A 
BRANCH  45  59
ATOM     59  C   UNL A   1      45.994  28.790  31.259  1.00  0.00     0.064 A 
ATOM     60  C   UNL A   1      46.240  27.822  32.244  1.00  0.00     0.173 A 
ATOM     61  C   UNL A   1      47.025  29.079  30.352  1.00  0.00     0.173 A 
ATOM     62  F   UNL A   1      45.292  27.516  33.143  1.00  0.00    -0.203 F 
ATOM     63  C   UNL A   1      47.478  27.189  32.332  1.00  0.00     0.198 A 
ATOM     64  C   UNL A   1      48.250  28.421  30.424  1.00  0.00     0.198 A 
ATOM     65  F   UNL A   1      46.841  29.991  29.386  1.00  0.00    -0.203 F 
ATOM     66  F   UNL A   1      47.706  26.302  33.311  1.00  0.00    -0.200 F 
ATOM     67  C   UNL A   1      48.478  27.483  31.418  1.00  0.00     0.200 A 
ATOM     68  F   UNL A   1      49.209  28.694  29.528  1.00  0.00    -0.200 F 
ATOM     69  F   UNL A   1      49.664  26.864  31.498  1.00  0.00    -0.200 F 
ENDBRANCH  45  59
BRANCH  46  70
ATOM     70  C   UNL A   1      36.937  32.859  30.366  1.00  0.00     0.064 A 
ATOM     71  C   UNL A   1      36.560  33.675  29.291  1.00  0.00     0.173 A 
ATOM     72  C   UNL A   1      35.994  32.647  31.384  1.00  0.00     0.173 A 
ATOM     73  F   UNL A   1      37.437  33.936  28.310  1.00  0.00    -0.203 F 
ATOM     74  C   UNL A   1      35.301  34.272  29.245  1.00  0.00     0.198 A 
ATOM     75  C   UNL A   1      34.724  33.218  31.321  1.00  0.00     0.198 A 
ATOM     76  F   UNL A   1      36.306  31.885  32.442  1.00  0.00    -0.203 F 
ATOM     77  F   UNL A   1      34.988  35.093  28.234  1.00  0.00    -0.200 F 
ATOM     78  C   UNL A   1      34.381  34.037  30.255  1.00  0.00     0.200 A 
ATOM     79  F   UNL A   1      33.836  32.982  32.296  1.00  0.00    -0.200 F 
ATOM     80  F   UNL A   1      33.172  34.611  30.211  1.00  0.00    -0.200 F 
ENDBRANCH  46  70
BRANCH  58  81
ATOM     81  C   UNL A   1      42.748  34.726  33.745  1.00  0.00     0.064 A 
ATOM     82  C   UNL A   1      42.680  34.635  35.144  1.00  0.00     0.173 A 
ATOM     83  C   UNL A   1      43.191  35.936  33.189  1.00  0.00     0.173 A 
ATOM     84  F   UNL A   1      42.250  33.507  35.727  1.00  0.00    -0.203 F 
ATOM     85  C   UNL A   1      43.021  35.719  35.950  1.00  0.00     0.198 A 
ATOM     86  C   UNL A   1      43.563  37.007  33.999  1.00  0.00     0.198 A 
ATOM     87  F   UNL A   1      43.283  36.077  31.858  1.00  0.00    -0.203 F 
ATOM     88  F   UNL A   1      42.903  35.624  37.282  1.00  0.00    -0.200 F 
ATOM     89  C   UNL A   1      43.469  36.900  35.378  1.00  0.00     0.200 A 
ATOM     90  F   UNL A   1      44.013  38.141  33.444  1.00  0.00    -0.200 F 
ATOM     91  F   UNL A   1      43.808  37.938  36.156  1.00  0.00    -0.200 F 
ENDBRANCH  58  81
ENDBRANCH  32  33
ENDBRANCH  25  27
ENDBRANCH  24  25
ENDBRANCH  23  24
ENDBRANCH  22  23
ENDBRANCH  21  22
ENDBRANCH  20  21
ENDBRANCH   1  20
TORSDOF 19
ENDMDL
MODEL 2
REMARK VINA RESULT:      -9.2      4.445     11.341
REMARK SMILES CC(C)=CC[C@@]1(C(=O)OCCOCCOCCOC(=O)c2ccc(-c3c4nc(c(-c5c(F)c(F)c(F)c(F)c5F)c5ccc([nH]5)c(-c5c(F)c(F)c(F)c(F)c5F)c5nc(c(-c6c(F)c(F)c(F)c(F)c6F)c6ccc3[nH]6)C=C5)C=C4)cc2)CCC[C@H](C)C1
REMARK SMILES IDX 13 1 12 2 11 3 10 4 9 5 7 6 8 7 6 8 84 9 89 10 85 11 87 12
REMARK SMILES IDX 86 13 88 14 5 15 4 16 1 17 2 18 3 19 14 20 15 21 16 22 17 23
REMARK SMILES IDX 18 24 19 25 20 26 21 27 22 28 83 29 23 30 82 31 24 32 25 33
REMARK SMILES IDX 26 34 76 35 27 36 81 37 75 38 77 39 28 40 80 41 74 42 73 43
REMARK SMILES IDX 29 45 61 46 41 47 60 48 42 49 45 50 59 51 78 52 43 53 44 54
REMARK SMILES IDX 58 56 79 57 46 58 30 59 31 60 39 61 32 62 33 63 37 64 40 65
REMARK SMILES IDX 34 66 35 67 38 68 36 69 62 70 63 71 71 72 64 73 65 74 69 75
REMARK SMILES IDX 72 76 66 77 67 78 70 79 68 80 47 81 48 82 56 83 49 84 50 85
REMARK SMILES IDX 54 86 57 87 51 88 52 89 55 90 53 91
REMARK H PARENT 77 44 45 55
REMARK Flexibility Score: inf
ROOT
ATOM      1  C   UNL A   1      32.537  35.967  30.846  1.00  0.00     0.188 C 
ENDROOT
BRANCH   1   2
ATOM      2  O   UNL A   1      32.738  34.969  31.836  1.00  0.00    -0.376 OA
BRANCH   2   3
ATOM      3  C   UNL A   1      33.826  35.060  32.737  1.00  0.00     0.202 C 
BRANCH   3   4
ATOM      4  C   UNL A   1      34.230  33.836  33.570  1.00  0.00     0.261 C 
BRANCH   4   5
ATOM      5  O   UNL A   1      35.459  33.169  33.226  1.00  0.00    -0.463 OA
BRANCH   5   6
ATOM      6  C   UNL A   1      36.595  33.742  33.719  1.00  0.00     0.312 C 
ATOM      7  O   UNL A   1      36.614  34.893  34.137  1.00  0.00    -0.252 OA
BRANCH   6   8
ATOM      8  C   UNL A   1      37.832  32.796  33.712  1.00  0.00     0.072 C 
ATOM      9  C   UNL A   1      37.397  31.333  33.424  1.00  0.00     0.019 C 
ATOM     10  C   UNL A   1      38.575  32.784  35.081  1.00  0.00     0.022 C 
ATOM     11  C   UNL A   1      38.544  30.322  33.463  1.00  0.00     0.001 C 
ATOM     12  C   UNL A   1      39.801  31.846  35.071  1.00  0.00    -0.013 C 
ATOM     13  C   UNL A   1      39.364  30.410  34.749  1.00  0.00     0.003 C 
ATOM     14  C   UNL A   1      40.554  31.894  36.400  1.00  0.00     0.007 C 
BRANCH   8  15
ATOM     15  C   UNL A   1      38.766  33.328  32.565  1.00  0.00     0.046 C 
BRANCH  15  16
ATOM     16  C   UNL A   1      38.081  33.399  31.212  1.00  0.00    -0.027 C 
ATOM     17  C   UNL A   1      39.891  34.675  30.036  1.00  0.00     0.039 C 
ATOM     18  C   UNL A   1      38.610  33.897  30.077  1.00  0.00    -0.080 C 
ATOM     19  C   UNL A   1      37.972  33.584  28.751  1.00  0.00     0.039 C 
ENDBRANCH  15  16
ENDBRANCH   8  15
ENDBRANCH   6   8
ENDBRANCH   5   6
ENDBRANCH   4   5
ENDBRANCH   3   4
ENDBRANCH   2   3
ENDBRANCH   1   2
BRANCH   1  20
ATOM     20  C   UNL A   1      33.092  35.790  29.417  1.00  0.00     0.188 C 
BRANCH  20  21
ATOM     21  O   UNL A   1      32.581  34.693  28.710  1.00  0.00    -0.376 OA
BRANCH  21  22
ATOM     22  C   UNL A   1      33.444  33.795  28.049  1.00  0.00     0.202 C 
BRANCH  22  23
ATOM     23  C   UNL A   1      34.690  33.148  28.682  1.00  0.00     0.261 C 
BRANCH  23  24
ATOM     24  O   UNL A   1      34.620  31.780  29.098  1.00  0.00    -0.460 OA
BRANCH  24  25
ATOM     25  C   UNL A   1      34.877  30.838  28.155  1.00  0.00     0.338 C 
ATOM     26  O   UNL A   1      34.223  30.593  27.163  1.00  0.00    -0.246 OA
BRANCH  25  27
ATOM     27  C   UNL A   1      36.202  30.241  28.440  1.00  0.00     0.060 A 
ATOM     28  C   UNL A   1      36.454  29.709  29.712  1.00  0.00     0.016 A 
ATOM     29  C   UNL A   1      37.187  30.202  27.452  1.00  0.00     0.016 A 
ATOM     30  C   UNL A   1      37.697  29.138  30.001  1.00  0.00     0.010 A 
ATOM     31  C   UNL A   1      38.439  29.651  27.751  1.00  0.00     0.010 A 
ATOM     32  C   UNL A   1      38.707  29.126  29.029  1.00  0.00    -0.014 A 
BRANCH  32  33
ATOM     33  C   UNL A   1      40.082  28.667  29.360  1.00  0.00     0.031 A 
ATOM     34  C   UNL A   1      40.996  29.586  30.123  1.00  0.00     0.074 A 
ATOM     35  C   UNL A   1      40.528  27.464  28.958  1.00  0.00     0.049 A 
ATOM     36  N   UNL A   1      42.266  29.450  30.410  1.00  0.00    -0.248 NA
ATOM     37  C   UNL A   1      40.394  30.829  30.627  1.00  0.00     0.031 C 
ATOM     38  C   UNL A   1      39.737  26.463  28.248  1.00  0.00     0.029 A 
ATOM     39  N   UNL A   1      41.774  26.892  29.070  1.00  0.00    -0.354 N 
ATOM     40  C   UNL A   1      42.618  30.592  31.114  1.00  0.00     0.074 A 
ATOM     41  C   UNL A   1      41.434  31.422  31.195  1.00  0.00     0.031 C 
ATOM     42  C   UNL A   1      40.521  25.409  27.965  1.00  0.00     0.029 A 
ATOM     43  C   UNL A   1      41.879  25.680  28.434  1.00  0.00     0.049 A 
ATOM     44  H   UNL A   1      42.517  27.311  29.561  1.00  0.00     0.167 HD
ATOM     45  C   UNL A   1      43.820  30.919  31.648  1.00  0.00     0.037 A 
ATOM     46  C   UNL A   1      42.958  24.898  28.220  1.00  0.00     0.037 A 
ATOM     47  C   UNL A   1      45.000  30.096  31.564  1.00  0.00     0.049 A 
ATOM     48  C   UNL A   1      44.307  25.327  28.743  1.00  0.00     0.074 A 
ATOM     49  C   UNL A   1      46.253  30.329  32.103  1.00  0.00     0.029 A 
ATOM     50  N   UNL A   1      45.075  28.890  30.885  1.00  0.00    -0.354 N 
ATOM     51  N   UNL A   1      44.627  26.391  29.440  1.00  0.00    -0.248 NA
ATOM     52  C   UNL A   1      45.447  24.447  28.446  1.00  0.00     0.031 C 
ATOM     53  C   UNL A   1      47.104  29.298  31.693  1.00  0.00     0.029 A 
ATOM     54  C   UNL A   1      46.366  28.387  30.955  1.00  0.00     0.049 A 
ATOM     55  H   UNL A   1      44.325  28.454  30.420  1.00  0.00     0.167 HD
ATOM     56  C   UNL A   1      45.992  26.294  29.684  1.00  0.00     0.074 A 
ATOM     57  C   UNL A   1      46.438  25.059  29.078  1.00  0.00     0.031 C 
ATOM     58  C   UNL A   1      46.803  27.154  30.350  1.00  0.00     0.037 A 
BRANCH  45  59
ATOM     59  C   UNL A   1      43.935  32.245  32.345  1.00  0.00     0.064 A 
ATOM     60  C   UNL A   1      44.362  33.400  31.674  1.00  0.00     0.173 A 
ATOM     61  C   UNL A   1      43.567  32.369  33.694  1.00  0.00     0.173 A 
ATOM     62  F   UNL A   1      44.736  33.334  30.387  1.00  0.00    -0.203 F 
ATOM     63  C   UNL A   1      44.442  34.624  32.334  1.00  0.00     0.198 A 
ATOM     64  C   UNL A   1      43.617  33.601  34.341  1.00  0.00     0.198 A 
ATOM     65  F   UNL A   1      43.144  31.297  34.382  1.00  0.00    -0.203 F 
ATOM     66  F   UNL A   1      44.897  35.705  31.686  1.00  0.00    -0.200 F 
ATOM     67  C   UNL A   1      44.061  34.725  33.664  1.00  0.00     0.200 A 
ATOM     68  F   UNL A   1      43.232  33.699  35.622  1.00  0.00    -0.200 F 
ATOM     69  F   UNL A   1      44.128  35.906  34.294  1.00  0.00    -0.200 F 
ENDBRANCH  45  59
BRANCH  46  70
ATOM     70  C   UNL A   1      42.821  23.638  27.440  1.00  0.00     0.064 A 
ATOM     71  C   UNL A   1      42.341  22.465  28.039  1.00  0.00     0.173 A 
ATOM     72  C   UNL A   1      43.199  23.572  26.090  1.00  0.00     0.173 A 
ATOM     73  F   UNL A   1      42.000  22.467  29.336  1.00  0.00    -0.203 F 
ATOM     74  C   UNL A   1      42.263  21.270  27.323  1.00  0.00     0.198 A 
ATOM     75  C   UNL A   1      43.089  22.385  25.367  1.00  0.00     0.198 A 
ATOM     76  F   UNL A   1      43.676  24.662  25.471  1.00  0.00    -0.203 F 
ATOM     77  F   UNL A   1      41.855  20.151  27.937  1.00  0.00    -0.200 F 
ATOM     78  C   UNL A   1      42.629  21.233  25.987  1.00  0.00     0.200 A 
ATOM     79  F   UNL A   1      43.437  22.356  24.074  1.00  0.00    -0.200 F 
ATOM     80  F   UNL A   1      42.554  20.085  25.300  1.00  0.00    -0.200 F 
ENDBRANCH  46  70
BRANCH  58  81
ATOM     81  C   UNL A   1      48.253  26.781  30.487  1.00  0.00     0.064 A 
ATOM     82  C   UNL A   1      49.225  27.252  29.590  1.00  0.00     0.173 A 
ATOM     83  C   UNL A   1      48.685  25.983  31.557  1.00  0.00     0.173 A 
ATOM     84  F   UNL A   1      48.866  28.008  28.541  1.00  0.00    -0.203 F 
ATOM     85  C   UNL A   1      50.568  26.919  29.748  1.00  0.00     0.198 A 
ATOM     86  C   UNL A   1      50.033  25.679  31.731  1.00  0.00     0.198 A 
ATOM     87  F   UNL A   1      47.801  25.511  32.450  1.00  0.00    -0.203 F 
ATOM     88  F   UNL A   1      51.471  27.342  28.852  1.00  0.00    -0.200 F 
ATOM     89  C   UNL A   1      50.972  26.140  30.822  1.00  0.00     0.200 A 
ATOM     90  F   UNL A   1      50.422  24.941  32.780  1.00  0.00    -0.200 F 
ATOM     91  F   UNL A   1      52.267  25.829  30.979  1.00  0.00    -0.200 F 
ENDBRANCH  58  81
ENDBRANCH  32  33
ENDBRANCH  25  27
ENDBRANCH  24  25
ENDBRANCH  23  24
ENDBRANCH  22  23
ENDBRANCH  21  22
ENDBRANCH  20  21
ENDBRANCH   1  20
TORSDOF 19
ENDMDL
MODEL 3
REMARK VINA RESULT:      -9.0      4.215      8.198
REMARK SMILES CC(C)=CC[C@@]1(C(=O)OCCOCCOCCOC(=O)c2ccc(-c3c4nc(c(-c5c(F)c(F)c(F)c(F)c5F)c5ccc([nH]5)c(-c5c(F)c(F)c(F)c(F)c5F)c5nc(c(-c6c(F)c(F)c(F)c(F)c6F)c6ccc3[nH]6)C=C5)C=C4)cc2)CCC[C@H](C)C1
REMARK SMILES IDX 13 1 12 2 11 3 10 4 9 5 7 6 8 7 6 8 84 9 89 10 85 11 87 12
REMARK SMILES IDX 86 13 88 14 5 15 4 16 1 17 2 18 3 19 14 20 15 21 16 22 17 23
REMARK SMILES IDX 18 24 19 25 20 26 21 27 22 28 83 29 23 30 82 31 24 32 25 33
REMARK SMILES IDX 26 34 76 35 27 36 81 37 75 38 77 39 28 40 80 41 74 42 73 43
REMARK SMILES IDX 29 45 61 46 41 47 60 48 42 49 45 50 59 51 78 52 43 53 44 54
REMARK SMILES IDX 58 56 79 57 46 58 30 59 31 60 39 61 32 62 33 63 37 64 40 65
REMARK SMILES IDX 34 66 35 67 38 68 36 69 62 70 63 71 71 72 64 73 65 74 69 75
REMARK SMILES IDX 72 76 66 77 67 78 70 79 68 80 47 81 48 82 56 83 49 84 50 85
REMARK SMILES IDX 54 86 57 87 51 88 52 89 55 90 53 91
REMARK H PARENT 77 44 45 55
REMARK Flexibility Score: inf
ROOT
ATOM      1  C   UNL A   1      40.037  22.195  26.372  1.00  0.00     0.188 C 
ENDROOT
BRANCH   1   2
ATOM      2  O   UNL A   1      38.885  21.571  25.824  1.00  0.00    -0.376 OA
BRANCH   2   3
ATOM      3  C   UNL A   1      37.740  22.338  25.500  1.00  0.00     0.202 C 
BRANCH   3   4
ATOM      4  C   UNL A   1      36.720  21.795  24.489  1.00  0.00     0.261 C 
BRANCH   4   5
ATOM      5  O   UNL A   1      35.346  22.197  24.645  1.00  0.00    -0.463 OA
BRANCH   5   6
ATOM      6  C   UNL A   1      34.911  23.150  23.771  1.00  0.00     0.312 C 
ATOM      7  O   UNL A   1      35.442  23.323  22.681  1.00  0.00    -0.252 OA
BRANCH   6   8
ATOM      8  C   UNL A   1      33.687  23.965  24.284  1.00  0.00     0.072 C 
ATOM      9  C   UNL A   1      34.146  25.080  25.262  1.00  0.00     0.019 C 
ATOM     10  C   UNL A   1      32.668  23.077  25.059  1.00  0.00     0.022 C 
ATOM     11  C   UNL A   1      32.999  25.891  25.867  1.00  0.00     0.001 C 
ATOM     12  C   UNL A   1      31.456  23.887  25.565  1.00  0.00    -0.013 C 
ATOM     13  C   UNL A   1      31.925  25.010  26.501  1.00  0.00     0.003 C 
ATOM     14  C   UNL A   1      30.437  22.990  26.268  1.00  0.00     0.007 C 
BRANCH   8  15
ATOM     15  C   UNL A   1      33.030  24.593  23.002  1.00  0.00     0.046 C 
BRANCH  15  16
ATOM     16  C   UNL A   1      33.652  25.915  22.590  1.00  0.00    -0.027 C 
ATOM     17  C   UNL A   1      31.510  27.211  22.443  1.00  0.00     0.039 C 
ATOM     18  C   UNL A   1      33.005  27.088  22.442  1.00  0.00    -0.080 C 
ATOM     19  C   UNL A   1      33.784  28.374  22.382  1.00  0.00     0.039 C 
ENDBRANCH  15  16
ENDBRANCH   8  15
ENDBRANCH   6   8
ENDBRANCH   5   6
ENDBRANCH   4   5
ENDBRANCH   3   4
ENDBRANCH   2   3
ENDBRANCH   1   2
BRANCH   1  20
ATOM     20  C   UNL A   1      41.390  21.453  26.425  1.00  0.00     0.188 C 
BRANCH  20  21
ATOM     21  O   UNL A   1      41.363  20.128  25.969  1.00  0.00    -0.376 OA
BRANCH  21  22
ATOM     22  C   UNL A   1      42.221  19.156  26.524  1.00  0.00     0.202 C 
BRANCH  22  23
ATOM     23  C   UNL A   1      43.332  18.423  25.751  1.00  0.00     0.261 C 
BRANCH  23  24
ATOM     24  O   UNL A   1      43.698  18.900  24.451  1.00  0.00    -0.460 OA
BRANCH  24  25
ATOM     25  C   UNL A   1      44.953  19.397  24.310  1.00  0.00     0.338 C 
ATOM     26  O   UNL A   1      45.909  18.849  23.802  1.00  0.00    -0.246 OA
BRANCH  25  27
ATOM     27  C   UNL A   1      44.944  20.815  24.737  1.00  0.00     0.060 A 
ATOM     28  C   UNL A   1      44.542  21.801  23.826  1.00  0.00     0.016 A 
ATOM     29  C   UNL A   1      45.326  21.166  26.033  1.00  0.00     0.016 A 
ATOM     30  C   UNL A   1      44.524  23.146  24.209  1.00  0.00     0.010 A 
ATOM     31  C   UNL A   1      45.329  22.515  26.407  1.00  0.00     0.010 A 
ATOM     32  C   UNL A   1      44.940  23.515  25.496  1.00  0.00    -0.014 A 
BRANCH  32  33
ATOM     33  C   UNL A   1      45.077  24.946  25.874  1.00  0.00     0.031 A 
ATOM     34  C   UNL A   1      46.429  25.599  25.789  1.00  0.00     0.074 A 
ATOM     35  C   UNL A   1      44.022  25.650  26.322  1.00  0.00     0.049 A 
ATOM     36  N   UNL A   1      46.808  26.789  26.184  1.00  0.00    -0.248 NA
ATOM     37  C   UNL A   1      47.500  24.797  25.178  1.00  0.00     0.031 C 
ATOM     38  C   UNL A   1      42.653  25.153  26.416  1.00  0.00     0.029 A 
ATOM     39  N   UNL A   1      43.950  26.934  26.808  1.00  0.00    -0.354 N 
ATOM     40  C   UNL A   1      48.160  26.873  25.883  1.00  0.00     0.074 A 
ATOM     41  C   UNL A   1      48.542  25.609  25.291  1.00  0.00     0.031 C 
ATOM     42  C   UNL A   1      41.878  26.111  26.953  1.00  0.00     0.029 A 
ATOM     43  C   UNL A   1      42.705  27.272  27.280  1.00  0.00     0.049 A 
ATOM     44  H   UNL A   1      44.716  27.552  26.816  1.00  0.00     0.167 HD
ATOM     45  C   UNL A   1      49.006  27.913  26.081  1.00  0.00     0.037 A 
ATOM     46  C   UNL A   1      42.291  28.375  27.937  1.00  0.00     0.037 A 
ATOM     47  C   UNL A   1      48.627  29.170  26.675  1.00  0.00     0.049 A 
ATOM     48  C   UNL A   1      43.273  29.483  28.230  1.00  0.00     0.074 A 
ATOM     49  C   UNL A   1      49.407  30.294  26.885  1.00  0.00     0.029 A 
ATOM     50  N   UNL A   1      47.364  29.463  27.168  1.00  0.00    -0.354 N 
ATOM     51  N   UNL A   1      44.542  29.573  27.911  1.00  0.00    -0.248 NA
ATOM     52  C   UNL A   1      42.765  30.642  28.979  1.00  0.00     0.031 C 
ATOM     53  C   UNL A   1      48.636  31.241  27.566  1.00  0.00     0.029 A 
ATOM     54  C   UNL A   1      47.356  30.735  27.721  1.00  0.00     0.049 A 
ATOM     55  H   UNL A   1      46.588  28.858  27.132  1.00  0.00     0.167 HD
ATOM     56  C   UNL A   1      44.973  30.803  28.395  1.00  0.00     0.074 A 
ATOM     57  C   UNL A   1      43.828  31.434  29.014  1.00  0.00     0.031 C 
ATOM     58  C   UNL A   1      46.210  31.358  28.334  1.00  0.00     0.037 A 
BRANCH  45  59
ATOM     59  C   UNL A   1      50.442  27.728  25.683  1.00  0.00     0.064 A 
ATOM     60  C   UNL A   1      50.876  27.911  24.362  1.00  0.00     0.173 A 
ATOM     61  C   UNL A   1      51.408  27.407  26.651  1.00  0.00     0.173 A 
ATOM     62  F   UNL A   1      49.992  28.208  23.397  1.00  0.00    -0.203 F 
ATOM     63  C   UNL A   1      52.216  27.755  24.019  1.00  0.00     0.198 A 
ATOM     64  C   UNL A   1      52.752  27.284  26.310  1.00  0.00     0.198 A 
ATOM     65  F   UNL A   1      51.050  27.228  27.931  1.00  0.00    -0.203 F 
ATOM     66  F   UNL A   1      52.600  27.889  22.742  1.00  0.00    -0.200 F 
ATOM     67  C   UNL A   1      53.154  27.450  24.995  1.00  0.00     0.200 A 
ATOM     68  F   UNL A   1      53.659  27.005  27.258  1.00  0.00    -0.200 F 
ATOM     69  F   UNL A   1      54.446  27.310  24.664  1.00  0.00    -0.200 F 
ENDBRANCH  45  59
BRANCH  46  70
ATOM     70  C   UNL A   1      40.880  28.480  28.401  1.00  0.00     0.064 A 
ATOM     71  C   UNL A   1      39.873  28.956  27.551  1.00  0.00     0.173 A 
ATOM     72  C   UNL A   1      40.518  28.138  29.713  1.00  0.00     0.173 A 
ATOM     73  F   UNL A   1      40.174  29.329  26.299  1.00  0.00    -0.203 F 
ATOM     74  C   UNL A   1      38.561  29.105  28.001  1.00  0.00     0.198 A 
ATOM     75  C   UNL A   1      39.200  28.256  30.151  1.00  0.00     0.198 A 
ATOM     76  F   UNL A   1      41.445  27.688  30.571  1.00  0.00    -0.203 F 
ATOM     77  F   UNL A   1      37.630  29.617  27.185  1.00  0.00    -0.200 F 
ATOM     78  C   UNL A   1      38.224  28.747  29.297  1.00  0.00     0.200 A 
ATOM     79  F   UNL A   1      38.878  27.902  31.403  1.00  0.00    -0.200 F 
ATOM     80  F   UNL A   1      36.964  28.891  29.729  1.00  0.00    -0.200 F 
ENDBRANCH  46  70
BRANCH  58  81
ATOM     81  C   UNL A   1      46.389  32.728  28.925  1.00  0.00     0.064 A 
ATOM     82  C   UNL A   1      46.151  33.892  28.177  1.00  0.00     0.173 A 
ATOM     83  C   UNL A   1      46.754  32.881  30.272  1.00  0.00     0.173 A 
ATOM     84  F   UNL A   1      45.812  33.805  26.882  1.00  0.00    -0.203 F 
ATOM     85  C   UNL A   1      46.295  35.155  28.749  1.00  0.00     0.198 A 
ATOM     86  C   UNL A   1      46.865  34.144  30.849  1.00  0.00     0.198 A 
ATOM     87  F   UNL A   1      46.986  31.804  31.037  1.00  0.00    -0.203 F 
ATOM     88  F   UNL A   1      46.108  36.251  28.002  1.00  0.00    -0.200 F 
ATOM     89  C   UNL A   1      46.643  35.279  30.085  1.00  0.00     0.200 A 
ATOM     90  F   UNL A   1      47.184  34.261  32.145  1.00  0.00    -0.200 F 
ATOM     91  F   UNL A   1      46.770  36.494  30.637  1.00  0.00    -0.200 F 
ENDBRANCH  58  81
ENDBRANCH  32  33
ENDBRANCH  25  27
ENDBRANCH  24  25
ENDBRANCH  23  24
ENDBRANCH  22  23
ENDBRANCH  21  22
ENDBRANCH  20  21
ENDBRANCH   1  20
TORSDOF 19
ENDMDL
