MODEL 1
REMARK VINA RESULT:     -10.2      0.000      0.000
REMARK SMILES CN(CCOCC1CC1)C(=O)N1[C@@H]2CC[C@H]1[C@H](C(=O)OCCOCCOCCOC(=O)c1ccc(-c3c4nc(c(-c5c(F)c(F)c(F)c(F)c5F)c5ccc([nH]5)c(-c5c(F)c(F)c(F)c(F)c5F)c5nc(c(-c6c(F)c(F)c(F)c(F)c6F)c6ccc3[nH]6)C=C5)C=C4)cc1)C2
REMARK SMILES IDX 22 1 21 2 20 3 18 4 19 5 17 6 12 7 13 8 16 9 14 10 95 11
REMARK SMILES IDX 15 12 10 13 11 14 2 15 1 16 3 17 4 18 5 19 6 20 7 21 8 22
REMARK SMILES IDX 9 23 23 24 24 25 25 26 26 27 27 28 28 29 29 30 30 31 31 32
REMARK SMILES IDX 32 33 33 34 94 35 34 36 93 37 35 38 36 39 37 40 87 41 38 42
REMARK SMILES IDX 92 43 86 44 88 45 39 46 91 47 85 48 84 49 40 51 72 52 52 53
REMARK SMILES IDX 71 54 53 55 56 56 70 57 89 58 54 59 55 60 69 62 90 63 57 64
REMARK SMILES IDX 41 65 42 66 50 67 43 68 44 69 48 70 51 71 45 72 46 73 49 74
REMARK SMILES IDX 47 75 73 76 74 77 82 78 75 79 76 80 80 81 83 82 77 83 78 84
REMARK SMILES IDX 81 85 79 86 58 87 59 88 67 89 60 90 61 91 65 92 68 93 62 94
REMARK SMILES IDX 63 95 66 96 64 97
REMARK H PARENT 88 50 56 61
REMARK Flexibility Score: inf
ROOT
ATOM      1  C   UNL A   1      39.405  22.767  26.494  1.00  0.00     0.202 C 
ENDROOT
BRANCH   1   2
ATOM      2  C   UNL A   1      38.086  22.498  25.759  1.00  0.00     0.261 C 
BRANCH   2   3
ATOM      3  O   UNL A   1      37.211  23.647  25.788  1.00  0.00    -0.463 OA
BRANCH   3   4
ATOM      4  C   UNL A   1      36.010  23.528  25.174  1.00  0.00     0.311 C 
ATOM      5  O   UNL A   1      35.764  22.746  24.262  1.00  0.00    -0.252 OA
BRANCH   4   6
ATOM      6  C   UNL A   1      34.953  24.461  25.726  1.00  0.00     0.124 C 
ATOM      7  N   UNL A   1      32.916  24.301  24.592  1.00  0.00    -0.318 N 
ATOM      8  C   UNL A   1      32.573  24.255  25.998  1.00  0.00     0.088 C 
ATOM      9  C   UNL A   1      34.080  25.179  24.676  1.00  0.00     0.101 C 
ATOM     10  C   UNL A   1      32.400  25.754  26.300  1.00  0.00     0.027 C 
ATOM     11  C   UNL A   1      33.898  23.752  26.601  1.00  0.00     0.042 C 
ATOM     12  C   UNL A   1      33.468  26.403  25.398  1.00  0.00     0.028 C 
BRANCH   7  13
ATOM     13  C   UNL A   1      32.128  23.716  23.650  1.00  0.00     0.320 C 
ATOM     14  O   UNL A   1      30.963  24.114  23.518  1.00  0.00    -0.248 OA
BRANCH  13  15
ATOM     15  N   UNL A   1      32.586  22.702  22.836  1.00  0.00    -0.325 N 
ATOM     16  C   UNL A   1      33.244  23.112  21.600  1.00  0.00     0.148 C 
BRANCH  15  17
ATOM     17  C   UNL A   1      32.528  21.269  23.081  1.00  0.00     0.149 C 
BRANCH  17  18
ATOM     18  C   UNL A   1      32.370  20.850  24.548  1.00  0.00     0.181 C 
BRANCH  18  19
ATOM     19  O   UNL A   1      32.025  19.482  24.752  1.00  0.00    -0.379 OA
BRANCH  19  20
ATOM     20  C   UNL A   1      33.078  18.685  25.287  1.00  0.00     0.163 C 
BRANCH  20  21
ATOM     21  C   UNL A   1      33.888  18.083  24.188  1.00  0.00     0.015 C 
ATOM     22  C   UNL A   1      34.014  16.588  24.030  1.00  0.00     0.006 C 
ATOM     23  C   UNL A   1      33.193  17.379  23.053  1.00  0.00     0.006 C 
ENDBRANCH  20  21
ENDBRANCH  19  20
ENDBRANCH  18  19
ENDBRANCH  17  18
ENDBRANCH  15  17
ENDBRANCH  13  15
ENDBRANCH   7  13
ENDBRANCH   4   6
ENDBRANCH   3   4
ENDBRANCH   2   3
ENDBRANCH   1   2
BRANCH   1  24
ATOM     24  O   UNL A   1      39.938  21.590  27.105  1.00  0.00    -0.376 OA
BRANCH  24  25
ATOM     25  C   UNL A   1      40.138  20.512  26.200  1.00  0.00     0.188 C 
BRANCH  25  26
ATOM     26  C   UNL A   1      41.425  19.751  26.484  1.00  0.00     0.188 C 
BRANCH  26  27
ATOM     27  O   UNL A   1      42.540  20.624  26.687  1.00  0.00    -0.376 OA
BRANCH  27  28
ATOM     28  C   UNL A   1      43.146  21.080  25.474  1.00  0.00     0.202 C 
BRANCH  28  29
ATOM     29  C   UNL A   1      44.592  21.572  25.619  1.00  0.00     0.261 C 
BRANCH  29  30
ATOM     30  O   UNL A   1      44.639  22.811  26.342  1.00  0.00    -0.460 OA
BRANCH  30  31
ATOM     31  C   UNL A   1      44.395  23.928  25.612  1.00  0.00     0.338 C 
ATOM     32  O   UNL A   1      44.583  24.082  24.417  1.00  0.00    -0.246 OA
BRANCH  31  33
ATOM     33  C   UNL A   1      43.647  24.891  26.458  1.00  0.00     0.060 A 
ATOM     34  C   UNL A   1      43.993  26.249  26.381  1.00  0.00     0.016 A 
ATOM     35  C   UNL A   1      42.580  24.481  27.262  1.00  0.00     0.016 A 
ATOM     36  C   UNL A   1      43.308  27.193  27.147  1.00  0.00     0.010 A 
ATOM     37  C   UNL A   1      41.896  25.423  28.030  1.00  0.00     0.010 A 
ATOM     38  C   UNL A   1      42.287  26.773  28.010  1.00  0.00    -0.014 A 
BRANCH  38  39
ATOM     39  C   UNL A   1      41.808  27.666  29.090  1.00  0.00     0.031 A 
ATOM     40  C   UNL A   1      42.546  27.616  30.400  1.00  0.00     0.074 A 
ATOM     41  C   UNL A   1      40.744  28.470  28.934  1.00  0.00     0.049 A 
ATOM     42  N   UNL A   1      42.269  28.192  31.541  1.00  0.00    -0.248 NA
ATOM     43  C   UNL A   1      43.759  26.779  30.428  1.00  0.00     0.031 C 
ATOM     44  C   UNL A   1      39.973  28.628  27.705  1.00  0.00     0.029 A 
ATOM     45  N   UNL A   1      40.118  29.295  29.835  1.00  0.00    -0.354 N 
ATOM     46  C   UNL A   1      43.260  27.775  32.419  1.00  0.00     0.074 A 
ATOM     47  C   UNL A   1      44.123  26.869  31.697  1.00  0.00     0.031 C 
ATOM     48  C   UNL A   1      38.961  29.486  27.933  1.00  0.00     0.029 A 
ATOM     49  C   UNL A   1      38.997  29.909  29.333  1.00  0.00     0.049 A 
ATOM     50  H   UNL A   1      40.443  29.434  30.754  1.00  0.00     0.167 HD
ATOM     51  C   UNL A   1      43.442  28.126  33.713  1.00  0.00     0.037 A 
ATOM     52  C   UNL A   1      38.095  30.697  29.950  1.00  0.00     0.037 A 
ATOM     53  C   UNL A   1      42.578  29.027  34.426  1.00  0.00     0.049 A 
ATOM     54  C   UNL A   1      38.282  31.026  31.412  1.00  0.00     0.074 A 
ATOM     55  C   UNL A   1      42.675  29.461  35.735  1.00  0.00     0.029 A 
ATOM     56  N   UNL A   1      41.450  29.627  33.885  1.00  0.00    -0.354 N 
ATOM     57  N   UNL A   1      39.234  30.650  32.234  1.00  0.00    -0.248 NA
ATOM     58  C   UNL A   1      37.270  31.894  32.031  1.00  0.00     0.031 C 
ATOM     59  C   UNL A   1      41.573  30.279  36.004  1.00  0.00     0.029 A 
ATOM     60  C   UNL A   1      40.829  30.412  34.842  1.00  0.00     0.049 A 
ATOM     61  H   UNL A   1      41.137  29.510  32.959  1.00  0.00     0.167 HD
ATOM     62  C   UNL A   1      38.959  31.266  33.449  1.00  0.00     0.074 A 
ATOM     63  C   UNL A   1      37.755  32.046  33.255  1.00  0.00     0.031 C 
ATOM     64  C   UNL A   1      39.642  31.197  34.620  1.00  0.00     0.037 A 
BRANCH  51  65
ATOM     65  C   UNL A   1      44.600  27.508  34.441  1.00  0.00     0.064 A 
ATOM     66  C   UNL A   1      45.805  28.200  34.638  1.00  0.00     0.173 A 
ATOM     67  C   UNL A   1      44.500  26.207  34.957  1.00  0.00     0.173 A 
ATOM     68  F   UNL A   1      45.961  29.438  34.145  1.00  0.00    -0.203 F 
ATOM     69  C   UNL A   1      46.876  27.601  35.297  1.00  0.00     0.198 A 
ATOM     70  C   UNL A   1      45.560  25.626  35.647  1.00  0.00     0.198 A 
ATOM     71  F   UNL A   1      43.372  25.500  34.796  1.00  0.00    -0.203 F 
ATOM     72  F   UNL A   1      48.037  28.260  35.420  1.00  0.00    -0.200 F 
ATOM     73  C   UNL A   1      46.750  26.319  35.807  1.00  0.00     0.200 A 
ATOM     74  F   UNL A   1      45.432  24.389  36.150  1.00  0.00    -0.200 F 
ATOM     75  F   UNL A   1      47.779  25.747  36.447  1.00  0.00    -0.200 F 
ENDBRANCH  51  65
BRANCH  52  76
ATOM     76  C   UNL A   1      36.928  31.233  29.197  1.00  0.00     0.064 A 
ATOM     77  C   UNL A   1      36.863  32.585  28.829  1.00  0.00     0.173 A 
ATOM     78  C   UNL A   1      35.839  30.415  28.860  1.00  0.00     0.173 A 
ATOM     79  F   UNL A   1      37.866  33.415  29.152  1.00  0.00    -0.203 F 
ATOM     80  C   UNL A   1      35.746  33.103  28.176  1.00  0.00     0.198 A 
ATOM     81  C   UNL A   1      34.736  30.928  28.179  1.00  0.00     0.198 A 
ATOM     82  F   UNL A   1      35.845  29.116  29.192  1.00  0.00    -0.203 F 
ATOM     83  F   UNL A   1      35.687  34.410  27.889  1.00  0.00    -0.200 F 
ATOM     84  C   UNL A   1      34.685  32.273  27.847  1.00  0.00     0.200 A 
ATOM     85  F   UNL A   1      33.718  30.120  27.855  1.00  0.00    -0.200 F 
ATOM     86  F   UNL A   1      33.611  32.772  27.221  1.00  0.00    -0.200 F 
ENDBRANCH  52  76
BRANCH  64  87
ATOM     87  C   UNL A   1      39.145  32.036  35.764  1.00  0.00     0.064 A 
ATOM     88  C   UNL A   1      38.297  31.517  36.755  1.00  0.00     0.173 A 
ATOM     89  C   UNL A   1      39.567  33.368  35.894  1.00  0.00     0.173 A 
ATOM     90  F   UNL A   1      37.857  30.253  36.673  1.00  0.00    -0.203 F 
ATOM     91  C   UNL A   1      37.865  32.311  37.814  1.00  0.00     0.198 A 
ATOM     92  C   UNL A   1      39.162  34.148  36.974  1.00  0.00     0.198 A 
ATOM     93  F   UNL A   1      40.388  33.911  34.982  1.00  0.00    -0.203 F 
ATOM     94  F   UNL A   1      37.012  31.812  38.718  1.00  0.00    -0.200 F 
ATOM     95  C   UNL A   1      38.304  33.623  37.927  1.00  0.00     0.200 A 
ATOM     96  F   UNL A   1      39.604  35.408  37.091  1.00  0.00    -0.200 F 
ATOM     97  F   UNL A   1      37.894  34.382  38.953  1.00  0.00    -0.200 F 
ENDBRANCH  64  87
ENDBRANCH  38  39
ENDBRANCH  31  33
ENDBRANCH  30  31
ENDBRANCH  29  30
ENDBRANCH  28  29
ENDBRANCH  27  28
ENDBRANCH  26  27
ENDBRANCH  25  26
ENDBRANCH  24  25
ENDBRANCH   1  24
TORSDOF 24
ENDMDL
MODEL 2
REMARK VINA RESULT:      -9.8      4.603      9.502
REMARK SMILES CN(CCOCC1CC1)C(=O)N1[C@@H]2CC[C@H]1[C@H](C(=O)OCCOCCOCCOC(=O)c1ccc(-c3c4nc(c(-c5c(F)c(F)c(F)c(F)c5F)c5ccc([nH]5)c(-c5c(F)c(F)c(F)c(F)c5F)c5nc(c(-c6c(F)c(F)c(F)c(F)c6F)c6ccc3[nH]6)C=C5)C=C4)cc1)C2
REMARK SMILES IDX 22 1 21 2 20 3 18 4 19 5 17 6 12 7 13 8 16 9 14 10 95 11
REMARK SMILES IDX 15 12 10 13 11 14 2 15 1 16 3 17 4 18 5 19 6 20 7 21 8 22
REMARK SMILES IDX 9 23 23 24 24 25 25 26 26 27 27 28 28 29 29 30 30 31 31 32
REMARK SMILES IDX 32 33 33 34 94 35 34 36 93 37 35 38 36 39 37 40 87 41 38 42
REMARK SMILES IDX 92 43 86 44 88 45 39 46 91 47 85 48 84 49 40 51 72 52 52 53
REMARK SMILES IDX 71 54 53 55 56 56 70 57 89 58 54 59 55 60 69 62 90 63 57 64
REMARK SMILES IDX 41 65 42 66 50 67 43 68 44 69 48 70 51 71 45 72 46 73 49 74
REMARK SMILES IDX 47 75 73 76 74 77 82 78 75 79 76 80 80 81 83 82 77 83 78 84
REMARK SMILES IDX 81 85 79 86 58 87 59 88 67 89 60 90 61 91 65 92 68 93 62 94
REMARK SMILES IDX 63 95 66 96 64 97
REMARK H PARENT 88 50 56 61
REMARK Flexibility Score: inf
ROOT
ATOM      1  C   UNL A   1      33.902  19.681  24.903  1.00  0.00     0.202 C 
ENDROOT
BRANCH   1   2
ATOM      2  C   UNL A   1      32.397  19.969  24.876  1.00  0.00     0.261 C 
BRANCH   2   3
ATOM      3  O   UNL A   1      32.090  21.144  24.094  1.00  0.00    -0.463 OA
BRANCH   3   4
ATOM      4  C   UNL A   1      31.799  22.281  24.770  1.00  0.00     0.311 C 
ATOM      5  O   UNL A   1      30.866  22.409  25.556  1.00  0.00    -0.252 OA
BRANCH   4   6
ATOM      6  C   UNL A   1      32.753  23.420  24.478  1.00  0.00     0.124 C 
ATOM      7  N   UNL A   1      31.724  25.516  24.573  1.00  0.00    -0.318 N 
ATOM      8  C   UNL A   1      32.942  25.655  25.344  1.00  0.00     0.088 C 
ATOM      9  C   UNL A   1      32.195  24.548  23.585  1.00  0.00     0.101 C 
ATOM     10  C   UNL A   1      33.931  26.080  24.243  1.00  0.00     0.027 C 
ATOM     11  C   UNL A   1      33.201  24.189  25.738  1.00  0.00     0.042 C 
ATOM     12  C   UNL A   1      33.429  25.290  23.019  1.00  0.00     0.028 C 
BRANCH   7  13
ATOM     13  C   UNL A   1      30.634  26.290  24.823  1.00  0.00     0.320 C 
ATOM     14  O   UNL A   1      30.310  26.500  25.999  1.00  0.00    -0.248 OA
BRANCH  13  15
ATOM     15  N   UNL A   1      29.885  26.851  23.811  1.00  0.00    -0.325 N 
ATOM     16  C   UNL A   1      28.442  26.643  23.882  1.00  0.00     0.148 C 
BRANCH  15  17
ATOM     17  C   UNL A   1      30.356  27.662  22.698  1.00  0.00     0.149 C 
BRANCH  17  18
ATOM     18  C   UNL A   1      31.507  28.624  23.016  1.00  0.00     0.181 C 
BRANCH  18  19
ATOM     19  O   UNL A   1      31.428  29.263  24.288  1.00  0.00    -0.379 OA
BRANCH  19  20
ATOM     20  C   UNL A   1      32.689  29.486  24.913  1.00  0.00     0.163 C 
BRANCH  20  21
ATOM     21  C   UNL A   1      32.580  29.313  26.390  1.00  0.00     0.015 C 
ATOM     22  C   UNL A   1      33.714  28.735  27.202  1.00  0.00     0.006 C 
ATOM     23  C   UNL A   1      33.388  30.197  27.304  1.00  0.00     0.006 C 
ENDBRANCH  20  21
ENDBRANCH  19  20
ENDBRANCH  18  19
ENDBRANCH  17  18
ENDBRANCH  15  17
ENDBRANCH  13  15
ENDBRANCH   7  13
ENDBRANCH   4   6
ENDBRANCH   3   4
ENDBRANCH   2   3
ENDBRANCH   1   2
BRANCH   1  24
ATOM     24  O   UNL A   1      34.642  20.706  25.571  1.00  0.00    -0.376 OA
BRANCH  24  25
ATOM     25  C   UNL A   1      35.748  21.195  24.824  1.00  0.00     0.188 C 
BRANCH  25  26
ATOM     26  C   UNL A   1      36.747  21.944  25.696  1.00  0.00     0.188 C 
BRANCH  26  27
ATOM     27  O   UNL A   1      38.097  21.543  25.443  1.00  0.00    -0.376 OA
BRANCH  27  28
ATOM     28  C   UNL A   1      38.214  20.243  24.856  1.00  0.00     0.202 C 
BRANCH  28  29
ATOM     29  C   UNL A   1      39.185  19.296  25.573  1.00  0.00     0.261 C 
BRANCH  29  30
ATOM     30  O   UNL A   1      40.104  20.032  26.393  1.00  0.00    -0.460 OA
BRANCH  30  31
ATOM     31  C   UNL A   1      41.420  19.789  26.168  1.00  0.00     0.338 C 
ATOM     32  O   UNL A   1      41.902  18.834  25.581  1.00  0.00    -0.246 OA
BRANCH  31  33
ATOM     33  C   UNL A   1      42.197  20.990  26.560  1.00  0.00     0.060 A 
ATOM     34  C   UNL A   1      42.227  21.347  27.918  1.00  0.00     0.016 A 
ATOM     35  C   UNL A   1      42.940  21.718  25.625  1.00  0.00     0.016 A 
ATOM     36  C   UNL A   1      42.956  22.460  28.335  1.00  0.00     0.010 A 
ATOM     37  C   UNL A   1      43.667  22.831  26.041  1.00  0.00     0.010 A 
ATOM     38  C   UNL A   1      43.641  23.234  27.388  1.00  0.00    -0.014 A 
BRANCH  38  39
ATOM     39  C   UNL A   1      44.098  24.600  27.729  1.00  0.00     0.031 A 
ATOM     40  C   UNL A   1      43.042  25.607  28.095  1.00  0.00     0.074 A 
ATOM     41  C   UNL A   1      45.394  24.951  27.691  1.00  0.00     0.049 A 
ATOM     42  N   UNL A   1      43.148  26.891  28.315  1.00  0.00    -0.248 NA
ATOM     43  C   UNL A   1      41.666  25.089  28.209  1.00  0.00     0.031 C 
ATOM     44  C   UNL A   1      46.507  24.057  27.384  1.00  0.00     0.029 A 
ATOM     45  N   UNL A   1      45.986  26.172  27.895  1.00  0.00    -0.354 N 
ATOM     46  C   UNL A   1      41.857  27.333  28.575  1.00  0.00     0.074 A 
ATOM     47  C   UNL A   1      40.978  26.193  28.449  1.00  0.00     0.031 C 
ATOM     48  C   UNL A   1      47.651  24.765  27.402  1.00  0.00     0.029 A 
ATOM     49  C   UNL A   1      47.344  26.167  27.688  1.00  0.00     0.049 A 
ATOM     50  H   UNL A   1      45.486  26.976  28.165  1.00  0.00     0.167 HD
ATOM     51  C   UNL A   1      41.443  28.578  28.902  1.00  0.00     0.037 A 
ATOM     52  C   UNL A   1      48.224  27.187  27.703  1.00  0.00     0.037 A 
ATOM     53  C   UNL A   1      42.323  29.707  29.025  1.00  0.00     0.049 A 
ATOM     54  C   UNL A   1      47.730  28.581  28.009  1.00  0.00     0.074 A 
ATOM     55  C   UNL A   1      42.012  31.012  29.362  1.00  0.00     0.029 A 
ATOM     56  N   UNL A   1      43.692  29.664  28.805  1.00  0.00    -0.354 N 
ATOM     57  N   UNL A   1      46.513  28.992  28.278  1.00  0.00    -0.248 NA
ATOM     58  C   UNL A   1      48.734  29.654  28.016  1.00  0.00     0.031 C 
ATOM     59  C   UNL A   1      43.185  31.770  29.291  1.00  0.00     0.029 A 
ATOM     60  C   UNL A   1      44.238  30.925  28.979  1.00  0.00     0.049 A 
ATOM     61  H   UNL A   1      44.200  28.857  28.560  1.00  0.00     0.167 HD
ATOM     62  C   UNL A   1      46.612  30.355  28.527  1.00  0.00     0.074 A 
ATOM     63  C   UNL A   1      48.011  30.701  28.383  1.00  0.00     0.031 C 
ATOM     64  C   UNL A   1      45.637  31.243  28.850  1.00  0.00     0.037 A 
BRANCH  51  65
ATOM     65  C   UNL A   1      39.971  28.782  29.119  1.00  0.00     0.064 A 
ATOM     66  C   UNL A   1      39.371  28.570  30.370  1.00  0.00     0.173 A 
ATOM     67  C   UNL A   1      39.151  29.205  28.062  1.00  0.00     0.173 A 
ATOM     68  F   UNL A   1      40.105  28.144  31.408  1.00  0.00    -0.203 F 
ATOM     69  C   UNL A   1      38.000  28.744  30.545  1.00  0.00     0.198 A 
ATOM     70  C   UNL A   1      37.788  29.412  28.250  1.00  0.00     0.198 A 
ATOM     71  F   UNL A   1      39.673  29.420  26.845  1.00  0.00    -0.203 F 
ATOM     72  F   UNL A   1      37.440  28.477  31.733  1.00  0.00    -0.200 F 
ATOM     73  C   UNL A   1      37.212  29.172  29.488  1.00  0.00     0.200 A 
ATOM     74  F   UNL A   1      37.029  29.837  27.230  1.00  0.00    -0.200 F 
ATOM     75  F   UNL A   1      35.894  29.345  29.661  1.00  0.00    -0.200 F 
ENDBRANCH  51  65
BRANCH  52  76
ATOM     76  C   UNL A   1      49.664  26.940  27.418  1.00  0.00     0.064 A 
ATOM     77  C   UNL A   1      50.156  26.968  26.104  1.00  0.00     0.173 A 
ATOM     78  C   UNL A   1      50.570  26.640  28.445  1.00  0.00     0.173 A 
ATOM     79  F   UNL A   1      49.325  27.223  25.083  1.00  0.00    -0.203 F 
ATOM     80  C   UNL A   1      51.492  26.680  25.828  1.00  0.00     0.198 A 
ATOM     81  C   UNL A   1      51.913  26.383  28.170  1.00  0.00     0.198 A 
ATOM     82  F   UNL A   1      50.153  26.594  29.718  1.00  0.00    -0.203 F 
ATOM     83  F   UNL A   1      51.920  26.657  24.559  1.00  0.00    -0.200 F 
ATOM     84  C   UNL A   1      52.370  26.393  26.861  1.00  0.00     0.200 A 
ATOM     85  F   UNL A   1      52.760  26.115  29.172  1.00  0.00    -0.200 F 
ATOM     86  F   UNL A   1      53.653  26.115  26.594  1.00  0.00    -0.200 F 
ENDBRANCH  52  76
BRANCH  64  87
ATOM     87  C   UNL A   1      46.053  32.659  29.135  1.00  0.00     0.064 A 
ATOM     88  C   UNL A   1      46.443  33.077  30.416  1.00  0.00     0.173 A 
ATOM     89  C   UNL A   1      46.108  33.598  28.094  1.00  0.00     0.173 A 
ATOM     90  F   UNL A   1      46.400  32.221  31.448  1.00  0.00    -0.203 F 
ATOM     91  C   UNL A   1      46.840  34.391  30.649  1.00  0.00     0.198 A 
ATOM     92  C   UNL A   1      46.540  34.901  28.323  1.00  0.00     0.198 A 
ATOM     93  F   UNL A   1      45.759  33.248  26.847  1.00  0.00    -0.203 F 
ATOM     94  F   UNL A   1      47.156  34.783  31.891  1.00  0.00    -0.200 F 
ATOM     95  C   UNL A   1      46.897  35.299  29.602  1.00  0.00     0.200 A 
ATOM     96  F   UNL A   1      46.613  35.770  27.306  1.00  0.00    -0.200 F 
ATOM     97  F   UNL A   1      47.288  36.561  29.828  1.00  0.00    -0.200 F 
ENDBRANCH  64  87
ENDBRANCH  38  39
ENDBRANCH  31  33
ENDBRANCH  30  31
ENDBRANCH  29  30
ENDBRANCH  28  29
ENDBRANCH  27  28
ENDBRANCH  26  27
ENDBRANCH  25  26
ENDBRANCH  24  25
ENDBRANCH   1  24
TORSDOF 24
ENDMDL
MODEL 3
REMARK VINA RESULT:      -9.7      1.113      3.273
REMARK SMILES CN(CCOCC1CC1)C(=O)N1[C@@H]2CC[C@H]1[C@H](C(=O)OCCOCCOCCOC(=O)c1ccc(-c3c4nc(c(-c5c(F)c(F)c(F)c(F)c5F)c5ccc([nH]5)c(-c5c(F)c(F)c(F)c(F)c5F)c5nc(c(-c6c(F)c(F)c(F)c(F)c6F)c6ccc3[nH]6)C=C5)C=C4)cc1)C2
REMARK SMILES IDX 22 1 21 2 20 3 18 4 19 5 17 6 12 7 13 8 16 9 14 10 95 11
REMARK SMILES IDX 15 12 10 13 11 14 2 15 1 16 3 17 4 18 5 19 6 20 7 21 8 22
REMARK SMILES IDX 9 23 23 24 24 25 25 26 26 27 27 28 28 29 29 30 30 31 31 32
REMARK SMILES IDX 32 33 33 34 94 35 34 36 93 37 35 38 36 39 37 40 87 41 38 42
REMARK SMILES IDX 92 43 86 44 88 45 39 46 91 47 85 48 84 49 40 51 72 52 52 53
REMARK SMILES IDX 71 54 53 55 56 56 70 57 89 58 54 59 55 60 69 62 90 63 57 64
REMARK SMILES IDX 41 65 42 66 50 67 43 68 44 69 48 70 51 71 45 72 46 73 49 74
REMARK SMILES IDX 47 75 73 76 74 77 82 78 75 79 76 80 80 81 83 82 77 83 78 84
REMARK SMILES IDX 81 85 79 86 58 87 59 88 67 89 60 90 61 91 65 92 68 93 62 94
REMARK SMILES IDX 63 95 66 96 64 97
REMARK H PARENT 88 50 56 61
REMARK Flexibility Score: inf
ROOT
ATOM      1  C   UNL A   1      38.130  23.003  25.913  1.00  0.00     0.202 C 
ENDROOT
BRANCH   1   2
ATOM      2  C   UNL A   1      37.225  22.323  24.879  1.00  0.00     0.261 C 
BRANCH   2   3
ATOM      3  O   UNL A   1      36.532  23.285  24.056  1.00  0.00    -0.463 OA
BRANCH   3   4
ATOM      4  C   UNL A   1      35.198  23.419  24.246  1.00  0.00     0.311 C 
ATOM      5  O   UNL A   1      34.607  24.491  24.330  1.00  0.00    -0.252 OA
BRANCH   4   6
ATOM      6  C   UNL A   1      34.464  22.098  24.341  1.00  0.00     0.124 C 
ATOM      7  N   UNL A   1      32.293  22.321  25.175  1.00  0.00    -0.318 N 
ATOM      8  C   UNL A   1      32.166  21.479  24.005  1.00  0.00     0.088 C 
ATOM      9  C   UNL A   1      33.618  21.893  25.615  1.00  0.00     0.101 C 
ATOM     10  C   UNL A   1      32.369  20.087  24.630  1.00  0.00     0.027 C 
ATOM     11  C   UNL A   1      33.426  21.886  23.219  1.00  0.00     0.042 C 
ATOM     12  C   UNL A   1      33.402  20.366  25.739  1.00  0.00     0.028 C 
BRANCH   7  13
ATOM     13  C   UNL A   1      31.263  23.100  25.605  1.00  0.00     0.320 C 
ATOM     14  O   UNL A   1      30.287  22.555  26.137  1.00  0.00    -0.248 OA
BRANCH  13  15
ATOM     15  N   UNL A   1      31.275  24.471  25.471  1.00  0.00    -0.325 N 
ATOM     16  C   UNL A   1      30.957  24.995  24.147  1.00  0.00     0.148 C 
BRANCH  15  17
ATOM     17  C   UNL A   1      31.526  25.465  26.504  1.00  0.00     0.149 C 
BRANCH  17  18
ATOM     18  C   UNL A   1      31.895  26.867  26.004  1.00  0.00     0.181 C 
BRANCH  18  19
ATOM     19  O   UNL A   1      33.231  27.277  26.284  1.00  0.00    -0.379 OA
BRANCH  19  20
ATOM     20  C   UNL A   1      33.763  28.220  25.357  1.00  0.00     0.163 C 
BRANCH  20  21
ATOM     21  C   UNL A   1      33.301  27.910  23.972  1.00  0.00     0.015 C 
ATOM     22  C   UNL A   1      32.621  28.952  23.118  1.00  0.00     0.006 C 
ATOM     23  C   UNL A   1      34.021  28.516  22.796  1.00  0.00     0.006 C 
ENDBRANCH  20  21
ENDBRANCH  19  20
ENDBRANCH  18  19
ENDBRANCH  17  18
ENDBRANCH  15  17
ENDBRANCH  13  15
ENDBRANCH   7  13
ENDBRANCH   4   6
ENDBRANCH   3   4
ENDBRANCH   2   3
ENDBRANCH   1   2
BRANCH   1  24
ATOM     24  O   UNL A   1      39.127  22.120  26.431  1.00  0.00    -0.376 OA
BRANCH  24  25
ATOM     25  C   UNL A   1      39.186  20.865  25.764  1.00  0.00     0.188 C 
BRANCH  25  26
ATOM     26  C   UNL A   1      40.438  20.078  26.123  1.00  0.00     0.188 C 
BRANCH  26  27
ATOM     27  O   UNL A   1      41.503  20.924  26.567  1.00  0.00    -0.376 OA
BRANCH  27  28
ATOM     28  C   UNL A   1      42.345  21.397  25.511  1.00  0.00     0.202 C 
BRANCH  28  29
ATOM     29  C   UNL A   1      43.838  21.466  25.858  1.00  0.00     0.261 C 
BRANCH  29  30
ATOM     30  O   UNL A   1      44.186  22.764  26.362  1.00  0.00    -0.460 OA
BRANCH  30  31
ATOM     31  C   UNL A   1      43.819  23.815  25.586  1.00  0.00     0.338 C 
ATOM     32  O   UNL A   1      43.863  23.882  24.368  1.00  0.00    -0.246 OA
BRANCH  31  33
ATOM     33  C   UNL A   1      43.137  24.818  26.440  1.00  0.00     0.060 A 
ATOM     34  C   UNL A   1      43.597  26.144  26.401  1.00  0.00     0.016 A 
ATOM     35  C   UNL A   1      42.024  24.482  27.216  1.00  0.00     0.016 A 
ATOM     36  C   UNL A   1      42.978  27.124  27.178  1.00  0.00     0.010 A 
ATOM     37  C   UNL A   1      41.406  25.460  27.993  1.00  0.00     0.010 A 
ATOM     38  C   UNL A   1      41.909  26.773  28.012  1.00  0.00    -0.014 A 
BRANCH  38  39
ATOM     39  C   UNL A   1      41.485  27.679  29.105  1.00  0.00     0.031 A 
ATOM     40  C   UNL A   1      42.240  27.590  30.403  1.00  0.00     0.074 A 
ATOM     41  C   UNL A   1      40.454  28.529  28.970  1.00  0.00     0.049 A 
ATOM     42  N   UNL A   1      42.005  28.170  31.550  1.00  0.00    -0.248 NA
ATOM     43  C   UNL A   1      43.417  26.703  30.407  1.00  0.00     0.031 C 
ATOM     44  C   UNL A   1      39.671  28.726  27.753  1.00  0.00     0.029 A 
ATOM     45  N   UNL A   1      39.878  29.374  29.885  1.00  0.00    -0.354 N 
ATOM     46  C   UNL A   1      42.992  27.706  32.411  1.00  0.00     0.074 A 
ATOM     47  C   UNL A   1      43.804  26.769  31.670  1.00  0.00     0.031 C 
ATOM     48  C   UNL A   1      38.701  29.625  28.002  1.00  0.00     0.029 A 
ATOM     49  C   UNL A   1      38.776  30.037  29.404  1.00  0.00     0.049 A 
ATOM     50  H   UNL A   1      40.222  29.494  30.799  1.00  0.00     0.167 HD
ATOM     51  C   UNL A   1      43.208  28.042  33.704  1.00  0.00     0.037 A 
ATOM     52  C   UNL A   1      37.918  30.859  30.038  1.00  0.00     0.037 A 
ATOM     53  C   UNL A   1      42.395  28.974  34.435  1.00  0.00     0.049 A 
ATOM     54  C   UNL A   1      38.141  31.171  31.499  1.00  0.00     0.074 A 
ATOM     55  C   UNL A   1      42.530  29.396  35.744  1.00  0.00     0.029 A 
ATOM     56  N   UNL A   1      41.285  29.625  33.915  1.00  0.00    -0.354 N 
ATOM     57  N   UNL A   1      39.089  30.750  32.304  1.00  0.00    -0.248 NA
ATOM     58  C   UNL A   1      37.177  32.077  32.139  1.00  0.00     0.031 C 
ATOM     59  C   UNL A   1      41.468  30.259  36.035  1.00  0.00     0.029 A 
ATOM     60  C   UNL A   1      40.713  30.430  34.885  1.00  0.00     0.049 A 
ATOM     61  H   UNL A   1      40.953  29.527  32.993  1.00  0.00     0.167 HD
ATOM     62  C   UNL A   1      38.859  31.370  33.526  1.00  0.00     0.074 A 
ATOM     63  C   UNL A   1      37.687  32.202  33.355  1.00  0.00     0.031 C 
ATOM     64  C   UNL A   1      39.556  31.266  34.687  1.00  0.00     0.037 A 
BRANCH  51  65
ATOM     65  C   UNL A   1      44.350  27.371  34.410  1.00  0.00     0.064 A 
ATOM     66  C   UNL A   1      44.194  26.141  35.069  1.00  0.00     0.173 A 
ATOM     67  C   UNL A   1      45.622  27.963  34.421  1.00  0.00     0.173 A 
ATOM     68  F   UNL A   1      42.994  25.544  35.108  1.00  0.00    -0.203 F 
ATOM     69  C   UNL A   1      45.261  25.546  35.737  1.00  0.00     0.198 A 
ATOM     70  C   UNL A   1      46.695  27.347  35.059  1.00  0.00     0.198 A 
ATOM     71  F   UNL A   1      45.827  29.139  33.808  1.00  0.00    -0.203 F 
ATOM     72  F   UNL A   1      45.073  24.402  36.409  1.00  0.00    -0.200 F 
ATOM     73  C   UNL A   1      46.511  26.145  35.725  1.00  0.00     0.200 A 
ATOM     74  F   UNL A   1      47.906  27.922  35.037  1.00  0.00    -0.200 F 
ATOM     75  F   UNL A   1      47.539  25.567  36.363  1.00  0.00    -0.200 F 
ENDBRANCH  51  65
BRANCH  52  76
ATOM     76  C   UNL A   1      36.763  31.448  29.307  1.00  0.00     0.064 A 
ATOM     77  C   UNL A   1      36.731  32.813  28.984  1.00  0.00     0.173 A 
ATOM     78  C   UNL A   1      35.653  30.670  28.946  1.00  0.00     0.173 A 
ATOM     79  F   UNL A   1      37.755  33.607  29.332  1.00  0.00    -0.203 F 
ATOM     80  C   UNL A   1      35.626  33.380  28.352  1.00  0.00     0.198 A 
ATOM     81  C   UNL A   1      34.562  31.232  28.285  1.00  0.00     0.198 A 
ATOM     82  F   UNL A   1      35.628  29.361  29.235  1.00  0.00    -0.203 F 
ATOM     83  F   UNL A   1      35.599  34.697  28.108  1.00  0.00    -0.200 F 
ATOM     84  C   UNL A   1      34.544  32.588  27.998  1.00  0.00     0.200 A 
ATOM     85  F   UNL A   1      33.523  30.461  27.937  1.00  0.00    -0.200 F 
ATOM     86  F   UNL A   1      33.482  33.134  27.392  1.00  0.00    -0.200 F 
ENDBRANCH  52  76
BRANCH  64  87
ATOM     87  C   UNL A   1      39.113  32.118  35.843  1.00  0.00     0.064 A 
ATOM     88  C   UNL A   1      39.519  33.453  35.982  1.00  0.00     0.173 A 
ATOM     89  C   UNL A   1      38.227  31.599  36.799  1.00  0.00     0.173 A 
ATOM     90  F   UNL A   1      40.373  33.996  35.100  1.00  0.00    -0.203 F 
ATOM     91  C   UNL A   1      39.080  34.226  37.054  1.00  0.00     0.198 A 
ATOM     92  C   UNL A   1      37.761  32.385  37.849  1.00  0.00     0.198 A 
ATOM     93  F   UNL A   1      37.796  30.332  36.707  1.00  0.00    -0.203 F 
ATOM     94  F   UNL A   1      39.524  35.482  37.197  1.00  0.00    -0.200 F 
ATOM     95  C   UNL A   1      38.195  33.695  37.981  1.00  0.00     0.200 A 
ATOM     96  F   UNL A   1      36.891  31.875  38.732  1.00  0.00    -0.200 F 
ATOM     97  F   UNL A   1      37.767  34.444  39.007  1.00  0.00    -0.200 F 
ENDBRANCH  64  87
ENDBRANCH  38  39
ENDBRANCH  31  33
ENDBRANCH  30  31
ENDBRANCH  29  30
ENDBRANCH  28  29
ENDBRANCH  27  28
ENDBRANCH  26  27
ENDBRANCH  25  26
ENDBRANCH  24  25
ENDBRANCH   1  24
TORSDOF 24
ENDMDL
