MODEL 1
REMARK VINA RESULT:     -10.1      0.000      0.000
REMARK SMILES CC[C@@H](C(=O)OCCOCCOCCOC(=O)c1ccc(-c2c3nc(c(-c4c(F)c(F)c(F)c(F)c4F)c4ccc([nH]4)c(-c4c(F)c(F)c(F)c(F)c4F)c4nc(c(-c5c(F)c(F)c(F)c(F)c5F)c5ccc2[nH]5)C=C4)C=C3)cc1)N1C(=O)/C(=C\c2ccc(C(=O)OC)cc2)SC1=S
REMARK SMILES IDX 10 1 9 2 8 3 7 4 6 5 4 6 5 7 3 8 2 9 1 10 81 11 82 12 97 13
REMARK SMILES IDX 83 14 84 15 96 16 98 17 85 18 86 19 87 20 95 21 88 22 94 23
REMARK SMILES IDX 89 24 90 25 91 26 92 27 93 28 11 29 12 30 13 31 14 32 15 33
REMARK SMILES IDX 16 34 17 35 18 36 19 37 80 38 20 39 79 40 21 41 22 42 23 43
REMARK SMILES IDX 73 44 24 45 78 46 72 47 74 48 25 49 77 50 71 51 70 52 26 54
REMARK SMILES IDX 58 55 38 56 57 57 39 58 42 59 56 60 75 61 40 62 41 63 55 65
REMARK SMILES IDX 76 66 43 67 27 68 28 69 36 70 29 71 30 72 34 73 37 74 31 75
REMARK SMILES IDX 32 76 35 77 33 78 59 79 60 80 68 81 61 82 62 83 66 84 69 85
REMARK SMILES IDX 63 86 64 87 67 88 65 89 44 90 45 91 53 92 46 93 47 94 51 95
REMARK SMILES IDX 54 96 48 97 49 98 52 99 50 100
REMARK H PARENT 74 53 42 64
REMARK Flexibility Score: inf
ROOT
ATOM      1  C   UNL A   1      41.521  20.126  26.154  1.00  0.00     0.188 C 
ENDROOT
BRANCH   1   2
ATOM      2  O   UNL A   1      40.100  20.078  26.172  1.00  0.00    -0.376 OA
BRANCH   2   3
ATOM      3  C   UNL A   1      39.366  21.295  26.290  1.00  0.00     0.202 C 
BRANCH   3   4
ATOM      4  C   UNL A   1      38.149  21.501  25.377  1.00  0.00     0.261 C 
BRANCH   4   5
ATOM      5  O   UNL A   1      37.553  22.798  25.551  1.00  0.00    -0.462 OA
BRANCH   5   6
ATOM      6  C   UNL A   1      36.740  23.234  24.558  1.00  0.00     0.329 C 
ATOM      7  O   UNL A   1      37.019  23.184  23.365  1.00  0.00    -0.250 OA
BRANCH   6   8
ATOM      8  C   UNL A   1      35.366  23.696  25.083  1.00  0.00     0.201 C 
BRANCH   8   9
ATOM      9  C   UNL A   1      35.106  23.346  26.587  1.00  0.00     0.034 C 
ATOM     10  C   UNL A   1      33.684  23.062  27.046  1.00  0.00     0.007 C 
ENDBRANCH   8   9
BRANCH   8  11
ATOM     11  N   UNL A   1      34.141  23.468  24.218  1.00  0.00    -0.278 N 
ATOM     12  C   UNL A   1      33.846  22.146  23.896  1.00  0.00     0.266 C 
ATOM     13  C   UNL A   1      33.160  24.367  23.835  1.00  0.00     0.149 C 
ATOM     14  O   UNL A   1      34.549  21.179  24.150  1.00  0.00    -0.268 OA
ATOM     15  C   UNL A   1      32.534  22.016  23.205  1.00  0.00     0.081 C 
ATOM     16  S   UNL A   1      31.984  23.576  22.769  1.00  0.00    -0.054 SA
ATOM     17  S   UNL A   1      32.914  25.967  24.220  1.00  0.00    -0.052 S 
ATOM     18  C   UNL A   1      31.825  20.893  23.008  1.00  0.00     0.029 C 
BRANCH  18  19
ATOM     19  C   UNL A   1      32.198  19.569  23.526  1.00  0.00    -0.024 A 
ATOM     20  C   UNL A   1      32.638  18.565  22.660  1.00  0.00     0.009 A 
ATOM     21  C   UNL A   1      32.123  19.301  24.901  1.00  0.00     0.009 A 
ATOM     22  C   UNL A   1      33.073  17.336  23.173  1.00  0.00     0.016 A 
ATOM     23  C   UNL A   1      32.578  18.087  25.416  1.00  0.00     0.016 A 
ATOM     24  C   UNL A   1      33.071  17.101  24.555  1.00  0.00     0.060 A 
BRANCH  24  25
ATOM     25  C   UNL A   1      33.607  15.810  25.065  1.00  0.00     0.337 C 
ATOM     26  O   UNL A   1      32.973  15.048  25.779  1.00  0.00    -0.246 OA
BRANCH  25  27
ATOM     27  O   UNL A   1      34.867  15.607  24.603  1.00  0.00    -0.465 OA
ATOM     28  C   UNL A   1      35.896  15.950  25.530  1.00  0.00     0.282 C 
ENDBRANCH  25  27
ENDBRANCH  24  25
ENDBRANCH  18  19
ENDBRANCH   8  11
ENDBRANCH   6   8
ENDBRANCH   5   6
ENDBRANCH   4   5
ENDBRANCH   3   4
ENDBRANCH   2   3
ENDBRANCH   1   2
BRANCH   1  29
ATOM     29  C   UNL A   1      42.258  21.107  27.081  1.00  0.00     0.188 C 
BRANCH  29  30
ATOM     30  O   UNL A   1      43.514  21.549  26.642  1.00  0.00    -0.376 OA
BRANCH  30  31
ATOM     31  C   UNL A   1      43.858  21.519  25.272  1.00  0.00     0.202 C 
BRANCH  31  32
ATOM     32  C   UNL A   1      44.449  22.696  24.470  1.00  0.00     0.261 C 
BRANCH  32  33
ATOM     33  O   UNL A   1      44.600  23.958  25.124  1.00  0.00    -0.460 OA
BRANCH  33  34
ATOM     34  C   UNL A   1      43.518  24.770  25.113  1.00  0.00     0.338 C 
ATOM     35  O   UNL A   1      42.668  24.854  24.245  1.00  0.00    -0.246 OA
BRANCH  34  36
ATOM     36  C   UNL A   1      43.401  25.410  26.442  1.00  0.00     0.060 A 
ATOM     37  C   UNL A   1      42.573  24.809  27.400  1.00  0.00     0.016 A 
ATOM     38  C   UNL A   1      44.059  26.610  26.724  1.00  0.00     0.016 A 
ATOM     39  C   UNL A   1      42.341  25.445  28.618  1.00  0.00     0.010 A 
ATOM     40  C   UNL A   1      43.810  27.257  27.938  1.00  0.00     0.010 A 
ATOM     41  C   UNL A   1      42.905  26.704  28.863  1.00  0.00    -0.014 A 
BRANCH  41  42
ATOM     42  C   UNL A   1      42.328  27.550  29.939  1.00  0.00     0.031 A 
ATOM     43  C   UNL A   1      43.006  27.534  31.284  1.00  0.00     0.074 A 
ATOM     44  C   UNL A   1      41.270  28.351  29.727  1.00  0.00     0.049 A 
ATOM     45  N   UNL A   1      42.699  28.175  32.383  1.00  0.00    -0.248 NA
ATOM     46  C   UNL A   1      44.192  26.669  31.405  1.00  0.00     0.031 C 
ATOM     47  C   UNL A   1      40.548  28.485  28.466  1.00  0.00     0.029 A 
ATOM     48  N   UNL A   1      40.621  29.205  30.583  1.00  0.00    -0.354 N 
ATOM     49  C   UNL A   1      43.647  27.787  33.321  1.00  0.00     0.074 A 
ATOM     50  C   UNL A   1      44.518  26.830  32.678  1.00  0.00     0.031 C 
ATOM     51  C   UNL A   1      39.549  29.372  28.630  1.00  0.00     0.029 A 
ATOM     52  C   UNL A   1      39.546  29.844  30.014  1.00  0.00     0.049 A 
ATOM     53  H   UNL A   1      40.900  29.349  31.517  1.00  0.00     0.167 HD
ATOM     54  C   UNL A   1      43.790  28.200  34.603  1.00  0.00     0.037 A 
ATOM     55  C   UNL A   1      38.657  30.696  30.560  1.00  0.00     0.037 A 
ATOM     56  C   UNL A   1      42.926  29.150  35.248  1.00  0.00     0.049 A 
ATOM     57  C   UNL A   1      38.803  31.098  32.008  1.00  0.00     0.074 A 
ATOM     58  C   UNL A   1      42.986  29.632  36.544  1.00  0.00     0.029 A 
ATOM     59  N   UNL A   1      41.837  29.761  34.644  1.00  0.00    -0.354 N 
ATOM     60  N   UNL A   1      39.714  30.744  32.882  1.00  0.00    -0.248 NA
ATOM     61  C   UNL A   1      37.797  32.029  32.540  1.00  0.00     0.031 C 
ATOM     62  C   UNL A   1      41.904  30.498  36.738  1.00  0.00     0.029 A 
ATOM     63  C   UNL A   1      41.209  30.605  35.545  1.00  0.00     0.049 A 
ATOM     64  H   UNL A   1      41.552  29.615  33.713  1.00  0.00     0.167 HD
ATOM     65  C   UNL A   1      39.418  31.439  34.050  1.00  0.00     0.074 A 
ATOM     66  C   UNL A   1      38.247  32.243  33.769  1.00  0.00     0.031 C 
ATOM     67  C   UNL A   1      40.058  31.417  35.245  1.00  0.00     0.037 A 
BRANCH  54  68
ATOM     68  C   UNL A   1      44.910  27.597  35.400  1.00  0.00     0.064 A 
ATOM     69  C   UNL A   1      44.717  26.471  36.212  1.00  0.00     0.173 A 
ATOM     70  C   UNL A   1      46.200  28.147  35.336  1.00  0.00     0.173 A 
ATOM     71  F   UNL A   1      43.498  25.920  36.324  1.00  0.00    -0.203 F 
ATOM     72  C   UNL A   1      45.766  25.932  36.953  1.00  0.00     0.198 A 
ATOM     73  C   UNL A   1      47.255  27.586  36.052  1.00  0.00     0.198 A 
ATOM     74  F   UNL A   1      46.440  29.225  34.575  1.00  0.00    -0.203 F 
ATOM     75  F   UNL A   1      45.545  24.888  37.764  1.00  0.00    -0.200 F 
ATOM     76  C   UNL A   1      47.035  26.485  36.865  1.00  0.00     0.200 A 
ATOM     77  F   UNL A   1      48.482  28.115  35.958  1.00  0.00    -0.200 F 
ATOM     78  F   UNL A   1      48.046  25.962  37.574  1.00  0.00    -0.200 F 
ENDBRANCH  54  68
BRANCH  55  79
ATOM     79  C   UNL A   1      37.540  31.238  29.740  1.00  0.00     0.064 A 
ATOM     80  C   UNL A   1      37.512  32.585  29.355  1.00  0.00     0.173 A 
ATOM     81  C   UNL A   1      36.456  30.431  29.365  1.00  0.00     0.173 A 
ATOM     82  F   UNL A   1      38.512  33.405  29.713  1.00  0.00    -0.203 F 
ATOM     83  C   UNL A   1      36.430  33.111  28.650  1.00  0.00     0.198 A 
ATOM     84  C   UNL A   1      35.390  30.950  28.633  1.00  0.00     0.198 A 
ATOM     85  F   UNL A   1      36.431  29.136  29.712  1.00  0.00    -0.203 F 
ATOM     86  F   UNL A   1      36.402  34.416  28.348  1.00  0.00    -0.200 F 
ATOM     87  C   UNL A   1      35.373  32.293  28.286  1.00  0.00     0.200 A 
ATOM     88  F   UNL A   1      34.374  30.152  28.275  1.00  0.00    -0.200 F 
ATOM     89  F   UNL A   1      34.331  32.799  27.612  1.00  0.00    -0.200 F 
ENDBRANCH  55  79
BRANCH  67  90
ATOM     90  C   UNL A   1      39.554  32.340  36.321  1.00  0.00     0.064 A 
ATOM     91  C   UNL A   1      40.108  33.611  36.534  1.00  0.00     0.173 A 
ATOM     92  C   UNL A   1      38.475  31.952  37.131  1.00  0.00     0.173 A 
ATOM     93  F   UNL A   1      41.147  34.027  35.795  1.00  0.00    -0.203 F 
ATOM     94  C   UNL A   1      39.628  34.441  37.543  1.00  0.00     0.198 A 
ATOM     95  C   UNL A   1      37.974  32.800  38.115  1.00  0.00     0.198 A 
ATOM     96  F   UNL A   1      37.898  30.752  36.963  1.00  0.00    -0.203 F 
ATOM     97  F   UNL A   1      40.212  35.626  37.768  1.00  0.00    -0.200 F 
ATOM     98  C   UNL A   1      38.558  34.038  38.329  1.00  0.00     0.200 A 
ATOM     99  F   UNL A   1      36.928  32.414  38.861  1.00  0.00    -0.200 F 
ATOM    100  F   UNL A   1      38.095  34.841  39.298  1.00  0.00    -0.200 F 
ENDBRANCH  67  90
ENDBRANCH  41  42
ENDBRANCH  34  36
ENDBRANCH  33  34
ENDBRANCH  32  33
ENDBRANCH  31  32
ENDBRANCH  30  31
ENDBRANCH  29  30
ENDBRANCH   1  29
TORSDOF 22
ENDMDL
MODEL 2
REMARK VINA RESULT:      -9.9      7.512     10.029
REMARK SMILES CC[C@@H](C(=O)OCCOCCOCCOC(=O)c1ccc(-c2c3nc(c(-c4c(F)c(F)c(F)c(F)c4F)c4ccc([nH]4)c(-c4c(F)c(F)c(F)c(F)c4F)c4nc(c(-c5c(F)c(F)c(F)c(F)c5F)c5ccc2[nH]5)C=C4)C=C3)cc1)N1C(=O)/C(=C\c2ccc(C(=O)OC)cc2)SC1=S
REMARK SMILES IDX 10 1 9 2 8 3 7 4 6 5 4 6 5 7 3 8 2 9 1 10 81 11 82 12 97 13
REMARK SMILES IDX 83 14 84 15 96 16 98 17 85 18 86 19 87 20 95 21 88 22 94 23
REMARK SMILES IDX 89 24 90 25 91 26 92 27 93 28 11 29 12 30 13 31 14 32 15 33
REMARK SMILES IDX 16 34 17 35 18 36 19 37 80 38 20 39 79 40 21 41 22 42 23 43
REMARK SMILES IDX 73 44 24 45 78 46 72 47 74 48 25 49 77 50 71 51 70 52 26 54
REMARK SMILES IDX 58 55 38 56 57 57 39 58 42 59 56 60 75 61 40 62 41 63 55 65
REMARK SMILES IDX 76 66 43 67 27 68 28 69 36 70 29 71 30 72 34 73 37 74 31 75
REMARK SMILES IDX 32 76 35 77 33 78 59 79 60 80 68 81 61 82 62 83 66 84 69 85
REMARK SMILES IDX 63 86 64 87 67 88 65 89 44 90 45 91 53 92 46 93 47 94 51 95
REMARK SMILES IDX 54 96 48 97 49 98 52 99 50 100
REMARK H PARENT 74 53 42 64
REMARK Flexibility Score: inf
ROOT
ATOM      1  C   UNL A   1      40.463  19.584  26.079  1.00  0.00     0.188 C 
ENDROOT
BRANCH   1   2
ATOM      2  O   UNL A   1      39.221  20.278  26.095  1.00  0.00    -0.376 OA
BRANCH   2   3
ATOM      3  C   UNL A   1      39.222  21.703  26.073  1.00  0.00     0.202 C 
BRANCH   3   4
ATOM      4  C   UNL A   1      38.146  22.417  25.242  1.00  0.00     0.261 C 
BRANCH   4   5
ATOM      5  O   UNL A   1      36.835  22.279  25.818  1.00  0.00    -0.462 OA
BRANCH   5   6
ATOM      6  C   UNL A   1      36.068  23.396  25.864  1.00  0.00     0.329 C 
ATOM      7  O   UNL A   1      36.478  24.525  25.618  1.00  0.00    -0.250 OA
BRANCH   6   8
ATOM      8  C   UNL A   1      34.585  23.080  26.144  1.00  0.00     0.201 C 
BRANCH   8   9
ATOM      9  C   UNL A   1      34.357  22.089  27.336  1.00  0.00     0.034 C 
ATOM     10  C   UNL A   1      33.069  22.182  28.139  1.00  0.00     0.007 C 
ENDBRANCH   8   9
BRANCH   8  11
ATOM     11  N   UNL A   1      33.668  22.792  24.971  1.00  0.00    -0.278 N 
ATOM     12  C   UNL A   1      33.659  21.482  24.497  1.00  0.00     0.266 C 
ATOM     13  C   UNL A   1      32.697  23.597  24.400  1.00  0.00     0.149 C 
ATOM     14  O   UNL A   1      34.405  20.588  24.865  1.00  0.00    -0.268 OA
ATOM     15  C   UNL A   1      32.599  21.264  23.475  1.00  0.00     0.081 C 
ATOM     16  S   UNL A   1      31.960  22.780  23.010  1.00  0.00    -0.054 SA
ATOM     17  S   UNL A   1      32.133  25.109  24.809  1.00  0.00    -0.052 S 
ATOM     18  C   UNL A   1      32.134  20.087  23.023  1.00  0.00     0.029 C 
BRANCH  18  19
ATOM     19  C   UNL A   1      32.549  18.774  23.534  1.00  0.00    -0.024 A 
ATOM     20  C   UNL A   1      33.327  17.919  22.750  1.00  0.00     0.009 A 
ATOM     21  C   UNL A   1      32.175  18.366  24.824  1.00  0.00     0.009 A 
ATOM     22  C   UNL A   1      33.789  16.706  23.278  1.00  0.00     0.016 A 
ATOM     23  C   UNL A   1      32.654  17.171  25.361  1.00  0.00     0.016 A 
ATOM     24  C   UNL A   1      33.478  16.340  24.595  1.00  0.00     0.060 A 
BRANCH  24  25
ATOM     25  C   UNL A   1      34.048  15.079  25.143  1.00  0.00     0.337 C 
ATOM     26  O   UNL A   1      33.370  14.180  25.619  1.00  0.00    -0.246 OA
BRANCH  25  27
ATOM     27  O   UNL A   1      35.398  15.075  25.011  1.00  0.00    -0.465 OA
ATOM     28  C   UNL A   1      36.074  16.014  25.845  1.00  0.00     0.282 C 
ENDBRANCH  25  27
ENDBRANCH  24  25
ENDBRANCH  18  19
ENDBRANCH   8  11
ENDBRANCH   6   8
ENDBRANCH   5   6
ENDBRANCH   4   5
ENDBRANCH   3   4
ENDBRANCH   2   3
ENDBRANCH   1   2
BRANCH   1  29
ATOM     29  C   UNL A   1      41.735  20.297  26.566  1.00  0.00     0.188 C 
BRANCH  29  30
ATOM     30  O   UNL A   1      42.953  19.693  26.224  1.00  0.00    -0.376 OA
BRANCH  30  31
ATOM     31  C   UNL A   1      43.857  20.326  25.341  1.00  0.00     0.202 C 
BRANCH  31  32
ATOM     32  C   UNL A   1      44.542  21.686  25.582  1.00  0.00     0.261 C 
BRANCH  32  33
ATOM     33  O   UNL A   1      43.752  22.873  25.486  1.00  0.00    -0.460 OA
BRANCH  33  34
ATOM     34  C   UNL A   1      43.761  23.686  26.567  1.00  0.00     0.338 C 
ATOM     35  O   UNL A   1      43.107  23.563  27.587  1.00  0.00    -0.246 OA
BRANCH  34  36
ATOM     36  C   UNL A   1      44.866  24.657  26.412  1.00  0.00     0.060 A 
ATOM     37  C   UNL A   1      45.599  25.018  27.551  1.00  0.00     0.016 A 
ATOM     38  C   UNL A   1      45.144  25.240  25.174  1.00  0.00     0.016 A 
ATOM     39  C   UNL A   1      46.565  26.019  27.469  1.00  0.00     0.010 A 
ATOM     40  C   UNL A   1      46.100  26.259  25.097  1.00  0.00     0.010 A 
ATOM     41  C   UNL A   1      46.770  26.690  26.255  1.00  0.00    -0.014 A 
BRANCH  41  42
ATOM     42  C   UNL A   1      47.461  28.004  26.272  1.00  0.00     0.031 A 
ATOM     43  C   UNL A   1      48.944  28.021  26.007  1.00  0.00     0.074 A 
ATOM     44  C   UNL A   1      46.798  29.157  26.461  1.00  0.00     0.049 A 
ATOM     45  N   UNL A   1      49.776  29.030  25.969  1.00  0.00    -0.248 NA
ATOM     46  C   UNL A   1      49.575  26.714  25.753  1.00  0.00     0.031 C 
ATOM     47  C   UNL A   1      45.362  29.281  26.692  1.00  0.00     0.029 A 
ATOM     48  N   UNL A   1      47.259  30.450  26.489  1.00  0.00    -0.354 N 
ATOM     49  C   UNL A   1      51.022  28.480  25.695  1.00  0.00     0.074 A 
ATOM     50  C   UNL A   1      50.848  27.048  25.611  1.00  0.00     0.031 C 
ATOM     51  C   UNL A   1      45.057  30.583  26.841  1.00  0.00     0.029 A 
ATOM     52  C   UNL A   1      46.280  31.379  26.744  1.00  0.00     0.049 A 
ATOM     53  H   UNL A   1      48.203  30.689  26.339  1.00  0.00     0.167 HD
ATOM     54  C   UNL A   1      52.208  29.111  25.517  1.00  0.00     0.037 A 
ATOM     55  C   UNL A   1      46.372  32.714  26.897  1.00  0.00     0.037 A 
ATOM     56  C   UNL A   1      52.386  30.535  25.602  1.00  0.00     0.049 A 
ATOM     57  C   UNL A   1      47.714  33.389  26.750  1.00  0.00     0.074 A 
ATOM     58  C   UNL A   1      53.546  31.271  25.439  1.00  0.00     0.029 A 
ATOM     59  N   UNL A   1      51.373  31.441  25.880  1.00  0.00    -0.354 N 
ATOM     60  N   UNL A   1      48.883  32.866  26.469  1.00  0.00    -0.248 NA
ATOM     61  C   UNL A   1      47.744  34.848  26.932  1.00  0.00     0.031 C 
ATOM     62  C   UNL A   1      53.245  32.619  25.666  1.00  0.00     0.029 A 
ATOM     63  C   UNL A   1      51.885  32.728  25.907  1.00  0.00     0.049 A 
ATOM     64  H   UNL A   1      50.430  31.204  26.036  1.00  0.00     0.167 HD
ATOM     65  C   UNL A   1      49.775  33.931  26.400  1.00  0.00     0.074 A 
ATOM     66  C   UNL A   1      49.009  35.132  26.658  1.00  0.00     0.031 C 
ATOM     67  C   UNL A   1      51.107  33.917  26.142  1.00  0.00     0.037 A 
BRANCH  54  68
ATOM     68  C   UNL A   1      53.409  28.256  25.241  1.00  0.00     0.064 A 
ATOM     69  C   UNL A   1      54.133  27.643  26.275  1.00  0.00     0.173 A 
ATOM     70  C   UNL A   1      53.832  28.033  23.922  1.00  0.00     0.173 A 
ATOM     71  F   UNL A   1      53.782  27.842  27.555  1.00  0.00    -0.203 F 
ATOM     72  C   UNL A   1      55.252  26.861  26.000  1.00  0.00     0.198 A 
ATOM     73  C   UNL A   1      54.931  27.223  23.649  1.00  0.00     0.198 A 
ATOM     74  F   UNL A   1      53.175  28.595  22.896  1.00  0.00    -0.203 F 
ATOM     75  F   UNL A   1      55.959  26.330  27.007  1.00  0.00    -0.200 F 
ATOM     76  C   UNL A   1      55.645  26.645  24.687  1.00  0.00     0.200 A 
ATOM     77  F   UNL A   1      55.303  27.008  22.379  1.00  0.00    -0.200 F 
ATOM     78  F   UNL A   1      56.718  25.887  24.424  1.00  0.00    -0.200 F 
ENDBRANCH  54  68
BRANCH  55  79
ATOM     79  C   UNL A   1      45.159  33.516  27.208  1.00  0.00     0.064 A 
ATOM     80  C   UNL A   1      44.393  34.096  26.186  1.00  0.00     0.173 A 
ATOM     81  C   UNL A   1      44.767  33.758  28.532  1.00  0.00     0.173 A 
ATOM     82  F   UNL A   1      44.742  33.918  24.904  1.00  0.00    -0.203 F 
ATOM     83  C   UNL A   1      43.299  34.909  26.479  1.00  0.00     0.198 A 
ATOM     84  C   UNL A   1      43.654  34.545  28.823  1.00  0.00     0.198 A 
ATOM     85  F   UNL A   1      45.468  33.231  29.547  1.00  0.00    -0.203 F 
ATOM     86  F   UNL A   1      42.622  35.499  25.484  1.00  0.00    -0.200 F 
ATOM     87  C   UNL A   1      42.927  35.129  27.796  1.00  0.00     0.200 A 
ATOM     88  F   UNL A   1      43.293  34.747  30.097  1.00  0.00    -0.200 F 
ATOM     89  F   UNL A   1      41.879  35.913  28.077  1.00  0.00    -0.200 F 
ENDBRANCH  55  79
BRANCH  67  90
ATOM     90  C   UNL A   1      51.811  35.243  26.053  1.00  0.00     0.064 A 
ATOM     91  C   UNL A   1      52.309  35.901  27.188  1.00  0.00     0.173 A 
ATOM     92  C   UNL A   1      52.016  35.849  24.803  1.00  0.00     0.173 A 
ATOM     93  F   UNL A   1      52.132  35.371  28.408  1.00  0.00    -0.203 F 
ATOM     94  C   UNL A   1      52.949  37.132  27.078  1.00  0.00     0.198 A 
ATOM     95  C   UNL A   1      52.688  37.063  24.694  1.00  0.00     0.198 A 
ATOM     96  F   UNL A   1      51.572  35.258  23.683  1.00  0.00    -0.203 F 
ATOM     97  F   UNL A   1      53.363  37.771  28.182  1.00  0.00    -0.200 F 
ATOM     98  C   UNL A   1      53.144  37.710  25.832  1.00  0.00     0.200 A 
ATOM     99  F   UNL A   1      52.890  37.609  23.486  1.00  0.00    -0.200 F 
ATOM    100  F   UNL A   1      53.763  38.894  25.728  1.00  0.00    -0.200 F 
ENDBRANCH  67  90
ENDBRANCH  41  42
ENDBRANCH  34  36
ENDBRANCH  33  34
ENDBRANCH  32  33
ENDBRANCH  31  32
ENDBRANCH  30  31
ENDBRANCH  29  30
ENDBRANCH   1  29
TORSDOF 22
ENDMDL
MODEL 3
REMARK VINA RESULT:      -9.8      0.953      7.040
REMARK SMILES CC[C@@H](C(=O)OCCOCCOCCOC(=O)c1ccc(-c2c3nc(c(-c4c(F)c(F)c(F)c(F)c4F)c4ccc([nH]4)c(-c4c(F)c(F)c(F)c(F)c4F)c4nc(c(-c5c(F)c(F)c(F)c(F)c5F)c5ccc2[nH]5)C=C4)C=C3)cc1)N1C(=O)/C(=C\c2ccc(C(=O)OC)cc2)SC1=S
REMARK SMILES IDX 10 1 9 2 8 3 7 4 6 5 4 6 5 7 3 8 2 9 1 10 81 11 82 12 97 13
REMARK SMILES IDX 83 14 84 15 96 16 98 17 85 18 86 19 87 20 95 21 88 22 94 23
REMARK SMILES IDX 89 24 90 25 91 26 92 27 93 28 11 29 12 30 13 31 14 32 15 33
REMARK SMILES IDX 16 34 17 35 18 36 19 37 80 38 20 39 79 40 21 41 22 42 23 43
REMARK SMILES IDX 73 44 24 45 78 46 72 47 74 48 25 49 77 50 71 51 70 52 26 54
REMARK SMILES IDX 58 55 38 56 57 57 39 58 42 59 56 60 75 61 40 62 41 63 55 65
REMARK SMILES IDX 76 66 43 67 27 68 28 69 36 70 29 71 30 72 34 73 37 74 31 75
REMARK SMILES IDX 32 76 35 77 33 78 59 79 60 80 68 81 61 82 62 83 66 84 69 85
REMARK SMILES IDX 63 86 64 87 67 88 65 89 44 90 45 91 53 92 46 93 47 94 51 95
REMARK SMILES IDX 54 96 48 97 49 98 52 99 50 100
REMARK H PARENT 74 53 42 64
REMARK Flexibility Score: inf
ROOT
ATOM      1  C   UNL A   1      41.813  20.992  26.229  1.00  0.00     0.188 C 
ENDROOT
BRANCH   1   2
ATOM      2  O   UNL A   1      40.417  20.862  26.467  1.00  0.00    -0.376 OA
BRANCH   2   3
ATOM      3  C   UNL A   1      39.607  22.035  26.502  1.00  0.00     0.202 C 
BRANCH   3   4
ATOM      4  C   UNL A   1      38.236  21.992  25.812  1.00  0.00     0.261 C 
BRANCH   4   5
ATOM      5  O   UNL A   1      37.687  23.306  25.614  1.00  0.00    -0.462 OA
BRANCH   5   6
ATOM      6  C   UNL A   1      36.794  23.448  24.604  1.00  0.00     0.329 C 
ATOM      7  O   UNL A   1      37.031  23.186  23.431  1.00  0.00    -0.250 OA
BRANCH   6   8
ATOM      8  C   UNL A   1      35.398  23.867  25.109  1.00  0.00     0.201 C 
BRANCH   8   9
ATOM      9  C   UNL A   1      35.129  23.514  26.611  1.00  0.00     0.034 C 
ATOM     10  C   UNL A   1      33.804  22.873  26.994  1.00  0.00     0.007 C 
ENDBRANCH   8   9
BRANCH   8  11
ATOM     11  N   UNL A   1      34.194  23.596  24.228  1.00  0.00    -0.278 N 
ATOM     12  C   UNL A   1      33.938  22.262  23.920  1.00  0.00     0.266 C 
ATOM     13  C   UNL A   1      33.196  24.463  23.817  1.00  0.00     0.149 C 
ATOM     14  O   UNL A   1      34.661  21.317  24.199  1.00  0.00    -0.268 OA
ATOM     15  C   UNL A   1      32.640  22.089  23.211  1.00  0.00     0.081 C 
ATOM     16  S   UNL A   1      32.058  23.628  22.744  1.00  0.00    -0.054 SA
ATOM     17  S   UNL A   1      32.903  26.062  24.175  1.00  0.00    -0.052 S 
ATOM     18  C   UNL A   1      31.964  20.945  23.018  1.00  0.00     0.029 C 
BRANCH  18  19
ATOM     19  C   UNL A   1      32.362  19.639  23.560  1.00  0.00    -0.024 A 
ATOM     20  C   UNL A   1      32.407  19.426  24.940  1.00  0.00     0.009 A 
ATOM     21  C   UNL A   1      32.697  18.586  22.696  1.00  0.00     0.009 A 
ATOM     22  C   UNL A   1      32.705  18.153  25.446  1.00  0.00     0.016 A 
ATOM     23  C   UNL A   1      32.970  17.312  23.195  1.00  0.00     0.016 A 
ATOM     24  C   UNL A   1      32.960  17.084  24.575  1.00  0.00     0.060 A 
BRANCH  24  25
ATOM     25  C   UNL A   1      33.201  15.733  25.149  1.00  0.00     0.337 C 
ATOM     26  O   UNL A   1      32.406  15.152  25.873  1.00  0.00    -0.246 OA
BRANCH  25  27
ATOM     27  O   UNL A   1      34.399  15.251  24.733  1.00  0.00    -0.465 OA
ATOM     28  C   UNL A   1      35.527  15.843  25.376  1.00  0.00     0.282 C 
ENDBRANCH  25  27
ENDBRANCH  24  25
ENDBRANCH  18  19
ENDBRANCH   8  11
ENDBRANCH   6   8
ENDBRANCH   5   6
ENDBRANCH   4   5
ENDBRANCH   3   4
ENDBRANCH   2   3
ENDBRANCH   1   2
BRANCH   1  29
ATOM     29  C   UNL A   1      42.701  21.675  27.282  1.00  0.00     0.188 C 
BRANCH  29  30
ATOM     30  O   UNL A   1      43.690  22.540  26.790  1.00  0.00    -0.376 OA
BRANCH  30  31
ATOM     31  C   UNL A   1      43.929  22.659  25.403  1.00  0.00     0.202 C 
BRANCH  31  32
ATOM     32  C   UNL A   1      44.054  23.984  24.625  1.00  0.00     0.261 C 
BRANCH  32  33
ATOM     33  O   UNL A   1      44.001  25.211  25.356  1.00  0.00    -0.460 OA
BRANCH  33  34
ATOM     34  C   UNL A   1      42.766  25.693  25.626  1.00  0.00     0.338 C 
ATOM     35  O   UNL A   1      41.764  25.577  24.944  1.00  0.00    -0.246 OA
BRANCH  34  36
ATOM     36  C   UNL A   1      42.761  26.216  27.010  1.00  0.00     0.060 A 
ATOM     37  C   UNL A   1      41.749  25.789  27.880  1.00  0.00     0.016 A 
ATOM     38  C   UNL A   1      43.710  27.152  27.429  1.00  0.00     0.016 A 
ATOM     39  C   UNL A   1      41.639  26.351  29.150  1.00  0.00     0.010 A 
ATOM     40  C   UNL A   1      43.587  27.731  28.696  1.00  0.00     0.010 A 
ATOM     41  C   UNL A   1      42.517  27.373  29.537  1.00  0.00    -0.014 A 
BRANCH  41  42
ATOM     42  C   UNL A   1      42.141  28.246  30.678  1.00  0.00     0.031 A 
ATOM     43  C   UNL A   1      40.926  29.124  30.520  1.00  0.00     0.074 A 
ATOM     44  C   UNL A   1      42.814  28.231  31.840  1.00  0.00     0.049 A 
ATOM     45  N   UNL A   1      40.393  29.973  31.361  1.00  0.00    -0.248 NA
ATOM     46  C   UNL A   1      40.219  29.030  29.232  1.00  0.00     0.031 C 
ATOM     47  C   UNL A   1      43.981  27.404  32.133  1.00  0.00     0.029 A 
ATOM     48  N   UNL A   1      42.603  28.942  32.995  1.00  0.00    -0.354 N 
ATOM     49  C   UNL A   1      39.298  30.516  30.702  1.00  0.00     0.074 A 
ATOM     50  C   UNL A   1      39.260  29.930  29.381  1.00  0.00     0.031 C 
ATOM     51  C   UNL A   1      44.388  27.657  33.390  1.00  0.00     0.029 A 
ATOM     52  C   UNL A   1      43.527  28.683  33.978  1.00  0.00     0.049 A 
ATOM     53  H   UNL A   1      41.860  29.578  33.109  1.00  0.00     0.167 HD
ATOM     54  C   UNL A   1      38.393  31.416  31.158  1.00  0.00     0.037 A 
ATOM     55  C   UNL A   1      43.665  29.228  35.203  1.00  0.00     0.037 A 
ATOM     56  C   UNL A   1      38.428  32.002  32.470  1.00  0.00     0.049 A 
ATOM     57  C   UNL A   1      42.678  30.270  35.669  1.00  0.00     0.074 A 
ATOM     58  C   UNL A   1      37.559  32.924  33.027  1.00  0.00     0.029 A 
ATOM     59  N   UNL A   1      39.390  31.728  33.431  1.00  0.00    -0.354 N 
ATOM     60  N   UNL A   1      41.632  30.763  35.049  1.00  0.00    -0.248 NA
ATOM     61  C   UNL A   1      42.888  30.825  37.014  1.00  0.00     0.031 C 
ATOM     62  C   UNL A   1      38.023  33.243  34.308  1.00  0.00     0.029 A 
ATOM     63  C   UNL A   1      39.143  32.473  34.573  1.00  0.00     0.049 A 
ATOM     64  H   UNL A   1      40.138  31.097  33.317  1.00  0.00     0.167 HD
ATOM     65  C   UNL A   1      41.038  31.649  35.941  1.00  0.00     0.074 A 
ATOM     66  C   UNL A   1      41.835  31.620  37.149  1.00  0.00     0.031 C 
ATOM     67  C   UNL A   1      39.931  32.416  35.777  1.00  0.00     0.037 A 
BRANCH  54  68
ATOM     68  C   UNL A   1      37.306  31.839  30.215  1.00  0.00     0.064 A 
ATOM     69  C   UNL A   1      36.288  30.960  29.819  1.00  0.00     0.173 A 
ATOM     70  C   UNL A   1      37.275  33.148  29.712  1.00  0.00     0.173 A 
ATOM     71  F   UNL A   1      36.283  29.690  30.255  1.00  0.00    -0.203 F 
ATOM     72  C   UNL A   1      35.293  31.368  28.933  1.00  0.00     0.198 A 
ATOM     73  C   UNL A   1      36.261  33.563  28.852  1.00  0.00     0.198 A 
ATOM     74  F   UNL A   1      38.226  34.029  30.057  1.00  0.00    -0.203 F 
ATOM     75  F   UNL A   1      34.360  30.494  28.528  1.00  0.00    -0.200 F 
ATOM     76  C   UNL A   1      35.276  32.670  28.458  1.00  0.00     0.200 A 
ATOM     77  F   UNL A   1      36.241  34.825  28.402  1.00  0.00    -0.200 F 
ATOM     78  F   UNL A   1      34.315  33.063  27.610  1.00  0.00    -0.200 F 
ENDBRANCH  54  68
BRANCH  55  79
ATOM     79  C   UNL A   1      44.782  28.803  36.089  1.00  0.00     0.064 A 
ATOM     80  C   UNL A   1      44.608  27.783  37.034  1.00  0.00     0.173 A 
ATOM     81  C   UNL A   1      46.030  29.440  36.040  1.00  0.00     0.173 A 
ATOM     82  F   UNL A   1      43.424  27.161  37.139  1.00  0.00    -0.203 F 
ATOM     83  C   UNL A   1      45.631  27.434  37.915  1.00  0.00     0.198 A 
ATOM     84  C   UNL A   1      47.063  29.070  36.900  1.00  0.00     0.198 A 
ATOM     85  F   UNL A   1      46.247  30.426  35.158  1.00  0.00    -0.203 F 
ATOM     86  F   UNL A   1      45.417  26.497  38.848  1.00  0.00    -0.200 F 
ATOM     87  C   UNL A   1      46.858  28.075  37.844  1.00  0.00     0.200 A 
ATOM     88  F   UNL A   1      48.250  29.685  36.822  1.00  0.00    -0.200 F 
ATOM     89  F   UNL A   1      47.840  27.743  38.694  1.00  0.00    -0.200 F 
ENDBRANCH  55  79
BRANCH  67  90
ATOM     90  C   UNL A   1      39.471  33.233  36.953  1.00  0.00     0.064 A 
ATOM     91  C   UNL A   1      39.917  34.545  37.170  1.00  0.00     0.173 A 
ATOM     92  C   UNL A   1      38.543  32.699  37.861  1.00  0.00     0.173 A 
ATOM     93  F   UNL A   1      40.812  35.100  36.339  1.00  0.00    -0.203 F 
ATOM     94  C   UNL A   1      39.482  35.276  38.273  1.00  0.00     0.198 A 
ATOM     95  C   UNL A   1      38.083  33.445  38.942  1.00  0.00     0.198 A 
ATOM     96  F   UNL A   1      38.073  31.453  37.694  1.00  0.00    -0.203 F 
ATOM     97  F   UNL A   1      39.969  36.505  38.494  1.00  0.00    -0.200 F 
ATOM     98  C   UNL A   1      38.562  34.728  39.154  1.00  0.00     0.200 A 
ATOM     99  F   UNL A   1      37.179  32.919  39.781  1.00  0.00    -0.200 F 
ATOM    100  F   UNL A   1      38.142  35.435  40.213  1.00  0.00    -0.200 F 
ENDBRANCH  67  90
ENDBRANCH  41  42
ENDBRANCH  34  36
ENDBRANCH  33  34
ENDBRANCH  32  33
ENDBRANCH  31  32
ENDBRANCH  30  31
ENDBRANCH  29  30
ENDBRANCH   1  29
TORSDOF 22
ENDMDL
