MODEL 1
REMARK VINA RESULT:     -11.0      0.000      0.000
REMARK SMILES O=C(OCCOCCOCCOC(=O)c1ccc2ncccc2n1)c1ccc(-c2c3nc(c(-c4c(F)c(F)c(F)c(F)c4F)c4ccc([nH]4)c(-c4c(F)c(F)c(F)c(F)c4F)c4nc(c(-c5c(F)c(F)c(F)c(F)c5F)c5ccc2[nH]5)C=C4)C=C3)cc1
REMARK SMILES IDX 7 1 6 2 5 3 4 4 3 5 2 6 1 7 25 8 26 9 87 10 27 11 86 12
REMARK SMILES IDX 28 13 29 14 30 15 80 16 31 17 85 18 79 19 81 20 32 21 84 22
REMARK SMILES IDX 78 23 77 24 33 26 65 27 45 28 64 29 46 30 49 31 63 32 82 33
REMARK SMILES IDX 47 34 48 35 62 37 83 38 50 39 34 40 35 41 43 42 36 43 37 44
REMARK SMILES IDX 41 45 44 46 38 47 39 48 42 49 40 50 66 51 67 52 75 53 68 54
REMARK SMILES IDX 69 55 73 56 76 57 70 58 71 59 74 60 72 61 51 62 52 63 60 64
REMARK SMILES IDX 53 65 54 66 58 67 61 68 55 69 56 70 59 71 57 72 8 73 9 74
REMARK SMILES IDX 10 75 11 76 12 77 13 78 14 79 15 80 16 81 24 82 17 83 23 84
REMARK SMILES IDX 18 85 22 86 19 87 21 88 20 89
REMARK H PARENT 81 25 49 36
REMARK Flexibility Score: inf
ROOT
ATOM      1  C   UNL A   1      31.485  28.482  26.547  1.00  0.00     0.188 C 
ENDROOT
BRANCH   1   2
ATOM      2  O   UNL A   1      32.104  29.693  27.010  1.00  0.00    -0.376 OA
BRANCH   2   3
ATOM      3  C   UNL A   1      31.881  30.814  26.150  1.00  0.00     0.202 C 
BRANCH   3   4
ATOM      4  C   UNL A   1      31.433  32.082  26.885  1.00  0.00     0.261 C 
BRANCH   4   5
ATOM      5  O   UNL A   1      32.471  33.073  26.922  1.00  0.00    -0.460 OA
BRANCH   5   6
ATOM      6  C   UNL A   1      33.286  33.407  27.954  1.00  0.00     0.338 C 
ATOM      7  O   UNL A   1      32.942  34.333  28.689  1.00  0.00    -0.246 OA
BRANCH   6   8
ATOM      8  C   UNL A   1      34.548  32.679  28.306  1.00  0.00     0.060 A 
ATOM      9  C   UNL A   1      34.654  31.322  28.617  1.00  0.00     0.016 A 
ATOM     10  C   UNL A   1      35.736  33.439  28.299  1.00  0.00     0.016 A 
ATOM     11  C   UNL A   1      35.853  30.776  29.067  1.00  0.00     0.010 A 
ATOM     12  C   UNL A   1      36.960  32.881  28.686  1.00  0.00     0.010 A 
ATOM     13  C   UNL A   1      37.005  31.560  29.138  1.00  0.00    -0.014 A 
BRANCH  13  14
ATOM     14  C   UNL A   1      38.190  31.010  29.832  1.00  0.00     0.031 A 
ATOM     15  C   UNL A   1      38.393  31.346  31.282  1.00  0.00     0.074 A 
ATOM     16  C   UNL A   1      38.976  30.111  29.215  1.00  0.00     0.049 A 
ATOM     17  N   UNL A   1      39.299  30.908  32.118  1.00  0.00    -0.248 NA
ATOM     18  C   UNL A   1      37.437  32.295  31.877  1.00  0.00     0.031 C 
ATOM     19  C   UNL A   1      38.814  29.664  27.831  1.00  0.00     0.029 A 
ATOM     20  N   UNL A   1      40.037  29.381  29.683  1.00  0.00    -0.354 N 
ATOM     21  C   UNL A   1      39.028  31.535  33.327  1.00  0.00     0.074 A 
ATOM     22  C   UNL A   1      37.886  32.396  33.118  1.00  0.00     0.031 C 
ATOM     23  C   UNL A   1      39.715  28.702  27.576  1.00  0.00     0.029 A 
ATOM     24  C   UNL A   1      40.542  28.496  28.763  1.00  0.00     0.049 A 
ATOM     25  H   UNL A   1      40.402  29.482  30.591  1.00  0.00     0.167 HD
ATOM     26  C   UNL A   1      39.672  31.399  34.510  1.00  0.00     0.037 A 
ATOM     27  C   UNL A   1      41.557  27.620  28.875  1.00  0.00     0.037 A 
ATOM     28  C   UNL A   1      40.805  30.537  34.710  1.00  0.00     0.049 A 
ATOM     29  C   UNL A   1      42.293  27.529  30.186  1.00  0.00     0.074 A 
ATOM     30  C   UNL A   1      41.570  30.362  35.847  1.00  0.00     0.029 A 
ATOM     31  N   UNL A   1      41.331  29.702  33.735  1.00  0.00    -0.354 N 
ATOM     32  N   UNL A   1      42.048  28.147  31.316  1.00  0.00    -0.248 NA
ATOM     33  C   UNL A   1      43.450  26.624  30.234  1.00  0.00     0.031 C 
ATOM     34  C   UNL A   1      42.581  29.439  35.552  1.00  0.00     0.029 A 
ATOM     35  C   UNL A   1      42.421  29.014  34.241  1.00  0.00     0.049 A 
ATOM     36  H   UNL A   1      40.980  29.610  32.820  1.00  0.00     0.167 HD
ATOM     37  C   UNL A   1      43.008  27.699  32.213  1.00  0.00     0.074 A 
ATOM     38  C   UNL A   1      43.826  26.738  31.500  1.00  0.00     0.031 C 
ATOM     39  C   UNL A   1      43.204  28.055  33.506  1.00  0.00     0.037 A 
BRANCH  26  40
ATOM     40  C   UNL A   1      39.185  32.243  35.647  1.00  0.00     0.064 A 
ATOM     41  C   UNL A   1      39.610  33.570  35.815  1.00  0.00     0.173 A 
ATOM     42  C   UNL A   1      38.310  31.705  36.602  1.00  0.00     0.173 A 
ATOM     43  F   UNL A   1      40.469  34.120  34.943  1.00  0.00    -0.203 F 
ATOM     44  C   UNL A   1      39.199  34.318  36.917  1.00  0.00     0.198 A 
ATOM     45  C   UNL A   1      37.885  32.463  37.690  1.00  0.00     0.198 A 
ATOM     46  F   UNL A   1      37.882  30.439  36.489  1.00  0.00    -0.203 F 
ATOM     47  F   UNL A   1      39.660  35.564  37.088  1.00  0.00    -0.200 F 
ATOM     48  C   UNL A   1      38.336  33.764  37.851  1.00  0.00     0.200 A 
ATOM     49  F   UNL A   1      37.052  31.927  38.593  1.00  0.00    -0.200 F 
ATOM     50  F   UNL A   1      37.952  34.480  38.917  1.00  0.00    -0.200 F 
ENDBRANCH  26  40
BRANCH  27  51
ATOM     51  C   UNL A   1      41.934  26.759  27.722  1.00  0.00     0.064 A 
ATOM     52  C   UNL A   1      41.297  25.530  27.498  1.00  0.00     0.173 A 
ATOM     53  C   UNL A   1      42.941  27.144  26.825  1.00  0.00     0.173 A 
ATOM     54  F   UNL A   1      40.342  25.106  28.339  1.00  0.00    -0.203 F 
ATOM     55  C   UNL A   1      41.661  24.715  26.427  1.00  0.00     0.198 A 
ATOM     56  C   UNL A   1      43.284  26.341  25.739  1.00  0.00     0.198 A 
ATOM     57  F   UNL A   1      43.583  28.308  26.995  1.00  0.00    -0.203 F 
ATOM     58  F   UNL A   1      41.063  23.528  26.258  1.00  0.00    -0.200 F 
ATOM     59  C   UNL A   1      42.650  25.124  25.545  1.00  0.00     0.200 A 
ATOM     60  F   UNL A   1      44.230  26.747  24.881  1.00  0.00    -0.200 F 
ATOM     61  F   UNL A   1      42.994  24.343  24.512  1.00  0.00    -0.200 F 
ENDBRANCH  27  51
BRANCH  39  62
ATOM     62  C   UNL A   1      44.331  27.387  34.231  1.00  0.00     0.064 A 
ATOM     63  C   UNL A   1      45.607  27.963  34.284  1.00  0.00     0.173 A 
ATOM     64  C   UNL A   1      44.118  26.182  34.917  1.00  0.00     0.173 A 
ATOM     65  F   UNL A   1      45.859  29.107  33.631  1.00  0.00    -0.203 F 
ATOM     66  C   UNL A   1      46.639  27.345  34.983  1.00  0.00     0.198 A 
ATOM     67  C   UNL A   1      45.146  25.578  35.634  1.00  0.00     0.198 A 
ATOM     68  F   UNL A   1      42.910  25.597  34.898  1.00  0.00    -0.203 F 
ATOM     69  F   UNL A   1      47.862  27.892  34.992  1.00  0.00    -0.200 F 
ATOM     70  C   UNL A   1      46.406  26.157  35.662  1.00  0.00     0.200 A 
ATOM     71  F   UNL A   1      44.918  24.436  36.296  1.00  0.00    -0.200 F 
ATOM     72  F   UNL A   1      47.400  25.566  36.339  1.00  0.00    -0.200 F 
ENDBRANCH  39  62
ENDBRANCH  13  14
ENDBRANCH   6   8
ENDBRANCH   5   6
ENDBRANCH   4   5
ENDBRANCH   3   4
ENDBRANCH   2   3
ENDBRANCH   1   2
BRANCH   1  73
ATOM     73  C   UNL A   1      32.510  27.530  25.924  1.00  0.00     0.188 C 
BRANCH  73  74
ATOM     74  O   UNL A   1      32.064  26.882  24.729  1.00  0.00    -0.376 OA
BRANCH  74  75
ATOM     75  C   UNL A   1      31.890  27.711  23.581  1.00  0.00     0.202 C 
BRANCH  75  76
ATOM     76  C   UNL A   1      31.379  26.993  22.330  1.00  0.00     0.261 C 
BRANCH  76  77
ATOM     77  O   UNL A   1      31.561  25.568  22.390  1.00  0.00    -0.459 OA
BRANCH  77  78
ATOM     78  C   UNL A   1      32.770  25.141  21.943  1.00  0.00     0.357 C 
ATOM     79  O   UNL A   1      33.271  25.374  20.854  1.00  0.00    -0.244 OA
BRANCH  78  80
ATOM     80  C   UNL A   1      33.404  24.203  22.900  1.00  0.00     0.149 A 
ATOM     81  C   UNL A   1      32.553  23.379  23.620  1.00  0.00     0.038 A 
ATOM     82  N   UNL A   1      34.756  24.072  22.894  1.00  0.00    -0.239 NA
ATOM     83  C   UNL A   1      33.115  22.345  24.359  1.00  0.00     0.033 A 
ATOM     84  C   UNL A   1      35.270  23.032  23.595  1.00  0.00     0.090 A 
ATOM     85  C   UNL A   1      34.481  22.129  24.347  1.00  0.00     0.089 A 
ATOM     86  C   UNL A   1      36.633  22.770  23.577  1.00  0.00     0.032 A 
ATOM     87  N   UNL A   1      34.971  21.071  25.019  1.00  0.00    -0.255 NA
ATOM     88  C   UNL A   1      37.165  21.665  24.246  1.00  0.00     0.022 A 
ATOM     89  C   UNL A   1      36.299  20.850  24.947  1.00  0.00     0.112 A 
ENDBRANCH  78  80
ENDBRANCH  77  78
ENDBRANCH  76  77
ENDBRANCH  75  76
ENDBRANCH  74  75
ENDBRANCH  73  74
ENDBRANCH   1  73
TORSDOF 17
ENDMDL
MODEL 2
REMARK VINA RESULT:     -10.7      5.005     10.675
REMARK SMILES O=C(OCCOCCOCCOC(=O)c1ccc2ncccc2n1)c1ccc(-c2c3nc(c(-c4c(F)c(F)c(F)c(F)c4F)c4ccc([nH]4)c(-c4c(F)c(F)c(F)c(F)c4F)c4nc(c(-c5c(F)c(F)c(F)c(F)c5F)c5ccc2[nH]5)C=C4)C=C3)cc1
REMARK SMILES IDX 7 1 6 2 5 3 4 4 3 5 2 6 1 7 25 8 26 9 87 10 27 11 86 12
REMARK SMILES IDX 28 13 29 14 30 15 80 16 31 17 85 18 79 19 81 20 32 21 84 22
REMARK SMILES IDX 78 23 77 24 33 26 65 27 45 28 64 29 46 30 49 31 63 32 82 33
REMARK SMILES IDX 47 34 48 35 62 37 83 38 50 39 34 40 35 41 43 42 36 43 37 44
REMARK SMILES IDX 41 45 44 46 38 47 39 48 42 49 40 50 66 51 67 52 75 53 68 54
REMARK SMILES IDX 69 55 73 56 76 57 70 58 71 59 74 60 72 61 51 62 52 63 60 64
REMARK SMILES IDX 53 65 54 66 58 67 61 68 55 69 56 70 59 71 57 72 8 73 9 74
REMARK SMILES IDX 10 75 11 76 12 77 13 78 14 79 15 80 16 81 24 82 17 83 23 84
REMARK SMILES IDX 18 85 22 86 19 87 21 88 20 89
REMARK H PARENT 81 25 49 36
REMARK Flexibility Score: inf
ROOT
ATOM      1  C   UNL A   1      36.629  21.668  25.442  1.00  0.00     0.188 C 
ENDROOT
BRANCH   1   2
ATOM      2  O   UNL A   1      36.640  20.287  25.047  1.00  0.00    -0.376 OA
BRANCH   2   3
ATOM      3  C   UNL A   1      37.932  19.816  24.653  1.00  0.00     0.202 C 
BRANCH   3   4
ATOM      4  C   UNL A   1      39.061  20.225  25.606  1.00  0.00     0.261 C 
BRANCH   4   5
ATOM      5  O   UNL A   1      40.017  19.169  25.787  1.00  0.00    -0.460 OA
BRANCH   5   6
ATOM      6  C   UNL A   1      41.351  19.264  26.016  1.00  0.00     0.338 C 
ATOM      7  O   UNL A   1      42.052  18.281  25.778  1.00  0.00    -0.246 OA
BRANCH   6   8
ATOM      8  C   UNL A   1      42.045  20.512  26.473  1.00  0.00     0.060 A 
ATOM      9  C   UNL A   1      42.278  20.884  27.797  1.00  0.00     0.016 A 
ATOM     10  C   UNL A   1      42.521  21.372  25.462  1.00  0.00     0.016 A 
ATOM     11  C   UNL A   1      42.806  22.132  28.114  1.00  0.00     0.010 A 
ATOM     12  C   UNL A   1      43.116  22.601  25.772  1.00  0.00     0.010 A 
ATOM     13  C   UNL A   1      43.196  23.013  27.104  1.00  0.00    -0.014 A 
BRANCH  13  14
ATOM     14  C   UNL A   1      43.534  24.404  27.476  1.00  0.00     0.031 A 
ATOM     15  C   UNL A   1      44.909  24.919  27.156  1.00  0.00     0.074 A 
ATOM     16  C   UNL A   1      42.581  25.226  27.949  1.00  0.00     0.049 A 
ATOM     17  N   UNL A   1      45.400  26.123  27.300  1.00  0.00    -0.248 NA
ATOM     18  C   UNL A   1      45.856  23.949  26.582  1.00  0.00     0.031 C 
ATOM     19  C   UNL A   1      41.197  24.838  28.222  1.00  0.00     0.029 A 
ATOM     20  N   UNL A   1      42.620  26.564  28.242  1.00  0.00    -0.354 N 
ATOM     21  C   UNL A   1      46.710  26.050  26.848  1.00  0.00     0.074 A 
ATOM     22  C   UNL A   1      46.948  24.684  26.439  1.00  0.00     0.031 C 
ATOM     23  C   UNL A   1      40.506  25.926  28.600  1.00  0.00     0.029 A 
ATOM     24  C   UNL A   1      41.408  27.075  28.634  1.00  0.00     0.049 A 
ATOM     25  H   UNL A   1      43.439  27.107  28.177  1.00  0.00     0.167 HD
ATOM     26  C   UNL A   1      47.632  27.038  26.773  1.00  0.00     0.037 A 
ATOM     27  C   UNL A   1      41.072  28.332  28.980  1.00  0.00     0.037 A 
ATOM     28  C   UNL A   1      47.387  28.394  27.178  1.00  0.00     0.049 A 
ATOM     29  C   UNL A   1      42.132  29.401  28.941  1.00  0.00     0.074 A 
ATOM     30  C   UNL A   1      48.261  29.464  27.201  1.00  0.00     0.029 A 
ATOM     31  N   UNL A   1      46.162  28.863  27.633  1.00  0.00    -0.354 N 
ATOM     32  N   UNL A   1      43.377  29.316  28.540  1.00  0.00    -0.248 NA
ATOM     33  C   UNL A   1      41.741  30.737  29.413  1.00  0.00     0.031 C 
ATOM     34  C   UNL A   1      47.572  30.577  27.699  1.00  0.00     0.029 A 
ATOM     35  C   UNL A   1      46.260  30.206  27.951  1.00  0.00     0.049 A 
ATOM     36  H   UNL A   1      45.345  28.320  27.717  1.00  0.00     0.167 HD
ATOM     37  C   UNL A   1      43.916  30.586  28.695  1.00  0.00     0.074 A 
ATOM     38  C   UNL A   1      42.854  31.428  29.207  1.00  0.00     0.031 C 
ATOM     39  C   UNL A   1      45.177  31.016  28.447  1.00  0.00     0.037 A 
BRANCH  26  40
ATOM     40  C   UNL A   1      48.995  26.656  26.283  1.00  0.00     0.064 A 
ATOM     41  C   UNL A   1      49.953  26.086  27.134  1.00  0.00     0.173 A 
ATOM     42  C   UNL A   1      49.359  26.899  24.950  1.00  0.00     0.173 A 
ATOM     43  F   UNL A   1      49.662  25.861  28.424  1.00  0.00    -0.203 F 
ATOM     44  C   UNL A   1      51.237  25.801  26.675  1.00  0.00     0.198 A 
ATOM     45  C   UNL A   1      50.637  26.593  24.490  1.00  0.00     0.198 A 
ATOM     46  F   UNL A   1      48.480  27.450  24.099  1.00  0.00    -0.203 F 
ATOM     47  F   UNL A   1      52.155  25.309  27.519  1.00  0.00    -0.200 F 
ATOM     48  C   UNL A   1      51.577  26.052  25.354  1.00  0.00     0.200 A 
ATOM     49  F   UNL A   1      50.964  26.837  23.214  1.00  0.00    -0.200 F 
ATOM     50  F   UNL A   1      52.817  25.790  24.918  1.00  0.00    -0.200 F 
ENDBRANCH  26  40
BRANCH  27  51
ATOM     51  C   UNL A   1      39.676  28.649  29.384  1.00  0.00     0.064 A 
ATOM     52  C   UNL A   1      38.748  29.143  28.457  1.00  0.00     0.173 A 
ATOM     53  C   UNL A   1      39.243  28.469  30.707  1.00  0.00     0.173 A 
ATOM     54  F   UNL A   1      39.118  29.352  27.185  1.00  0.00    -0.203 F 
ATOM     55  C   UNL A   1      37.445  29.456  28.839  1.00  0.00     0.198 A 
ATOM     56  C   UNL A   1      37.932  28.757  31.081  1.00  0.00     0.198 A 
ATOM     57  F   UNL A   1      40.091  28.002  31.634  1.00  0.00    -0.203 F 
ATOM     58  F   UNL A   1      36.589  29.963  27.942  1.00  0.00    -0.200 F 
ATOM     59  C   UNL A   1      37.036  29.257  30.149  1.00  0.00     0.200 A 
ATOM     60  F   UNL A   1      37.538  28.550  32.345  1.00  0.00    -0.200 F 
ATOM     61  F   UNL A   1      35.781  29.552  30.515  1.00  0.00    -0.200 F 
ENDBRANCH  27  51
BRANCH  39  62
ATOM     62  C   UNL A   1      45.464  32.464  28.707  1.00  0.00     0.064 A 
ATOM     63  C   UNL A   1      45.225  33.441  27.731  1.00  0.00     0.173 A 
ATOM     64  C   UNL A   1      45.939  32.878  29.960  1.00  0.00     0.173 A 
ATOM     65  F   UNL A   1      44.784  33.087  26.515  1.00  0.00    -0.203 F 
ATOM     66  C   UNL A   1      45.472  34.785  27.995  1.00  0.00     0.198 A 
ATOM     67  C   UNL A   1      46.163  34.225  30.226  1.00  0.00     0.198 A 
ATOM     68  F   UNL A   1      46.177  31.977  30.925  1.00  0.00    -0.203 F 
ATOM     69  F   UNL A   1      45.272  35.701  27.037  1.00  0.00    -0.200 F 
ATOM     70  C   UNL A   1      45.934  35.176  29.243  1.00  0.00     0.200 A 
ATOM     71  F   UNL A   1      46.602  34.603  31.435  1.00  0.00    -0.200 F 
ATOM     72  F   UNL A   1      46.166  36.471  29.496  1.00  0.00    -0.200 F 
ENDBRANCH  39  62
ENDBRANCH  13  14
ENDBRANCH   6   8
ENDBRANCH   5   6
ENDBRANCH   4   5
ENDBRANCH   3   4
ENDBRANCH   2   3
ENDBRANCH   1   2
BRANCH   1  73
ATOM     73  C   UNL A   1      35.296  22.056  26.089  1.00  0.00     0.188 C 
BRANCH  73  74
ATOM     74  O   UNL A   1      34.161  21.357  25.569  1.00  0.00    -0.376 OA
BRANCH  74  75
ATOM     75  C   UNL A   1      32.931  21.531  26.270  1.00  0.00     0.202 C 
BRANCH  75  76
ATOM     76  C   UNL A   1      31.718  21.841  25.391  1.00  0.00     0.261 C 
BRANCH  76  77
ATOM     77  O   UNL A   1      31.488  23.251  25.234  1.00  0.00    -0.459 OA
BRANCH  77  78
ATOM     78  C   UNL A   1      31.245  23.910  26.396  1.00  0.00     0.357 C 
ATOM     79  O   UNL A   1      30.412  23.620  27.240  1.00  0.00    -0.244 OA
BRANCH  78  80
ATOM     80  C   UNL A   1      32.037  25.160  26.488  1.00  0.00     0.149 A 
ATOM     81  C   UNL A   1      33.258  25.173  25.834  1.00  0.00     0.038 A 
ATOM     82  N   UNL A   1      31.463  26.261  27.039  1.00  0.00    -0.239 NA
ATOM     83  C   UNL A   1      33.923  26.388  25.715  1.00  0.00     0.033 A 
ATOM     84  C   UNL A   1      32.119  27.436  26.874  1.00  0.00     0.090 A 
ATOM     85  C   UNL A   1      33.362  27.552  26.207  1.00  0.00     0.089 A 
ATOM     86  C   UNL A   1      31.566  28.626  27.329  1.00  0.00     0.032 A 
ATOM     87  N   UNL A   1      34.008  28.715  26.004  1.00  0.00    -0.255 NA
ATOM     88  C   UNL A   1      32.205  29.849  27.109  1.00  0.00     0.022 A 
ATOM     89  C   UNL A   1      33.415  29.842  26.446  1.00  0.00     0.112 A 
ENDBRANCH  78  80
ENDBRANCH  77  78
ENDBRANCH  76  77
ENDBRANCH  75  76
ENDBRANCH  74  75
ENDBRANCH  73  74
ENDBRANCH   1  73
TORSDOF 17
ENDMDL
MODEL 3
REMARK VINA RESULT:     -10.7      2.251      4.181
REMARK SMILES O=C(OCCOCCOCCOC(=O)c1ccc2ncccc2n1)c1ccc(-c2c3nc(c(-c4c(F)c(F)c(F)c(F)c4F)c4ccc([nH]4)c(-c4c(F)c(F)c(F)c(F)c4F)c4nc(c(-c5c(F)c(F)c(F)c(F)c5F)c5ccc2[nH]5)C=C4)C=C3)cc1
REMARK SMILES IDX 7 1 6 2 5 3 4 4 3 5 2 6 1 7 25 8 26 9 87 10 27 11 86 12
REMARK SMILES IDX 28 13 29 14 30 15 80 16 31 17 85 18 79 19 81 20 32 21 84 22
REMARK SMILES IDX 78 23 77 24 33 26 65 27 45 28 64 29 46 30 49 31 63 32 82 33
REMARK SMILES IDX 47 34 48 35 62 37 83 38 50 39 34 40 35 41 43 42 36 43 37 44
REMARK SMILES IDX 41 45 44 46 38 47 39 48 42 49 40 50 66 51 67 52 75 53 68 54
REMARK SMILES IDX 69 55 73 56 76 57 70 58 71 59 74 60 72 61 51 62 52 63 60 64
REMARK SMILES IDX 53 65 54 66 58 67 61 68 55 69 56 70 59 71 57 72 8 73 9 74
REMARK SMILES IDX 10 75 11 76 12 77 13 78 14 79 15 80 16 81 24 82 17 83 23 84
REMARK SMILES IDX 18 85 22 86 19 87 21 88 20 89
REMARK H PARENT 81 25 49 36
REMARK Flexibility Score: inf
ROOT
ATOM      1  C   UNL A   1      32.038  28.698  26.933  1.00  0.00     0.188 C 
ENDROOT
BRANCH   1   2
ATOM      2  O   UNL A   1      32.179  30.078  27.303  1.00  0.00    -0.376 OA
BRANCH   2   3
ATOM      3  C   UNL A   1      31.647  30.986  26.333  1.00  0.00     0.202 C 
BRANCH   3   4
ATOM      4  C   UNL A   1      31.402  32.400  26.873  1.00  0.00     0.261 C 
BRANCH   4   5
ATOM      5  O   UNL A   1      32.614  33.169  26.925  1.00  0.00    -0.460 OA
BRANCH   5   6
ATOM      6  C   UNL A   1      33.391  33.453  28.000  1.00  0.00     0.338 C 
ATOM      7  O   UNL A   1      33.019  34.343  28.765  1.00  0.00    -0.246 OA
BRANCH   6   8
ATOM      8  C   UNL A   1      34.640  32.708  28.363  1.00  0.00     0.060 A 
ATOM      9  C   UNL A   1      34.727  31.349  28.666  1.00  0.00     0.016 A 
ATOM     10  C   UNL A   1      35.836  33.455  28.376  1.00  0.00     0.016 A 
ATOM     11  C   UNL A   1      35.914  30.787  29.127  1.00  0.00     0.010 A 
ATOM     12  C   UNL A   1      37.049  32.881  28.774  1.00  0.00     0.010 A 
ATOM     13  C   UNL A   1      37.074  31.557  29.218  1.00  0.00    -0.014 A 
BRANCH  13  14
ATOM     14  C   UNL A   1      38.243  30.989  29.923  1.00  0.00     0.031 A 
ATOM     15  C   UNL A   1      38.430  31.310  31.379  1.00  0.00     0.074 A 
ATOM     16  C   UNL A   1      39.030  30.089  29.308  1.00  0.00     0.049 A 
ATOM     17  N   UNL A   1      39.320  30.855  32.223  1.00  0.00    -0.248 NA
ATOM     18  C   UNL A   1      37.474  32.261  31.970  1.00  0.00     0.031 C 
ATOM     19  C   UNL A   1      38.883  29.657  27.918  1.00  0.00     0.029 A 
ATOM     20  N   UNL A   1      40.077  29.344  29.783  1.00  0.00    -0.354 N 
ATOM     21  C   UNL A   1      39.038  31.472  33.434  1.00  0.00     0.074 A 
ATOM     22  C   UNL A   1      37.907  32.346  33.218  1.00  0.00     0.031 C 
ATOM     23  C   UNL A   1      39.779  28.689  27.666  1.00  0.00     0.029 A 
ATOM     24  C   UNL A   1      40.587  28.463  28.861  1.00  0.00     0.049 A 
ATOM     25  H   UNL A   1      40.431  29.433  30.697  1.00  0.00     0.167 HD
ATOM     26  C   UNL A   1      39.664  31.319  34.624  1.00  0.00     0.037 A 
ATOM     27  C   UNL A   1      41.593  27.577  28.979  1.00  0.00     0.037 A 
ATOM     28  C   UNL A   1      40.786  30.445  34.832  1.00  0.00     0.049 A 
ATOM     29  C   UNL A   1      42.309  27.466  30.300  1.00  0.00     0.074 A 
ATOM     30  C   UNL A   1      41.533  30.251  35.978  1.00  0.00     0.029 A 
ATOM     31  N   UNL A   1      41.317  29.614  33.856  1.00  0.00    -0.354 N 
ATOM     32  N   UNL A   1      42.054  28.076  31.432  1.00  0.00    -0.248 NA
ATOM     33  C   UNL A   1      43.457  26.551  30.354  1.00  0.00     0.031 C 
ATOM     34  C   UNL A   1      42.540  29.322  35.687  1.00  0.00     0.029 A 
ATOM     35  C   UNL A   1      42.394  28.911  34.370  1.00  0.00     0.049 A 
ATOM     36  H   UNL A   1      40.979  29.534  32.936  1.00  0.00     0.167 HD
ATOM     37  C   UNL A   1      42.998  27.611  32.338  1.00  0.00     0.074 A 
ATOM     38  C   UNL A   1      43.817  26.649  31.627  1.00  0.00     0.031 C 
ATOM     39  C   UNL A   1      43.178  27.952  33.636  1.00  0.00     0.037 A 
BRANCH  26  40
ATOM     40  C   UNL A   1      39.169  32.157  35.762  1.00  0.00     0.064 A 
ATOM     41  C   UNL A   1      39.632  33.464  35.972  1.00  0.00     0.173 A 
ATOM     42  C   UNL A   1      38.246  31.630  36.678  1.00  0.00     0.173 A 
ATOM     43  F   UNL A   1      40.536  34.002  35.139  1.00  0.00    -0.203 F 
ATOM     44  C   UNL A   1      39.211  34.204  37.075  1.00  0.00     0.198 A 
ATOM     45  C   UNL A   1      37.811  32.380  37.768  1.00  0.00     0.198 A 
ATOM     46  F   UNL A   1      37.780  30.382  36.525  1.00  0.00    -0.203 F 
ATOM     47  F   UNL A   1      39.708  35.430  37.287  1.00  0.00    -0.200 F 
ATOM     48  C   UNL A   1      38.300  33.662  37.970  1.00  0.00     0.200 A 
ATOM     49  F   UNL A   1      36.933  31.855  38.633  1.00  0.00    -0.200 F 
ATOM     50  F   UNL A   1      37.906  34.369  39.038  1.00  0.00    -0.200 F 
ENDBRANCH  26  40
BRANCH  27  51
ATOM     51  C   UNL A   1      41.977  26.724  27.823  1.00  0.00     0.064 A 
ATOM     52  C   UNL A   1      41.342  25.497  27.586  1.00  0.00     0.173 A 
ATOM     53  C   UNL A   1      42.991  27.115  26.936  1.00  0.00     0.173 A 
ATOM     54  F   UNL A   1      40.381  25.068  28.417  1.00  0.00    -0.203 F 
ATOM     55  C   UNL A   1      41.714  24.689  26.513  1.00  0.00     0.198 A 
ATOM     56  C   UNL A   1      43.342  26.319  25.847  1.00  0.00     0.198 A 
ATOM     57  F   UNL A   1      43.632  28.278  27.119  1.00  0.00    -0.203 F 
ATOM     58  F   UNL A   1      41.116  23.504  26.331  1.00  0.00    -0.200 F 
ATOM     59  C   UNL A   1      42.709  25.104  25.641  1.00  0.00     0.200 A 
ATOM     60  F   UNL A   1      44.294  26.730  24.999  1.00  0.00    -0.200 F 
ATOM     61  F   UNL A   1      43.060  24.330  24.605  1.00  0.00    -0.200 F 
ENDBRANCH  27  51
BRANCH  39  62
ATOM     62  C   UNL A   1      44.289  27.266  34.371  1.00  0.00     0.064 A 
ATOM     63  C   UNL A   1      44.087  26.040  35.017  1.00  0.00     0.173 A 
ATOM     64  C   UNL A   1      45.577  27.821  34.388  1.00  0.00     0.173 A 
ATOM     65  F   UNL A   1      42.869  25.480  35.038  1.00  0.00    -0.203 F 
ATOM     66  C   UNL A   1      45.134  25.400  35.674  1.00  0.00     0.198 A 
ATOM     67  C   UNL A   1      46.627  27.168  35.026  1.00  0.00     0.198 A 
ATOM     68  F   UNL A   1      45.818  28.992  33.777  1.00  0.00    -0.203 F 
ATOM     69  F   UNL A   1      44.914  24.246  36.318  1.00  0.00    -0.200 F 
ATOM     70  C   UNL A   1      46.403  25.961  35.673  1.00  0.00     0.200 A 
ATOM     71  F   UNL A   1      47.854  27.707  35.017  1.00  0.00    -0.200 F 
ATOM     72  F   UNL A   1      47.411  25.342  36.301  1.00  0.00    -0.200 F 
ENDBRANCH  39  62
ENDBRANCH  13  14
ENDBRANCH   6   8
ENDBRANCH   5   6
ENDBRANCH   4   5
ENDBRANCH   3   4
ENDBRANCH   2   3
ENDBRANCH   1   2
BRANCH   1  73
ATOM     73  C   UNL A   1      33.121  28.269  25.938  1.00  0.00     0.188 C 
BRANCH  73  74
ATOM     74  O   UNL A   1      32.799  27.097  25.183  1.00  0.00    -0.376 OA
BRANCH  74  75
ATOM     75  C   UNL A   1      33.066  27.149  23.782  1.00  0.00     0.202 C 
BRANCH  75  76
ATOM     76  C   UNL A   1      32.427  28.323  23.040  1.00  0.00     0.261 C 
BRANCH  76  77
ATOM     77  O   UNL A   1      31.217  27.959  22.352  1.00  0.00    -0.459 OA
BRANCH  77  78
ATOM     78  C   UNL A   1      30.096  28.045  23.113  1.00  0.00     0.357 C 
ATOM     79  O   UNL A   1      29.635  27.176  23.836  1.00  0.00    -0.244 OA
BRANCH  78  80
ATOM     80  C   UNL A   1      29.369  29.314  22.869  1.00  0.00     0.149 A 
ATOM     81  C   UNL A   1      29.392  30.251  23.889  1.00  0.00     0.038 A 
ATOM     82  N   UNL A   1      28.884  29.564  21.625  1.00  0.00    -0.239 NA
ATOM     83  C   UNL A   1      28.913  31.527  23.616  1.00  0.00     0.033 A 
ATOM     84  C   UNL A   1      28.458  30.827  21.380  1.00  0.00     0.090 A 
ATOM     85  C   UNL A   1      28.458  31.856  22.352  1.00  0.00     0.089 A 
ATOM     86  C   UNL A   1      28.026  31.196  20.113  1.00  0.00     0.032 A 
ATOM     87  N   UNL A   1      28.073  33.123  22.116  1.00  0.00    -0.255 NA
ATOM     88  C   UNL A   1      27.643  32.511  19.835  1.00  0.00     0.022 A 
ATOM     89  C   UNL A   1      27.685  33.431  20.862  1.00  0.00     0.112 A 
ENDBRANCH  78  80
ENDBRANCH  77  78
ENDBRANCH  76  77
ENDBRANCH  75  76
ENDBRANCH  74  75
ENDBRANCH  73  74
ENDBRANCH   1  73
TORSDOF 17
ENDMDL
