MODEL 1
REMARK VINA RESULT:     -12.6      0.000      0.000
REMARK SMILES CCOC(=O)c1c(NC(=O)[C@@H]2[C@@H](C(=O)OCCOCCOCCOC(=O)c3ccc(-c4c5nc(c(-c6c(F)c(F)c(F)c(F)c6F)c6ccc([nH]6)c(-c6c(F)c(F)c(F)c(F)c6F)c6nc(c(-c7c(F)c(F)c(F)c(F)c7F)c7ccc4[nH]7)C=C6)C=C5)cc3)[C@@H]3C=C[C@H]2CC3)sc2c1CCC2
REMARK SMILES IDX 18 1 17 2 16 3 15 4 13 5 14 6 12 7 11 8 93 9 90 10 92 11
REMARK SMILES IDX 94 12 91 13 95 14 9 15 8 16 10 18 7 19 6 20 98 21 96 22
REMARK SMILES IDX 97 23 99 24 101 25 100 26 4 27 5 28 3 29 2 30 1 31 19 32
REMARK SMILES IDX 20 33 21 34 22 35 23 36 24 37 25 38 26 39 27 40 28 41 89 42
REMARK SMILES IDX 29 43 88 44 30 45 31 46 32 47 82 48 33 49 87 50 81 51 83 52
REMARK SMILES IDX 34 53 86 54 80 55 79 56 35 58 67 59 47 60 66 61 48 62 51 63
REMARK SMILES IDX 65 64 84 65 49 66 50 67 64 69 85 70 52 71 36 72 37 73 45 74
REMARK SMILES IDX 38 75 39 76 43 77 46 78 40 79 41 80 44 81 42 82 68 83 69 84
REMARK SMILES IDX 77 85 70 86 71 87 75 88 78 89 72 90 73 91 76 92 74 93 53 94
REMARK SMILES IDX 54 95 62 96 55 97 56 98 60 99 63 100 57 101 58 102 61 103
REMARK SMILES IDX 59 104
REMARK H PARENT 8 17 83 57 51 68
REMARK Flexibility Score: inf
ROOT
ATOM      1  O   UNL A   1      34.417  31.279  28.171  1.00  0.00    -0.376 OA
ENDROOT
BRANCH   1   2
ATOM      2  C   UNL A   1      34.870  30.005  27.740  1.00  0.00     0.202 C 
BRANCH   2   3
ATOM      3  C   UNL A   1      34.008  29.234  26.698  1.00  0.00     0.261 C 
BRANCH   3   4
ATOM      4  O   UNL A   1      33.379  27.976  27.113  1.00  0.00    -0.463 OA
BRANCH   4   5
ATOM      5  C   UNL A   1      32.032  27.934  27.036  1.00  0.00     0.310 C 
ATOM      6  O   UNL A   1      31.372  28.864  27.502  1.00  0.00    -0.252 OA
BRANCH   5   7
ATOM      7  C   UNL A   1      31.351  26.639  26.409  1.00  0.00     0.119 C 
ATOM      8  C   UNL A   1      32.066  25.225  26.008  1.00  0.00     0.100 C 
ATOM      9  C   UNL A   1      31.958  25.035  24.439  1.00  0.00     0.025 C 
ATOM     10  C   UNL A   1      30.794  27.255  25.064  1.00  0.00     0.026 C 
ATOM     11  C   UNL A   1      30.506  25.136  24.018  1.00  0.00    -0.027 C 
ATOM     12  C   UNL A   1      32.695  26.196  23.746  1.00  0.00     0.009 C 
ATOM     13  C   UNL A   1      29.892  26.264  24.393  1.00  0.00    -0.027 C 
ATOM     14  C   UNL A   1      31.983  27.519  24.083  1.00  0.00     0.009 C 
BRANCH   8  15
ATOM     15  C   UNL A   1      31.487  23.833  26.644  1.00  0.00     0.229 C 
ATOM     16  N   UNL A   1      32.073  22.569  26.623  1.00  0.00    -0.317 N 
ATOM     17  H   UNL A   1      31.485  21.838  26.921  1.00  0.00     0.170 HD
ATOM     18  O   UNL A   1      30.364  23.830  27.174  1.00  0.00    -0.274 OA
BRANCH  16  19
ATOM     19  C   UNL A   1      33.342  22.175  26.255  1.00  0.00     0.110 A 
ATOM     20  C   UNL A   1      33.920  21.237  25.386  1.00  0.00     0.098 A 
ATOM     21  C   UNL A   1      35.360  21.360  25.520  1.00  0.00    -0.017 A 
ATOM     22  S   UNL A   1      34.502  22.614  27.354  1.00  0.00    -0.122 S 
ATOM     23  C   UNL A   1      35.751  22.943  26.082  1.00  0.00     0.011 A 
ATOM     24  C   UNL A   1      36.946  20.356  25.065  1.00  0.00     0.038 C 
ATOM     25  C   UNL A   1      37.811  23.287  26.040  1.00  0.00     0.047 C 
ATOM     26  C   UNL A   1      38.545  21.496  25.385  1.00  0.00     0.010 C 
BRANCH  20  27
ATOM     27  C   UNL A   1      33.214  20.212  24.652  1.00  0.00     0.341 C 
ATOM     28  O   UNL A   1      32.085  20.334  24.196  1.00  0.00    -0.246 OA
BRANCH  27  29
ATOM     29  O   UNL A   1      33.964  19.074  24.608  1.00  0.00    -0.462 OA
BRANCH  29  30
ATOM     30  C   UNL A   1      33.292  17.858  24.259  1.00  0.00     0.230 C 
ATOM     31  C   UNL A   1      33.504  16.772  25.302  1.00  0.00     0.049 C 
ENDBRANCH  29  30
ENDBRANCH  27  29
ENDBRANCH  20  27
ENDBRANCH  16  19
ENDBRANCH   8  15
ENDBRANCH   5   7
ENDBRANCH   4   5
ENDBRANCH   3   4
ENDBRANCH   2   3
ENDBRANCH   1   2
BRANCH   1  32
ATOM     32  C   UNL A   1      35.317  32.334  27.919  1.00  0.00     0.188 C 
BRANCH  32  33
ATOM     33  C   UNL A   1      34.789  33.767  28.059  1.00  0.00     0.188 C 
BRANCH  33  34
ATOM     34  O   UNL A   1      33.664  34.045  29.117  1.00  0.00    -0.376 OA
BRANCH  34  35
ATOM     35  C   UNL A   1      33.844  34.855  30.710  1.00  0.00     0.202 C 
BRANCH  35  36
ATOM     36  C   UNL A   1      34.525  33.705  32.490  1.00  0.00     0.261 C 
BRANCH  36  37
ATOM     37  O   UNL A   1      35.166  32.218  32.354  1.00  0.00    -0.460 OA
BRANCH  37  38
ATOM     38  C   UNL A   1      36.448  31.849  32.537  1.00  0.00     0.338 C 
ATOM     39  O   UNL A   1      37.081  31.840  33.576  1.00  0.00    -0.246 OA
BRANCH  38  40
ATOM     40  C   UNL A   1      36.986  31.469  31.207  1.00  0.00     0.060 A 
ATOM     41  C   UNL A   1      36.660  30.181  30.824  1.00  0.00     0.016 A 
ATOM     42  C   UNL A   1      38.134  32.096  30.706  1.00  0.00     0.016 A 
ATOM     43  C   UNL A   1      37.724  29.371  30.512  1.00  0.00     0.010 A 
ATOM     44  C   UNL A   1      39.166  31.302  30.286  1.00  0.00     0.010 A 
ATOM     45  C   UNL A   1      39.007  29.936  30.437  1.00  0.00    -0.014 A 
BRANCH  45  46
ATOM     46  C   UNL A   1      40.161  29.074  30.276  1.00  0.00     0.031 A 
ATOM     47  C   UNL A   1      40.764  28.892  31.611  1.00  0.00     0.074 A 
ATOM     48  C   UNL A   1      40.570  28.530  29.103  1.00  0.00     0.049 A 
ATOM     49  N   UNL A   1      41.737  29.590  32.092  1.00  0.00    -0.248 NA
ATOM     50  C   UNL A   1      40.009  28.149  32.634  1.00  0.00     0.031 C 
ATOM     51  C   UNL A   1      39.905  28.521  27.792  1.00  0.00     0.029 A 
ATOM     52  N   UNL A   1      41.711  27.804  28.850  1.00  0.00    -0.354 N 
ATOM     53  C   UNL A   1      41.899  29.134  33.393  1.00  0.00     0.074 A 
ATOM     54  C   UNL A   1      40.666  28.496  33.745  1.00  0.00     0.031 C 
ATOM     55  C   UNL A   1      40.509  27.623  26.970  1.00  0.00     0.029 A 
ATOM     56  C   UNL A   1      41.695  27.108  27.624  1.00  0.00     0.049 A 
ATOM     57  H   UNL A   1      42.474  27.774  29.473  1.00  0.00     0.167 HD
ATOM     58  C   UNL A   1      43.164  28.954  33.866  1.00  0.00     0.037 A 
ATOM     59  C   UNL A   1      42.619  26.187  27.221  1.00  0.00     0.037 A 
ATOM     60  C   UNL A   1      44.097  29.675  33.028  1.00  0.00     0.049 A 
ATOM     61  C   UNL A   1      43.837  26.462  28.020  1.00  0.00     0.074 A 
ATOM     62  C   UNL A   1      44.418  30.993  32.787  1.00  0.00     0.029 A 
ATOM     63  N   UNL A   1      44.453  28.963  31.913  1.00  0.00    -0.354 N 
ATOM     64  N   UNL A   1      44.534  27.559  27.899  1.00  0.00    -0.248 NA
ATOM     65  C   UNL A   1      43.978  25.755  29.281  1.00  0.00     0.031 C 
ATOM     66  C   UNL A   1      44.804  31.059  31.410  1.00  0.00     0.029 A 
ATOM     67  C   UNL A   1      44.818  29.770  30.878  1.00  0.00     0.049 A 
ATOM     68  H   UNL A   1      44.445  27.979  31.865  1.00  0.00     0.167 HD
ATOM     69  C   UNL A   1      44.830  27.919  29.204  1.00  0.00     0.074 A 
ATOM     70  C   UNL A   1      44.560  26.717  29.999  1.00  0.00     0.031 C 
ATOM     71  C   UNL A   1      44.952  29.238  29.541  1.00  0.00     0.037 A 
BRANCH  58  72
ATOM     72  C   UNL A   1      43.600  27.704  34.616  1.00  0.00     0.064 A 
ATOM     73  C   UNL A   1      44.215  27.863  35.875  1.00  0.00     0.173 A 
ATOM     74  C   UNL A   1      43.732  26.414  34.049  1.00  0.00     0.173 A 
ATOM     75  F   UNL A   1      44.184  29.049  36.503  1.00  0.00    -0.203 F 
ATOM     76  C   UNL A   1      44.950  26.838  36.479  1.00  0.00     0.198 A 
ATOM     77  C   UNL A   1      44.427  25.381  34.675  1.00  0.00     0.198 A 
ATOM     78  F   UNL A   1      43.299  26.109  32.823  1.00  0.00    -0.203 F 
ATOM     79  F   UNL A   1      45.608  27.075  37.623  1.00  0.00    -0.200 F 
ATOM     80  C   UNL A   1      45.058  25.598  35.878  1.00  0.00     0.200 A 
ATOM     81  F   UNL A   1      44.542  24.198  34.054  1.00  0.00    -0.200 F 
ATOM     82  F   UNL A   1      45.801  24.630  36.427  1.00  0.00    -0.200 F 
ENDBRANCH  58  72
BRANCH  59  83
ATOM     83  C   UNL A   1      42.420  24.857  26.570  1.00  0.00     0.064 A 
ATOM     84  C   UNL A   1      43.166  24.449  25.442  1.00  0.00     0.173 A 
ATOM     85  C   UNL A   1      41.735  23.834  27.251  1.00  0.00     0.173 A 
ATOM     86  F   UNL A   1      43.907  25.340  24.765  1.00  0.00    -0.203 F 
ATOM     87  C   UNL A   1      43.230  23.106  25.037  1.00  0.00     0.198 A 
ATOM     88  C   UNL A   1      41.806  22.495  26.852  1.00  0.00     0.198 A 
ATOM     89  F   UNL A   1      41.069  24.102  28.383  1.00  0.00    -0.203 F 
ATOM     90  F   UNL A   1      43.993  22.750  23.992  1.00  0.00    -0.200 F 
ATOM     91  C   UNL A   1      42.559  22.128  25.751  1.00  0.00     0.200 A 
ATOM     92  F   UNL A   1      41.194  21.554  27.583  1.00  0.00    -0.200 F 
ATOM     93  F   UNL A   1      42.670  20.836  25.411  1.00  0.00    -0.200 F 
ENDBRANCH  59  83
BRANCH  71  94
ATOM     94  C   UNL A   1      45.164  30.226  28.431  1.00  0.00     0.064 A 
ATOM     95  C   UNL A   1      44.145  30.898  27.733  1.00  0.00     0.173 A 
ATOM     96  C   UNL A   1      46.488  30.584  28.146  1.00  0.00     0.173 A 
ATOM     97  F   UNL A   1      42.853  30.663  28.004  1.00  0.00    -0.203 F 
ATOM     98  C   UNL A   1      44.452  31.864  26.771  1.00  0.00     0.198 A 
ATOM     99  C   UNL A   1      46.789  31.570  27.217  1.00  0.00     0.198 A 
ATOM    100  F   UNL A   1      47.495  30.003  28.817  1.00  0.00    -0.203 F 
ATOM    101  F   UNL A   1      43.470  32.491  26.107  1.00  0.00    -0.200 F 
ATOM    102  C   UNL A   1      45.773  32.203  26.520  1.00  0.00     0.200 A 
ATOM    103  F   UNL A   1      48.066  31.923  27.016  1.00  0.00    -0.200 F 
ATOM    104  F   UNL A   1      46.070  33.153  25.623  1.00  0.00    -0.200 F 
ENDBRANCH  71  94
ENDBRANCH  45  46
ENDBRANCH  38  40
ENDBRANCH  37  38
ENDBRANCH  36  37
ENDBRANCH  35  36
ENDBRANCH  34  35
ENDBRANCH  33  34
ENDBRANCH  32  33
ENDBRANCH   1  32
TORSDOF 22
ENDMDL
MODEL 2
REMARK VINA RESULT:     -12.2      3.378      9.210
REMARK SMILES CCOC(=O)c1c(NC(=O)[C@@H]2[C@@H](C(=O)OCCOCCOCCOC(=O)c3ccc(-c4c5nc(c(-c6c(F)c(F)c(F)c(F)c6F)c6ccc([nH]6)c(-c6c(F)c(F)c(F)c(F)c6F)c6nc(c(-c7c(F)c(F)c(F)c(F)c7F)c7ccc4[nH]7)C=C6)C=C5)cc3)[C@@H]3C=C[C@H]2CC3)sc2c1CCC2
REMARK SMILES IDX 18 1 17 2 16 3 15 4 13 5 14 6 12 7 11 8 93 9 90 10 92 11
REMARK SMILES IDX 94 12 91 13 95 14 9 15 8 16 10 18 7 19 6 20 98 21 96 22
REMARK SMILES IDX 97 23 99 24 101 25 100 26 4 27 5 28 3 29 2 30 1 31 19 32
REMARK SMILES IDX 20 33 21 34 22 35 23 36 24 37 25 38 26 39 27 40 28 41 89 42
REMARK SMILES IDX 29 43 88 44 30 45 31 46 32 47 82 48 33 49 87 50 81 51 83 52
REMARK SMILES IDX 34 53 86 54 80 55 79 56 35 58 67 59 47 60 66 61 48 62 51 63
REMARK SMILES IDX 65 64 84 65 49 66 50 67 64 69 85 70 52 71 36 72 37 73 45 74
REMARK SMILES IDX 38 75 39 76 43 77 46 78 40 79 41 80 44 81 42 82 68 83 69 84
REMARK SMILES IDX 77 85 70 86 71 87 75 88 78 89 72 90 73 91 76 92 74 93 53 94
REMARK SMILES IDX 54 95 62 96 55 97 56 98 60 99 63 100 57 101 58 102 61 103
REMARK SMILES IDX 59 104
REMARK H PARENT 8 17 83 57 51 68
REMARK Flexibility Score: inf
ROOT
ATOM      1  O   UNL A   1      37.698  22.450  25.224  1.00  0.00    -0.376 OA
ENDROOT
BRANCH   1   2
ATOM      2  C   UNL A   1      36.971  21.979  24.101  1.00  0.00     0.202 C 
BRANCH   2   3
ATOM      3  C   UNL A   1      35.506  21.501  24.323  1.00  0.00     0.261 C 
BRANCH   3   4
ATOM      4  O   UNL A   1      34.880  21.764  25.623  1.00  0.00    -0.463 OA
BRANCH   4   5
ATOM      5  C   UNL A   1      34.282  22.967  25.759  1.00  0.00     0.310 C 
ATOM      6  O   UNL A   1      34.420  23.593  26.812  1.00  0.00    -0.252 OA
BRANCH   5   7
ATOM      7  C   UNL A   1      33.358  23.491  24.573  1.00  0.00     0.119 C 
ATOM      8  C   UNL A   1      32.770  24.999  24.351  1.00  0.00     0.100 C 
ATOM      9  C   UNL A   1      31.190  24.943  24.458  1.00  0.00     0.025 C 
ATOM     10  C   UNL A   1      32.106  22.548  24.775  1.00  0.00     0.026 C 
ATOM     11  C   UNL A   1      30.655  23.919  23.478  1.00  0.00    -0.027 C 
ATOM     12  C   UNL A   1      30.805  24.445  25.864  1.00  0.00     0.009 C 
ATOM     13  C   UNL A   1      31.174  22.693  23.610  1.00  0.00    -0.027 C 
ATOM     14  C   UNL A   1      31.313  23.003  26.045  1.00  0.00     0.009 C 
BRANCH   8  15
ATOM     15  C   UNL A   1      33.072  25.771  22.941  1.00  0.00     0.229 C 
ATOM     16  N   UNL A   1      32.746  27.079  22.589  1.00  0.00    -0.317 N 
ATOM     17  H   UNL A   1      32.874  27.293  21.637  1.00  0.00     0.170 HD
ATOM     18  O   UNL A   1      33.605  25.145  22.010  1.00  0.00    -0.274 OA
BRANCH  16  19
ATOM     19  C   UNL A   1      32.274  28.123  23.357  1.00  0.00     0.110 A 
ATOM     20  C   UNL A   1      31.053  28.782  23.565  1.00  0.00     0.098 A 
ATOM     21  C   UNL A   1      31.296  29.836  24.531  1.00  0.00    -0.017 A 
ATOM     22  S   UNL A   1      33.478  29.126  23.896  1.00  0.00    -0.122 S 
ATOM     23  C   UNL A   1      32.671  29.432  25.490  1.00  0.00     0.011 A 
ATOM     24  C   UNL A   1      30.420  31.431  25.182  1.00  0.00     0.038 C 
ATOM     25  C   UNL A   1      32.920  30.767  27.079  1.00  0.00     0.047 C 
ATOM     26  C   UNL A   1      31.399  32.096  26.781  1.00  0.00     0.010 C 
BRANCH  20  27
ATOM     27  C   UNL A   1      29.838  28.575  22.810  1.00  0.00     0.341 C 
ATOM     28  O   UNL A   1      29.033  27.677  23.018  1.00  0.00    -0.246 OA
BRANCH  27  29
ATOM     29  O   UNL A   1      29.763  29.483  21.796  1.00  0.00    -0.462 OA
BRANCH  29  30
ATOM     30  C   UNL A   1      28.498  30.118  21.575  1.00  0.00     0.230 C 
ATOM     31  C   UNL A   1      28.576  31.624  21.770  1.00  0.00     0.049 C 
ENDBRANCH  29  30
ENDBRANCH  27  29
ENDBRANCH  20  27
ENDBRANCH  16  19
ENDBRANCH   8  15
ENDBRANCH   5   7
ENDBRANCH   4   5
ENDBRANCH   3   4
ENDBRANCH   2   3
ENDBRANCH   1   2
BRANCH   1  32
ATOM     32  C   UNL A   1      38.549  21.493  25.811  1.00  0.00     0.188 C 
BRANCH  32  33
ATOM     33  C   UNL A   1      38.481  20.057  25.276  1.00  0.00     0.188 C 
BRANCH  33  34
ATOM     34  O   UNL A   1      39.749  19.146  25.427  1.00  0.00    -0.376 OA
BRANCH  34  35
ATOM     35  C   UNL A   1      41.064  19.303  26.640  1.00  0.00     0.202 C 
BRANCH  35  36
ATOM     36  C   UNL A   1      42.430  21.059  26.604  1.00  0.00     0.261 C 
BRANCH  36  37
ATOM     37  O   UNL A   1      44.022  20.900  26.313  1.00  0.00    -0.460 OA
BRANCH  37  38
ATOM     38  C   UNL A   1      44.646  20.864  25.120  1.00  0.00     0.338 C 
ATOM     39  O   UNL A   1      44.885  19.890  24.433  1.00  0.00    -0.246 OA
BRANCH  38  40
ATOM     40  C   UNL A   1      45.028  22.259  24.788  1.00  0.00     0.060 A 
ATOM     41  C   UNL A   1      46.027  22.769  25.596  1.00  0.00     0.016 A 
ATOM     42  C   UNL A   1      44.108  23.112  24.163  1.00  0.00     0.016 A 
ATOM     43  C   UNL A   1      45.720  23.937  26.249  1.00  0.00     0.010 A 
ATOM     44  C   UNL A   1      43.869  24.329  24.739  1.00  0.00     0.010 A 
ATOM     45  C   UNL A   1      44.525  24.600  25.926  1.00  0.00    -0.014 A 
BRANCH  45  46
ATOM     46  C   UNL A   1      44.101  25.738  26.717  1.00  0.00     0.031 A 
ATOM     47  C   UNL A   1      45.062  26.830  26.465  1.00  0.00     0.074 A 
ATOM     48  C   UNL A   1      43.004  25.770  27.513  1.00  0.00     0.049 A 
ATOM     49  N   UNL A   1      46.095  27.099  27.191  1.00  0.00    -0.248 NA
ATOM     50  C   UNL A   1      45.113  27.434  25.122  1.00  0.00     0.031 C 
ATOM     51  C   UNL A   1      41.918  24.789  27.651  1.00  0.00     0.029 A 
ATOM     52  N   UNL A   1      42.604  26.764  28.377  1.00  0.00    -0.354 N 
ATOM     53  C   UNL A   1      46.746  28.129  26.525  1.00  0.00     0.074 A 
ATOM     54  C   UNL A   1      46.281  28.080  25.171  1.00  0.00     0.031 C 
ATOM     55  C   UNL A   1      40.876  25.339  28.328  1.00  0.00     0.029 A 
ATOM     56  C   UNL A   1      41.269  26.647  28.814  1.00  0.00     0.049 A 
ATOM     57  H   UNL A   1      43.200  27.493  28.664  1.00  0.00     0.167 HD
ATOM     58  C   UNL A   1      47.252  29.159  27.258  1.00  0.00     0.037 A 
ATOM     59  C   UNL A   1      40.582  27.587  29.528  1.00  0.00     0.037 A 
ATOM     60  C   UNL A   1      47.359  28.756  28.644  1.00  0.00     0.049 A 
ATOM     61  C   UNL A   1      41.612  28.434  30.176  1.00  0.00     0.074 A 
ATOM     62  C   UNL A   1      48.145  27.897  29.381  1.00  0.00     0.029 A 
ATOM     63  N   UNL A   1      46.177  28.903  29.321  1.00  0.00    -0.354 N 
ATOM     64  N   UNL A   1      42.423  27.988  31.097  1.00  0.00    -0.248 NA
ATOM     65  C   UNL A   1      42.063  29.607  29.446  1.00  0.00     0.031 C 
ATOM     66  C   UNL A   1      47.306  27.396  30.428  1.00  0.00     0.029 A 
ATOM     67  C   UNL A   1      46.071  28.041  30.371  1.00  0.00     0.049 A 
ATOM     68  H   UNL A   1      45.483  29.558  29.078  1.00  0.00     0.167 HD
ATOM     69  C   UNL A   1      43.653  28.526  30.755  1.00  0.00     0.074 A 
ATOM     70  C   UNL A   1      43.348  29.598  29.803  1.00  0.00     0.031 C 
ATOM     71  C   UNL A   1      44.803  27.838  31.032  1.00  0.00     0.037 A 
BRANCH  58  72
ATOM     72  C   UNL A   1      47.047  30.621  26.889  1.00  0.00     0.064 A 
ATOM     73  C   UNL A   1      48.142  31.500  27.014  1.00  0.00     0.173 A 
ATOM     74  C   UNL A   1      45.791  31.255  26.727  1.00  0.00     0.173 A 
ATOM     75  F   UNL A   1      49.381  31.021  27.202  1.00  0.00    -0.203 F 
ATOM     76  C   UNL A   1      47.983  32.889  27.037  1.00  0.00     0.198 A 
ATOM     77  C   UNL A   1      45.642  32.640  26.704  1.00  0.00     0.198 A 
ATOM     78  F   UNL A   1      44.636  30.585  26.690  1.00  0.00    -0.203 F 
ATOM     79  F   UNL A   1      49.041  33.677  27.270  1.00  0.00    -0.200 F 
ATOM     80  C   UNL A   1      46.732  33.459  26.885  1.00  0.00     0.200 A 
ATOM     81  F   UNL A   1      44.413  33.165  26.587  1.00  0.00    -0.200 F 
ATOM     82  F   UNL A   1      46.568  34.785  26.957  1.00  0.00    -0.200 F 
ENDBRANCH  58  72
BRANCH  59  83
ATOM     83  C   UNL A   1      39.187  28.090  29.350  1.00  0.00     0.064 A 
ATOM     84  C   UNL A   1      38.313  28.297  30.440  1.00  0.00     0.173 A 
ATOM     85  C   UNL A   1      38.804  28.696  28.139  1.00  0.00     0.173 A 
ATOM     86  F   UNL A   1      38.623  27.815  31.654  1.00  0.00    -0.203 F 
ATOM     87  C   UNL A   1      37.146  29.070  30.324  1.00  0.00     0.198 A 
ATOM     88  C   UNL A   1      37.647  29.473  28.027  1.00  0.00     0.198 A 
ATOM     89  F   UNL A   1      39.607  28.633  27.067  1.00  0.00    -0.203 F 
ATOM     90  F   UNL A   1      36.370  29.289  31.397  1.00  0.00    -0.200 F 
ATOM     91  C   UNL A   1      36.821  29.668  29.119  1.00  0.00     0.200 A 
ATOM     92  F   UNL A   1      37.373  30.088  26.867  1.00  0.00    -0.200 F 
ATOM     93  F   UNL A   1      35.746  30.464  29.018  1.00  0.00    -0.200 F 
ENDBRANCH  59  83
BRANCH  71  94
ATOM     94  C   UNL A   1      44.728  26.732  32.044  1.00  0.00     0.064 A 
ATOM     95  C   UNL A   1      44.509  25.374  31.753  1.00  0.00     0.173 A 
ATOM     96  C   UNL A   1      45.009  27.071  33.374  1.00  0.00     0.173 A 
ATOM     97  F   UNL A   1      44.310  24.964  30.492  1.00  0.00    -0.203 F 
ATOM     98  C   UNL A   1      44.543  24.410  32.762  1.00  0.00     0.198 A 
ATOM     99  C   UNL A   1      45.078  26.106  34.370  1.00  0.00     0.198 A 
ATOM    100  F   UNL A   1      45.268  28.348  33.696  1.00  0.00    -0.203 F 
ATOM    101  F   UNL A   1      44.325  23.119  32.471  1.00  0.00    -0.200 F 
ATOM    102  C   UNL A   1      44.834  24.777  34.068  1.00  0.00     0.200 A 
ATOM    103  F   UNL A   1      45.405  26.465  35.618  1.00  0.00    -0.200 F 
ATOM    104  F   UNL A   1      44.900  23.850  35.033  1.00  0.00    -0.200 F 
ENDBRANCH  71  94
ENDBRANCH  45  46
ENDBRANCH  38  40
ENDBRANCH  37  38
ENDBRANCH  36  37
ENDBRANCH  35  36
ENDBRANCH  34  35
ENDBRANCH  33  34
ENDBRANCH  32  33
ENDBRANCH   1  32
TORSDOF 22
ENDMDL
MODEL 3
REMARK VINA RESULT:     -12.0      1.772      6.703
REMARK SMILES CCOC(=O)c1c(NC(=O)[C@@H]2[C@@H](C(=O)OCCOCCOCCOC(=O)c3ccc(-c4c5nc(c(-c6c(F)c(F)c(F)c(F)c6F)c6ccc([nH]6)c(-c6c(F)c(F)c(F)c(F)c6F)c6nc(c(-c7c(F)c(F)c(F)c(F)c7F)c7ccc4[nH]7)C=C6)C=C5)cc3)[C@@H]3C=C[C@H]2CC3)sc2c1CCC2
REMARK SMILES IDX 18 1 17 2 16 3 15 4 13 5 14 6 12 7 11 8 93 9 90 10 92 11
REMARK SMILES IDX 94 12 91 13 95 14 9 15 8 16 10 18 7 19 6 20 98 21 96 22
REMARK SMILES IDX 97 23 99 24 101 25 100 26 4 27 5 28 3 29 2 30 1 31 19 32
REMARK SMILES IDX 20 33 21 34 22 35 23 36 24 37 25 38 26 39 27 40 28 41 89 42
REMARK SMILES IDX 29 43 88 44 30 45 31 46 32 47 82 48 33 49 87 50 81 51 83 52
REMARK SMILES IDX 34 53 86 54 80 55 79 56 35 58 67 59 47 60 66 61 48 62 51 63
REMARK SMILES IDX 65 64 84 65 49 66 50 67 64 69 85 70 52 71 36 72 37 73 45 74
REMARK SMILES IDX 38 75 39 76 43 77 46 78 40 79 41 80 44 81 42 82 68 83 69 84
REMARK SMILES IDX 77 85 70 86 71 87 75 88 78 89 72 90 73 91 76 92 74 93 53 94
REMARK SMILES IDX 54 95 62 96 55 97 56 98 60 99 63 100 57 101 58 102 61 103
REMARK SMILES IDX 59 104
REMARK H PARENT 8 17 83 57 51 68
REMARK Flexibility Score: inf
ROOT
ATOM      1  O   UNL A   1      34.998  31.203  27.447  1.00  0.00    -0.376 OA
ENDROOT
BRANCH   1   2
ATOM      2  C   UNL A   1      34.851  29.800  27.596  1.00  0.00     0.202 C 
BRANCH   2   3
ATOM      3  C   UNL A   1      34.039  29.029  26.515  1.00  0.00     0.261 C 
BRANCH   3   4
ATOM      4  O   UNL A   1      33.386  27.774  26.902  1.00  0.00    -0.463 OA
BRANCH   4   5
ATOM      5  C   UNL A   1      32.036  27.777  26.875  1.00  0.00     0.310 C 
ATOM      6  O   UNL A   1      31.426  28.738  27.346  1.00  0.00    -0.252 OA
BRANCH   5   7
ATOM      7  C   UNL A   1      31.289  26.494  26.301  1.00  0.00     0.119 C 
ATOM      8  C   UNL A   1      31.946  25.062  25.868  1.00  0.00     0.100 C 
ATOM      9  C   UNL A   1      31.737  24.865  24.309  1.00  0.00     0.025 C 
ATOM     10  C   UNL A   1      30.664  27.114  24.989  1.00  0.00     0.026 C 
ATOM     11  C   UNL A   1      30.265  24.996  23.978  1.00  0.00    -0.027 C 
ATOM     12  C   UNL A   1      32.456  26.005  23.564  1.00  0.00     0.009 C 
ATOM     13  C   UNL A   1      29.700  26.140  24.381  1.00  0.00    -0.027 C 
ATOM     14  C   UNL A   1      31.796  27.346  23.934  1.00  0.00     0.009 C 
BRANCH   8  15
ATOM     15  C   UNL A   1      31.378  23.687  26.548  1.00  0.00     0.229 C 
ATOM     16  N   UNL A   1      31.963  22.423  26.553  1.00  0.00    -0.317 N 
ATOM     17  H   UNL A   1      31.379  21.700  26.878  1.00  0.00     0.170 HD
ATOM     18  O   UNL A   1      30.262  23.698  27.094  1.00  0.00    -0.274 OA
BRANCH  16  19
ATOM     19  C   UNL A   1      33.227  22.019  26.177  1.00  0.00     0.110 A 
ATOM     20  C   UNL A   1      33.794  21.096  25.285  1.00  0.00     0.098 A 
ATOM     21  C   UNL A   1      35.234  21.194  25.426  1.00  0.00    -0.017 A 
ATOM     22  S   UNL A   1      34.390  22.411  27.291  1.00  0.00    -0.122 S 
ATOM     23  C   UNL A   1      35.648  22.754  26.031  1.00  0.00     0.011 A 
ATOM     24  C   UNL A   1      36.806  20.177  24.948  1.00  0.00     0.038 C 
ATOM     25  C   UNL A   1      37.714  23.067  26.004  1.00  0.00     0.047 C 
ATOM     26  C   UNL A   1      38.421  21.284  25.303  1.00  0.00     0.010 C 
BRANCH  20  27
ATOM     27  C   UNL A   1      33.073  20.102  24.522  1.00  0.00     0.341 C 
ATOM     28  O   UNL A   1      32.118  20.339  23.796  1.00  0.00    -0.246 OA
BRANCH  27  29
ATOM     29  O   UNL A   1      33.574  18.862  24.789  1.00  0.00    -0.462 OA
BRANCH  29  30
ATOM     30  C   UNL A   1      32.631  17.817  25.057  1.00  0.00     0.230 C 
ATOM     31  C   UNL A   1      33.294  16.599  25.681  1.00  0.00     0.049 C 
ENDBRANCH  29  30
ENDBRANCH  27  29
ENDBRANCH  20  27
ENDBRANCH  16  19
ENDBRANCH   8  15
ENDBRANCH   5   7
ENDBRANCH   4   5
ENDBRANCH   3   4
ENDBRANCH   2   3
ENDBRANCH   1   2
BRANCH   1  32
ATOM     32  C   UNL A   1      33.964  31.963  28.030  1.00  0.00     0.188 C 
BRANCH  32  33
ATOM     33  C   UNL A   1      34.349  33.281  28.715  1.00  0.00     0.188 C 
BRANCH  33  34
ATOM     34  O   UNL A   1      34.311  33.343  30.282  1.00  0.00    -0.376 OA
BRANCH  34  35
ATOM     35  C   UNL A   1      35.695  33.605  31.396  1.00  0.00     0.202 C 
BRANCH  35  36
ATOM     36  C   UNL A   1      37.543  32.378  31.208  1.00  0.00     0.261 C 
BRANCH  36  37
ATOM     37  O   UNL A   1      37.610  31.076  30.237  1.00  0.00    -0.460 OA
BRANCH  37  38
ATOM     38  C   UNL A   1      37.318  29.798  30.546  1.00  0.00     0.338 C 
ATOM     39  O   UNL A   1      36.687  29.387  31.500  1.00  0.00    -0.246 OA
BRANCH  38  40
ATOM     40  C   UNL A   1      37.941  28.945  29.503  1.00  0.00     0.060 A 
ATOM     41  C   UNL A   1      38.363  27.714  29.971  1.00  0.00     0.016 A 
ATOM     42  C   UNL A   1      38.546  29.531  28.383  1.00  0.00     0.016 A 
ATOM     43  C   UNL A   1      39.688  27.424  29.758  1.00  0.00     0.010 A 
ATOM     44  C   UNL A   1      39.833  29.171  28.089  1.00  0.00     0.010 A 
ATOM     45  C   UNL A   1      40.450  28.288  28.956  1.00  0.00    -0.014 A 
BRANCH  45  46
ATOM     46  C   UNL A   1      41.883  28.094  28.856  1.00  0.00     0.031 A 
ATOM     47  C   UNL A   1      42.106  26.870  28.060  1.00  0.00     0.074 A 
ATOM     48  C   UNL A   1      42.821  28.917  29.385  1.00  0.00     0.049 A 
ATOM     49  N   UNL A   1      42.288  25.688  28.543  1.00  0.00    -0.248 NA
ATOM     50  C   UNL A   1      41.730  26.873  26.635  1.00  0.00     0.031 C 
ATOM     51  C   UNL A   1      42.662  30.236  30.015  1.00  0.00     0.029 A 
ATOM     52  N   UNL A   1      44.184  28.740  29.433  1.00  0.00    -0.354 N 
ATOM     53  C   UNL A   1      42.356  24.852  27.437  1.00  0.00     0.074 A 
ATOM     54  C   UNL A   1      41.729  25.565  26.364  1.00  0.00     0.031 C 
ATOM     55  C   UNL A   1      43.872  30.842  30.139  1.00  0.00     0.029 A 
ATOM     56  C   UNL A   1      44.909  29.906  29.753  1.00  0.00     0.049 A 
ATOM     57  H   UNL A   1      44.617  27.872  29.258  1.00  0.00     0.167 HD
ATOM     58  C   UNL A   1      43.294  23.865  27.424  1.00  0.00     0.037 A 
ATOM     59  C   UNL A   1      46.267  30.039  29.694  1.00  0.00     0.037 A 
ATOM     60  C   UNL A   1      43.771  23.637  28.770  1.00  0.00     0.049 A 
ATOM     61  C   UNL A   1      46.810  28.662  29.763  1.00  0.00     0.074 A 
ATOM     62  C   UNL A   1      43.270  23.091  29.933  1.00  0.00     0.029 A 
ATOM     63  N   UNL A   1      44.756  24.519  29.130  1.00  0.00    -0.354 N 
ATOM     64  N   UNL A   1      46.696  27.904  30.820  1.00  0.00    -0.248 NA
ATOM     65  C   UNL A   1      47.024  27.968  28.504  1.00  0.00     0.031 C 
ATOM     66  C   UNL A   1      43.872  23.826  31.004  1.00  0.00     0.029 A 
ATOM     67  C   UNL A   1      44.803  24.720  30.477  1.00  0.00     0.049 A 
ATOM     68  H   UNL A   1      45.361  24.956  28.489  1.00  0.00     0.167 HD
ATOM     69  C   UNL A   1      46.366  26.659  30.311  1.00  0.00     0.074 A 
ATOM     70  C   UNL A   1      46.693  26.733  28.884  1.00  0.00     0.031 C 
ATOM     71  C   UNL A   1      45.569  25.813  31.031  1.00  0.00     0.037 A 
BRANCH  58  72
ATOM     72  C   UNL A   1      44.191  23.588  26.226  1.00  0.00     0.064 A 
ATOM     73  C   UNL A   1      44.321  22.255  25.785  1.00  0.00     0.173 A 
ATOM     74  C   UNL A   1      45.151  24.484  25.697  1.00  0.00     0.173 A 
ATOM     75  F   UNL A   1      43.489  21.305  26.238  1.00  0.00    -0.203 F 
ATOM     76  C   UNL A   1      45.359  21.848  24.941  1.00  0.00     0.198 A 
ATOM     77  C   UNL A   1      46.156  24.084  24.820  1.00  0.00     0.198 A 
ATOM     78  F   UNL A   1      45.241  25.762  26.077  1.00  0.00    -0.203 F 
ATOM     79  F   UNL A   1      45.504  20.550  24.641  1.00  0.00    -0.200 F 
ATOM     80  C   UNL A   1      46.278  22.762  24.460  1.00  0.00     0.200 A 
ATOM     81  F   UNL A   1      47.053  24.986  24.395  1.00  0.00    -0.200 F 
ATOM     82  F   UNL A   1      47.302  22.369  23.693  1.00  0.00    -0.200 F 
ENDBRANCH  58  72
BRANCH  59  83
ATOM     83  C   UNL A   1      47.094  31.156  29.146  1.00  0.00     0.064 A 
ATOM     84  C   UNL A   1      47.024  31.555  27.793  1.00  0.00     0.173 A 
ATOM     85  C   UNL A   1      47.716  32.068  30.019  1.00  0.00     0.173 A 
ATOM     86  F   UNL A   1      46.392  30.785  26.894  1.00  0.00    -0.203 F 
ATOM     87  C   UNL A   1      47.529  32.790  27.353  1.00  0.00     0.198 A 
ATOM     88  C   UNL A   1      48.210  33.301  29.581  1.00  0.00     0.198 A 
ATOM     89  F   UNL A   1      47.757  31.823  31.336  1.00  0.00    -0.203 F 
ATOM     90  F   UNL A   1      47.394  33.157  26.069  1.00  0.00    -0.200 F 
ATOM     91  C   UNL A   1      48.111  33.667  28.251  1.00  0.00     0.200 A 
ATOM     92  F   UNL A   1      48.724  34.161  30.472  1.00  0.00    -0.200 F 
ATOM     93  F   UNL A   1      48.534  34.875  27.851  1.00  0.00    -0.200 F 
ENDBRANCH  59  83
BRANCH  71  94
ATOM     94  C   UNL A   1      45.410  26.083  32.499  1.00  0.00     0.064 A 
ATOM     95  C   UNL A   1      44.341  26.782  33.088  1.00  0.00     0.173 A 
ATOM     96  C   UNL A   1      46.350  25.496  33.356  1.00  0.00     0.173 A 
ATOM     97  F   UNL A   1      43.363  27.306  32.336  1.00  0.00    -0.203 F 
ATOM     98  C   UNL A   1      44.244  26.906  34.476  1.00  0.00     0.198 A 
ATOM     99  C   UNL A   1      46.231  25.589  34.736  1.00  0.00     0.198 A 
ATOM    100  F   UNL A   1      47.364  24.782  32.844  1.00  0.00    -0.203 F 
ATOM    101  F   UNL A   1      43.223  27.581  35.024  1.00  0.00    -0.200 F 
ATOM    102  C   UNL A   1      45.185  26.303  35.298  1.00  0.00     0.200 A 
ATOM    103  F   UNL A   1      47.119  24.965  35.521  1.00  0.00    -0.200 F 
ATOM    104  F   UNL A   1      45.077  26.392  36.630  1.00  0.00    -0.200 F 
ENDBRANCH  71  94
ENDBRANCH  45  46
ENDBRANCH  38  40
ENDBRANCH  37  38
ENDBRANCH  36  37
ENDBRANCH  35  36
ENDBRANCH  34  35
ENDBRANCH  33  34
ENDBRANCH  32  33
ENDBRANCH   1  32
TORSDOF 22
ENDMDL
