MODEL 1
REMARK VINA RESULT:     -11.6      0.000      0.000
REMARK SMILES CNC(=O)c1ccc(-n2nc(C)c(C(=O)OCCOCCOCCOC(=O)c3ccc(-c4c5nc(c(-c6c(F)c(F)c(F)c(F)c6F)c6ccc([nH]6)c(-c6c(F)c(F)c(F)c(F)c6F)c6nc(c(-c7c(F)c(F)c(F)c(F)c7F)c7ccc4[nH]7)C=C6)C=C5)cc3)c2C)nn1
REMARK SMILES IDX 20 1 19 2 18 3 17 4 16 5 14 6 15 7 13 8 9 9 10 10 91 11
REMARK SMILES IDX 11 12 92 13 12 14 8 15 5 16 6 17 94 18 7 19 93 20 3 21 1 22
REMARK SMILES IDX 2 23 4 25 21 26 22 27 23 28 24 29 25 30 26 31 27 32 28 33
REMARK SMILES IDX 29 34 90 35 30 36 89 37 31 38 32 39 33 40 83 41 34 42 88 43
REMARK SMILES IDX 82 44 84 45 35 46 87 47 81 48 80 49 36 51 68 52 48 53 67 54
REMARK SMILES IDX 49 55 52 56 66 57 85 58 50 59 51 60 65 62 86 63 53 64 37 65
REMARK SMILES IDX 38 66 46 67 39 68 40 69 44 70 47 71 41 72 42 73 45 74 43 75
REMARK SMILES IDX 69 76 70 77 78 78 71 79 72 80 76 81 79 82 73 83 74 84 77 85
REMARK SMILES IDX 75 86 54 87 55 88 63 89 56 90 57 91 61 92 64 93 58 94 59 95
REMARK SMILES IDX 62 96 60 97
REMARK H PARENT 2 24 84 50 52 61
REMARK Flexibility Score: inf
ROOT
ATOM      1  C   UNL A   1      39.154  22.395  26.100  1.00  0.00     0.188 C 
ENDROOT
BRANCH   1   2
ATOM      2  O   UNL A   1      38.172  21.839  25.234  1.00  0.00    -0.376 OA
BRANCH   2   3
ATOM      3  C   UNL A   1      37.045  22.619  24.838  1.00  0.00     0.202 C 
BRANCH   3   4
ATOM      4  C   UNL A   1      36.490  22.513  23.405  1.00  0.00     0.261 C 
BRANCH   4   5
ATOM      5  O   UNL A   1      35.682  23.627  22.996  1.00  0.00    -0.460 OA
BRANCH   5   6
ATOM      6  C   UNL A   1      34.335  23.502  23.155  1.00  0.00     0.341 C 
ATOM      7  O   UNL A   1      33.731  22.433  23.157  1.00  0.00    -0.246 OA
BRANCH   6   8
ATOM      8  C   UNL A   1      33.683  24.765  23.463  1.00  0.00     0.104 A 
ATOM      9  N   UNL A   1      32.507  26.648  23.408  1.00  0.00    -0.217 N 
ATOM     10  N   UNL A   1      33.116  26.657  24.618  1.00  0.00    -0.171 NA
ATOM     11  C   UNL A   1      33.001  25.622  22.608  1.00  0.00     0.058 A 
ATOM     12  C   UNL A   1      33.764  25.489  24.686  1.00  0.00     0.075 A 
ATOM     13  C   UNL A   1      32.877  25.583  21.122  1.00  0.00     0.068 C 
ATOM     14  C   UNL A   1      34.550  25.162  25.905  1.00  0.00     0.070 C 
BRANCH   9  15
ATOM     15  C   UNL A   1      31.479  27.585  23.102  1.00  0.00     0.175 A 
ATOM     16  C   UNL A   1      29.515  29.324  22.389  1.00  0.00     0.150 A 
ATOM     17  C   UNL A   1      29.147  28.121  22.968  1.00  0.00     0.040 A 
ATOM     18  N   UNL A   1      30.809  29.665  22.199  1.00  0.00    -0.143 NA
ATOM     19  C   UNL A   1      30.152  27.240  23.343  1.00  0.00     0.053 A 
ATOM     20  N   UNL A   1      31.805  28.795  22.590  1.00  0.00    -0.130 NA
BRANCH  16  21
ATOM     21  C   UNL A   1      28.481  30.262  21.890  1.00  0.00     0.271 C 
ATOM     22  C   UNL A   1      28.797  31.909  23.803  1.00  0.00     0.143 C 
ATOM     23  N   UNL A   1      28.135  31.365  22.640  1.00  0.00    -0.354 N 
ATOM     24  H   UNL A   1      27.331  31.847  22.343  1.00  0.00     0.163 HD
ATOM     25  O   UNL A   1      27.889  30.035  20.838  1.00  0.00    -0.267 OA
ENDBRANCH  16  21
ENDBRANCH   9  15
ENDBRANCH   6   8
ENDBRANCH   5   6
ENDBRANCH   4   5
ENDBRANCH   3   4
ENDBRANCH   2   3
ENDBRANCH   1   2
BRANCH   1  26
ATOM     26  C   UNL A   1      40.142  21.472  26.843  1.00  0.00     0.188 C 
BRANCH  26  27
ATOM     27  O   UNL A   1      41.110  20.888  25.998  1.00  0.00    -0.376 OA
BRANCH  27  28
ATOM     28  C   UNL A   1      41.834  19.750  26.434  1.00  0.00     0.202 C 
BRANCH  28  29
ATOM     29  C   UNL A   1      42.965  19.137  25.607  1.00  0.00     0.261 C 
BRANCH  29  30
ATOM     30  O   UNL A   1      44.224  19.785  25.662  1.00  0.00    -0.460 OA
BRANCH  30  31
ATOM     31  C   UNL A   1      44.565  20.441  24.536  1.00  0.00     0.338 C 
ATOM     32  O   UNL A   1      44.764  19.954  23.436  1.00  0.00    -0.246 OA
BRANCH  31  33
ATOM     33  C   UNL A   1      44.784  21.852  24.863  1.00  0.00     0.060 A 
ATOM     34  C   UNL A   1      45.549  22.128  25.996  1.00  0.00     0.016 A 
ATOM     35  C   UNL A   1      44.004  22.836  24.232  1.00  0.00     0.016 A 
ATOM     36  C   UNL A   1      45.370  23.343  26.619  1.00  0.00     0.010 A 
ATOM     37  C   UNL A   1      43.817  24.046  24.864  1.00  0.00     0.010 A 
ATOM     38  C   UNL A   1      44.438  24.248  26.091  1.00  0.00    -0.014 A 
BRANCH  38  39
ATOM     39  C   UNL A   1      44.145  25.419  26.885  1.00  0.00     0.031 A 
ATOM     40  C   UNL A   1      45.185  26.459  26.847  1.00  0.00     0.074 A 
ATOM     41  C   UNL A   1      43.018  25.556  27.604  1.00  0.00     0.049 A 
ATOM     42  N   UNL A   1      45.962  26.821  27.812  1.00  0.00    -0.248 NA
ATOM     43  C   UNL A   1      45.465  27.101  25.558  1.00  0.00     0.031 C 
ATOM     44  C   UNL A   1      41.797  24.753  27.536  1.00  0.00     0.029 A 
ATOM     45  N   UNL A   1      42.712  26.527  28.509  1.00  0.00    -0.354 N 
ATOM     46  C   UNL A   1      46.725  27.861  27.304  1.00  0.00     0.074 A 
ATOM     47  C   UNL A   1      46.478  27.902  25.885  1.00  0.00     0.031 C 
ATOM     48  C   UNL A   1      40.815  25.390  28.216  1.00  0.00     0.029 A 
ATOM     49  C   UNL A   1      41.376  26.565  28.866  1.00  0.00     0.049 A 
ATOM     50  H   UNL A   1      43.383  27.147  28.876  1.00  0.00     0.167 HD
ATOM     51  C   UNL A   1      47.317  28.756  28.136  1.00  0.00     0.037 A 
ATOM     52  C   UNL A   1      40.770  27.537  29.589  1.00  0.00     0.037 A 
ATOM     53  C   UNL A   1      47.434  28.247  29.478  1.00  0.00     0.049 A 
ATOM     54  C   UNL A   1      41.817  28.248  30.364  1.00  0.00     0.074 A 
ATOM     55  C   UNL A   1      48.060  27.161  30.057  1.00  0.00     0.029 A 
ATOM     56  N   UNL A   1      46.559  28.720  30.421  1.00  0.00    -0.354 N 
ATOM     57  N   UNL A   1      42.452  27.741  31.382  1.00  0.00    -0.248 NA
ATOM     58  C   UNL A   1      42.429  29.434  29.780  1.00  0.00     0.031 C 
ATOM     59  C   UNL A   1      47.221  26.775  31.145  1.00  0.00     0.029 A 
ATOM     60  C   UNL A   1      46.143  27.659  31.182  1.00  0.00     0.049 A 
ATOM     61  H   UNL A   1      46.279  29.658  30.534  1.00  0.00     0.167 HD
ATOM     62  C   UNL A   1      43.734  28.257  31.289  1.00  0.00     0.074 A 
ATOM     63  C   UNL A   1      43.619  29.394  30.385  1.00  0.00     0.031 C 
ATOM     64  C   UNL A   1      44.810  27.538  31.724  1.00  0.00     0.037 A 
BRANCH  51  65
ATOM     65  C   UNL A   1      47.429  30.224  27.819  1.00  0.00     0.064 A 
ATOM     66  C   UNL A   1      46.268  30.940  27.475  1.00  0.00     0.173 A 
ATOM     67  C   UNL A   1      48.654  30.867  27.535  1.00  0.00     0.173 A 
ATOM     68  F   UNL A   1      45.052  30.408  27.678  1.00  0.00    -0.203 F 
ATOM     69  C   UNL A   1      46.332  32.173  26.822  1.00  0.00     0.198 A 
ATOM     70  C   UNL A   1      48.713  32.122  26.937  1.00  0.00     0.198 A 
ATOM     71  F   UNL A   1      49.835  30.262  27.711  1.00  0.00    -0.203 F 
ATOM     72  F   UNL A   1      45.205  32.755  26.391  1.00  0.00    -0.200 F 
ATOM     73  C   UNL A   1      47.554  32.760  26.549  1.00  0.00     0.200 A 
ATOM     74  F   UNL A   1      49.908  32.664  26.659  1.00  0.00    -0.200 F 
ATOM     75  F   UNL A   1      47.620  33.909  25.864  1.00  0.00    -0.200 F 
ENDBRANCH  51  65
BRANCH  52  76
ATOM     76  C   UNL A   1      39.387  28.048  29.472  1.00  0.00     0.064 A 
ATOM     77  C   UNL A   1      38.579  28.205  30.610  1.00  0.00     0.173 A 
ATOM     78  C   UNL A   1      38.925  28.653  28.286  1.00  0.00     0.173 A 
ATOM     79  F   UNL A   1      38.965  27.697  31.789  1.00  0.00    -0.203 F 
ATOM     80  C   UNL A   1      37.399  28.953  30.572  1.00  0.00     0.198 A 
ATOM     81  C   UNL A   1      37.740  29.387  28.247  1.00  0.00     0.198 A 
ATOM     82  F   UNL A   1      39.661  28.628  27.166  1.00  0.00    -0.203 F 
ATOM     83  F   UNL A   1      36.693  29.143  31.695  1.00  0.00    -0.200 F 
ATOM     84  C   UNL A   1      36.986  29.551  29.393  1.00  0.00     0.200 A 
ATOM     85  F   UNL A   1      37.370  29.988  27.107  1.00  0.00    -0.200 F 
ATOM     86  F   UNL A   1      35.889  30.320  29.371  1.00  0.00    -0.200 F 
ENDBRANCH  52  76
BRANCH  64  87
ATOM     87  C   UNL A   1      44.541  26.383  32.644  1.00  0.00     0.064 A 
ATOM     88  C   UNL A   1      44.297  25.068  32.212  1.00  0.00     0.173 A 
ATOM     89  C   UNL A   1      44.624  26.605  34.026  1.00  0.00     0.173 A 
ATOM     90  F   UNL A   1      44.309  24.755  30.909  1.00  0.00    -0.203 F 
ATOM     91  C   UNL A   1      44.078  24.039  33.127  1.00  0.00     0.198 A 
ATOM     92  C   UNL A   1      44.448  25.567  34.936  1.00  0.00     0.198 A 
ATOM     93  F   UNL A   1      44.912  27.829  34.495  1.00  0.00    -0.203 F 
ATOM     94  F   UNL A   1      43.812  22.798  32.693  1.00  0.00    -0.200 F 
ATOM     95  C   UNL A   1      44.157  24.289  34.487  1.00  0.00     0.200 A 
ATOM     96  F   UNL A   1      44.573  25.804  36.250  1.00  0.00    -0.200 F 
ATOM     97  F   UNL A   1      43.976  23.293  35.367  1.00  0.00    -0.200 F 
ENDBRANCH  64  87
ENDBRANCH  38  39
ENDBRANCH  31  33
ENDBRANCH  30  31
ENDBRANCH  29  30
ENDBRANCH  28  29
ENDBRANCH  27  28
ENDBRANCH  26  27
ENDBRANCH   1  26
TORSDOF 19
ENDMDL
MODEL 2
REMARK VINA RESULT:     -11.4      1.346      2.348
REMARK SMILES CNC(=O)c1ccc(-n2nc(C)c(C(=O)OCCOCCOCCOC(=O)c3ccc(-c4c5nc(c(-c6c(F)c(F)c(F)c(F)c6F)c6ccc([nH]6)c(-c6c(F)c(F)c(F)c(F)c6F)c6nc(c(-c7c(F)c(F)c(F)c(F)c7F)c7ccc4[nH]7)C=C6)C=C5)cc3)c2C)nn1
REMARK SMILES IDX 20 1 19 2 18 3 17 4 16 5 14 6 15 7 13 8 9 9 10 10 91 11
REMARK SMILES IDX 11 12 92 13 12 14 8 15 5 16 6 17 94 18 7 19 93 20 3 21 1 22
REMARK SMILES IDX 2 23 4 25 21 26 22 27 23 28 24 29 25 30 26 31 27 32 28 33
REMARK SMILES IDX 29 34 90 35 30 36 89 37 31 38 32 39 33 40 83 41 34 42 88 43
REMARK SMILES IDX 82 44 84 45 35 46 87 47 81 48 80 49 36 51 68 52 48 53 67 54
REMARK SMILES IDX 49 55 52 56 66 57 85 58 50 59 51 60 65 62 86 63 53 64 37 65
REMARK SMILES IDX 38 66 46 67 39 68 40 69 44 70 47 71 41 72 42 73 45 74 43 75
REMARK SMILES IDX 69 76 70 77 78 78 71 79 72 80 76 81 79 82 73 83 74 84 77 85
REMARK SMILES IDX 75 86 54 87 55 88 63 89 56 90 57 91 61 92 64 93 58 94 59 95
REMARK SMILES IDX 62 96 60 97
REMARK H PARENT 2 24 84 50 52 61
REMARK Flexibility Score: inf
ROOT
ATOM      1  C   UNL A   1      39.510  21.524  26.122  1.00  0.00     0.188 C 
ENDROOT
BRANCH   1   2
ATOM      2  O   UNL A   1      38.225  22.010  25.750  1.00  0.00    -0.376 OA
BRANCH   2   3
ATOM      3  C   UNL A   1      37.481  21.351  24.726  1.00  0.00     0.202 C 
BRANCH   3   4
ATOM      4  C   UNL A   1      36.213  20.551  25.077  1.00  0.00     0.261 C 
BRANCH   4   5
ATOM      5  O   UNL A   1      35.100  21.353  25.498  1.00  0.00    -0.460 OA
BRANCH   5   6
ATOM      6  C   UNL A   1      33.858  20.911  25.158  1.00  0.00     0.341 C 
ATOM      7  O   UNL A   1      33.430  19.786  25.400  1.00  0.00    -0.246 OA
BRANCH   6   8
ATOM      8  C   UNL A   1      33.022  21.957  24.591  1.00  0.00     0.104 A 
ATOM      9  N   UNL A   1      31.905  23.832  24.180  1.00  0.00    -0.217 N 
ATOM     10  N   UNL A   1      31.532  22.985  23.191  1.00  0.00    -0.171 NA
ATOM     11  C   UNL A   1      32.639  23.167  25.158  1.00  0.00     0.058 A 
ATOM     12  C   UNL A   1      32.260  21.881  23.391  1.00  0.00     0.075 A 
ATOM     13  C   UNL A   1      32.832  23.669  26.548  1.00  0.00     0.068 C 
ATOM     14  C   UNL A   1      32.102  20.727  22.466  1.00  0.00     0.070 C 
BRANCH   9  15
ATOM     15  C   UNL A   1      31.572  25.216  24.120  1.00  0.00     0.175 A 
ATOM     16  C   UNL A   1      30.922  27.843  23.869  1.00  0.00     0.150 A 
ATOM     17  C   UNL A   1      29.916  26.947  24.187  1.00  0.00     0.040 A 
ATOM     18  N   UNL A   1      32.207  27.457  23.711  1.00  0.00    -0.143 NA
ATOM     19  C   UNL A   1      30.253  25.607  24.328  1.00  0.00     0.053 A 
ATOM     20  N   UNL A   1      32.541  26.128  23.869  1.00  0.00    -0.130 NA
BRANCH  16  21
ATOM     21  C   UNL A   1      30.602  29.270  23.620  1.00  0.00     0.271 C 
ATOM     22  C   UNL A   1      31.762  30.082  25.735  1.00  0.00     0.143 C 
ATOM     23  N   UNL A   1      30.926  30.220  24.564  1.00  0.00    -0.354 N 
ATOM     24  H   UNL A   1      30.537  31.112  24.421  1.00  0.00     0.163 HD
ATOM     25  O   UNL A   1      30.001  29.606  22.603  1.00  0.00    -0.267 OA
ENDBRANCH  16  21
ENDBRANCH   9  15
ENDBRANCH   6   8
ENDBRANCH   5   6
ENDBRANCH   4   5
ENDBRANCH   3   4
ENDBRANCH   2   3
ENDBRANCH   1   2
BRANCH   1  26
ATOM     26  C   UNL A   1      39.817  20.013  26.046  1.00  0.00     0.188 C 
BRANCH  26  27
ATOM     27  O   UNL A   1      40.985  19.641  26.744  1.00  0.00    -0.376 OA
BRANCH  27  28
ATOM     28  C   UNL A   1      42.256  20.016  26.243  1.00  0.00     0.202 C 
BRANCH  28  29
ATOM     29  C   UNL A   1      43.299  18.983  25.810  1.00  0.00     0.261 C 
BRANCH  29  30
ATOM     30  O   UNL A   1      44.593  19.469  25.501  1.00  0.00    -0.460 OA
BRANCH  30  31
ATOM     31  C   UNL A   1      44.668  20.169  24.353  1.00  0.00     0.338 C 
ATOM     32  O   UNL A   1      44.605  19.727  23.218  1.00  0.00    -0.246 OA
BRANCH  31  33
ATOM     33  C   UNL A   1      44.964  21.568  24.675  1.00  0.00     0.060 A 
ATOM     34  C   UNL A   1      45.626  21.814  25.877  1.00  0.00     0.016 A 
ATOM     35  C   UNL A   1      44.336  22.592  23.946  1.00  0.00     0.016 A 
ATOM     36  C   UNL A   1      45.482  23.056  26.454  1.00  0.00     0.010 A 
ATOM     37  C   UNL A   1      44.181  23.829  24.532  1.00  0.00     0.010 A 
ATOM     38  C   UNL A   1      44.684  24.015  25.814  1.00  0.00    -0.014 A 
BRANCH  38  39
ATOM     39  C   UNL A   1      44.405  25.226  26.551  1.00  0.00     0.031 A 
ATOM     40  C   UNL A   1      45.415  26.286  26.392  1.00  0.00     0.074 A 
ATOM     41  C   UNL A   1      43.315  25.383  27.321  1.00  0.00     0.049 A 
ATOM     42  N   UNL A   1      46.233  26.723  27.289  1.00  0.00    -0.248 NA
ATOM     43  C   UNL A   1      45.609  26.852  25.053  1.00  0.00     0.031 C 
ATOM     44  C   UNL A   1      42.113  24.551  27.370  1.00  0.00     0.029 A 
ATOM     45  N   UNL A   1      43.034  26.401  28.181  1.00  0.00    -0.354 N 
ATOM     46  C   UNL A   1      46.941  27.746  26.678  1.00  0.00     0.074 A 
ATOM     47  C   UNL A   1      46.617  27.694  25.274  1.00  0.00     0.031 C 
ATOM     48  C   UNL A   1      41.154  25.207  28.062  1.00  0.00     0.029 A 
ATOM     49  C   UNL A   1      41.718  26.432  28.608  1.00  0.00     0.049 A 
ATOM     50  H   UNL A   1      43.707  27.058  28.472  1.00  0.00     0.167 HD
ATOM     51  C   UNL A   1      47.554  28.704  27.419  1.00  0.00     0.037 A 
ATOM     52  C   UNL A   1      41.128  27.433  29.303  1.00  0.00     0.037 A 
ATOM     53  C   UNL A   1      47.755  28.282  28.781  1.00  0.00     0.049 A 
ATOM     54  C   UNL A   1      42.197  28.214  29.974  1.00  0.00     0.074 A 
ATOM     55  C   UNL A   1      48.439  27.248  29.390  1.00  0.00     0.029 A 
ATOM     56  N   UNL A   1      46.921  28.794  29.741  1.00  0.00    -0.354 N 
ATOM     57  N   UNL A   1      42.897  27.785  30.985  1.00  0.00    -0.248 NA
ATOM     58  C   UNL A   1      42.746  29.375  29.287  1.00  0.00     0.031 C 
ATOM     59  C   UNL A   1      47.670  26.912  30.544  1.00  0.00     0.029 A 
ATOM     60  C   UNL A   1      46.573  27.773  30.586  1.00  0.00     0.049 A 
ATOM     61  H   UNL A   1      46.624  29.730  29.812  1.00  0.00     0.167 HD
ATOM     62  C   UNL A   1      44.159  28.323  30.790  1.00  0.00     0.074 A 
ATOM     63  C   UNL A   1      43.967  29.398  29.826  1.00  0.00     0.031 C 
ATOM     64  C   UNL A   1      45.275  27.656  31.208  1.00  0.00     0.037 A 
BRANCH  51  65
ATOM     65  C   UNL A   1      47.611  30.152  27.008  1.00  0.00     0.064 A 
ATOM     66  C   UNL A   1      48.830  30.846  27.119  1.00  0.00     0.173 A 
ATOM     67  C   UNL A   1      46.463  30.952  26.817  1.00  0.00     0.173 A 
ATOM     68  F   UNL A   1      49.978  30.182  27.329  1.00  0.00    -0.203 F 
ATOM     69  C   UNL A   1      48.883  32.242  27.119  1.00  0.00     0.198 A 
ATOM     70  C   UNL A   1      46.527  32.341  26.759  1.00  0.00     0.198 A 
ATOM     71  F   UNL A   1      45.228  30.436  26.802  1.00  0.00    -0.203 F 
ATOM     72  F   UNL A   1      50.044  32.863  27.363  1.00  0.00    -0.200 F 
ATOM     73  C   UNL A   1      47.731  32.987  26.944  1.00  0.00     0.200 A 
ATOM     74  F   UNL A   1      45.397  33.047  26.613  1.00  0.00    -0.200 F 
ATOM     75  F   UNL A   1      47.769  34.324  27.010  1.00  0.00    -0.200 F 
ENDBRANCH  51  65
BRANCH  52  76
ATOM     76  C   UNL A   1      39.727  27.905  29.232  1.00  0.00     0.064 A 
ATOM     77  C   UNL A   1      38.932  27.974  30.387  1.00  0.00     0.173 A 
ATOM     78  C   UNL A   1      39.230  28.559  28.087  1.00  0.00     0.173 A 
ATOM     79  F   UNL A   1      39.350  27.415  31.531  1.00  0.00    -0.203 F 
ATOM     80  C   UNL A   1      37.728  28.685  30.405  1.00  0.00     0.198 A 
ATOM     81  C   UNL A   1      38.022  29.255  28.103  1.00  0.00     0.198 A 
ATOM     82  F   UNL A   1      39.950  28.619  26.958  1.00  0.00    -0.203 F 
ATOM     83  F   UNL A   1      37.033  28.790  31.545  1.00  0.00    -0.200 F 
ATOM     84  C   UNL A   1      37.280  29.333  29.266  1.00  0.00     0.200 A 
ATOM     85  F   UNL A   1      37.617  29.905  27.003  1.00  0.00    -0.200 F 
ATOM     86  F   UNL A   1      36.159  30.066  29.300  1.00  0.00    -0.200 F 
ENDBRANCH  52  76
BRANCH  64  87
ATOM     87  C   UNL A   1      45.085  26.554  32.209  1.00  0.00     0.064 A 
ATOM     88  C   UNL A   1      45.083  26.743  33.602  1.00  0.00     0.173 A 
ATOM     89  C   UNL A   1      44.805  25.266  31.731  1.00  0.00     0.173 A 
ATOM     90  F   UNL A   1      45.236  27.964  34.135  1.00  0.00    -0.203 F 
ATOM     91  C   UNL A   1      44.878  25.674  34.472  1.00  0.00     0.198 A 
ATOM     92  C   UNL A   1      44.558  24.210  32.602  1.00  0.00     0.198 A 
ATOM     93  F   UNL A   1      44.737  25.039  30.410  1.00  0.00    -0.203 F 
ATOM     94  F   UNL A   1      44.914  25.870  35.799  1.00  0.00    -0.200 F 
ATOM     95  C   UNL A   1      44.612  24.410  33.972  1.00  0.00     0.200 A 
ATOM     96  F   UNL A   1      44.253  22.999  32.113  1.00  0.00    -0.200 F 
ATOM     97  F   UNL A   1      44.385  23.387  34.809  1.00  0.00    -0.200 F 
ENDBRANCH  64  87
ENDBRANCH  38  39
ENDBRANCH  31  33
ENDBRANCH  30  31
ENDBRANCH  29  30
ENDBRANCH  28  29
ENDBRANCH  27  28
ENDBRANCH  26  27
ENDBRANCH   1  26
TORSDOF 19
ENDMDL
MODEL 3
REMARK VINA RESULT:     -11.1      4.955      8.699
REMARK SMILES CNC(=O)c1ccc(-n2nc(C)c(C(=O)OCCOCCOCCOC(=O)c3ccc(-c4c5nc(c(-c6c(F)c(F)c(F)c(F)c6F)c6ccc([nH]6)c(-c6c(F)c(F)c(F)c(F)c6F)c6nc(c(-c7c(F)c(F)c(F)c(F)c7F)c7ccc4[nH]7)C=C6)C=C5)cc3)c2C)nn1
REMARK SMILES IDX 20 1 19 2 18 3 17 4 16 5 14 6 15 7 13 8 9 9 10 10 91 11
REMARK SMILES IDX 11 12 92 13 12 14 8 15 5 16 6 17 94 18 7 19 93 20 3 21 1 22
REMARK SMILES IDX 2 23 4 25 21 26 22 27 23 28 24 29 25 30 26 31 27 32 28 33
REMARK SMILES IDX 29 34 90 35 30 36 89 37 31 38 32 39 33 40 83 41 34 42 88 43
REMARK SMILES IDX 82 44 84 45 35 46 87 47 81 48 80 49 36 51 68 52 48 53 67 54
REMARK SMILES IDX 49 55 52 56 66 57 85 58 50 59 51 60 65 62 86 63 53 64 37 65
REMARK SMILES IDX 38 66 46 67 39 68 40 69 44 70 47 71 41 72 42 73 45 74 43 75
REMARK SMILES IDX 69 76 70 77 78 78 71 79 72 80 76 81 79 82 73 83 74 84 77 85
REMARK SMILES IDX 75 86 54 87 55 88 63 89 56 90 57 91 61 92 64 93 58 94 59 95
REMARK SMILES IDX 62 96 60 97
REMARK H PARENT 2 24 84 50 52 61
REMARK Flexibility Score: inf
ROOT
ATOM      1  C   UNL A   1      44.005  19.583  25.211  1.00  0.00     0.188 C 
ENDROOT
BRANCH   1   2
ATOM      2  O   UNL A   1      44.027  21.000  25.345  1.00  0.00    -0.376 OA
BRANCH   2   3
ATOM      3  C   UNL A   1      45.085  21.756  24.759  1.00  0.00     0.202 C 
BRANCH   3   4
ATOM      4  C   UNL A   1      44.987  23.290  24.666  1.00  0.00     0.261 C 
BRANCH   4   5
ATOM      5  O   UNL A   1      44.700  23.945  25.911  1.00  0.00    -0.460 OA
BRANCH   5   6
ATOM      6  C   UNL A   1      45.728  24.061  26.796  1.00  0.00     0.341 C 
ATOM      7  O   UNL A   1      46.892  23.753  26.556  1.00  0.00    -0.246 OA
BRANCH   6   8
ATOM      8  C   UNL A   1      45.337  24.720  28.032  1.00  0.00     0.104 A 
ATOM      9  N   UNL A   1      44.648  25.203  30.088  1.00  0.00    -0.217 N 
ATOM     10  N   UNL A   1      44.818  26.406  29.490  1.00  0.00    -0.171 NA
ATOM     11  C   UNL A   1      44.750  24.167  29.164  1.00  0.00     0.058 A 
ATOM     12  C   UNL A   1      45.306  26.121  28.277  1.00  0.00     0.075 A 
ATOM     13  C   UNL A   1      44.208  22.794  29.381  1.00  0.00     0.068 C 
ATOM     14  C   UNL A   1      45.617  27.232  27.338  1.00  0.00     0.070 C 
BRANCH   9  15
ATOM     15  C   UNL A   1      44.435  25.110  31.493  1.00  0.00     0.175 A 
ATOM     16  C   UNL A   1      44.164  24.936  34.192  1.00  0.00     0.150 A 
ATOM     17  C   UNL A   1      44.114  26.191  33.608  1.00  0.00     0.040 A 
ATOM     18  N   UNL A   1      44.311  23.808  33.463  1.00  0.00    -0.143 NA
ATOM     19  C   UNL A   1      44.240  26.276  32.229  1.00  0.00     0.053 A 
ATOM     20  N   UNL A   1      44.417  23.895  32.090  1.00  0.00    -0.130 NA
BRANCH  16  21
ATOM     21  C   UNL A   1      44.123  24.795  35.668  1.00  0.00     0.271 C 
ATOM     22  C   UNL A   1      41.629  24.297  35.730  1.00  0.00     0.143 C 
ATOM     23  N   UNL A   1      42.917  24.607  36.307  1.00  0.00    -0.354 N 
ATOM     24  H   UNL A   1      42.936  24.694  37.286  1.00  0.00     0.163 HD
ATOM     25  O   UNL A   1      45.151  24.899  36.332  1.00  0.00    -0.267 OA
ENDBRANCH  16  21
ENDBRANCH   9  15
ENDBRANCH   6   8
ENDBRANCH   5   6
ENDBRANCH   4   5
ENDBRANCH   3   4
ENDBRANCH   2   3
ENDBRANCH   1   2
BRANCH   1  26
ATOM     26  C   UNL A   1      42.869  18.764  25.859  1.00  0.00     0.188 C 
BRANCH  26  27
ATOM     27  O   UNL A   1      42.544  19.187  27.166  1.00  0.00    -0.376 OA
BRANCH  27  28
ATOM     28  C   UNL A   1      41.279  19.770  27.424  1.00  0.00     0.202 C 
BRANCH  28  29
ATOM     29  C   UNL A   1      40.644  20.791  26.479  1.00  0.00     0.261 C 
BRANCH  29  30
ATOM     30  O   UNL A   1      41.118  22.123  26.562  1.00  0.00    -0.460 OA
BRANCH  30  31
ATOM     31  C   UNL A   1      40.152  23.054  26.682  1.00  0.00     0.338 C 
ATOM     32  O   UNL A   1      38.953  22.892  26.524  1.00  0.00    -0.246 OA
BRANCH  31  33
ATOM     33  C   UNL A   1      40.780  24.356  26.924  1.00  0.00     0.060 A 
ATOM     34  C   UNL A   1      41.242  24.605  28.216  1.00  0.00     0.016 A 
ATOM     35  C   UNL A   1      40.635  25.381  25.974  1.00  0.00     0.016 A 
ATOM     36  C   UNL A   1      41.363  25.916  28.620  1.00  0.00     0.010 A 
ATOM     37  C   UNL A   1      40.743  26.691  26.384  1.00  0.00     0.010 A 
ATOM     38  C   UNL A   1      41.024  26.938  27.722  1.00  0.00    -0.014 A 
BRANCH  38  39
ATOM     39  C   UNL A   1      40.979  28.281  28.253  1.00  0.00     0.031 A 
ATOM     40  C   UNL A   1      42.115  29.132  27.862  1.00  0.00     0.074 A 
ATOM     41  C   UNL A   1      39.985  28.728  29.040  1.00  0.00     0.049 A 
ATOM     42  N   UNL A   1      43.054  29.577  28.626  1.00  0.00    -0.248 NA
ATOM     43  C   UNL A   1      42.284  29.436  26.437  1.00  0.00     0.031 C 
ATOM     44  C   UNL A   1      38.683  28.111  29.293  1.00  0.00     0.029 A 
ATOM     45  N   UNL A   1      39.921  29.903  29.725  1.00  0.00    -0.354 N 
ATOM     46  C   UNL A   1      43.853  30.365  27.812  1.00  0.00     0.074 A 
ATOM     47  C   UNL A   1      43.418  30.137  26.457  1.00  0.00     0.031 C 
ATOM     48  C   UNL A   1      37.885  29.011  29.911  1.00  0.00     0.029 A 
ATOM     49  C   UNL A   1      38.660  30.206  30.208  1.00  0.00     0.049 A 
ATOM     50  H   UNL A   1      40.702  30.487  29.863  1.00  0.00     0.167 HD
ATOM     51  C   UNL A   1      44.652  31.325  28.344  1.00  0.00     0.037 A 
ATOM     52  C   UNL A   1      38.275  31.386  30.750  1.00  0.00     0.037 A 
ATOM     53  C   UNL A   1      44.895  31.104  29.747  1.00  0.00     0.049 A 
ATOM     54  C   UNL A   1      39.493  32.091  31.219  1.00  0.00     0.074 A 
ATOM     55  C   UNL A   1      45.468  30.090  30.488  1.00  0.00     0.029 A 
ATOM     56  N   UNL A   1      44.220  31.887  30.646  1.00  0.00    -0.354 N 
ATOM     57  N   UNL A   1      40.201  31.729  32.251  1.00  0.00    -0.248 NA
ATOM     58  C   UNL A   1      40.149  33.026  30.315  1.00  0.00     0.031 C 
ATOM     59  C   UNL A   1      44.750  30.068  31.721  1.00  0.00     0.029 A 
ATOM     60  C   UNL A   1      43.795  31.084  31.671  1.00  0.00     0.049 A 
ATOM     61  H   UNL A   1      44.066  32.857  30.569  1.00  0.00     0.167 HD
ATOM     62  C   UNL A   1      41.508  32.026  31.901  1.00  0.00     0.074 A 
ATOM     63  C   UNL A   1      41.398  32.948  30.778  1.00  0.00     0.031 C 
ATOM     64  C   UNL A   1      42.545  31.272  32.370  1.00  0.00     0.037 A 
BRANCH  51  65
ATOM     65  C   UNL A   1      44.885  32.660  27.688  1.00  0.00     0.064 A 
ATOM     66  C   UNL A   1      46.160  32.955  27.171  1.00  0.00     0.173 A 
ATOM     67  C   UNL A   1      44.010  33.759  27.830  1.00  0.00     0.173 A 
ATOM     68  F   UNL A   1      47.078  31.986  27.022  1.00  0.00    -0.203 F 
ATOM     69  C   UNL A   1      46.555  34.266  26.895  1.00  0.00     0.198 A 
ATOM     70  C   UNL A   1      44.388  35.057  27.498  1.00  0.00     0.198 A 
ATOM     71  F   UNL A   1      42.807  33.644  28.405  1.00  0.00    -0.203 F 
ATOM     72  F   UNL A   1      47.821  34.516  26.535  1.00  0.00    -0.200 F 
ATOM     73  C   UNL A   1      45.670  35.315  27.063  1.00  0.00     0.200 A 
ATOM     74  F   UNL A   1      43.524  36.064  27.690  1.00  0.00    -0.200 F 
ATOM     75  F   UNL A   1      46.068  36.579  26.863  1.00  0.00    -0.200 F 
ENDBRANCH  51  65
BRANCH  52  76
ATOM     76  C   UNL A   1      36.956  32.051  30.671  1.00  0.00     0.064 A 
ATOM     77  C   UNL A   1      36.060  32.003  31.751  1.00  0.00     0.173 A 
ATOM     78  C   UNL A   1      36.660  32.978  29.651  1.00  0.00     0.173 A 
ATOM     79  F   UNL A   1      36.289  31.179  32.783  1.00  0.00    -0.203 F 
ATOM     80  C   UNL A   1      34.954  32.855  31.823  1.00  0.00     0.198 A 
ATOM     81  C   UNL A   1      35.548  33.817  29.718  1.00  0.00     0.198 A 
ATOM     82  F   UNL A   1      37.494  33.157  28.617  1.00  0.00    -0.203 F 
ATOM     83  F   UNL A   1      34.163  32.831  32.904  1.00  0.00    -0.200 F 
ATOM     84  C   UNL A   1      34.705  33.768  30.812  1.00  0.00     0.200 A 
ATOM     85  F   UNL A   1      35.339  34.719  28.748  1.00  0.00    -0.200 F 
ATOM     86  F   UNL A   1      33.682  34.628  30.910  1.00  0.00    -0.200 F 
ENDBRANCH  52  76
BRANCH  64  87
ATOM     87  C   UNL A   1      42.277  30.391  33.555  1.00  0.00     0.064 A 
ATOM     88  C   UNL A   1      42.436  30.793  34.892  1.00  0.00     0.173 A 
ATOM     89  C   UNL A   1      41.751  29.112  33.323  1.00  0.00     0.173 A 
ATOM     90  F   UNL A   1      42.832  32.037  35.197  1.00  0.00    -0.203 F 
ATOM     91  C   UNL A   1      42.146  29.925  35.944  1.00  0.00     0.198 A 
ATOM     92  C   UNL A   1      41.421  28.264  34.375  1.00  0.00     0.198 A 
ATOM     93  F   UNL A   1      41.524  28.695  32.067  1.00  0.00    -0.203 F 
ATOM     94  F   UNL A   1      42.338  30.318  37.212  1.00  0.00    -0.200 F 
ATOM     95  C   UNL A   1      41.635  28.664  35.684  1.00  0.00     0.200 A 
ATOM     96  F   UNL A   1      40.882  27.063  34.121  1.00  0.00    -0.200 F 
ATOM     97  F   UNL A   1      41.328  27.840  36.697  1.00  0.00    -0.200 F 
ENDBRANCH  64  87
ENDBRANCH  38  39
ENDBRANCH  31  33
ENDBRANCH  30  31
ENDBRANCH  29  30
ENDBRANCH  28  29
ENDBRANCH  27  28
ENDBRANCH  26  27
ENDBRANCH   1  26
TORSDOF 19
ENDMDL
