MODEL 1
REMARK VINA RESULT:     -10.7      0.000      0.000
REMARK SMILES CC(C)(C)OC(=O)N1CCSC[C@@H]1CC(=O)OCCOCCOCCOC(=O)c1ccc(-c2c3nc(c(-c4c(F)c(F)c(F)c(F)c4F)c4ccc([nH]4)c(-c4c(F)c(F)c(F)c(F)c4F)c4nc(c(-c5c(F)c(F)c(F)c(F)c5F)c5ccc2[nH]5)C=C4)C=C3)cc1
REMARK SMILES IDX 21 1 20 2 19 3 18 4 17 5 15 6 16 7 14 8 13 9 8 10 9 11 10 12
REMARK SMILES IDX 12 13 11 14 6 15 7 16 5 17 2 18 1 19 3 20 4 21 22 22 23 23
REMARK SMILES IDX 24 24 25 25 26 26 27 27 28 28 29 29 30 30 91 31 31 32 90 33
REMARK SMILES IDX 32 34 33 35 34 36 84 37 35 38 89 39 83 40 85 41 36 42 88 43
REMARK SMILES IDX 82 44 81 45 37 47 69 48 49 49 68 50 50 51 53 52 67 53 86 54
REMARK SMILES IDX 51 55 52 56 66 58 87 59 54 60 38 61 39 62 47 63 40 64 41 65
REMARK SMILES IDX 45 66 48 67 42 68 43 69 46 70 44 71 70 72 71 73 79 74 72 75
REMARK SMILES IDX 73 76 77 77 80 78 74 79 75 80 78 81 76 82 55 83 56 84 64 85
REMARK SMILES IDX 57 86 58 87 62 88 65 89 59 90 60 91 63 92 61 93
REMARK H PARENT 85 46 53 57
REMARK Flexibility Score: inf
ROOT
ATOM      1  C   UNL A   1      29.857  27.679  23.530  1.00  0.00     0.188 C 
ENDROOT
BRANCH   1   2
ATOM      2  O   UNL A   1      30.809  26.673  23.215  1.00  0.00    -0.376 OA
BRANCH   2   3
ATOM      3  C   UNL A   1      31.481  26.010  24.286  1.00  0.00     0.202 C 
BRANCH   3   4
ATOM      4  C   UNL A   1      30.641  25.681  25.528  1.00  0.00     0.261 C 
BRANCH   4   5
ATOM      5  O   UNL A   1      31.460  25.334  26.663  1.00  0.00    -0.463 OA
BRANCH   5   6
ATOM      6  C   UNL A   1      31.640  24.008  26.879  1.00  0.00     0.307 C 
ATOM      7  O   UNL A   1      30.759  23.250  27.266  1.00  0.00    -0.252 OA
BRANCH   6   8
ATOM      8  C   UNL A   1      32.978  23.519  26.356  1.00  0.00     0.148 C 
BRANCH   8   9
ATOM      9  C   UNL A   1      33.019  22.662  25.070  1.00  0.00     0.109 C 
ATOM     10  N   UNL A   1      33.647  21.333  25.363  1.00  0.00    -0.303 N 
ATOM     11  C   UNL A   1      35.061  21.358  25.766  1.00  0.00     0.134 C 
ATOM     12  C   UNL A   1      35.956  21.900  24.648  1.00  0.00     0.091 C 
ATOM     13  C   UNL A   1      33.725  23.352  23.890  1.00  0.00     0.095 C 
ATOM     14  S   UNL A   1      35.515  23.603  24.153  1.00  0.00    -0.158 SA
BRANCH  10  15
ATOM     15  C   UNL A   1      32.996  20.136  25.063  1.00  0.00     0.410 C 
ATOM     16  O   UNL A   1      31.781  20.030  25.007  1.00  0.00    -0.224 OA
BRANCH  15  17
ATOM     17  O   UNL A   1      33.867  19.107  24.893  1.00  0.00    -0.444 OA
BRANCH  17  18
ATOM     18  C   UNL A   1      33.524  17.730  24.541  1.00  0.00     0.106 C 
ATOM     19  C   UNL A   1      34.862  16.970  24.615  1.00  0.00     0.056 C 
ATOM     20  C   UNL A   1      33.016  17.715  23.099  1.00  0.00     0.056 C 
ATOM     21  C   UNL A   1      32.521  17.005  25.441  1.00  0.00     0.056 C 
ENDBRANCH  17  18
ENDBRANCH  15  17
ENDBRANCH  10  15
ENDBRANCH   8   9
ENDBRANCH   6   8
ENDBRANCH   5   6
ENDBRANCH   4   5
ENDBRANCH   3   4
ENDBRANCH   2   3
ENDBRANCH   1   2
BRANCH   1  22
ATOM     22  C   UNL A   1      30.270  29.155  23.444  1.00  0.00     0.188 C 
BRANCH  22  23
ATOM     23  O   UNL A   1      31.536  29.464  23.993  1.00  0.00    -0.376 OA
BRANCH  23  24
ATOM     24  C   UNL A   1      31.525  29.648  25.403  1.00  0.00     0.202 C 
BRANCH  24  25
ATOM     25  C   UNL A   1      32.830  30.284  25.899  1.00  0.00     0.261 C 
BRANCH  25  26
ATOM     26  O   UNL A   1      32.776  30.714  27.276  1.00  0.00    -0.460 OA
BRANCH  26  27
ATOM     27  C   UNL A   1      33.500  31.811  27.587  1.00  0.00     0.338 C 
ATOM     28  O   UNL A   1      33.117  32.966  27.621  1.00  0.00    -0.246 OA
BRANCH  27  29
ATOM     29  C   UNL A   1      34.851  31.377  28.000  1.00  0.00     0.060 A 
ATOM     30  C   UNL A   1      35.056  30.071  28.471  1.00  0.00     0.016 A 
ATOM     31  C   UNL A   1      35.890  32.301  28.026  1.00  0.00     0.016 A 
ATOM     32  C   UNL A   1      36.278  29.699  29.023  1.00  0.00     0.010 A 
ATOM     33  C   UNL A   1      37.119  31.926  28.575  1.00  0.00     0.010 A 
ATOM     34  C   UNL A   1      37.306  30.637  29.111  1.00  0.00    -0.014 A 
BRANCH  34  35
ATOM     35  C   UNL A   1      38.529  30.341  29.890  1.00  0.00     0.031 A 
ATOM     36  C   UNL A   1      39.534  29.385  29.316  1.00  0.00     0.074 A 
ATOM     37  C   UNL A   1      38.737  30.903  31.092  1.00  0.00     0.049 A 
ATOM     38  N   UNL A   1      40.531  28.777  29.902  1.00  0.00    -0.248 NA
ATOM     39  C   UNL A   1      39.390  29.071  27.885  1.00  0.00     0.031 C 
ATOM     40  C   UNL A   1      37.895  31.926  31.706  1.00  0.00     0.029 A 
ATOM     41  N   UNL A   1      39.714  30.661  32.025  1.00  0.00    -0.354 N 
ATOM     42  C   UNL A   1      41.107  27.975  28.926  1.00  0.00     0.074 A 
ATOM     43  C   UNL A   1      40.352  28.178  27.707  1.00  0.00     0.031 C 
ATOM     44  C   UNL A   1      38.369  32.200  32.933  1.00  0.00     0.029 A 
ATOM     45  C   UNL A   1      39.503  31.321  33.210  1.00  0.00     0.049 A 
ATOM     46  H   UNL A   1      40.487  30.075  31.862  1.00  0.00     0.167 HD
ATOM     47  C   UNL A   1      42.162  27.136  29.049  1.00  0.00     0.037 A 
ATOM     48  C   UNL A   1      40.114  31.180  34.402  1.00  0.00     0.037 A 
ATOM     49  C   UNL A   1      42.912  26.958  30.264  1.00  0.00     0.049 A 
ATOM     50  C   UNL A   1      41.219  30.165  34.544  1.00  0.00     0.074 A 
ATOM     51  C   UNL A   1      43.998  26.132  30.498  1.00  0.00     0.029 A 
ATOM     52  N   UNL A   1      42.649  27.622  31.454  1.00  0.00    -0.354 N 
ATOM     53  N   UNL A   1      41.734  29.367  33.641  1.00  0.00    -0.248 NA
ATOM     54  C   UNL A   1      41.819  30.022  35.879  1.00  0.00     0.031 C 
ATOM     55  C   UNL A   1      44.363  26.265  31.842  1.00  0.00     0.029 A 
ATOM     56  C   UNL A   1      43.539  27.211  32.431  1.00  0.00     0.049 A 
ATOM     57  H   UNL A   1      41.936  28.288  31.583  1.00  0.00     0.167 HD
ATOM     58  C   UNL A   1      42.732  28.650  34.285  1.00  0.00     0.074 A 
ATOM     59  C   UNL A   1      42.756  29.111  35.658  1.00  0.00     0.031 C 
ATOM     60  C   UNL A   1      43.557  27.697  33.787  1.00  0.00     0.037 A 
BRANCH  47  61
ATOM     61  C   UNL A   1      42.536  26.309  27.855  1.00  0.00     0.064 A 
ATOM     62  C   UNL A   1      43.515  26.725  26.940  1.00  0.00     0.173 A 
ATOM     63  C   UNL A   1      41.929  25.060  27.646  1.00  0.00     0.173 A 
ATOM     64  F   UNL A   1      44.111  27.917  27.086  1.00  0.00    -0.203 F 
ATOM     65  C   UNL A   1      43.857  25.930  25.849  1.00  0.00     0.198 A 
ATOM     66  C   UNL A   1      42.293  24.257  26.569  1.00  0.00     0.198 A 
ATOM     67  F   UNL A   1      40.988  24.616  28.491  1.00  0.00    -0.203 F 
ATOM     68  F   UNL A   1      44.765  26.365  24.965  1.00  0.00    -0.200 F 
ATOM     69  C   UNL A   1      43.253  24.694  25.669  1.00  0.00     0.200 A 
ATOM     70  F   UNL A   1      41.716  23.059  26.403  1.00  0.00    -0.200 F 
ATOM     71  F   UNL A   1      43.591  23.927  24.623  1.00  0.00    -0.200 F 
ENDBRANCH  47  61
BRANCH  48  72
ATOM     72  C   UNL A   1      39.654  31.974  35.569  1.00  0.00     0.064 A 
ATOM     73  C   UNL A   1      38.616  31.514  36.390  1.00  0.00     0.173 A 
ATOM     74  C   UNL A   1      40.235  33.213  35.883  1.00  0.00     0.173 A 
ATOM     75  F   UNL A   1      38.011  30.350  36.114  1.00  0.00    -0.203 F 
ATOM     76  C   UNL A   1      38.170  32.268  37.474  1.00  0.00     0.198 A 
ATOM     77  C   UNL A   1      39.807  33.951  36.983  1.00  0.00     0.198 A 
ATOM     78  F   UNL A   1      41.228  33.700  35.124  1.00  0.00    -0.203 F 
ATOM     79  F   UNL A   1      37.146  31.825  38.218  1.00  0.00    -0.200 F 
ATOM     80  C   UNL A   1      38.770  33.482  37.773  1.00  0.00     0.200 A 
ATOM     81  F   UNL A   1      40.398  35.117  37.275  1.00  0.00    -0.200 F 
ATOM     82  F   UNL A   1      38.343  34.203  38.819  1.00  0.00    -0.200 F 
ENDBRANCH  48  72
BRANCH  60  83
ATOM     83  C   UNL A   1      44.592  27.126  34.711  1.00  0.00     0.064 A 
ATOM     84  C   UNL A   1      45.847  27.729  34.877  1.00  0.00     0.173 A 
ATOM     85  C   UNL A   1      44.300  25.990  35.482  1.00  0.00     0.173 A 
ATOM     86  F   UNL A   1      46.178  28.807  34.152  1.00  0.00    -0.203 F 
ATOM     87  C   UNL A   1      46.777  27.206  35.770  1.00  0.00     0.198 A 
ATOM     88  C   UNL A   1      45.222  25.486  36.393  1.00  0.00     0.198 A 
ATOM     89  F   UNL A   1      43.111  25.381  35.364  1.00  0.00    -0.203 F 
ATOM     90  F   UNL A   1      47.985  27.775  35.886  1.00  0.00    -0.200 F 
ATOM     91  C   UNL A   1      46.462  26.091  36.534  1.00  0.00     0.200 A 
ATOM     92  F   UNL A   1      44.910  24.417  37.139  1.00  0.00    -0.200 F 
ATOM     93  F   UNL A   1      47.356  25.596  37.400  1.00  0.00    -0.200 F 
ENDBRANCH  60  83
ENDBRANCH  34  35
ENDBRANCH  27  29
ENDBRANCH  26  27
ENDBRANCH  25  26
ENDBRANCH  24  25
ENDBRANCH  23  24
ENDBRANCH  22  23
ENDBRANCH   1  22
TORSDOF 21
ENDMDL
MODEL 2
REMARK VINA RESULT:     -10.7      3.737      9.096
REMARK SMILES CC(C)(C)OC(=O)N1CCSC[C@@H]1CC(=O)OCCOCCOCCOC(=O)c1ccc(-c2c3nc(c(-c4c(F)c(F)c(F)c(F)c4F)c4ccc([nH]4)c(-c4c(F)c(F)c(F)c(F)c4F)c4nc(c(-c5c(F)c(F)c(F)c(F)c5F)c5ccc2[nH]5)C=C4)C=C3)cc1
REMARK SMILES IDX 21 1 20 2 19 3 18 4 17 5 15 6 16 7 14 8 13 9 8 10 9 11 10 12
REMARK SMILES IDX 12 13 11 14 6 15 7 16 5 17 2 18 1 19 3 20 4 21 22 22 23 23
REMARK SMILES IDX 24 24 25 25 26 26 27 27 28 28 29 29 30 30 91 31 31 32 90 33
REMARK SMILES IDX 32 34 33 35 34 36 84 37 35 38 89 39 83 40 85 41 36 42 88 43
REMARK SMILES IDX 82 44 81 45 37 47 69 48 49 49 68 50 50 51 53 52 67 53 86 54
REMARK SMILES IDX 51 55 52 56 66 58 87 59 54 60 38 61 39 62 47 63 40 64 41 65
REMARK SMILES IDX 45 66 48 67 42 68 43 69 46 70 44 71 70 72 71 73 79 74 72 75
REMARK SMILES IDX 73 76 77 77 80 78 74 79 75 80 78 81 76 82 55 83 56 84 64 85
REMARK SMILES IDX 57 86 58 87 62 88 65 89 59 90 60 91 63 92 61 93
REMARK H PARENT 85 46 53 57
REMARK Flexibility Score: inf
ROOT
ATOM      1  C   UNL A   1      34.226  32.912  27.999  1.00  0.00     0.188 C 
ENDROOT
BRANCH   1   2
ATOM      2  O   UNL A   1      35.480  32.267  27.825  1.00  0.00    -0.376 OA
BRANCH   2   3
ATOM      3  C   UNL A   1      35.515  30.840  27.798  1.00  0.00     0.202 C 
BRANCH   3   4
ATOM      4  C   UNL A   1      34.243  30.128  27.319  1.00  0.00     0.261 C 
BRANCH   4   5
ATOM      5  O   UNL A   1      34.510  28.786  26.861  1.00  0.00    -0.463 OA
BRANCH   5   6
ATOM      6  C   UNL A   1      33.427  28.059  26.493  1.00  0.00     0.307 C 
ATOM      7  O   UNL A   1      32.395  27.986  27.149  1.00  0.00    -0.252 OA
BRANCH   6   8
ATOM      8  C   UNL A   1      33.537  27.549  25.068  1.00  0.00     0.148 C 
BRANCH   8   9
ATOM      9  C   UNL A   1      33.002  28.421  23.910  1.00  0.00     0.109 C 
ATOM     10  N   UNL A   1      31.509  28.317  23.840  1.00  0.00    -0.303 N 
ATOM     11  C   UNL A   1      30.965  26.993  23.510  1.00  0.00     0.134 C 
ATOM     12  C   UNL A   1      31.386  26.544  22.108  1.00  0.00     0.091 C 
ATOM     13  C   UNL A   1      33.637  28.093  22.546  1.00  0.00     0.095 C 
ATOM     14  S   UNL A   1      33.199  26.436  21.915  1.00  0.00    -0.158 SA
BRANCH  10  15
ATOM     15  C   UNL A   1      30.697  29.452  23.873  1.00  0.00     0.410 C 
ATOM     16  O   UNL A   1      30.646  30.212  24.828  1.00  0.00    -0.224 OA
BRANCH  15  17
ATOM     17  O   UNL A   1      29.944  29.576  22.749  1.00  0.00    -0.444 OA
BRANCH  17  18
ATOM     18  C   UNL A   1      28.541  29.981  22.686  1.00  0.00     0.106 C 
ATOM     19  C   UNL A   1      27.758  28.710  23.067  1.00  0.00     0.056 C 
ATOM     20  C   UNL A   1      28.214  30.358  21.241  1.00  0.00     0.056 C 
ATOM     21  C   UNL A   1      28.092  31.107  23.620  1.00  0.00     0.056 C 
ENDBRANCH  17  18
ENDBRANCH  15  17
ENDBRANCH  10  15
ENDBRANCH   8   9
ENDBRANCH   6   8
ENDBRANCH   5   6
ENDBRANCH   4   5
ENDBRANCH   3   4
ENDBRANCH   2   3
ENDBRANCH   1   2
BRANCH   1  22
ATOM     22  C   UNL A   1      34.032  33.866  29.186  1.00  0.00     0.188 C 
BRANCH  22  23
ATOM     23  O   UNL A   1      32.860  34.656  29.145  1.00  0.00    -0.376 OA
BRANCH  23  24
ATOM     24  C   UNL A   1      33.099  36.029  28.858  1.00  0.00     0.202 C 
BRANCH  24  25
ATOM     25  C   UNL A   1      33.072  36.884  30.132  1.00  0.00     0.261 C 
BRANCH  25  26
ATOM     26  O   UNL A   1      32.117  36.425  31.113  1.00  0.00    -0.460 OA
BRANCH  26  27
ATOM     27  C   UNL A   1      32.551  36.380  32.392  1.00  0.00     0.338 C 
ATOM     28  O   UNL A   1      32.091  36.968  33.352  1.00  0.00    -0.246 OA
BRANCH  27  29
ATOM     29  C   UNL A   1      33.644  35.387  32.477  1.00  0.00     0.060 A 
ATOM     30  C   UNL A   1      33.371  34.077  32.900  1.00  0.00     0.016 A 
ATOM     31  C   UNL A   1      34.954  35.789  32.247  1.00  0.00     0.016 A 
ATOM     32  C   UNL A   1      34.407  33.182  33.151  1.00  0.00     0.010 A 
ATOM     33  C   UNL A   1      35.995  34.889  32.494  1.00  0.00     0.010 A 
ATOM     34  C   UNL A   1      35.728  33.596  32.983  1.00  0.00    -0.014 A 
BRANCH  34  35
ATOM     35  C   UNL A   1      36.846  32.750  33.453  1.00  0.00     0.031 A 
ATOM     36  C   UNL A   1      37.444  33.029  34.802  1.00  0.00     0.074 A 
ATOM     37  C   UNL A   1      37.332  31.757  32.690  1.00  0.00     0.049 A 
ATOM     38  N   UNL A   1      38.571  32.611  35.315  1.00  0.00    -0.248 NA
ATOM     39  C   UNL A   1      36.661  33.904  35.691  1.00  0.00     0.031 C 
ATOM     40  C   UNL A   1      36.771  31.316  31.415  1.00  0.00     0.029 A 
ATOM     41  N   UNL A   1      38.435  30.960  32.869  1.00  0.00    -0.354 N 
ATOM     42  C   UNL A   1      38.656  33.206  36.566  1.00  0.00     0.074 A 
ATOM     43  C   UNL A   1      37.464  34.009  36.740  1.00  0.00     0.031 C 
ATOM     44  C   UNL A   1      37.554  30.351  30.907  1.00  0.00     0.029 A 
ATOM     45  C   UNL A   1      38.705  30.160  31.787  1.00  0.00     0.049 A 
ATOM     46  H   UNL A   1      38.978  30.962  33.690  1.00  0.00     0.167 HD
ATOM     47  C   UNL A   1      39.651  33.097  37.477  1.00  0.00     0.037 A 
ATOM     48  C   UNL A   1      39.790  29.412  31.510  1.00  0.00     0.037 A 
ATOM     49  C   UNL A   1      40.823  32.281  37.296  1.00  0.00     0.049 A 
ATOM     50  C   UNL A   1      40.933  29.386  32.492  1.00  0.00     0.074 A 
ATOM     51  C   UNL A   1      41.893  32.100  38.155  1.00  0.00     0.029 A 
ATOM     52  N   UNL A   1      41.075  31.507  36.172  1.00  0.00    -0.354 N 
ATOM     53  N   UNL A   1      41.043  29.986  33.652  1.00  0.00    -0.248 NA
ATOM     54  C   UNL A   1      42.110  28.590  32.117  1.00  0.00     0.031 C 
ATOM     55  C   UNL A   1      42.813  31.251  37.531  1.00  0.00     0.029 A 
ATOM     56  C   UNL A   1      42.292  30.862  36.306  1.00  0.00     0.049 A 
ATOM     57  H   UNL A   1      40.476  31.428  35.395  1.00  0.00     0.167 HD
ATOM     58  C   UNL A   1      42.283  29.619  34.158  1.00  0.00     0.074 A 
ATOM     59  C   UNL A   1      42.888  28.739  33.180  1.00  0.00     0.031 C 
ATOM     60  C   UNL A   1      42.868  29.976  35.328  1.00  0.00     0.037 A 
BRANCH  47  61
ATOM     61  C   UNL A   1      39.543  33.917  38.729  1.00  0.00     0.064 A 
ATOM     62  C   UNL A   1      40.064  35.216  38.814  1.00  0.00     0.173 A 
ATOM     63  C   UNL A   1      38.872  33.403  39.850  1.00  0.00     0.173 A 
ATOM     64  F   UNL A   1      40.730  35.745  37.776  1.00  0.00    -0.203 F 
ATOM     65  C   UNL A   1      39.935  35.963  39.982  1.00  0.00     0.198 A 
ATOM     66  C   UNL A   1      38.722  34.163  41.007  1.00  0.00     0.198 A 
ATOM     67  F   UNL A   1      38.355  32.167  39.821  1.00  0.00    -0.203 F 
ATOM     68  F   UNL A   1      40.477  37.187  40.055  1.00  0.00    -0.200 F 
ATOM     69  C   UNL A   1      39.257  35.440  41.074  1.00  0.00     0.200 A 
ATOM     70  F   UNL A   1      38.058  33.660  42.056  1.00  0.00    -0.200 F 
ATOM     71  F   UNL A   1      39.127  36.164  42.194  1.00  0.00    -0.200 F 
ENDBRANCH  47  61
BRANCH  48  72
ATOM     72  C   UNL A   1      39.875  28.677  30.222  1.00  0.00     0.064 A 
ATOM     73  C   UNL A   1      39.331  27.393  30.088  1.00  0.00     0.173 A 
ATOM     74  C   UNL A   1      40.508  29.239  29.103  1.00  0.00     0.173 A 
ATOM     75  F   UNL A   1      38.741  26.804  31.139  1.00  0.00    -0.203 F 
ATOM     76  C   UNL A   1      39.427  26.695  28.886  1.00  0.00     0.198 A 
ATOM     77  C   UNL A   1      40.578  28.552  27.895  1.00  0.00     0.198 A 
ATOM     78  F   UNL A   1      41.049  30.464  29.181  1.00  0.00    -0.203 F 
ATOM     79  F   UNL A   1      38.937  25.450  28.797  1.00  0.00    -0.200 F 
ATOM     80  C   UNL A   1      40.044  27.277  27.789  1.00  0.00     0.200 A 
ATOM     81  F   UNL A   1      41.164  29.123  26.834  1.00  0.00    -0.200 F 
ATOM     82  F   UNL A   1      40.131  26.605  26.632  1.00  0.00    -0.200 F 
ENDBRANCH  48  72
BRANCH  60  83
ATOM     83  C   UNL A   1      44.206  29.374  35.643  1.00  0.00     0.064 A 
ATOM     84  C   UNL A   1      45.404  30.030  35.325  1.00  0.00     0.173 A 
ATOM     85  C   UNL A   1      44.286  28.149  36.324  1.00  0.00     0.173 A 
ATOM     86  F   UNL A   1      45.379  31.195  34.662  1.00  0.00    -0.203 F 
ATOM     87  C   UNL A   1      46.633  29.473  35.664  1.00  0.00     0.198 A 
ATOM     88  C   UNL A   1      45.516  27.609  36.684  1.00  0.00     0.198 A 
ATOM     89  F   UNL A   1      43.168  27.486  36.655  1.00  0.00    -0.203 F 
ATOM     90  F   UNL A   1      47.768  30.098  35.318  1.00  0.00    -0.200 F 
ATOM     91  C   UNL A   1      46.689  28.268  36.350  1.00  0.00     0.200 A 
ATOM     92  F   UNL A   1      45.566  26.452  37.358  1.00  0.00    -0.200 F 
ATOM     93  F   UNL A   1      47.874  27.740  36.683  1.00  0.00    -0.200 F 
ENDBRANCH  60  83
ENDBRANCH  34  35
ENDBRANCH  27  29
ENDBRANCH  26  27
ENDBRANCH  25  26
ENDBRANCH  24  25
ENDBRANCH  23  24
ENDBRANCH  22  23
ENDBRANCH   1  22
TORSDOF 21
ENDMDL
MODEL 3
REMARK VINA RESULT:     -10.3      2.809      8.529
REMARK SMILES CC(C)(C)OC(=O)N1CCSC[C@@H]1CC(=O)OCCOCCOCCOC(=O)c1ccc(-c2c3nc(c(-c4c(F)c(F)c(F)c(F)c4F)c4ccc([nH]4)c(-c4c(F)c(F)c(F)c(F)c4F)c4nc(c(-c5c(F)c(F)c(F)c(F)c5F)c5ccc2[nH]5)C=C4)C=C3)cc1
REMARK SMILES IDX 21 1 20 2 19 3 18 4 17 5 15 6 16 7 14 8 13 9 8 10 9 11 10 12
REMARK SMILES IDX 12 13 11 14 6 15 7 16 5 17 2 18 1 19 3 20 4 21 22 22 23 23
REMARK SMILES IDX 24 24 25 25 26 26 27 27 28 28 29 29 30 30 91 31 31 32 90 33
REMARK SMILES IDX 32 34 33 35 34 36 84 37 35 38 89 39 83 40 85 41 36 42 88 43
REMARK SMILES IDX 82 44 81 45 37 47 69 48 49 49 68 50 50 51 53 52 67 53 86 54
REMARK SMILES IDX 51 55 52 56 66 58 87 59 54 60 38 61 39 62 47 63 40 64 41 65
REMARK SMILES IDX 45 66 48 67 42 68 43 69 46 70 44 71 70 72 71 73 79 74 72 75
REMARK SMILES IDX 73 76 77 77 80 78 74 79 75 80 78 81 76 82 55 83 56 84 64 85
REMARK SMILES IDX 57 86 58 87 62 88 65 89 59 90 60 91 63 92 61 93
REMARK H PARENT 85 46 53 57
REMARK Flexibility Score: inf
ROOT
ATOM      1  C   UNL A   1      34.172  32.826  28.066  1.00  0.00     0.188 C 
ENDROOT
BRANCH   1   2
ATOM      2  O   UNL A   1      35.354  32.043  27.974  1.00  0.00    -0.376 OA
BRANCH   2   3
ATOM      3  C   UNL A   1      35.231  30.654  27.672  1.00  0.00     0.202 C 
BRANCH   3   4
ATOM      4  C   UNL A   1      33.830  30.152  27.297  1.00  0.00     0.261 C 
BRANCH   4   5
ATOM      5  O   UNL A   1      33.878  28.982  26.455  1.00  0.00    -0.463 OA
BRANCH   5   6
ATOM      6  C   UNL A   1      33.081  27.951  26.826  1.00  0.00     0.307 C 
ATOM      7  O   UNL A   1      32.130  28.059  27.590  1.00  0.00    -0.252 OA
BRANCH   6   8
ATOM      8  C   UNL A   1      33.339  26.702  26.003  1.00  0.00     0.148 C 
BRANCH   8   9
ATOM      9  C   UNL A   1      32.202  26.124  25.130  1.00  0.00     0.109 C 
ATOM     10  N   UNL A   1      32.718  24.977  24.314  1.00  0.00    -0.303 N 
ATOM     11  C   UNL A   1      33.745  25.303  23.314  1.00  0.00     0.134 C 
ATOM     12  C   UNL A   1      33.203  26.247  22.238  1.00  0.00     0.091 C 
ATOM     13  C   UNL A   1      31.520  27.171  24.231  1.00  0.00     0.095 C 
ATOM     14  S   UNL A   1      32.609  27.833  22.923  1.00  0.00    -0.158 SA
BRANCH  10  15
ATOM     15  C   UNL A   1      32.109  23.722  24.353  1.00  0.00     0.410 C 
ATOM     16  O   UNL A   1      31.226  23.383  23.582  1.00  0.00    -0.224 OA
BRANCH  15  17
ATOM     17  O   UNL A   1      32.581  22.955  25.371  1.00  0.00    -0.444 OA
BRANCH  17  18
ATOM     18  C   UNL A   1      33.275  21.675  25.241  1.00  0.00     0.106 C 
ATOM     19  C   UNL A   1      33.626  21.281  26.688  1.00  0.00     0.056 C 
ATOM     20  C   UNL A   1      34.566  21.905  24.456  1.00  0.00     0.056 C 
ATOM     21  C   UNL A   1      32.498  20.516  24.614  1.00  0.00     0.056 C 
ENDBRANCH  17  18
ENDBRANCH  15  17
ENDBRANCH  10  15
ENDBRANCH   8   9
ENDBRANCH   6   8
ENDBRANCH   5   6
ENDBRANCH   4   5
ENDBRANCH   3   4
ENDBRANCH   2   3
ENDBRANCH   1   2
BRANCH   1  22
ATOM     22  C   UNL A   1      34.070  33.905  29.153  1.00  0.00     0.188 C 
BRANCH  22  23
ATOM     23  O   UNL A   1      32.895  34.691  29.119  1.00  0.00    -0.376 OA
BRANCH  23  24
ATOM     24  C   UNL A   1      33.128  36.066  28.837  1.00  0.00     0.202 C 
BRANCH  24  25
ATOM     25  C   UNL A   1      33.046  36.923  30.107  1.00  0.00     0.261 C 
BRANCH  25  26
ATOM     26  O   UNL A   1      32.131  36.402  31.096  1.00  0.00    -0.460 OA
BRANCH  26  27
ATOM     27  C   UNL A   1      32.583  36.375  32.369  1.00  0.00     0.338 C 
ATOM     28  O   UNL A   1      32.136  36.977  33.327  1.00  0.00    -0.246 OA
BRANCH  27  29
ATOM     29  C   UNL A   1      33.676  35.383  32.455  1.00  0.00     0.060 A 
ATOM     30  C   UNL A   1      33.401  34.069  32.862  1.00  0.00     0.016 A 
ATOM     31  C   UNL A   1      34.988  35.789  32.241  1.00  0.00     0.016 A 
ATOM     32  C   UNL A   1      34.436  33.172  33.113  1.00  0.00     0.010 A 
ATOM     33  C   UNL A   1      36.027  34.888  32.488  1.00  0.00     0.010 A 
ATOM     34  C   UNL A   1      35.758  33.590  32.962  1.00  0.00    -0.014 A 
BRANCH  34  35
ATOM     35  C   UNL A   1      36.873  32.740  33.433  1.00  0.00     0.031 A 
ATOM     36  C   UNL A   1      37.465  33.014  34.785  1.00  0.00     0.074 A 
ATOM     37  C   UNL A   1      37.360  31.749  32.668  1.00  0.00     0.049 A 
ATOM     38  N   UNL A   1      38.590  32.592  35.301  1.00  0.00    -0.248 NA
ATOM     39  C   UNL A   1      36.681  33.887  35.674  1.00  0.00     0.031 C 
ATOM     40  C   UNL A   1      36.803  31.313  31.390  1.00  0.00     0.029 A 
ATOM     41  N   UNL A   1      38.461  30.950  32.849  1.00  0.00    -0.354 N 
ATOM     42  C   UNL A   1      38.671  33.183  36.555  1.00  0.00     0.074 A 
ATOM     43  C   UNL A   1      37.480  33.987  36.727  1.00  0.00     0.031 C 
ATOM     44  C   UNL A   1      37.587  30.348  30.881  1.00  0.00     0.029 A 
ATOM     45  C   UNL A   1      38.734  30.153  31.766  1.00  0.00     0.049 A 
ATOM     46  H   UNL A   1      39.001  30.948  33.673  1.00  0.00     0.167 HD
ATOM     47  C   UNL A   1      39.662  33.069  37.470  1.00  0.00     0.037 A 
ATOM     48  C   UNL A   1      39.819  29.404  31.491  1.00  0.00     0.037 A 
ATOM     49  C   UNL A   1      40.833  32.252  37.290  1.00  0.00     0.049 A 
ATOM     50  C   UNL A   1      40.958  29.373  32.477  1.00  0.00     0.074 A 
ATOM     51  C   UNL A   1      41.900  32.066  38.153  1.00  0.00     0.029 A 
ATOM     52  N   UNL A   1      41.089  31.481  36.164  1.00  0.00    -0.354 N 
ATOM     53  N   UNL A   1      41.064  29.968  33.639  1.00  0.00    -0.248 NA
ATOM     54  C   UNL A   1      42.136  28.576  32.104  1.00  0.00     0.031 C 
ATOM     55  C   UNL A   1      42.821  31.218  37.529  1.00  0.00     0.029 A 
ATOM     56  C   UNL A   1      42.305  30.834  36.301  1.00  0.00     0.049 A 
ATOM     57  H   UNL A   1      40.493  31.406  35.385  1.00  0.00     0.167 HD
ATOM     58  C   UNL A   1      42.302  29.598  34.149  1.00  0.00     0.074 A 
ATOM     59  C   UNL A   1      42.909  28.720  33.170  1.00  0.00     0.031 C 
ATOM     60  C   UNL A   1      42.882  29.950  35.322  1.00  0.00     0.037 A 
BRANCH  47  61
ATOM     61  C   UNL A   1      39.550  33.885  38.723  1.00  0.00     0.064 A 
ATOM     62  C   UNL A   1      40.113  35.165  38.830  1.00  0.00     0.173 A 
ATOM     63  C   UNL A   1      38.835  33.388  39.824  1.00  0.00     0.173 A 
ATOM     64  F   UNL A   1      40.822  35.677  37.813  1.00  0.00    -0.203 F 
ATOM     65  C   UNL A   1      39.980  35.909  40.000  1.00  0.00     0.198 A 
ATOM     66  C   UNL A   1      38.681  34.146  40.981  1.00  0.00     0.198 A 
ATOM     67  F   UNL A   1      38.277  32.170  39.773  1.00  0.00    -0.203 F 
ATOM     68  F   UNL A   1      40.561  37.113  40.094  1.00  0.00    -0.200 F 
ATOM     69  C   UNL A   1      39.257  35.403  41.070  1.00  0.00     0.200 A 
ATOM     70  F   UNL A   1      37.974  33.659  42.010  1.00  0.00    -0.200 F 
ATOM     71  F   UNL A   1      39.124  36.125  42.191  1.00  0.00    -0.200 F 
ENDBRANCH  47  61
BRANCH  48  72
ATOM     72  C   UNL A   1      39.908  28.673  30.200  1.00  0.00     0.064 A 
ATOM     73  C   UNL A   1      40.520  29.256  29.083  1.00  0.00     0.173 A 
ATOM     74  C   UNL A   1      39.374  27.383  30.056  1.00  0.00     0.173 A 
ATOM     75  F   UNL A   1      41.018  30.498  29.165  1.00  0.00    -0.203 F 
ATOM     76  C   UNL A   1      40.585  28.579  27.867  1.00  0.00     0.198 A 
ATOM     77  C   UNL A   1      39.467  26.697  28.848  1.00  0.00     0.198 A 
ATOM     78  F   UNL A   1      38.773  26.784  31.095  1.00  0.00    -0.203 F 
ATOM     79  F   UNL A   1      41.138  29.175  26.801  1.00  0.00    -0.200 F 
ATOM     80  C   UNL A   1      40.066  27.298  27.752  1.00  0.00     0.200 A 
ATOM     81  F   UNL A   1      38.974  25.456  28.746  1.00  0.00    -0.200 F 
ATOM     82  F   UNL A   1      40.135  26.647  26.582  1.00  0.00    -0.200 F 
ENDBRANCH  48  72
BRANCH  60  83
ATOM     83  C   UNL A   1      44.219  29.345  35.641  1.00  0.00     0.064 A 
ATOM     84  C   UNL A   1      44.333  28.138  36.345  1.00  0.00     0.173 A 
ATOM     85  C   UNL A   1      45.397  29.957  35.185  1.00  0.00     0.173 A 
ATOM     86  F   UNL A   1      43.238  27.523  36.813  1.00  0.00    -0.203 F 
ATOM     87  C   UNL A   1      45.582  27.574  36.594  1.00  0.00     0.198 A 
ATOM     88  C   UNL A   1      46.640  29.377  35.413  1.00  0.00     0.198 A 
ATOM     89  F   UNL A   1      45.338  31.110  34.502  1.00  0.00    -0.203 F 
ATOM     90  F   UNL A   1      45.672  26.439  37.302  1.00  0.00    -0.200 F 
ATOM     91  C   UNL A   1      46.733  28.188  36.122  1.00  0.00     0.200 A 
ATOM     92  F   UNL A   1      47.749  29.965  34.944  1.00  0.00    -0.200 F 
ATOM     93  F   UNL A   1      47.931  27.637  36.354  1.00  0.00    -0.200 F 
ENDBRANCH  60  83
ENDBRANCH  34  35
ENDBRANCH  27  29
ENDBRANCH  26  27
ENDBRANCH  25  26
ENDBRANCH  24  25
ENDBRANCH  23  24
ENDBRANCH  22  23
ENDBRANCH   1  22
TORSDOF 21
ENDMDL
