MODEL 1
REMARK VINA RESULT:     -10.4      0.000      0.000
REMARK SMILES O=C(C[C@@H](NC(=O)C1CC=CC1)C1CC1)OCCOCCOCCOC(=O)c1ccc(-c2c3nc(c(-c4c(F)c(F)c(F)c(F)c4F)c4ccc([nH]4)c(-c4c(F)c(F)c(F)c(F)c4F)c4nc(c(-c5c(F)c(F)c(F)c(F)c5F)c5ccc2[nH]5)C=C4)C=C3)cc1
REMARK SMILES IDX 20 1 19 2 18 3 17 4 16 5 2 6 1 7 3 8 4 9 5 10 6 11 7 13 8 14
REMARK SMILES IDX 9 15 12 16 10 17 11 18 13 19 14 20 15 21 21 22 22 23 23 24
REMARK SMILES IDX 24 25 25 26 26 27 27 28 28 29 29 30 90 31 30 32 89 33 31 34
REMARK SMILES IDX 32 35 33 36 83 37 34 38 88 39 82 40 84 41 35 42 87 43 81 44
REMARK SMILES IDX 80 45 36 47 68 48 48 49 67 50 49 51 52 52 66 53 85 54 50 55
REMARK SMILES IDX 51 56 65 58 86 59 53 60 37 61 38 62 46 63 39 64 40 65 44 66
REMARK SMILES IDX 47 67 41 68 42 69 45 70 43 71 69 72 70 73 78 74 71 75 72 76
REMARK SMILES IDX 76 77 79 78 73 79 74 80 77 81 75 82 54 83 55 84 63 85 56 86
REMARK SMILES IDX 57 87 61 88 64 89 58 90 59 91 62 92 60 93
REMARK H PARENT 5 12 84 46 52 57
REMARK Flexibility Score: inf
ROOT
ATOM      1  C   UNL A   1      41.533  20.235  26.591  1.00  0.00     0.188 C 
ENDROOT
BRANCH   1   2
ATOM      2  O   UNL A   1      40.211  20.103  26.098  1.00  0.00    -0.376 OA
BRANCH   2   3
ATOM      3  C   UNL A   1      39.369  21.251  25.990  1.00  0.00     0.202 C 
BRANCH   3   4
ATOM      4  C   UNL A   1      38.024  21.171  25.272  1.00  0.00     0.261 C 
BRANCH   4   5
ATOM      5  O   UNL A   1      37.717  22.080  24.177  1.00  0.00    -0.463 OA
BRANCH   5   6
ATOM      6  C   UNL A   1      36.684  22.887  23.893  1.00  0.00     0.307 C 
ATOM      7  O   UNL A   1      36.305  22.986  22.725  1.00  0.00    -0.252 OA
BRANCH   6   8
ATOM      8  C   UNL A   1      35.937  23.606  24.974  1.00  0.00     0.147 C 
BRANCH   8   9
ATOM      9  C   UNL A   1      34.493  23.854  24.550  1.00  0.00     0.096 C 
BRANCH   9  10
ATOM     10  N   UNL A   1      34.369  24.714  23.370  1.00  0.00    -0.352 N 
ATOM     11  C   UNL A   1      33.585  25.698  22.890  1.00  0.00     0.223 C 
ATOM     12  H   UNL A   1      35.084  24.508  22.725  1.00  0.00     0.163 HD
ATOM     13  O   UNL A   1      33.607  25.793  21.651  1.00  0.00    -0.275 OA
BRANCH  11  14
ATOM     14  C   UNL A   1      32.804  26.754  23.651  1.00  0.00     0.086 C 
ATOM     15  C   UNL A   1      31.611  26.400  24.528  1.00  0.00     0.040 C 
ATOM     16  C   UNL A   1      33.772  27.586  24.503  1.00  0.00     0.040 C 
ATOM     17  C   UNL A   1      32.024  26.862  25.890  1.00  0.00    -0.030 C 
ATOM     18  C   UNL A   1      33.196  27.505  25.873  1.00  0.00    -0.030 C 
ENDBRANCH  11  14
ENDBRANCH   9  10
BRANCH   9  19
ATOM     19  C   UNL A   1      33.698  22.586  24.497  1.00  0.00     0.012 C 
ATOM     20  C   UNL A   1      32.317  22.546  25.110  1.00  0.00     0.006 C 
ATOM     21  C   UNL A   1      32.481  22.464  23.619  1.00  0.00     0.006 C 
ENDBRANCH   9  19
ENDBRANCH   8   9
ENDBRANCH   6   8
ENDBRANCH   5   6
ENDBRANCH   4   5
ENDBRANCH   3   4
ENDBRANCH   2   3
ENDBRANCH   1   2
BRANCH   1  22
ATOM     22  C   UNL A   1      42.592  19.447  25.813  1.00  0.00     0.188 C 
BRANCH  22  23
ATOM     23  O   UNL A   1      43.547  20.206  25.085  1.00  0.00    -0.376 OA
BRANCH  23  24
ATOM     24  C   UNL A   1      43.625  21.608  25.353  1.00  0.00     0.202 C 
BRANCH  24  25
ATOM     25  C   UNL A   1      45.009  22.220  25.621  1.00  0.00     0.261 C 
BRANCH  25  26
ATOM     26  O   UNL A   1      44.946  23.456  26.368  1.00  0.00    -0.460 OA
BRANCH  26  27
ATOM     27  C   UNL A   1      44.752  24.566  25.623  1.00  0.00     0.338 C 
ATOM     28  O   UNL A   1      45.267  24.836  24.546  1.00  0.00    -0.246 OA
BRANCH  27  29
ATOM     29  C   UNL A   1      43.699  25.426  26.191  1.00  0.00     0.060 A 
ATOM     30  C   UNL A   1      43.975  26.793  26.329  1.00  0.00     0.016 A 
ATOM     31  C   UNL A   1      42.579  24.864  26.807  1.00  0.00     0.016 A 
ATOM     32  C   UNL A   1      43.183  27.586  27.158  1.00  0.00     0.010 A 
ATOM     33  C   UNL A   1      41.789  25.660  27.648  1.00  0.00     0.010 A 
ATOM     34  C   UNL A   1      42.130  27.006  27.878  1.00  0.00    -0.014 A 
BRANCH  34  35
ATOM     35  C   UNL A   1      41.581  27.736  29.051  1.00  0.00     0.031 A 
ATOM     36  C   UNL A   1      42.303  27.617  30.371  1.00  0.00     0.074 A 
ATOM     37  C   UNL A   1      40.509  28.539  28.947  1.00  0.00     0.049 A 
ATOM     38  N   UNL A   1      42.045  28.192  31.520  1.00  0.00    -0.248 NA
ATOM     39  C   UNL A   1      43.480  26.733  30.395  1.00  0.00     0.031 C 
ATOM     40  C   UNL A   1      39.744  28.775  27.727  1.00  0.00     0.029 A 
ATOM     41  N   UNL A   1      39.884  29.311  29.895  1.00  0.00    -0.354 N 
ATOM     42  C   UNL A   1      43.021  27.738  32.397  1.00  0.00     0.074 A 
ATOM     43  C   UNL A   1      43.860  26.818  31.661  1.00  0.00     0.031 C 
ATOM     44  C   UNL A   1      38.747  29.635  28.000  1.00  0.00     0.029 A 
ATOM     45  C   UNL A   1      38.795  29.997  29.417  1.00  0.00     0.049 A 
ATOM     46  H   UNL A   1      40.188  29.368  30.830  1.00  0.00     0.167 HD
ATOM     47  C   UNL A   1      43.214  28.066  33.697  1.00  0.00     0.037 A 
ATOM     48  C   UNL A   1      37.938  30.819  30.054  1.00  0.00     0.037 A 
ATOM     49  C   UNL A   1      42.391  28.983  34.437  1.00  0.00     0.049 A 
ATOM     50  C   UNL A   1      38.144  31.128  31.515  1.00  0.00     0.074 A 
ATOM     51  C   UNL A   1      42.515  29.386  35.756  1.00  0.00     0.029 A 
ATOM     52  N   UNL A   1      41.283  29.637  33.921  1.00  0.00    -0.354 N 
ATOM     53  N   UNL A   1      39.090  30.723  32.325  1.00  0.00    -0.248 NA
ATOM     54  C   UNL A   1      37.161  32.025  32.145  1.00  0.00     0.031 C 
ATOM     55  C   UNL A   1      41.458  30.255  36.049  1.00  0.00     0.029 A 
ATOM     56  C   UNL A   1      40.704  30.428  34.900  1.00  0.00     0.049 A 
ATOM     57  H   UNL A   1      40.957  29.553  32.996  1.00  0.00     0.167 HD
ATOM     58  C   UNL A   1      38.844  31.344  33.544  1.00  0.00     0.074 A 
ATOM     59  C   UNL A   1      37.660  32.157  33.367  1.00  0.00     0.031 C 
ATOM     60  C   UNL A   1      39.539  31.252  34.704  1.00  0.00     0.037 A 
BRANCH  47  61
ATOM     61  C   UNL A   1      44.357  27.404  34.410  1.00  0.00     0.064 A 
ATOM     62  C   UNL A   1      45.635  27.980  34.445  1.00  0.00     0.173 A 
ATOM     63  C   UNL A   1      44.163  26.189  35.085  1.00  0.00     0.173 A 
ATOM     64  F   UNL A   1      45.873  29.134  33.802  1.00  0.00    -0.203 F 
ATOM     65  C   UNL A   1      46.685  27.352  35.110  1.00  0.00     0.198 A 
ATOM     66  C   UNL A   1      45.208  25.577  35.770  1.00  0.00     0.198 A 
ATOM     67  F   UNL A   1      42.958  25.599  35.083  1.00  0.00    -0.203 F 
ATOM     68  F   UNL A   1      47.908  27.897  35.094  1.00  0.00    -0.200 F 
ATOM     69  C   UNL A   1      46.469  26.154  35.776  1.00  0.00     0.200 A 
ATOM     70  F   UNL A   1      44.996  24.425  36.420  1.00  0.00    -0.200 F 
ATOM     71  F   UNL A   1      47.479  25.551  36.417  1.00  0.00    -0.200 F 
ENDBRANCH  47  61
BRANCH  48  72
ATOM     72  C   UNL A   1      36.804  31.429  29.312  1.00  0.00     0.064 A 
ATOM     73  C   UNL A   1      36.763  32.807  29.059  1.00  0.00     0.173 A 
ATOM     74  C   UNL A   1      35.723  30.651  28.872  1.00  0.00     0.173 A 
ATOM     75  F   UNL A   1      37.762  33.595  29.486  1.00  0.00    -0.203 F 
ATOM     76  C   UNL A   1      35.675  33.388  28.413  1.00  0.00     0.198 A 
ATOM     77  C   UNL A   1      34.647  31.230  28.204  1.00  0.00     0.198 A 
ATOM     78  F   UNL A   1      35.713  29.328  29.093  1.00  0.00    -0.203 F 
ATOM     79  F   UNL A   1      35.637  34.715  28.228  1.00  0.00    -0.200 F 
ATOM     80  C   UNL A   1      34.618  32.598  27.982  1.00  0.00     0.200 A 
ATOM     81  F   UNL A   1      33.633  30.463  27.781  1.00  0.00    -0.200 F 
ATOM     82  F   UNL A   1      33.571  33.157  27.363  1.00  0.00    -0.200 F 
ENDBRANCH  48  72
BRANCH  60  83
ATOM     83  C   UNL A   1      39.077  32.094  35.858  1.00  0.00     0.064 A 
ATOM     84  C   UNL A   1      38.255  31.576  36.870  1.00  0.00     0.173 A 
ATOM     85  C   UNL A   1      39.495  33.429  35.970  1.00  0.00     0.173 A 
ATOM     86  F   UNL A   1      37.819  30.308  36.802  1.00  0.00    -0.203 F 
ATOM     87  C   UNL A   1      37.847  32.372  37.936  1.00  0.00     0.198 A 
ATOM     88  C   UNL A   1      39.106  34.214  37.052  1.00  0.00     0.198 A 
ATOM     89  F   UNL A   1      40.288  33.970  35.033  1.00  0.00    -0.203 F 
ATOM     90  F   UNL A   1      37.023  31.870  38.867  1.00  0.00    -0.200 F 
ATOM     91  C   UNL A   1      38.276  33.687  38.030  1.00  0.00     0.200 A 
ATOM     92  F   UNL A   1      39.532  35.480  37.147  1.00  0.00    -0.200 F 
ATOM     93  F   UNL A   1      37.884  34.450  39.060  1.00  0.00    -0.200 F 
ENDBRANCH  60  83
ENDBRANCH  34  35
ENDBRANCH  27  29
ENDBRANCH  26  27
ENDBRANCH  25  26
ENDBRANCH  24  25
ENDBRANCH  23  24
ENDBRANCH  22  23
ENDBRANCH   1  22
TORSDOF 21
ENDMDL
MODEL 2
REMARK VINA RESULT:     -10.4      3.613      8.694
REMARK SMILES O=C(C[C@@H](NC(=O)C1CC=CC1)C1CC1)OCCOCCOCCOC(=O)c1ccc(-c2c3nc(c(-c4c(F)c(F)c(F)c(F)c4F)c4ccc([nH]4)c(-c4c(F)c(F)c(F)c(F)c4F)c4nc(c(-c5c(F)c(F)c(F)c(F)c5F)c5ccc2[nH]5)C=C4)C=C3)cc1
REMARK SMILES IDX 20 1 19 2 18 3 17 4 16 5 2 6 1 7 3 8 4 9 5 10 6 11 7 13 8 14
REMARK SMILES IDX 9 15 12 16 10 17 11 18 13 19 14 20 15 21 21 22 22 23 23 24
REMARK SMILES IDX 24 25 25 26 26 27 27 28 28 29 29 30 90 31 30 32 89 33 31 34
REMARK SMILES IDX 32 35 33 36 83 37 34 38 88 39 82 40 84 41 35 42 87 43 81 44
REMARK SMILES IDX 80 45 36 47 68 48 48 49 67 50 49 51 52 52 66 53 85 54 50 55
REMARK SMILES IDX 51 56 65 58 86 59 53 60 37 61 38 62 46 63 39 64 40 65 44 66
REMARK SMILES IDX 47 67 41 68 42 69 45 70 43 71 69 72 70 73 78 74 71 75 72 76
REMARK SMILES IDX 76 77 79 78 73 79 74 80 77 81 75 82 54 83 55 84 63 85 56 86
REMARK SMILES IDX 57 87 61 88 64 89 58 90 59 91 62 92 60 93
REMARK H PARENT 5 12 84 46 52 57
REMARK Flexibility Score: inf
ROOT
ATOM      1  C   UNL A   1      30.787  27.608  22.456  1.00  0.00     0.188 C 
ENDROOT
BRANCH   1   2
ATOM      2  O   UNL A   1      31.453  26.504  21.868  1.00  0.00    -0.376 OA
BRANCH   2   3
ATOM      3  C   UNL A   1      31.330  25.204  22.446  1.00  0.00     0.202 C 
BRANCH   3   4
ATOM      4  C   UNL A   1      32.125  24.825  23.694  1.00  0.00     0.261 C 
BRANCH   4   5
ATOM      5  O   UNL A   1      31.503  24.045  24.755  1.00  0.00    -0.463 OA
BRANCH   5   6
ATOM      6  C   UNL A   1      31.795  23.819  26.045  1.00  0.00     0.307 C 
ATOM      7  O   UNL A   1      31.773  24.761  26.838  1.00  0.00    -0.252 OA
BRANCH   6   8
ATOM      8  C   UNL A   1      32.068  22.436  26.549  1.00  0.00     0.147 C 
BRANCH   8   9
ATOM      9  C   UNL A   1      33.008  21.698  25.600  1.00  0.00     0.096 C 
BRANCH   9  10
ATOM     10  N   UNL A   1      32.374  21.303  24.339  1.00  0.00    -0.352 N 
ATOM     11  C   UNL A   1      32.324  20.255  23.496  1.00  0.00     0.223 C 
ATOM     12  H   UNL A   1      31.806  22.033  24.003  1.00  0.00     0.163 HD
ATOM     13  O   UNL A   1      32.010  20.565  22.334  1.00  0.00    -0.275 OA
BRANCH  11  14
ATOM     14  C   UNL A   1      32.470  18.774  23.801  1.00  0.00     0.086 C 
ATOM     15  C   UNL A   1      32.653  17.738  22.701  1.00  0.00     0.040 C 
ATOM     16  C   UNL A   1      33.602  18.575  24.817  1.00  0.00     0.040 C 
ATOM     17  C   UNL A   1      33.981  17.122  23.015  1.00  0.00    -0.030 C 
ATOM     18  C   UNL A   1      34.493  17.577  24.162  1.00  0.00    -0.030 C 
ENDBRANCH  11  14
ENDBRANCH   9  10
BRANCH   9  19
ATOM     19  C   UNL A   1      34.324  22.399  25.456  1.00  0.00     0.012 C 
ATOM     20  C   UNL A   1      35.569  21.772  26.039  1.00  0.00     0.006 C 
ATOM     21  C   UNL A   1      35.398  21.862  24.550  1.00  0.00     0.006 C 
ENDBRANCH   9  19
ENDBRANCH   8   9
ENDBRANCH   6   8
ENDBRANCH   5   6
ENDBRANCH   4   5
ENDBRANCH   3   4
ENDBRANCH   2   3
ENDBRANCH   1   2
BRANCH   1  22
ATOM     22  C   UNL A   1      31.688  28.548  23.263  1.00  0.00     0.188 C 
BRANCH  22  23
ATOM     23  O   UNL A   1      31.079  29.253  24.336  1.00  0.00    -0.376 OA
BRANCH  23  24
ATOM     24  C   UNL A   1      31.862  29.482  25.509  1.00  0.00     0.202 C 
BRANCH  24  25
ATOM     25  C   UNL A   1      31.823  30.881  26.145  1.00  0.00     0.261 C 
BRANCH  25  26
ATOM     26  O   UNL A   1      32.511  30.945  27.414  1.00  0.00    -0.460 OA
BRANCH  26  27
ATOM     27  C   UNL A   1      33.365  31.984  27.551  1.00  0.00     0.338 C 
ATOM     28  O   UNL A   1      33.080  33.172  27.632  1.00  0.00    -0.246 OA
BRANCH  27  29
ATOM     29  C   UNL A   1      34.754  31.527  27.736  1.00  0.00     0.060 A 
ATOM     30  C   UNL A   1      34.970  30.155  27.927  1.00  0.00     0.016 A 
ATOM     31  C   UNL A   1      35.777  32.445  27.974  1.00  0.00     0.016 A 
ATOM     32  C   UNL A   1      36.184  29.705  28.444  1.00  0.00     0.010 A 
ATOM     33  C   UNL A   1      36.994  31.992  28.502  1.00  0.00     0.010 A 
ATOM     34  C   UNL A   1      37.174  30.629  28.801  1.00  0.00    -0.014 A 
BRANCH  34  35
ATOM     35  C   UNL A   1      38.257  30.193  29.722  1.00  0.00     0.031 A 
ATOM     36  C   UNL A   1      39.278  29.206  29.211  1.00  0.00     0.074 A 
ATOM     37  C   UNL A   1      38.383  30.703  30.959  1.00  0.00     0.049 A 
ATOM     38  N   UNL A   1      40.335  28.712  29.808  1.00  0.00    -0.248 NA
ATOM     39  C   UNL A   1      39.079  28.712  27.838  1.00  0.00     0.031 C 
ATOM     40  C   UNL A   1      37.494  31.690  31.562  1.00  0.00     0.029 A 
ATOM     41  N   UNL A   1      39.322  30.454  31.930  1.00  0.00    -0.354 N 
ATOM     42  C   UNL A   1      40.921  27.854  28.887  1.00  0.00     0.074 A 
ATOM     43  C   UNL A   1      40.090  27.867  27.703  1.00  0.00     0.031 C 
ATOM     44  C   UNL A   1      37.928  31.965  32.805  1.00  0.00     0.029 A 
ATOM     45  C   UNL A   1      39.117  31.161  33.089  1.00  0.00     0.049 A 
ATOM     46  H   UNL A   1      40.072  29.828  31.806  1.00  0.00     0.167 HD
ATOM     47  C   UNL A   1      42.058  27.127  29.007  1.00  0.00     0.037 A 
ATOM     48  C   UNL A   1      39.811  31.154  34.244  1.00  0.00     0.037 A 
ATOM     49  C   UNL A   1      42.895  27.110  30.175  1.00  0.00     0.049 A 
ATOM     50  C   UNL A   1      41.045  30.296  34.371  1.00  0.00     0.074 A 
ATOM     51  C   UNL A   1      44.072  26.413  30.386  1.00  0.00     0.029 A 
ATOM     52  N   UNL A   1      42.638  27.822  31.337  1.00  0.00    -0.354 N 
ATOM     53  N   UNL A   1      41.611  29.517  33.483  1.00  0.00    -0.248 NA
ATOM     54  C   UNL A   1      41.744  30.332  35.666  1.00  0.00     0.031 C 
ATOM     55  C   UNL A   1      44.507  26.673  31.690  1.00  0.00     0.029 A 
ATOM     56  C   UNL A   1      43.625  27.567  32.275  1.00  0.00     0.049 A 
ATOM     57  H   UNL A   1      41.868  28.420  31.475  1.00  0.00     0.167 HD
ATOM     58  C   UNL A   1      42.750  29.003  34.093  1.00  0.00     0.074 A 
ATOM     59  C   UNL A   1      42.797  29.562  35.427  1.00  0.00     0.031 C 
ATOM     60  C   UNL A   1      43.675  28.149  33.591  1.00  0.00     0.037 A 
BRANCH  47  61
ATOM     61  C   UNL A   1      42.450  26.268  27.841  1.00  0.00     0.064 A 
ATOM     62  C   UNL A   1      41.902  24.990  27.652  1.00  0.00     0.173 A 
ATOM     63  C   UNL A   1      43.368  26.738  26.890  1.00  0.00     0.173 A 
ATOM     64  F   UNL A   1      41.031  24.491  28.542  1.00  0.00    -0.203 F 
ATOM     65  C   UNL A   1      42.278  24.204  26.565  1.00  0.00     0.198 A 
ATOM     66  C   UNL A   1      43.723  25.960  25.792  1.00  0.00     0.198 A 
ATOM     67  F   UNL A   1      43.919  27.954  27.025  1.00  0.00    -0.203 F 
ATOM     68  F   UNL A   1      41.776  22.970  26.428  1.00  0.00    -0.200 F 
ATOM     69  C   UNL A   1      43.183  24.692  25.634  1.00  0.00     0.200 A 
ATOM     70  F   UNL A   1      44.590  26.436  24.888  1.00  0.00    -0.200 F 
ATOM     71  F   UNL A   1      43.543  23.936  24.588  1.00  0.00    -0.200 F 
ENDBRANCH  47  61
BRANCH  48  72
ATOM     72  C   UNL A   1      39.367  32.001  35.381  1.00  0.00     0.064 A 
ATOM     73  C   UNL A   1      38.554  31.479  36.397  1.00  0.00     0.173 A 
ATOM     74  C   UNL A   1      39.718  33.356  35.455  1.00  0.00     0.173 A 
ATOM     75  F   UNL A   1      38.170  30.194  36.352  1.00  0.00    -0.203 F 
ATOM     76  C   UNL A   1      38.091  32.285  37.433  1.00  0.00     0.198 A 
ATOM     77  C   UNL A   1      39.274  34.156  36.507  1.00  0.00     0.198 A 
ATOM     78  F   UNL A   1      40.490  33.904  34.507  1.00  0.00    -0.203 F 
ATOM     79  F   UNL A   1      37.275  31.774  38.365  1.00  0.00    -0.200 F 
ATOM     80  C   UNL A   1      38.455  33.623  37.490  1.00  0.00     0.200 A 
ATOM     81  F   UNL A   1      39.635  35.445  36.563  1.00  0.00    -0.200 F 
ATOM     82  F   UNL A   1      38.008  34.399  38.486  1.00  0.00    -0.200 F 
ENDBRANCH  48  72
BRANCH  60  83
ATOM     83  C   UNL A   1      44.850  27.810  34.461  1.00  0.00     0.064 A 
ATOM     84  C   UNL A   1      44.841  26.699  35.316  1.00  0.00     0.173 A 
ATOM     85  C   UNL A   1      46.016  28.590  34.409  1.00  0.00     0.173 A 
ATOM     86  F   UNL A   1      43.746  25.928  35.410  1.00  0.00    -0.203 F 
ATOM     87  C   UNL A   1      45.946  26.397  36.107  1.00  0.00     0.198 A 
ATOM     88  C   UNL A   1      47.128  28.270  35.182  1.00  0.00     0.198 A 
ATOM     89  F   UNL A   1      46.078  29.660  33.602  1.00  0.00    -0.203 F 
ATOM     90  F   UNL A   1      45.899  25.357  36.952  1.00  0.00    -0.200 F 
ATOM     91  C   UNL A   1      47.090  27.178  36.035  1.00  0.00     0.200 A 
ATOM     92  F   UNL A   1      48.236  29.019  35.102  1.00  0.00    -0.200 F 
ATOM     93  F   UNL A   1      48.154  26.883  36.796  1.00  0.00    -0.200 F 
ENDBRANCH  60  83
ENDBRANCH  34  35
ENDBRANCH  27  29
ENDBRANCH  26  27
ENDBRANCH  25  26
ENDBRANCH  24  25
ENDBRANCH  23  24
ENDBRANCH  22  23
ENDBRANCH   1  22
TORSDOF 21
ENDMDL
MODEL 3
REMARK VINA RESULT:     -10.3      4.271      7.012
REMARK SMILES O=C(C[C@@H](NC(=O)C1CC=CC1)C1CC1)OCCOCCOCCOC(=O)c1ccc(-c2c3nc(c(-c4c(F)c(F)c(F)c(F)c4F)c4ccc([nH]4)c(-c4c(F)c(F)c(F)c(F)c4F)c4nc(c(-c5c(F)c(F)c(F)c(F)c5F)c5ccc2[nH]5)C=C4)C=C3)cc1
REMARK SMILES IDX 20 1 19 2 18 3 17 4 16 5 2 6 1 7 3 8 4 9 5 10 6 11 7 13 8 14
REMARK SMILES IDX 9 15 12 16 10 17 11 18 13 19 14 20 15 21 21 22 22 23 23 24
REMARK SMILES IDX 24 25 25 26 26 27 27 28 28 29 29 30 90 31 30 32 89 33 31 34
REMARK SMILES IDX 32 35 33 36 83 37 34 38 88 39 82 40 84 41 35 42 87 43 81 44
REMARK SMILES IDX 80 45 36 47 68 48 48 49 67 50 49 51 52 52 66 53 85 54 50 55
REMARK SMILES IDX 51 56 65 58 86 59 53 60 37 61 38 62 46 63 39 64 40 65 44 66
REMARK SMILES IDX 47 67 41 68 42 69 45 70 43 71 69 72 70 73 78 74 71 75 72 76
REMARK SMILES IDX 76 77 79 78 73 79 74 80 77 81 75 82 54 83 55 84 63 85 56 86
REMARK SMILES IDX 57 87 61 88 64 89 58 90 59 91 62 92 60 93
REMARK H PARENT 5 12 84 46 52 57
REMARK Flexibility Score: inf
ROOT
ATOM      1  C   UNL A   1      35.858  23.648  25.483  1.00  0.00     0.188 C 
ENDROOT
BRANCH   1   2
ATOM      2  O   UNL A   1      34.734  23.861  24.646  1.00  0.00    -0.376 OA
BRANCH   2   3
ATOM      3  C   UNL A   1      34.008  22.746  24.127  1.00  0.00     0.202 C 
BRANCH   3   4
ATOM      4  C   UNL A   1      33.415  22.786  22.720  1.00  0.00     0.261 C 
BRANCH   4   5
ATOM      5  O   UNL A   1      33.594  23.961  21.878  1.00  0.00    -0.463 OA
BRANCH   5   6
ATOM      6  C   UNL A   1      32.905  25.097  21.697  1.00  0.00     0.307 C 
ATOM      7  O   UNL A   1      33.274  25.890  20.831  1.00  0.00    -0.252 OA
BRANCH   6   8
ATOM      8  C   UNL A   1      31.655  25.380  22.473  1.00  0.00     0.147 C 
BRANCH   8   9
ATOM      9  C   UNL A   1      31.962  26.274  23.670  1.00  0.00     0.096 C 
BRANCH   9  10
ATOM     10  N   UNL A   1      33.070  27.206  23.436  1.00  0.00    -0.352 N 
ATOM     11  C   UNL A   1      33.569  28.356  23.925  1.00  0.00     0.223 C 
ATOM     12  H   UNL A   1      33.623  26.891  22.685  1.00  0.00     0.163 HD
ATOM     13  O   UNL A   1      34.254  28.991  23.105  1.00  0.00    -0.275 OA
BRANCH  11  14
ATOM     14  C   UNL A   1      33.512  28.896  25.343  1.00  0.00     0.086 C 
ATOM     15  C   UNL A   1      32.340  29.729  25.843  1.00  0.00     0.040 C 
ATOM     16  C   UNL A   1      33.716  27.743  26.334  1.00  0.00     0.040 C 
ATOM     17  C   UNL A   1      31.791  28.920  26.977  1.00  0.00    -0.030 C 
ATOM     18  C   UNL A   1      32.539  27.844  27.241  1.00  0.00    -0.030 C 
ENDBRANCH  11  14
ENDBRANCH   9  10
BRANCH   9  19
ATOM     19  C   UNL A   1      30.724  26.893  24.242  1.00  0.00     0.012 C 
ATOM     20  C   UNL A   1      29.372  26.318  23.886  1.00  0.00     0.006 C 
ATOM     21  C   UNL A   1      29.904  26.180  25.283  1.00  0.00     0.006 C 
ENDBRANCH   9  19
ENDBRANCH   8   9
ENDBRANCH   6   8
ENDBRANCH   5   6
ENDBRANCH   4   5
ENDBRANCH   3   4
ENDBRANCH   2   3
ENDBRANCH   1   2
BRANCH   1  22
ATOM     22  C   UNL A   1      36.225  22.178  25.708  1.00  0.00     0.188 C 
BRANCH  22  23
ATOM     23  O   UNL A   1      37.331  21.675  24.971  1.00  0.00    -0.376 OA
BRANCH  23  24
ATOM     24  C   UNL A   1      37.539  20.261  24.966  1.00  0.00     0.202 C 
BRANCH  24  25
ATOM     25  C   UNL A   1      38.983  19.740  25.030  1.00  0.00     0.261 C 
BRANCH  25  26
ATOM     26  O   UNL A   1      39.598  19.935  26.324  1.00  0.00    -0.460 OA
BRANCH  26  27
ATOM     27  C   UNL A   1      40.799  20.554  26.300  1.00  0.00     0.338 C 
ATOM     28  O   UNL A   1      41.779  20.244  25.637  1.00  0.00    -0.246 OA
BRANCH  27  29
ATOM     29  C   UNL A   1      40.788  21.793  27.097  1.00  0.00     0.060 A 
ATOM     30  C   UNL A   1      39.988  22.852  26.648  1.00  0.00     0.016 A 
ATOM     31  C   UNL A   1      41.733  21.997  28.104  1.00  0.00     0.016 A 
ATOM     32  C   UNL A   1      40.192  24.140  27.141  1.00  0.00     0.010 A 
ATOM     33  C   UNL A   1      41.943  23.294  28.593  1.00  0.00     0.010 A 
ATOM     34  C   UNL A   1      41.220  24.378  28.063  1.00  0.00    -0.014 A 
BRANCH  34  35
ATOM     35  C   UNL A   1      41.700  25.773  28.251  1.00  0.00     0.031 A 
ATOM     36  C   UNL A   1      43.050  26.147  27.690  1.00  0.00     0.074 A 
ATOM     37  C   UNL A   1      40.941  26.710  28.843  1.00  0.00     0.049 A 
ATOM     38  N   UNL A   1      43.663  27.305  27.688  1.00  0.00    -0.248 NA
ATOM     39  C   UNL A   1      43.810  25.067  27.039  1.00  0.00     0.031 C 
ATOM     40  C   UNL A   1      39.606  26.495  29.392  1.00  0.00     0.029 A 
ATOM     41  N   UNL A   1      41.193  28.040  29.075  1.00  0.00    -0.354 N 
ATOM     42  C   UNL A   1      44.873  27.091  27.041  1.00  0.00     0.074 A 
ATOM     43  C   UNL A   1      44.926  25.689  26.691  1.00  0.00     0.031 C 
ATOM     44  C   UNL A   1      39.154  27.654  29.900  1.00  0.00     0.029 A 
ATOM     45  C   UNL A   1      40.174  28.688  29.726  1.00  0.00     0.049 A 
ATOM     46  H   UNL A   1      42.027  28.486  28.799  1.00  0.00     0.167 HD
ATOM     47  C   UNL A   1      45.851  27.983  26.751  1.00  0.00     0.037 A 
ATOM     48  C   UNL A   1      40.081  29.969  30.135  1.00  0.00     0.037 A 
ATOM     49  C   UNL A   1      45.807  29.379  27.089  1.00  0.00     0.049 A 
ATOM     50  C   UNL A   1      41.206  30.931  29.846  1.00  0.00     0.074 A 
ATOM     51  C   UNL A   1      46.746  30.362  26.827  1.00  0.00     0.029 A 
ATOM     52  N   UNL A   1      44.767  29.990  27.771  1.00  0.00    -0.354 N 
ATOM     53  N   UNL A   1      42.329  30.727  29.202  1.00  0.00    -0.248 NA
ATOM     54  C   UNL A   1      41.038  32.310  30.333  1.00  0.00     0.031 C 
ATOM     55  C   UNL A   1      46.290  31.562  27.385  1.00  0.00     0.029 A 
ATOM     56  C   UNL A   1      45.048  31.335  27.954  1.00  0.00     0.049 A 
ATOM     57  H   UNL A   1      43.949  29.537  28.079  1.00  0.00     0.167 HD
ATOM     58  C   UNL A   1      42.980  31.955  29.170  1.00  0.00     0.074 A 
ATOM     59  C   UNL A   1      42.126  32.900  29.856  1.00  0.00     0.031 C 
ATOM     60  C   UNL A   1      44.177  32.271  28.617  1.00  0.00     0.037 A 
BRANCH  47  61
ATOM     61  C   UNL A   1      47.069  27.461  26.046  1.00  0.00     0.064 A 
ATOM     62  C   UNL A   1      48.154  26.923  26.754  1.00  0.00     0.173 A 
ATOM     63  C   UNL A   1      47.140  27.481  24.645  1.00  0.00     0.173 A 
ATOM     64  F   UNL A   1      48.138  26.896  28.095  1.00  0.00    -0.203 F 
ATOM     65  C   UNL A   1      49.277  26.445  26.085  1.00  0.00     0.198 A 
ATOM     66  C   UNL A   1      48.255  26.979  23.979  1.00  0.00     0.198 A 
ATOM     67  F   UNL A   1      46.128  27.983  23.923  1.00  0.00    -0.203 F 
ATOM     68  F   UNL A   1      50.321  25.975  26.781  1.00  0.00    -0.200 F 
ATOM     69  C   UNL A   1      49.325  26.468  24.698  1.00  0.00     0.200 A 
ATOM     70  F   UNL A   1      48.294  26.994  22.640  1.00  0.00    -0.200 F 
ATOM     71  F   UNL A   1      50.405  26.006  24.055  1.00  0.00    -0.200 F 
ENDBRANCH  47  61
BRANCH  48  72
ATOM     72  C   UNL A   1      38.867  30.432  30.855  1.00  0.00     0.064 A 
ATOM     73  C   UNL A   1      37.752  30.917  30.156  1.00  0.00     0.173 A 
ATOM     74  C   UNL A   1      38.810  30.432  32.256  1.00  0.00     0.173 A 
ATOM     75  F   UNL A   1      37.773  30.963  28.815  1.00  0.00    -0.203 F 
ATOM     76  C   UNL A   1      36.636  31.403  30.831  1.00  0.00     0.198 A 
ATOM     77  C   UNL A   1      37.682  30.896  32.930  1.00  0.00     0.198 A 
ATOM     78  F   UNL A   1      39.851  29.982  32.971  1.00  0.00    -0.203 F 
ATOM     79  F   UNL A   1      35.604  31.907  30.139  1.00  0.00    -0.200 F 
ATOM     80  C   UNL A   1      36.599  31.389  32.218  1.00  0.00     0.200 A 
ATOM     81  F   UNL A   1      37.647  30.872  34.269  1.00  0.00    -0.200 F 
ATOM     82  F   UNL A   1      35.526  31.858  32.867  1.00  0.00    -0.200 F 
ENDBRANCH  48  72
BRANCH  60  83
ATOM     83  C   UNL A   1      44.611  33.707  28.677  1.00  0.00     0.064 A 
ATOM     84  C   UNL A   1      44.217  34.640  27.708  1.00  0.00     0.173 A 
ATOM     85  C   UNL A   1      45.403  34.161  29.744  1.00  0.00     0.173 A 
ATOM     86  F   UNL A   1      43.470  34.252  26.662  1.00  0.00    -0.203 F 
ATOM     87  C   UNL A   1      44.623  35.969  27.788  1.00  0.00     0.198 A 
ATOM     88  C   UNL A   1      45.784  35.497  29.835  1.00  0.00     0.198 A 
ATOM     89  F   UNL A   1      45.800  33.310  30.702  1.00  0.00    -0.203 F 
ATOM     90  F   UNL A   1      44.274  36.834  26.825  1.00  0.00    -0.200 F 
ATOM     91  C   UNL A   1      45.400  36.397  28.854  1.00  0.00     0.200 A 
ATOM     92  F   UNL A   1      46.525  35.911  30.872  1.00  0.00    -0.200 F 
ATOM     93  F   UNL A   1      45.787  37.679  28.931  1.00  0.00    -0.200 F 
ENDBRANCH  60  83
ENDBRANCH  34  35
ENDBRANCH  27  29
ENDBRANCH  26  27
ENDBRANCH  25  26
ENDBRANCH  24  25
ENDBRANCH  23  24
ENDBRANCH  22  23
ENDBRANCH   1  22
TORSDOF 21
ENDMDL
