MODEL 1
REMARK VINA RESULT:     -11.3      0.000      0.000
REMARK SMILES O=C(OCCOCCOCCOC(=O)c1cc(SCC(=O)N2CCOCC2)ccn1)c1ccc(-c2c3nc(c(-c4c(F)c(F)c(F)c(F)c4F)c4ccc([nH]4)c(-c4c(F)c(F)c(F)c(F)c4F)c4nc(c(-c5c(F)c(F)c(F)c(F)c5F)c5ccc2[nH]5)C=C4)C=C3)cc1
REMARK SMILES IDX 8 1 7 2 6 3 5 4 4 5 3 6 2 7 1 8 31 9 32 10 93 11 33 12 92 13
REMARK SMILES IDX 34 14 35 15 36 16 86 17 37 18 91 19 85 20 87 21 38 22 90 23
REMARK SMILES IDX 84 24 83 25 39 27 71 28 51 29 70 30 52 31 55 32 69 33 88 34
REMARK SMILES IDX 53 35 54 36 68 38 89 39 56 40 40 41 41 42 49 43 42 44 43 45
REMARK SMILES IDX 47 46 50 47 44 48 45 49 48 50 46 51 72 52 73 53 81 54 74 55
REMARK SMILES IDX 75 56 79 57 82 58 76 59 77 60 80 61 78 62 57 63 58 64 66 65
REMARK SMILES IDX 59 66 60 67 64 68 67 69 61 70 62 71 65 72 63 73 9 74 10 75
REMARK SMILES IDX 11 76 12 77 13 78 14 79 15 80 16 81 30 82 17 83 29 84 28 85
REMARK SMILES IDX 18 86 19 87 20 88 21 89 22 90 23 91 27 92 24 93 26 94 25 95
REMARK H PARENT 87 26 55 37
REMARK Flexibility Score: inf
ROOT
ATOM      1  C   UNL A   1      32.988  36.894  31.146  1.00  0.00     0.188 C 
ENDROOT
BRANCH   1   2
ATOM      2  C   UNL A   1      33.255  36.257  32.512  1.00  0.00     0.188 C 
BRANCH   2   3
ATOM      3  O   UNL A   1      33.150  34.823  32.482  1.00  0.00    -0.376 OA
BRANCH   3   4
ATOM      4  C   UNL A   1      34.337  34.172  32.944  1.00  0.00     0.202 C 
BRANCH   4   5
ATOM      5  C   UNL A   1      34.503  32.724  32.463  1.00  0.00     0.261 C 
BRANCH   5   6
ATOM      6  O   UNL A   1      35.814  32.448  31.943  1.00  0.00    -0.460 OA
BRANCH   6   7
ATOM      7  C   UNL A   1      36.920  32.004  32.589  1.00  0.00     0.338 C 
ATOM      8  O   UNL A   1      36.894  31.977  33.820  1.00  0.00    -0.246 OA
BRANCH   7   9
ATOM      9  C   UNL A   1      38.160  31.490  31.916  1.00  0.00     0.060 A 
ATOM     10  C   UNL A   1      39.258  30.913  32.554  1.00  0.00     0.016 A 
ATOM     11  C   UNL A   1      38.203  31.572  30.507  1.00  0.00     0.016 A 
ATOM     12  C   UNL A   1      40.396  30.537  31.841  1.00  0.00     0.010 A 
ATOM     13  C   UNL A   1      39.305  31.112  29.774  1.00  0.00     0.010 A 
ATOM     14  C   UNL A   1      40.424  30.613  30.445  1.00  0.00    -0.014 A 
BRANCH  14  15
ATOM     15  C   UNL A   1      41.665  30.158  29.738  1.00  0.00     0.031 A 
ATOM     16  C   UNL A   1      41.644  28.747  29.251  1.00  0.00     0.074 A 
ATOM     17  C   UNL A   1      42.607  31.088  29.440  1.00  0.00     0.049 A 
ATOM     18  N   UNL A   1      42.448  28.157  28.417  1.00  0.00    -0.248 NA
ATOM     19  C   UNL A   1      40.524  27.895  29.708  1.00  0.00     0.031 C 
ATOM     20  C   UNL A   1      42.375  32.453  29.845  1.00  0.00     0.029 A 
ATOM     21  N   UNL A   1      43.806  31.163  28.726  1.00  0.00    -0.354 N 
ATOM     22  C   UNL A   1      41.906  26.894  28.213  1.00  0.00     0.074 A 
ATOM     23  C   UNL A   1      40.736  26.771  29.043  1.00  0.00     0.031 C 
ATOM     24  C   UNL A   1      43.287  33.233  29.278  1.00  0.00     0.029 A 
ATOM     25  C   UNL A   1      44.362  32.468  28.590  1.00  0.00     0.049 A 
ATOM     26  H   UNL A   1      44.238  30.366  28.342  1.00  0.00     0.167 HD
ATOM     27  C   UNL A   1      42.348  25.945  27.362  1.00  0.00     0.037 A 
ATOM     28  C   UNL A   1      45.614  32.959  28.012  1.00  0.00     0.037 A 
ATOM     29  C   UNL A   1      43.517  26.138  26.566  1.00  0.00     0.049 A 
ATOM     30  C   UNL A   1      46.218  31.277  27.426  1.00  0.00     0.074 A 
ATOM     31  C   UNL A   1      44.168  25.257  25.729  1.00  0.00     0.029 A 
ATOM     32  N   UNL A   1      44.219  27.335  26.544  1.00  0.00    -0.354 N 
ATOM     33  N   UNL A   1      45.514  30.265  26.895  1.00  0.00    -0.248 NA
ATOM     34  C   UNL A   1      47.686  30.915  27.353  1.00  0.00     0.031 C 
ATOM     35  C   UNL A   1      45.295  25.916  25.228  1.00  0.00     0.029 A 
ATOM     36  C   UNL A   1      45.336  27.201  25.760  1.00  0.00     0.049 A 
ATOM     37  H   UNL A   1      43.954  28.156  27.019  1.00  0.00     0.167 HD
ATOM     38  C   UNL A   1      46.442  29.404  26.252  1.00  0.00     0.074 A 
ATOM     39  C   UNL A   1      47.724  30.031  26.382  1.00  0.00     0.031 C 
ATOM     40  C   UNL A   1      46.391  28.167  25.673  1.00  0.00     0.037 A 
BRANCH  27  41
ATOM     41  C   UNL A   1      41.588  24.665  27.283  1.00  0.00     0.064 A 
ATOM     42  C   UNL A   1      42.103  23.484  27.836  1.00  0.00     0.173 A 
ATOM     43  C   UNL A   1      40.344  24.608  26.640  1.00  0.00     0.173 A 
ATOM     44  F   UNL A   1      43.301  23.489  28.440  1.00  0.00    -0.203 F 
ATOM     45  C   UNL A   1      41.403  22.285  27.735  1.00  0.00     0.198 A 
ATOM     46  C   UNL A   1      39.643  23.409  26.550  1.00  0.00     0.198 A 
ATOM     47  F   UNL A   1      39.819  25.712  26.088  1.00  0.00    -0.203 F 
ATOM     48  F   UNL A   1      41.927  21.159  28.242  1.00  0.00    -0.200 F 
ATOM     49  C   UNL A   1      40.173  22.248  27.094  1.00  0.00     0.200 A 
ATOM     50  F   UNL A   1      38.458  23.373  25.925  1.00  0.00    -0.200 F 
ATOM     51  F   UNL A   1      39.506  21.091  26.988  1.00  0.00    -0.200 F 
ENDBRANCH  27  41
BRANCH  28  52
ATOM     52  C   UNL A   1      46.686  34.733  27.756  1.00  0.00     0.064 A 
ATOM     53  C   UNL A   1      47.940  35.074  26.899  1.00  0.00     0.173 A 
ATOM     54  C   UNL A   1      46.521  36.147  28.430  1.00  0.00     0.173 A 
ATOM     55  F   UNL A   1      48.526  34.213  26.038  1.00  0.00    -0.203 F 
ATOM     56  C   UNL A   1      48.696  36.285  26.807  1.00  0.00     0.198 A 
ATOM     57  C   UNL A   1      47.282  37.340  28.295  1.00  0.00     0.198 A 
ATOM     58  F   UNL A   1      45.524  36.467  29.288  1.00  0.00    -0.203 F 
ATOM     59  F   UNL A   1      49.766  36.316  25.996  1.00  0.00    -0.200 F 
ATOM     60  C   UNL A   1      48.372  37.411  27.496  1.00  0.00     0.200 A 
ATOM     61  F   UNL A   1      46.885  38.436  28.964  1.00  0.00    -0.200 F 
ATOM     62  F   UNL A   1      49.075  38.542  27.375  1.00  0.00    -0.200 F 
ENDBRANCH  28  52
BRANCH  40  63
ATOM     63  C   UNL A   1      47.613  27.704  24.900  1.00  0.00     0.064 A 
ATOM     64  C   UNL A   1      48.694  27.050  25.513  1.00  0.00     0.173 A 
ATOM     65  C   UNL A   1      47.673  27.906  23.512  1.00  0.00     0.173 A 
ATOM     66  F   UNL A   1      48.689  26.832  26.837  1.00  0.00    -0.203 F 
ATOM     67  C   UNL A   1      49.825  26.695  24.780  1.00  0.00     0.198 A 
ATOM     68  C   UNL A   1      48.782  27.498  22.774  1.00  0.00     0.198 A 
ATOM     69  F   UNL A   1      46.648  28.483  22.868  1.00  0.00    -0.203 F 
ATOM     70  F   UNL A   1      50.886  26.167  25.407  1.00  0.00    -0.200 F 
ATOM     71  C   UNL A   1      49.866  26.914  23.413  1.00  0.00     0.200 A 
ATOM     72  F   UNL A   1      48.806  27.678  21.446  1.00  0.00    -0.200 F 
ATOM     73  F   UNL A   1      50.954  26.568  22.710  1.00  0.00    -0.200 F 
ENDBRANCH  40  63
ENDBRANCH  14  15
ENDBRANCH   7   9
ENDBRANCH   6   7
ENDBRANCH   5   6
ENDBRANCH   4   5
ENDBRANCH   3   4
ENDBRANCH   2   3
ENDBRANCH   1   2
BRANCH   1  74
ATOM     74  O   UNL A   1      32.249  36.099  30.215  1.00  0.00    -0.376 OA
BRANCH  74  75
ATOM     75  C   UNL A   1      32.924  35.671  29.036  1.00  0.00     0.202 C 
BRANCH  75  76
ATOM     76  C   UNL A   1      34.228  34.895  29.228  1.00  0.00     0.261 C 
BRANCH  76  77
ATOM     77  O   UNL A   1      34.081  33.484  29.042  1.00  0.00    -0.459 OA
BRANCH  77  78
ATOM     78  C   UNL A   1      35.156  32.881  28.479  1.00  0.00     0.357 C 
ATOM     79  O   UNL A   1      36.253  33.369  28.252  1.00  0.00    -0.244 OA
BRANCH  78  80
ATOM     80  C   UNL A   1      34.777  31.541  28.000  1.00  0.00     0.149 A 
ATOM     81  C   UNL A   1      33.616  31.476  27.255  1.00  0.00     0.051 A 
ATOM     82  N   UNL A   1      35.603  30.490  28.235  1.00  0.00    -0.249 NA
ATOM     83  C   UNL A   1      33.259  30.254  26.718  1.00  0.00     0.012 A 
ATOM     84  C   UNL A   1      35.252  29.322  27.657  1.00  0.00     0.113 A 
ATOM     85  C   UNL A   1      34.104  29.158  26.898  1.00  0.00     0.035 A 
BRANCH  83  86
ATOM     86  S   UNL A   1      31.795  30.051  25.746  1.00  0.00    -0.116 SA
BRANCH  86  87
ATOM     87  C   UNL A   1      32.274  28.776  24.549  1.00  0.00     0.175 C 
BRANCH  87  88
ATOM     88  C   UNL A   1      31.212  27.770  24.121  1.00  0.00     0.233 C 
ATOM     89  O   UNL A   1      31.224  26.634  24.605  1.00  0.00    -0.274 OA
ATOM     90  N   UNL A   1      30.121  28.186  23.347  1.00  0.00    -0.337 N 
ATOM     91  C   UNL A   1      30.157  29.682  22.265  1.00  0.00     0.148 C 
ATOM     92  C   UNL A   1      28.559  27.228  23.621  1.00  0.00     0.148 C 
ATOM     93  C   UNL A   1      28.479  30.683  22.072  1.00  0.00     0.181 C 
ATOM     94  C   UNL A   1      26.856  28.205  23.459  1.00  0.00     0.181 C 
ATOM     95  O   UNL A   1      26.987  30.010  23.012  1.00  0.00    -0.378 OA
ENDBRANCH  87  88
ENDBRANCH  86  87
ENDBRANCH  83  86
ENDBRANCH  78  80
ENDBRANCH  77  78
ENDBRANCH  76  77
ENDBRANCH  75  76
ENDBRANCH  74  75
ENDBRANCH   1  74
TORSDOF 20
ENDMDL
MODEL 2
REMARK VINA RESULT:     -10.8      1.463      7.984
REMARK SMILES O=C(OCCOCCOCCOC(=O)c1cc(SCC(=O)N2CCOCC2)ccn1)c1ccc(-c2c3nc(c(-c4c(F)c(F)c(F)c(F)c4F)c4ccc([nH]4)c(-c4c(F)c(F)c(F)c(F)c4F)c4nc(c(-c5c(F)c(F)c(F)c(F)c5F)c5ccc2[nH]5)C=C4)C=C3)cc1
REMARK SMILES IDX 8 1 7 2 6 3 5 4 4 5 3 6 2 7 1 8 31 9 32 10 93 11 33 12 92 13
REMARK SMILES IDX 34 14 35 15 36 16 86 17 37 18 91 19 85 20 87 21 38 22 90 23
REMARK SMILES IDX 84 24 83 25 39 27 71 28 51 29 70 30 52 31 55 32 69 33 88 34
REMARK SMILES IDX 53 35 54 36 68 38 89 39 56 40 40 41 41 42 49 43 42 44 43 45
REMARK SMILES IDX 47 46 50 47 44 48 45 49 48 50 46 51 72 52 73 53 81 54 74 55
REMARK SMILES IDX 75 56 79 57 82 58 76 59 77 60 80 61 78 62 57 63 58 64 66 65
REMARK SMILES IDX 59 66 60 67 64 68 67 69 61 70 62 71 65 72 63 73 9 74 10 75
REMARK SMILES IDX 11 76 12 77 13 78 14 79 15 80 16 81 30 82 17 83 29 84 28 85
REMARK SMILES IDX 18 86 19 87 20 88 21 89 22 90 23 91 27 92 24 93 26 94 25 95
REMARK H PARENT 87 26 55 37
REMARK Flexibility Score: inf
ROOT
ATOM      1  C   UNL A   1      33.175  35.662  32.470  1.00  0.00     0.188 C 
ENDROOT
BRANCH   1   2
ATOM      2  C   UNL A   1      34.191  35.932  33.583  1.00  0.00     0.188 C 
BRANCH   2   3
ATOM      3  O   UNL A   1      34.969  34.769  33.914  1.00  0.00    -0.376 OA
BRANCH   3   4
ATOM      4  C   UNL A   1      34.306  33.546  33.580  1.00  0.00     0.202 C 
BRANCH   4   5
ATOM      5  C   UNL A   1      35.052  32.668  32.566  1.00  0.00     0.261 C 
BRANCH   5   6
ATOM      6  O   UNL A   1      35.929  31.713  33.182  1.00  0.00    -0.460 OA
BRANCH   6   7
ATOM      7  C   UNL A   1      37.271  31.771  33.368  1.00  0.00     0.338 C 
ATOM      8  O   UNL A   1      37.683  32.130  34.472  1.00  0.00    -0.246 OA
BRANCH   7   9
ATOM      9  C   UNL A   1      38.299  31.379  32.346  1.00  0.00     0.060 A 
ATOM     10  C   UNL A   1      38.199  31.572  30.969  1.00  0.00     0.016 A 
ATOM     11  C   UNL A   1      39.487  30.789  32.829  1.00  0.00     0.016 A 
ATOM     12  C   UNL A   1      39.179  31.100  30.096  1.00  0.00     0.010 A 
ATOM     13  C   UNL A   1      40.519  30.395  31.967  1.00  0.00     0.010 A 
ATOM     14  C   UNL A   1      40.357  30.527  30.586  1.00  0.00    -0.014 A 
BRANCH  14  15
ATOM     15  C   UNL A   1      41.386  30.075  29.595  1.00  0.00     0.031 A 
ATOM     16  C   UNL A   1      42.544  30.999  29.406  1.00  0.00     0.074 A 
ATOM     17  C   UNL A   1      41.286  28.815  29.101  1.00  0.00     0.049 A 
ATOM     18  N   UNL A   1      43.680  30.776  28.816  1.00  0.00    -0.248 NA
ATOM     19  C   UNL A   1      42.441  32.338  30.026  1.00  0.00     0.031 C 
ATOM     20  C   UNL A   1      40.181  27.994  29.533  1.00  0.00     0.029 A 
ATOM     21  N   UNL A   1      42.030  27.952  28.292  1.00  0.00    -0.354 N 
ATOM     22  C   UNL A   1      44.440  31.920  29.037  1.00  0.00     0.074 A 
ATOM     23  C   UNL A   1      43.630  32.860  29.767  1.00  0.00     0.031 C 
ATOM     24  C   UNL A   1      40.379  26.749  29.119  1.00  0.00     0.029 A 
ATOM     25  C   UNL A   1      41.533  26.621  28.188  1.00  0.00     0.049 A 
ATOM     26  H   UNL A   1      42.846  28.245  27.825  1.00  0.00     0.167 HD
ATOM     27  C   UNL A   1      45.724  32.125  28.682  1.00  0.00     0.037 A 
ATOM     28  C   UNL A   1      41.950  25.463  27.396  1.00  0.00     0.037 A 
ATOM     29  C   UNL A   1      46.469  31.144  27.960  1.00  0.00     0.049 A 
ATOM     30  C   UNL A   1      43.435  26.306  26.607  1.00  0.00     0.074 A 
ATOM     31  C   UNL A   1      47.740  31.217  27.430  1.00  0.00     0.029 A 
ATOM     32  N   UNL A   1      45.958  29.890  27.657  1.00  0.00    -0.354 N 
ATOM     33  N   UNL A   1      44.305  27.171  27.154  1.00  0.00    -0.248 NA
ATOM     34  C   UNL A   1      43.927  25.965  25.216  1.00  0.00     0.031 C 
ATOM     35  C   UNL A   1      47.983  30.009  26.769  1.00  0.00     0.029 A 
ATOM     36  C   UNL A   1      46.860  29.197  26.890  1.00  0.00     0.049 A 
ATOM     37  H   UNL A   1      45.082  29.549  27.949  1.00  0.00     0.167 HD
ATOM     38  C   UNL A   1      45.449  27.198  26.314  1.00  0.00     0.074 A 
ATOM     39  C   UNL A   1      45.211  26.231  25.284  1.00  0.00     0.031 C 
ATOM     40  C   UNL A   1      46.583  27.955  26.231  1.00  0.00     0.037 A 
BRANCH  27  41
ATOM     41  C   UNL A   1      46.354  33.425  29.050  1.00  0.00     0.064 A 
ATOM     42  C   UNL A   1      47.200  33.528  30.164  1.00  0.00     0.173 A 
ATOM     43  C   UNL A   1      46.102  34.582  28.301  1.00  0.00     0.173 A 
ATOM     44  F   UNL A   1      47.450  32.451  30.923  1.00  0.00    -0.203 F 
ATOM     45  C   UNL A   1      47.764  34.750  30.521  1.00  0.00     0.198 A 
ATOM     46  C   UNL A   1      46.676  35.800  28.655  1.00  0.00     0.198 A 
ATOM     47  F   UNL A   1      45.290  34.532  27.234  1.00  0.00    -0.203 F 
ATOM     48  F   UNL A   1      48.545  34.834  31.607  1.00  0.00    -0.200 F 
ATOM     49  C   UNL A   1      47.503  35.884  29.766  1.00  0.00     0.200 A 
ATOM     50  F   UNL A   1      46.418  36.897  27.929  1.00  0.00    -0.200 F 
ATOM     51  F   UNL A   1      48.037  37.062  30.117  1.00  0.00    -0.200 F 
ENDBRANCH  27  41
BRANCH  28  52
ATOM     52  C   UNL A   1      41.384  23.493  26.996  1.00  0.00     0.064 A 
ATOM     53  C   UNL A   1      42.198  22.167  26.952  1.00  0.00     0.173 A 
ATOM     54  C   UNL A   1      39.995  22.883  26.569  1.00  0.00     0.173 A 
ATOM     55  F   UNL A   1      43.502  22.067  27.289  1.00  0.00    -0.203 F 
ATOM     56  C   UNL A   1      41.789  20.842  26.598  1.00  0.00     0.198 A 
ATOM     57  C   UNL A   1      39.621  21.550  26.246  1.00  0.00     0.198 A 
ATOM     58  F   UNL A   1      38.850  23.599  26.470  1.00  0.00    -0.203 F 
ATOM     59  F   UNL A   1      42.704  19.859  26.621  1.00  0.00    -0.200 F 
ATOM     60  C   UNL A   1      40.513  20.532  26.249  1.00  0.00     0.200 A 
ATOM     61  F   UNL A   1      38.333  21.296  25.957  1.00  0.00    -0.200 F 
ATOM     62  F   UNL A   1      40.144  19.283  25.948  1.00  0.00    -0.200 F 
ENDBRANCH  28  52
BRANCH  40  63
ATOM     63  C   UNL A   1      47.669  27.488  25.277  1.00  0.00     0.064 A 
ATOM     64  C   UNL A   1      48.753  26.698  25.692  1.00  0.00     0.173 A 
ATOM     65  C   UNL A   1      47.592  27.829  23.917  1.00  0.00     0.173 A 
ATOM     66  F   UNL A   1      48.876  26.343  26.980  1.00  0.00    -0.203 F 
ATOM     67  C   UNL A   1      49.762  26.340  24.800  1.00  0.00     0.198 A 
ATOM     68  C   UNL A   1      48.574  27.422  23.017  1.00  0.00     0.198 A 
ATOM     69  F   UNL A   1      46.553  28.543  23.457  1.00  0.00    -0.203 F 
ATOM     70  F   UNL A   1      50.838  25.675  25.243  1.00  0.00    -0.200 F 
ATOM     71  C   UNL A   1      49.669  26.697  23.464  1.00  0.00     0.200 A 
ATOM     72  F   UNL A   1      48.465  27.736  21.719  1.00  0.00    -0.200 F 
ATOM     73  F   UNL A   1      50.639  26.349  22.607  1.00  0.00    -0.200 F 
ENDBRANCH  40  63
ENDBRANCH  14  15
ENDBRANCH   7   9
ENDBRANCH   6   7
ENDBRANCH   5   6
ENDBRANCH   4   5
ENDBRANCH   3   4
ENDBRANCH   2   3
ENDBRANCH   1   2
BRANCH   1  74
ATOM     74  O   UNL A   1      33.698  35.609  31.140  1.00  0.00    -0.376 OA
BRANCH  74  75
ATOM     75  C   UNL A   1      33.092  36.450  30.163  1.00  0.00     0.202 C 
BRANCH  75  76
ATOM     76  C   UNL A   1      33.488  36.214  28.705  1.00  0.00     0.261 C 
BRANCH  76  77
ATOM     77  O   UNL A   1      34.160  34.968  28.495  1.00  0.00    -0.459 OA
BRANCH  77  78
ATOM     78  C   UNL A   1      33.359  33.975  28.034  1.00  0.00     0.357 C 
ATOM     79  O   UNL A   1      32.160  34.026  27.810  1.00  0.00    -0.244 OA
BRANCH  78  80
ATOM     80  C   UNL A   1      34.117  32.713  27.984  1.00  0.00     0.149 A 
ATOM     81  C   UNL A   1      33.392  31.592  27.632  1.00  0.00     0.051 A 
ATOM     82  N   UNL A   1      35.458  32.731  28.195  1.00  0.00    -0.249 NA
ATOM     83  C   UNL A   1      34.074  30.397  27.497  1.00  0.00     0.012 A 
ATOM     84  C   UNL A   1      36.101  31.560  28.008  1.00  0.00     0.113 A 
ATOM     85  C   UNL A   1      35.460  30.381  27.661  1.00  0.00     0.035 A 
BRANCH  83  86
ATOM     86  S   UNL A   1      33.251  28.896  27.049  1.00  0.00    -0.116 SA
BRANCH  86  87
ATOM     87  C   UNL A   1      34.095  28.409  25.520  1.00  0.00     0.175 C 
BRANCH  87  88
ATOM     88  C   UNL A   1      33.600  27.158  24.805  1.00  0.00     0.233 C 
ATOM     89  O   UNL A   1      34.101  26.064  25.082  1.00  0.00    -0.274 OA
ATOM     90  N   UNL A   1      32.460  27.216  23.993  1.00  0.00    -0.337 N 
ATOM     91  C   UNL A   1      31.859  28.770  23.198  1.00  0.00     0.148 C 
ATOM     92  C   UNL A   1      31.476  25.648  23.915  1.00  0.00     0.148 C 
ATOM     93  C   UNL A   1      29.918  28.972  22.988  1.00  0.00     0.181 C 
ATOM     94  C   UNL A   1      29.522  25.811  23.729  1.00  0.00     0.181 C 
ATOM     95  O   UNL A   1      28.852  27.548  23.619  1.00  0.00    -0.378 OA
ENDBRANCH  87  88
ENDBRANCH  86  87
ENDBRANCH  83  86
ENDBRANCH  78  80
ENDBRANCH  77  78
ENDBRANCH  76  77
ENDBRANCH  75  76
ENDBRANCH  74  75
ENDBRANCH   1  74
TORSDOF 20
ENDMDL
MODEL 3
REMARK VINA RESULT:     -10.2      5.242     11.940
REMARK SMILES O=C(OCCOCCOCCOC(=O)c1cc(SCC(=O)N2CCOCC2)ccn1)c1ccc(-c2c3nc(c(-c4c(F)c(F)c(F)c(F)c4F)c4ccc([nH]4)c(-c4c(F)c(F)c(F)c(F)c4F)c4nc(c(-c5c(F)c(F)c(F)c(F)c5F)c5ccc2[nH]5)C=C4)C=C3)cc1
REMARK SMILES IDX 8 1 7 2 6 3 5 4 4 5 3 6 2 7 1 8 31 9 32 10 93 11 33 12 92 13
REMARK SMILES IDX 34 14 35 15 36 16 86 17 37 18 91 19 85 20 87 21 38 22 90 23
REMARK SMILES IDX 84 24 83 25 39 27 71 28 51 29 70 30 52 31 55 32 69 33 88 34
REMARK SMILES IDX 53 35 54 36 68 38 89 39 56 40 40 41 41 42 49 43 42 44 43 45
REMARK SMILES IDX 47 46 50 47 44 48 45 49 48 50 46 51 72 52 73 53 81 54 74 55
REMARK SMILES IDX 75 56 79 57 82 58 76 59 77 60 80 61 78 62 57 63 58 64 66 65
REMARK SMILES IDX 59 66 60 67 64 68 67 69 61 70 62 71 65 72 63 73 9 74 10 75
REMARK SMILES IDX 11 76 12 77 13 78 14 79 15 80 16 81 30 82 17 83 29 84 28 85
REMARK SMILES IDX 18 86 19 87 20 88 21 89 22 90 23 91 27 92 24 93 26 94 25 95
REMARK H PARENT 87 26 55 37
REMARK Flexibility Score: inf
ROOT
ATOM      1  C   UNL A   1      37.941  31.316  35.047  1.00  0.00     0.188 C 
ENDROOT
BRANCH   1   2
ATOM      2  C   UNL A   1      37.577  32.767  34.724  1.00  0.00     0.188 C 
BRANCH   2   3
ATOM      3  O   UNL A   1      36.189  33.056  34.968  1.00  0.00    -0.376 OA
BRANCH   3   4
ATOM      4  C   UNL A   1      35.583  33.794  33.903  1.00  0.00     0.202 C 
BRANCH   4   5
ATOM      5  C   UNL A   1      34.436  33.064  33.189  1.00  0.00     0.261 C 
BRANCH   5   6
ATOM      6  O   UNL A   1      34.350  33.377  31.790  1.00  0.00    -0.460 OA
BRANCH   6   7
ATOM      7  C   UNL A   1      34.752  32.649  30.719  1.00  0.00     0.338 C 
ATOM      8  O   UNL A   1      33.976  32.553  29.767  1.00  0.00    -0.246 OA
BRANCH   7   9
ATOM      9  C   UNL A   1      36.095  31.993  30.580  1.00  0.00     0.060 A 
ATOM     10  C   UNL A   1      36.658  31.083  31.473  1.00  0.00     0.016 A 
ATOM     11  C   UNL A   1      36.841  32.304  29.422  1.00  0.00     0.016 A 
ATOM     12  C   UNL A   1      37.949  30.588  31.289  1.00  0.00     0.010 A 
ATOM     13  C   UNL A   1      38.102  31.741  29.182  1.00  0.00     0.010 A 
ATOM     14  C   UNL A   1      38.675  30.895  30.134  1.00  0.00    -0.014 A 
BRANCH  14  15
ATOM     15  C   UNL A   1      40.042  30.301  29.981  1.00  0.00     0.031 A 
ATOM     16  C   UNL A   1      41.158  31.096  30.573  1.00  0.00     0.074 A 
ATOM     17  C   UNL A   1      40.138  29.036  29.496  1.00  0.00     0.049 A 
ATOM     18  N   UNL A   1      42.384  30.737  30.807  1.00  0.00    -0.248 NA
ATOM     19  C   UNL A   1      40.835  32.464  31.034  1.00  0.00     0.031 C 
ATOM     20  C   UNL A   1      38.923  28.348  29.130  1.00  0.00     0.029 A 
ATOM     21  N   UNL A   1      41.127  28.070  29.298  1.00  0.00    -0.354 N 
ATOM     22  C   UNL A   1      42.960  31.808  31.481  1.00  0.00     0.074 A 
ATOM     23  C   UNL A   1      41.976  32.855  31.579  1.00  0.00     0.031 C 
ATOM     24  C   UNL A   1      39.203  27.073  28.894  1.00  0.00     0.029 A 
ATOM     25  C   UNL A   1      40.664  26.791  28.873  1.00  0.00     0.049 A 
ATOM     26  H   UNL A   1      42.082  28.260  29.444  1.00  0.00     0.167 HD
ATOM     27  C   UNL A   1      44.202  31.870  32.003  1.00  0.00     0.037 A 
ATOM     28  C   UNL A   1      41.358  25.564  28.477  1.00  0.00     0.037 A 
ATOM     29  C   UNL A   1      45.126  30.790  31.870  1.00  0.00     0.049 A 
ATOM     30  C   UNL A   1      43.091  26.221  28.800  1.00  0.00     0.074 A 
ATOM     31  C   UNL A   1      46.451  30.713  32.243  1.00  0.00     0.029 A 
ATOM     32  N   UNL A   1      44.783  29.581  31.282  1.00  0.00    -0.354 N 
ATOM     33  N   UNL A   1      43.521  27.019  29.790  1.00  0.00    -0.248 NA
ATOM     34  C   UNL A   1      44.297  25.773  28.002  1.00  0.00     0.031 C 
ATOM     35  C   UNL A   1      46.923  29.460  31.840  1.00  0.00     0.029 A 
ATOM     36  C   UNL A   1      45.887  28.769  31.218  1.00  0.00     0.049 A 
ATOM     37  H   UNL A   1      43.884  29.341  30.960  1.00  0.00     0.167 HD
ATOM     38  C   UNL A   1      44.935  26.896  29.839  1.00  0.00     0.074 A 
ATOM     39  C   UNL A   1      45.284  25.913  28.857  1.00  0.00     0.031 C 
ATOM     40  C   UNL A   1      45.950  27.533  30.496  1.00  0.00     0.037 A 
BRANCH  27  41
ATOM     41  C   UNL A   1      44.601  33.116  32.717  1.00  0.00     0.064 A 
ATOM     42  C   UNL A   1      45.189  34.187  32.028  1.00  0.00     0.173 A 
ATOM     43  C   UNL A   1      44.412  33.243  34.100  1.00  0.00     0.173 A 
ATOM     44  F   UNL A   1      45.410  34.099  30.708  1.00  0.00    -0.203 F 
ATOM     45  C   UNL A   1      45.586  35.337  32.704  1.00  0.00     0.198 A 
ATOM     46  C   UNL A   1      44.801  34.399  34.770  1.00  0.00     0.198 A 
ATOM     47  F   UNL A   1      43.863  32.238  34.800  1.00  0.00    -0.203 F 
ATOM     48  F   UNL A   1      46.176  36.337  32.033  1.00  0.00    -0.200 F 
ATOM     49  C   UNL A   1      45.390  35.444  34.073  1.00  0.00     0.200 A 
ATOM     50  F   UNL A   1      44.617  34.498  36.094  1.00  0.00    -0.200 F 
ATOM     51  F   UNL A   1      45.783  36.548  34.724  1.00  0.00    -0.200 F 
ENDBRANCH  27  41
BRANCH  28  52
ATOM     52  C   UNL A   1      40.958  23.645  27.759  1.00  0.00     0.064 A 
ATOM     53  C   UNL A   1      41.704  22.291  27.942  1.00  0.00     0.173 A 
ATOM     54  C   UNL A   1      39.831  23.116  26.793  1.00  0.00     0.173 A 
ATOM     55  F   UNL A   1      42.777  22.119  28.745  1.00  0.00    -0.203 F 
ATOM     56  C   UNL A   1      41.443  21.006  27.369  1.00  0.00     0.198 A 
ATOM     57  C   UNL A   1      39.588  21.820  26.262  1.00  0.00     0.198 A 
ATOM     58  F   UNL A   1      38.824  23.882  26.311  1.00  0.00    -0.203 F 
ATOM     59  F   UNL A   1      42.261  19.986  27.675  1.00  0.00    -0.200 F 
ATOM     60  C   UNL A   1      40.394  20.768  26.539  1.00  0.00     0.200 A 
ATOM     61  F   UNL A   1      38.508  21.634  25.486  1.00  0.00    -0.200 F 
ATOM     62  F   UNL A   1      40.150  19.553  26.036  1.00  0.00    -0.200 F 
ENDBRANCH  28  52
BRANCH  40  63
ATOM     63  C   UNL A   1      47.336  26.920  30.406  1.00  0.00     0.064 A 
ATOM     64  C   UNL A   1      48.225  27.206  29.358  1.00  0.00     0.173 A 
ATOM     65  C   UNL A   1      47.776  26.049  31.416  1.00  0.00     0.173 A 
ATOM     66  F   UNL A   1      47.856  28.032  28.366  1.00  0.00    -0.203 F 
ATOM     67  C   UNL A   1      49.465  26.576  29.278  1.00  0.00     0.198 A 
ATOM     68  C   UNL A   1      49.039  25.465  31.362  1.00  0.00     0.198 A 
ATOM     69  F   UNL A   1      46.986  25.778  32.466  1.00  0.00    -0.203 F 
ATOM     70  F   UNL A   1      50.252  26.785  28.213  1.00  0.00    -0.200 F 
ATOM     71  C   UNL A   1      49.873  25.712  30.281  1.00  0.00     0.200 A 
ATOM     72  F   UNL A   1      49.447  24.657  32.351  1.00  0.00    -0.200 F 
ATOM     73  F   UNL A   1      51.068  25.109  30.204  1.00  0.00    -0.200 F 
ENDBRANCH  40  63
ENDBRANCH  14  15
ENDBRANCH   7   9
ENDBRANCH   6   7
ENDBRANCH   5   6
ENDBRANCH   4   5
ENDBRANCH   3   4
ENDBRANCH   2   3
ENDBRANCH   1   2
BRANCH   1  74
ATOM     74  O   UNL A   1      39.312  31.068  35.367  1.00  0.00    -0.376 OA
BRANCH  74  75
ATOM     75  C   UNL A   1      40.193  30.765  34.291  1.00  0.00     0.202 C 
BRANCH  75  76
ATOM     76  C   UNL A   1      41.018  29.482  34.410  1.00  0.00     0.261 C 
BRANCH  76  77
ATOM     77  O   UNL A   1      40.787  28.772  35.631  1.00  0.00    -0.459 OA
BRANCH  77  78
ATOM     78  C   UNL A   1      41.903  28.229  36.178  1.00  0.00     0.357 C 
ATOM     79  O   UNL A   1      42.819  28.809  36.739  1.00  0.00    -0.244 OA
BRANCH  78  80
ATOM     80  C   UNL A   1      41.960  26.792  35.857  1.00  0.00     0.149 A 
ATOM     81  C   UNL A   1      43.159  26.339  35.343  1.00  0.00     0.051 A 
ATOM     82  N   UNL A   1      40.898  26.000  36.151  1.00  0.00    -0.249 NA
ATOM     83  C   UNL A   1      43.287  24.985  35.097  1.00  0.00     0.012 A 
ATOM     84  C   UNL A   1      41.072  24.678  35.946  1.00  0.00     0.113 A 
ATOM     85  C   UNL A   1      42.235  24.130  35.428  1.00  0.00     0.035 A 
BRANCH  83  86
ATOM     86  S   UNL A   1      44.776  24.291  34.440  1.00  0.00    -0.116 SA
BRANCH  86  87
ATOM     87  C   UNL A   1      46.018  24.741  35.682  1.00  0.00     0.175 C 
BRANCH  87  88
ATOM     88  C   UNL A   1      46.306  23.737  36.792  1.00  0.00     0.233 C 
ATOM     89  O   UNL A   1      45.978  24.006  37.952  1.00  0.00    -0.274 OA
ATOM     90  N   UNL A   1      46.752  22.447  36.476  1.00  0.00    -0.337 N 
ATOM     91  C   UNL A   1      47.625  22.034  34.903  1.00  0.00     0.148 C 
ATOM     92  C   UNL A   1      46.241  21.129  37.674  1.00  0.00     0.148 C 
ATOM     93  C   UNL A   1      47.305  20.251  34.147  1.00  0.00     0.181 C 
ATOM     94  C   UNL A   1      45.887  19.332  36.947  1.00  0.00     0.181 C 
ATOM     95  O   UNL A   1      46.133  19.128  35.110  1.00  0.00    -0.378 OA
ENDBRANCH  87  88
ENDBRANCH  86  87
ENDBRANCH  83  86
ENDBRANCH  78  80
ENDBRANCH  77  78
ENDBRANCH  76  77
ENDBRANCH  75  76
ENDBRANCH  74  75
ENDBRANCH   1  74
TORSDOF 20
ENDMDL
