MODEL 1
REMARK VINA RESULT:     -10.9      0.000      0.000
REMARK SMILES Cc1cc(C(=O)OCCOCCOCCOC(=O)c2ccc(-c3c4nc(c(-c5c(F)c(F)c(F)c(F)c5F)c5ccc([nH]5)c(-c5c(F)c(F)c(F)c(F)c5F)c5nc(c(-c6c(F)c(F)c(F)c(F)c6F)c6ccc3[nH]6)C=C5)C=C4)cc2)c(C)n1[C@@H]1C[N@H+]2CC[C@@H]1CC2
REMARK SMILES IDX 12 1 11 2 10 3 9 4 8 5 7 6 5 7 6 8 4 9 1 10 2 11 3 12 84 13
REMARK SMILES IDX 82 14 83 15 85 16 86 17 90 18 87 19 91 20 89 21 92 22 88 23
REMARK SMILES IDX 13 25 14 26 15 27 16 28 17 29 18 30 19 31 20 32 81 33 21 34
REMARK SMILES IDX 80 35 22 36 23 37 24 38 74 39 25 40 79 41 73 42 75 43 26 44
REMARK SMILES IDX 78 45 72 46 71 47 27 49 59 50 39 51 58 52 40 53 43 54 57 55
REMARK SMILES IDX 76 56 41 57 42 58 56 60 77 61 44 62 28 63 29 64 37 65 30 66
REMARK SMILES IDX 31 67 35 68 38 69 32 70 33 71 36 72 34 73 60 74 61 75 69 76
REMARK SMILES IDX 62 77 63 78 67 79 70 80 64 81 65 82 68 83 66 84 45 85 46 86
REMARK SMILES IDX 54 87 47 88 48 89 52 90 55 91 49 92 50 93 53 94 51 95
REMARK H PARENT 87 24 75 48 43 59
REMARK Flexibility Score: inf
ROOT
ATOM      1  C   UNL A   1      35.048  29.620  27.263  1.00  0.00     0.188 C 
ENDROOT
BRANCH   1   2
ATOM      2  C   UNL A   1      33.649  28.983  27.244  1.00  0.00     0.188 C 
BRANCH   2   3
ATOM      3  O   UNL A   1      33.076  28.796  25.972  1.00  0.00    -0.376 OA
BRANCH   3   4
ATOM      4  C   UNL A   1      32.224  29.743  25.347  1.00  0.00     0.202 C 
BRANCH   4   5
ATOM      5  C   UNL A   1      31.006  29.472  24.444  1.00  0.00     0.261 C 
BRANCH   5   6
ATOM      6  O   UNL A   1      31.173  28.582  23.356  1.00  0.00    -0.460 OA
BRANCH   6   7
ATOM      7  C   UNL A   1      30.355  27.498  23.362  1.00  0.00     0.340 C 
ATOM      8  O   UNL A   1      29.142  27.530  23.131  1.00  0.00    -0.246 OA
BRANCH   7   9
ATOM      9  C   UNL A   1      31.103  26.278  23.578  1.00  0.00     0.081 A 
ATOM     10  C   UNL A   1      33.306  23.598  22.384  1.00  0.00     0.064 C 
ATOM     11  C   UNL A   1      32.395  24.476  23.162  1.00  0.00     0.016 A 
ATOM     12  C   UNL A   1      31.605  25.439  22.571  1.00  0.00     0.038 A 
ATOM     13  N   UNL A   1      32.229  24.568  24.542  1.00  0.00    -0.339 N 
ATOM     14  C   UNL A   1      31.420  25.688  24.797  1.00  0.00     0.030 A 
ATOM     15  C   UNL A   1      30.942  26.145  26.143  1.00  0.00     0.065 C 
BRANCH  13  16
ATOM     16  C   UNL A   1      32.881  23.787  25.599  1.00  0.00     0.145 C 
ATOM     17  C   UNL A   1      34.352  23.407  25.315  1.00  0.00     0.288 C 
ATOM     18  C   UNL A   1      32.142  22.566  26.221  1.00  0.00     0.029 C 
ATOM     19  N   UNL A   1      34.645  22.006  25.716  1.00  0.00    -0.333 N 
ATOM     20  C   UNL A   1      32.917  22.204  27.518  1.00  0.00     0.067 C 
ATOM     21  C   UNL A   1      32.270  21.308  25.357  1.00  0.00     0.067 C 
ATOM     22  C   UNL A   1      34.375  21.850  27.163  1.00  0.00     0.262 C 
ATOM     23  C   UNL A   1      33.744  21.099  24.969  1.00  0.00     0.262 C 
ATOM     24  H   UNL A   1      35.622  21.786  25.515  1.00  0.00     0.348 HD
ENDBRANCH  13  16
ENDBRANCH   7   9
ENDBRANCH   6   7
ENDBRANCH   5   6
ENDBRANCH   4   5
ENDBRANCH   3   4
ENDBRANCH   2   3
ENDBRANCH   1   2
BRANCH   1  25
ATOM     25  O   UNL A   1      35.142  30.990  27.603  1.00  0.00    -0.376 OA
BRANCH  25  26
ATOM     26  C   UNL A   1      33.947  31.664  28.002  1.00  0.00     0.202 C 
BRANCH  26  27
ATOM     27  C   UNL A   1      33.970  33.181  28.372  1.00  0.00     0.261 C 
BRANCH  27  28
ATOM     28  O   UNL A   1      34.846  33.737  29.429  1.00  0.00    -0.460 OA
BRANCH  28  29
ATOM     29  C   UNL A   1      34.904  33.033  30.618  1.00  0.00     0.338 C 
ATOM     30  O   UNL A   1      34.045  33.138  31.488  1.00  0.00    -0.246 OA
BRANCH  29  31
ATOM     31  C   UNL A   1      36.114  32.094  30.854  1.00  0.00     0.060 A 
ATOM     32  C   UNL A   1      37.231  32.165  30.035  1.00  0.00     0.016 A 
ATOM     33  C   UNL A   1      36.079  30.917  31.643  1.00  0.00     0.016 A 
ATOM     34  C   UNL A   1      38.283  31.161  30.083  1.00  0.00     0.010 A 
ATOM     35  C   UNL A   1      37.137  29.860  31.645  1.00  0.00     0.010 A 
ATOM     36  C   UNL A   1      38.307  29.936  30.868  1.00  0.00    -0.014 A 
BRANCH  36  37
ATOM     37  C   UNL A   1      39.428  28.744  30.448  1.00  0.00     0.031 A 
ATOM     38  C   UNL A   1      40.329  28.769  31.638  1.00  0.00     0.074 A 
ATOM     39  C   UNL A   1      39.912  27.880  29.427  1.00  0.00     0.049 A 
ATOM     40  N   UNL A   1      40.943  29.880  31.950  1.00  0.00    -0.248 NA
ATOM     41  C   UNL A   1      40.266  27.783  32.719  1.00  0.00     0.031 C 
ATOM     42  C   UNL A   1      39.479  27.796  28.016  1.00  0.00     0.029 A 
ATOM     43  N   UNL A   1      40.941  26.840  29.384  1.00  0.00    -0.354 N 
ATOM     44  C   UNL A   1      41.594  29.639  33.133  1.00  0.00     0.074 A 
ATOM     45  C   UNL A   1      40.954  28.441  33.660  1.00  0.00     0.031 C 
ATOM     46  C   UNL A   1      40.061  26.756  27.337  1.00  0.00     0.029 A 
ATOM     47  C   UNL A   1      41.013  26.013  28.170  1.00  0.00     0.049 A 
ATOM     48  H   UNL A   1      41.560  26.699  30.136  1.00  0.00     0.167 HD
ATOM     49  C   UNL A   1      42.922  29.954  33.128  1.00  0.00     0.037 A 
ATOM     50  C   UNL A   1      41.803  24.898  27.808  1.00  0.00     0.037 A 
ATOM     51  C   UNL A   1      43.737  28.795  32.901  1.00  0.00     0.049 A 
ATOM     52  C   UNL A   1      43.013  24.981  28.628  1.00  0.00     0.074 A 
ATOM     53  C   UNL A   1      43.683  27.508  33.402  1.00  0.00     0.029 A 
ATOM     54  N   UNL A   1      44.436  28.730  31.717  1.00  0.00    -0.354 N 
ATOM     55  N   UNL A   1      43.991  25.764  28.295  1.00  0.00    -0.248 NA
ATOM     56  C   UNL A   1      43.260  24.111  29.770  1.00  0.00     0.031 C 
ATOM     57  C   UNL A   1      43.829  26.690  32.265  1.00  0.00     0.029 A 
ATOM     58  C   UNL A   1      44.417  27.435  31.253  1.00  0.00     0.049 A 
ATOM     59  H   UNL A   1      44.879  29.489  31.273  1.00  0.00     0.167 HD
ATOM     60  C   UNL A   1      44.665  25.899  29.460  1.00  0.00     0.074 A 
ATOM     61  C   UNL A   1      44.380  24.690  30.212  1.00  0.00     0.031 C 
ATOM     62  C   UNL A   1      44.785  27.177  29.889  1.00  0.00     0.037 A 
BRANCH  49  63
ATOM     63  C   UNL A   1      43.191  31.324  32.572  1.00  0.00     0.064 A 
ATOM     64  C   UNL A   1      43.424  32.374  33.463  1.00  0.00     0.173 A 
ATOM     65  C   UNL A   1      43.019  31.653  31.211  1.00  0.00     0.173 A 
ATOM     66  F   UNL A   1      43.665  32.116  34.757  1.00  0.00    -0.203 F 
ATOM     67  C   UNL A   1      43.395  33.700  33.030  1.00  0.00     0.198 A 
ATOM     68  C   UNL A   1      42.916  32.976  30.796  1.00  0.00     0.198 A 
ATOM     69  F   UNL A   1      42.936  30.689  30.277  1.00  0.00    -0.203 F 
ATOM     70  F   UNL A   1      43.635  34.691  33.901  1.00  0.00    -0.200 F 
ATOM     71  C   UNL A   1      43.095  34.000  31.709  1.00  0.00     0.200 A 
ATOM     72  F   UNL A   1      42.633  33.255  29.515  1.00  0.00    -0.200 F 
ATOM     73  F   UNL A   1      42.996  35.276  31.313  1.00  0.00    -0.200 F 
ENDBRANCH  49  63
BRANCH  50  74
ATOM     74  C   UNL A   1      42.057  23.709  26.776  1.00  0.00     0.064 A 
ATOM     75  C   UNL A   1      42.917  23.871  25.616  1.00  0.00     0.173 A 
ATOM     76  C   UNL A   1      41.869  22.359  27.107  1.00  0.00     0.173 A 
ATOM     77  F   UNL A   1      43.178  25.077  25.096  1.00  0.00    -0.203 F 
ATOM     78  C   UNL A   1      43.603  22.821  24.970  1.00  0.00     0.198 A 
ATOM     79  C   UNL A   1      42.534  21.295  26.424  1.00  0.00     0.198 A 
ATOM     80  F   UNL A   1      41.104  22.033  28.157  1.00  0.00    -0.203 F 
ATOM     81  F   UNL A   1      44.485  23.088  23.989  1.00  0.00    -0.200 F 
ATOM     82  C   UNL A   1      43.427  21.528  25.388  1.00  0.00     0.200 A 
ATOM     83  F   UNL A   1      42.356  20.027  26.826  1.00  0.00    -0.200 F 
ATOM     84  F   UNL A   1      44.127  20.529  24.826  1.00  0.00    -0.200 F 
ENDBRANCH  50  74
BRANCH  62  85
ATOM     85  C   UNL A   1      45.137  28.220  28.842  1.00  0.00     0.064 A 
ATOM     86  C   UNL A   1      44.242  28.943  28.014  1.00  0.00     0.173 A 
ATOM     87  C   UNL A   1      46.501  28.433  28.601  1.00  0.00     0.173 A 
ATOM     88  F   UNL A   1      42.916  28.932  28.212  1.00  0.00    -0.203 F 
ATOM     89  C   UNL A   1      44.696  29.740  26.958  1.00  0.00     0.198 A 
ATOM     90  C   UNL A   1      46.952  29.276  27.587  1.00  0.00     0.198 A 
ATOM     91  F   UNL A   1      47.417  27.828  29.374  1.00  0.00    -0.203 F 
ATOM     92  F   UNL A   1      43.817  30.350  26.149  1.00  0.00    -0.200 F 
ATOM     93  C   UNL A   1      46.051  29.904  26.746  1.00  0.00     0.200 A 
ATOM     94  F   UNL A   1      48.266  29.475  27.429  1.00  0.00    -0.200 F 
ATOM     95  F   UNL A   1      46.490  30.684  25.749  1.00  0.00    -0.200 F 
ENDBRANCH  62  85
ENDBRANCH  36  37
ENDBRANCH  29  31
ENDBRANCH  28  29
ENDBRANCH  27  28
ENDBRANCH  26  27
ENDBRANCH  25  26
ENDBRANCH   1  25
TORSDOF 18
ENDMDL
MODEL 2
REMARK VINA RESULT:     -10.5      3.608      8.728
REMARK SMILES Cc1cc(C(=O)OCCOCCOCCOC(=O)c2ccc(-c3c4nc(c(-c5c(F)c(F)c(F)c(F)c5F)c5ccc([nH]5)c(-c5c(F)c(F)c(F)c(F)c5F)c5nc(c(-c6c(F)c(F)c(F)c(F)c6F)c6ccc3[nH]6)C=C5)C=C4)cc2)c(C)n1[C@@H]1C[N@H+]2CC[C@@H]1CC2
REMARK SMILES IDX 12 1 11 2 10 3 9 4 8 5 7 6 5 7 6 8 4 9 1 10 2 11 3 12 84 13
REMARK SMILES IDX 82 14 83 15 85 16 86 17 90 18 87 19 91 20 89 21 92 22 88 23
REMARK SMILES IDX 13 25 14 26 15 27 16 28 17 29 18 30 19 31 20 32 81 33 21 34
REMARK SMILES IDX 80 35 22 36 23 37 24 38 74 39 25 40 79 41 73 42 75 43 26 44
REMARK SMILES IDX 78 45 72 46 71 47 27 49 59 50 39 51 58 52 40 53 43 54 57 55
REMARK SMILES IDX 76 56 41 57 42 58 56 60 77 61 44 62 28 63 29 64 37 65 30 66
REMARK SMILES IDX 31 67 35 68 38 69 32 70 33 71 36 72 34 73 60 74 61 75 69 76
REMARK SMILES IDX 62 77 63 78 67 79 70 80 64 81 65 82 68 83 66 84 45 85 46 86
REMARK SMILES IDX 54 87 47 88 48 89 52 90 55 91 49 92 50 93 53 94 51 95
REMARK H PARENT 87 24 75 48 43 59
REMARK Flexibility Score: inf
ROOT
ATOM      1  C   UNL A   1      37.524  23.082  25.880  1.00  0.00     0.188 C 
ENDROOT
BRANCH   1   2
ATOM      2  C   UNL A   1      36.251  23.766  25.357  1.00  0.00     0.188 C 
BRANCH   2   3
ATOM      3  O   UNL A   1      35.126  22.936  25.204  1.00  0.00    -0.376 OA
BRANCH   3   4
ATOM      4  C   UNL A   1      34.150  23.113  24.190  1.00  0.00     0.202 C 
BRANCH   4   5
ATOM      5  C   UNL A   1      34.354  23.642  22.758  1.00  0.00     0.261 C 
BRANCH   5   6
ATOM      6  O   UNL A   1      33.221  23.717  21.912  1.00  0.00    -0.460 OA
BRANCH   6   7
ATOM      7  C   UNL A   1      32.898  24.965  21.484  1.00  0.00     0.340 C 
ATOM      8  O   UNL A   1      33.147  25.411  20.360  1.00  0.00    -0.246 OA
BRANCH   7   9
ATOM      9  C   UNL A   1      32.132  25.680  22.483  1.00  0.00     0.081 A 
ATOM     10  C   UNL A   1      29.349  25.890  24.865  1.00  0.00     0.064 C 
ATOM     11  C   UNL A   1      30.516  26.153  23.985  1.00  0.00     0.016 A 
ATOM     12  C   UNL A   1      30.840  25.343  22.917  1.00  0.00     0.038 A 
ATOM     13  N   UNL A   1      31.498  27.135  24.096  1.00  0.00    -0.339 N 
ATOM     14  C   UNL A   1      32.500  26.840  23.157  1.00  0.00     0.030 A 
ATOM     15  C   UNL A   1      33.730  27.655  22.892  1.00  0.00     0.065 C 
BRANCH  13  16
ATOM     16  C   UNL A   1      31.617  28.203  25.094  1.00  0.00     0.145 C 
ATOM     17  C   UNL A   1      32.335  29.479  24.601  1.00  0.00     0.288 C 
ATOM     18  C   UNL A   1      32.102  27.861  26.534  1.00  0.00     0.029 C 
ATOM     19  N   UNL A   1      33.268  30.017  25.626  1.00  0.00    -0.333 N 
ATOM     20  C   UNL A   1      31.769  29.099  27.411  1.00  0.00     0.067 C 
ATOM     21  C   UNL A   1      33.627  27.751  26.622  1.00  0.00     0.067 C 
ATOM     22  C   UNL A   1      32.506  30.335  26.855  1.00  0.00     0.262 C 
ATOM     23  C   UNL A   1      34.270  28.977  25.950  1.00  0.00     0.262 C 
ATOM     24  H   UNL A   1      33.726  30.857  25.270  1.00  0.00     0.348 HD
ENDBRANCH  13  16
ENDBRANCH   7   9
ENDBRANCH   6   7
ENDBRANCH   5   6
ENDBRANCH   4   5
ENDBRANCH   3   4
ENDBRANCH   2   3
ENDBRANCH   1   2
BRANCH   1  25
ATOM     25  O   UNL A   1      37.612  21.675  25.756  1.00  0.00    -0.376 OA
BRANCH  25  26
ATOM     26  C   UNL A   1      38.914  21.086  25.729  1.00  0.00     0.202 C 
BRANCH  26  27
ATOM     27  C   UNL A   1      40.173  21.910  26.146  1.00  0.00     0.261 C 
BRANCH  27  28
ATOM     28  O   UNL A   1      41.488  21.762  25.480  1.00  0.00    -0.460 OA
BRANCH  28  29
ATOM     29  C   UNL A   1      42.584  22.263  26.160  1.00  0.00     0.338 C 
ATOM     30  O   UNL A   1      43.555  21.570  26.447  1.00  0.00    -0.246 OA
BRANCH  29  31
ATOM     31  C   UNL A   1      42.563  23.754  26.583  1.00  0.00     0.060 A 
ATOM     32  C   UNL A   1      42.290  24.110  27.896  1.00  0.00     0.016 A 
ATOM     33  C   UNL A   1      42.480  24.846  25.683  1.00  0.00     0.016 A 
ATOM     34  C   UNL A   1      42.044  25.492  28.280  1.00  0.00     0.010 A 
ATOM     35  C   UNL A   1      42.169  26.255  26.078  1.00  0.00     0.010 A 
ATOM     36  C   UNL A   1      41.945  26.653  27.408  1.00  0.00    -0.014 A 
BRANCH  36  37
ATOM     37  C   UNL A   1      41.250  28.060  28.033  1.00  0.00     0.031 A 
ATOM     38  C   UNL A   1      42.442  28.956  28.109  1.00  0.00     0.074 A 
ATOM     39  C   UNL A   1      40.095  28.656  28.609  1.00  0.00     0.049 A 
ATOM     40  N   UNL A   1      43.466  28.594  28.835  1.00  0.00    -0.248 NA
ATOM     41  C   UNL A   1      42.731  29.999  27.123  1.00  0.00     0.031 C 
ATOM     42  C   UNL A   1      38.821  28.008  28.985  1.00  0.00     0.029 A 
ATOM     43  N   UNL A   1      39.757  30.018  29.025  1.00  0.00    -0.354 N 
ATOM     44  C   UNL A   1      44.440  29.538  28.624  1.00  0.00     0.074 A 
ATOM     45  C   UNL A   1      44.022  30.220  27.405  1.00  0.00     0.031 C 
ATOM     46  C   UNL A   1      37.862  28.901  29.391  1.00  0.00     0.029 A 
ATOM     47  C   UNL A   1      38.360  30.281  29.402  1.00  0.00     0.049 A 
ATOM     48  H   UNL A   1      40.436  30.729  29.052  1.00  0.00     0.167 HD
ATOM     49  C   UNL A   1      44.962  30.084  29.760  1.00  0.00     0.037 A 
ATOM     50  C   UNL A   1      37.666  31.456  29.773  1.00  0.00     0.037 A 
ATOM     51  C   UNL A   1      44.357  31.350  30.063  1.00  0.00     0.049 A 
ATOM     52  C   UNL A   1      38.680  32.370  30.300  1.00  0.00     0.074 A 
ATOM     53  C   UNL A   1      44.025  32.433  29.273  1.00  0.00     0.029 A 
ATOM     54  N   UNL A   1      43.572  31.427  31.191  1.00  0.00    -0.354 N 
ATOM     55  N   UNL A   1      39.110  32.257  31.517  1.00  0.00    -0.248 NA
ATOM     56  C   UNL A   1      39.164  33.530  29.563  1.00  0.00     0.031 C 
ATOM     57  C   UNL A   1      42.713  32.758  29.669  1.00  0.00     0.029 A 
ATOM     58  C   UNL A   1      42.483  32.225  30.929  1.00  0.00     0.049 A 
ATOM     59  H   UNL A   1      43.760  30.981  32.048  1.00  0.00     0.167 HD
ATOM     60  C   UNL A   1      40.283  32.930  31.475  1.00  0.00     0.074 A 
ATOM     61  C   UNL A   1      40.131  33.902  30.406  1.00  0.00     0.031 C 
ATOM     62  C   UNL A   1      41.362  32.192  31.825  1.00  0.00     0.037 A 
BRANCH  49  63
ATOM     63  C   UNL A   1      45.354  29.048  30.775  1.00  0.00     0.064 A 
ATOM     64  C   UNL A   1      46.712  28.828  31.017  1.00  0.00     0.173 A 
ATOM     65  C   UNL A   1      44.438  28.139  31.346  1.00  0.00     0.173 A 
ATOM     66  F   UNL A   1      47.625  29.698  30.559  1.00  0.00    -0.203 F 
ATOM     67  C   UNL A   1      47.141  27.703  31.721  1.00  0.00     0.198 A 
ATOM     68  C   UNL A   1      44.871  26.981  31.981  1.00  0.00     0.198 A 
ATOM     69  F   UNL A   1      43.114  28.367  31.277  1.00  0.00    -0.203 F 
ATOM     70  F   UNL A   1      48.449  27.521  31.953  1.00  0.00    -0.200 F 
ATOM     71  C   UNL A   1      46.224  26.758  32.159  1.00  0.00     0.200 A 
ATOM     72  F   UNL A   1      43.975  26.078  32.407  1.00  0.00    -0.200 F 
ATOM     73  F   UNL A   1      46.645  25.643  32.771  1.00  0.00    -0.200 F 
ENDBRANCH  49  63
BRANCH  50  74
ATOM     74  C   UNL A   1      36.260  32.153  30.056  1.00  0.00     0.064 A 
ATOM     75  C   UNL A   1      35.621  32.087  31.359  1.00  0.00     0.173 A 
ATOM     76  C   UNL A   1      35.762  33.209  29.278  1.00  0.00     0.173 A 
ATOM     77  F   UNL A   1      35.907  31.117  32.236  1.00  0.00    -0.203 F 
ATOM     78  C   UNL A   1      34.708  33.042  31.857  1.00  0.00     0.198 A 
ATOM     79  C   UNL A   1      34.806  34.149  29.771  1.00  0.00     0.198 A 
ATOM     80  F   UNL A   1      36.248  33.413  28.048  1.00  0.00    -0.203 F 
ATOM     81  F   UNL A   1      34.274  32.968  33.129  1.00  0.00    -0.200 F 
ATOM     82  C   UNL A   1      34.314  34.089  31.067  1.00  0.00     0.200 A 
ATOM     83  F   UNL A   1      34.412  35.172  28.996  1.00  0.00    -0.200 F 
ATOM     84  F   UNL A   1      33.499  35.040  31.553  1.00  0.00    -0.200 F 
ENDBRANCH  50  74
BRANCH  62  85
ATOM     85  C   UNL A   1      41.207  31.288  33.037  1.00  0.00     0.064 A 
ATOM     86  C   UNL A   1      41.351  31.647  34.401  1.00  0.00     0.173 A 
ATOM     87  C   UNL A   1      40.986  29.928  32.781  1.00  0.00     0.173 A 
ATOM     88  F   UNL A   1      41.444  32.923  34.800  1.00  0.00    -0.203 F 
ATOM     89  C   UNL A   1      41.369  30.686  35.417  1.00  0.00     0.198 A 
ATOM     90  C   UNL A   1      40.943  28.980  33.802  1.00  0.00     0.198 A 
ATOM     91  F   UNL A   1      40.787  29.509  31.522  1.00  0.00    -0.203 F 
ATOM     92  F   UNL A   1      41.581  31.056  36.689  1.00  0.00    -0.200 F 
ATOM     93  C   UNL A   1      41.166  29.353  35.115  1.00  0.00     0.200 A 
ATOM     94  F   UNL A   1      40.685  27.701  33.504  1.00  0.00    -0.200 F 
ATOM     95  F   UNL A   1      41.161  28.432  36.088  1.00  0.00    -0.200 F 
ENDBRANCH  62  85
ENDBRANCH  36  37
ENDBRANCH  29  31
ENDBRANCH  28  29
ENDBRANCH  27  28
ENDBRANCH  26  27
ENDBRANCH  25  26
ENDBRANCH   1  25
TORSDOF 18
ENDMDL
MODEL 3
REMARK VINA RESULT:     -10.4      3.751      8.862
REMARK SMILES Cc1cc(C(=O)OCCOCCOCCOC(=O)c2ccc(-c3c4nc(c(-c5c(F)c(F)c(F)c(F)c5F)c5ccc([nH]5)c(-c5c(F)c(F)c(F)c(F)c5F)c5nc(c(-c6c(F)c(F)c(F)c(F)c6F)c6ccc3[nH]6)C=C5)C=C4)cc2)c(C)n1[C@@H]1C[N@H+]2CC[C@@H]1CC2
REMARK SMILES IDX 12 1 11 2 10 3 9 4 8 5 7 6 5 7 6 8 4 9 1 10 2 11 3 12 84 13
REMARK SMILES IDX 82 14 83 15 85 16 86 17 90 18 87 19 91 20 89 21 92 22 88 23
REMARK SMILES IDX 13 25 14 26 15 27 16 28 17 29 18 30 19 31 20 32 81 33 21 34
REMARK SMILES IDX 80 35 22 36 23 37 24 38 74 39 25 40 79 41 73 42 75 43 26 44
REMARK SMILES IDX 78 45 72 46 71 47 27 49 59 50 39 51 58 52 40 53 43 54 57 55
REMARK SMILES IDX 76 56 41 57 42 58 56 60 77 61 44 62 28 63 29 64 37 65 30 66
REMARK SMILES IDX 31 67 35 68 38 69 32 70 33 71 36 72 34 73 60 74 61 75 69 76
REMARK SMILES IDX 62 77 63 78 67 79 70 80 64 81 65 82 68 83 66 84 45 85 46 86
REMARK SMILES IDX 54 87 47 88 48 89 52 90 55 91 49 92 50 93 53 94 51 95
REMARK H PARENT 87 24 75 48 43 59
REMARK Flexibility Score: inf
ROOT
ATOM      1  C   UNL A   1      39.768  21.559  26.603  1.00  0.00     0.188 C 
ENDROOT
BRANCH   1   2
ATOM      2  C   UNL A   1      38.986  22.878  26.500  1.00  0.00     0.188 C 
BRANCH   2   3
ATOM      3  O   UNL A   1      37.866  22.862  25.649  1.00  0.00    -0.376 OA
BRANCH   3   4
ATOM      4  C   UNL A   1      37.374  21.690  25.018  1.00  0.00     0.202 C 
BRANCH   4   5
ATOM      5  C   UNL A   1      36.026  21.493  24.300  1.00  0.00     0.261 C 
BRANCH   5   6
ATOM      6  O   UNL A   1      34.842  21.647  25.061  1.00  0.00    -0.460 OA
BRANCH   6   7
ATOM      7  C   UNL A   1      33.704  21.807  24.336  1.00  0.00     0.340 C 
ATOM      8  O   UNL A   1      32.886  20.913  24.104  1.00  0.00    -0.246 OA
BRANCH   7   9
ATOM      9  C   UNL A   1      33.518  23.190  23.950  1.00  0.00     0.081 A 
ATOM     10  C   UNL A   1      32.828  25.764  21.428  1.00  0.00     0.064 C 
ATOM     11  C   UNL A   1      33.172  25.008  22.659  1.00  0.00     0.016 A 
ATOM     12  C   UNL A   1      33.554  23.683  22.636  1.00  0.00     0.038 A 
ATOM     13  N   UNL A   1      33.099  25.414  23.990  1.00  0.00    -0.339 N 
ATOM     14  C   UNL A   1      33.320  24.281  24.791  1.00  0.00     0.030 A 
ATOM     15  C   UNL A   1      33.377  24.255  26.288  1.00  0.00     0.065 C 
BRANCH  13  16
ATOM     16  C   UNL A   1      32.702  26.718  24.530  1.00  0.00     0.145 C 
ATOM     17  C   UNL A   1      31.374  27.278  23.974  1.00  0.00     0.288 C 
ATOM     18  C   UNL A   1      33.750  27.867  24.618  1.00  0.00     0.029 C 
ATOM     19  N   UNL A   1      31.466  28.734  23.689  1.00  0.00    -0.333 N 
ATOM     20  C   UNL A   1      33.133  28.948  25.546  1.00  0.00     0.067 C 
ATOM     21  C   UNL A   1      33.930  28.592  23.281  1.00  0.00     0.067 C 
ATOM     22  C   UNL A   1      31.808  29.451  24.938  1.00  0.00     0.262 C 
ATOM     23  C   UNL A   1      32.551  28.959  22.706  1.00  0.00     0.262 C 
ATOM     24  H   UNL A   1      30.576  29.072  23.322  1.00  0.00     0.348 HD
ENDBRANCH  13  16
ENDBRANCH   7   9
ENDBRANCH   6   7
ENDBRANCH   5   6
ENDBRANCH   4   5
ENDBRANCH   3   4
ENDBRANCH   2   3
ENDBRANCH   1   2
BRANCH   1  25
ATOM     25  O   UNL A   1      40.560  21.353  27.758  1.00  0.00    -0.376 OA
BRANCH  25  26
ATOM     26  C   UNL A   1      41.940  21.033  27.575  1.00  0.00     0.202 C 
BRANCH  26  27
ATOM     27  C   UNL A   1      42.507  20.722  26.153  1.00  0.00     0.261 C 
BRANCH  27  28
ATOM     28  O   UNL A   1      42.912  21.780  25.199  1.00  0.00    -0.460 OA
BRANCH  28  29
ATOM     29  C   UNL A   1      44.021  22.532  25.545  1.00  0.00     0.338 C 
ATOM     30  O   UNL A   1      45.159  22.074  25.529  1.00  0.00    -0.246 OA
BRANCH  29  31
ATOM     31  C   UNL A   1      43.800  24.002  25.983  1.00  0.00     0.060 A 
ATOM     32  C   UNL A   1      43.793  24.343  27.328  1.00  0.00     0.016 A 
ATOM     33  C   UNL A   1      43.275  25.021  25.150  1.00  0.00     0.016 A 
ATOM     34  C   UNL A   1      43.372  25.659  27.783  1.00  0.00     0.010 A 
ATOM     35  C   UNL A   1      42.790  26.351  25.632  1.00  0.00     0.010 A 
ATOM     36  C   UNL A   1      42.825  26.744  26.982  1.00  0.00    -0.014 A 
BRANCH  36  37
ATOM     37  C   UNL A   1      42.033  28.003  27.783  1.00  0.00     0.031 A 
ATOM     38  C   UNL A   1      43.147  28.983  27.943  1.00  0.00     0.074 A 
ATOM     39  C   UNL A   1      40.848  28.425  28.447  1.00  0.00     0.049 A 
ATOM     40  N   UNL A   1      44.218  28.629  28.602  1.00  0.00    -0.248 NA
ATOM     41  C   UNL A   1      43.320  30.156  27.083  1.00  0.00     0.031 C 
ATOM     42  C   UNL A   1      39.644  27.630  28.766  1.00  0.00     0.029 A 
ATOM     43  N   UNL A   1      40.410  29.695  29.028  1.00  0.00    -0.354 N 
ATOM     44  C   UNL A   1      45.103  29.671  28.487  1.00  0.00     0.074 A 
ATOM     45  C   UNL A   1      44.595  30.453  27.366  1.00  0.00     0.031 C 
ATOM     46  C   UNL A   1      38.626  28.384  29.293  1.00  0.00     0.029 A 
ATOM     47  C   UNL A   1      39.007  29.790  29.459  1.00  0.00     0.049 A 
ATOM     48  H   UNL A   1      41.028  30.454  29.127  1.00  0.00     0.167 HD
ATOM     49  C   UNL A   1      45.611  30.124  29.670  1.00  0.00     0.037 A 
ATOM     50  C   UNL A   1      38.228  30.849  29.980  1.00  0.00     0.037 A 
ATOM     51  C   UNL A   1      44.911  31.288  30.132  1.00  0.00     0.049 A 
ATOM     52  C   UNL A   1      39.177  31.780  30.594  1.00  0.00     0.074 A 
ATOM     53  C   UNL A   1      44.466  32.424  29.483  1.00  0.00     0.029 A 
ATOM     54  N   UNL A   1      44.154  31.164  31.276  1.00  0.00    -0.354 N 
ATOM     55  N   UNL A   1      39.650  31.563  31.781  1.00  0.00    -0.248 NA
ATOM     56  C   UNL A   1      39.541  33.055  29.991  1.00  0.00     0.031 C 
ATOM     57  C   UNL A   1      43.144  32.586  29.939  1.00  0.00     0.029 A 
ATOM     58  C   UNL A   1      42.996  31.891  31.131  1.00  0.00     0.049 A 
ATOM     59  H   UNL A   1      44.403  30.639  32.070  1.00  0.00     0.167 HD
ATOM     60  C   UNL A   1      40.760  32.335  31.797  1.00  0.00     0.074 A 
ATOM     61  C   UNL A   1      40.497  33.408  30.855  1.00  0.00     0.031 C 
ATOM     62  C   UNL A   1      41.907  31.657  32.037  1.00  0.00     0.037 A 
BRANCH  49  63
ATOM     63  C   UNL A   1      46.116  29.013  30.547  1.00  0.00     0.064 A 
ATOM     64  C   UNL A   1      47.491  28.774  30.597  1.00  0.00     0.173 A 
ATOM     65  C   UNL A   1      45.269  28.067  31.161  1.00  0.00     0.173 A 
ATOM     66  F   UNL A   1      48.349  29.673  30.091  1.00  0.00    -0.203 F 
ATOM     67  C   UNL A   1      47.994  27.598  31.154  1.00  0.00     0.198 A 
ATOM     68  C   UNL A   1      45.766  26.863  31.648  1.00  0.00     0.198 A 
ATOM     69  F   UNL A   1      43.951  28.301  31.279  1.00  0.00    -0.203 F 
ATOM     70  F   UNL A   1      49.318  27.396  31.204  1.00  0.00    -0.200 F 
ATOM     71  C   UNL A   1      47.129  26.625  31.636  1.00  0.00     0.200 A 
ATOM     72  F   UNL A   1      44.922  25.932  32.117  1.00  0.00    -0.200 F 
ATOM     73  F   UNL A   1      47.612  25.465  32.104  1.00  0.00    -0.200 F 
ENDBRANCH  49  63
BRANCH  50  74
ATOM     74  C   UNL A   1      36.778  31.384  30.371  1.00  0.00     0.064 A 
ATOM     75  C   UNL A   1      36.350  31.501  31.754  1.00  0.00     0.173 A 
ATOM     76  C   UNL A   1      36.000  32.175  29.511  1.00  0.00     0.173 A 
ATOM     77  F   UNL A   1      36.921  30.785  32.730  1.00  0.00    -0.203 F 
ATOM     78  C   UNL A   1      35.366  32.400  32.220  1.00  0.00     0.198 A 
ATOM     79  C   UNL A   1      34.976  33.053  29.982  1.00  0.00     0.198 A 
ATOM     80  F   UNL A   1      36.264  32.186  28.198  1.00  0.00    -0.203 F 
ATOM     81  F   UNL A   1      35.136  32.531  33.539  1.00  0.00    -0.200 F 
ATOM     82  C   UNL A   1      34.689  33.194  31.332  1.00  0.00     0.200 A 
ATOM     83  F   UNL A   1      34.306  33.826  29.113  1.00  0.00    -0.200 F 
ATOM     84  F   UNL A   1      33.801  34.101  31.770  1.00  0.00    -0.200 F 
ENDBRANCH  50  74
BRANCH  62  85
ATOM     85  C   UNL A   1      41.863  30.607  33.135  1.00  0.00     0.064 A 
ATOM     86  C   UNL A   1      41.447  29.256  33.016  1.00  0.00     0.173 A 
ATOM     87  C   UNL A   1      42.185  31.037  34.429  1.00  0.00     0.173 A 
ATOM     88  F   UNL A   1      41.227  28.676  31.828  1.00  0.00    -0.203 F 
ATOM     89  C   UNL A   1      41.273  28.439  34.137  1.00  0.00     0.198 A 
ATOM     90  C   UNL A   1      42.070  30.201  35.538  1.00  0.00     0.198 A 
ATOM     91  F   UNL A   1      42.638  32.285  34.624  1.00  0.00    -0.203 F 
ATOM     92  F   UNL A   1      40.807  27.189  33.993  1.00  0.00    -0.200 F 
ATOM     93  C   UNL A   1      41.585  28.913  35.397  1.00  0.00     0.200 A 
ATOM     94  F   UNL A   1      42.432  30.652  36.745  1.00  0.00    -0.200 F 
ATOM     95  F   UNL A   1      41.440  28.125  36.472  1.00  0.00    -0.200 F 
ENDBRANCH  62  85
ENDBRANCH  36  37
ENDBRANCH  29  31
ENDBRANCH  28  29
ENDBRANCH  27  28
ENDBRANCH  26  27
ENDBRANCH  25  26
ENDBRANCH   1  25
TORSDOF 18
ENDMDL
