MODEL 1
REMARK VINA RESULT:     -11.8      0.000      0.000
REMARK SMILES NS(=O)(=O)c1ccc(-n2nc(NC(=O)NCCCC(=O)OCCOCCOCCOC(=O)c3ccc(-c4c5nc(c(-c6c(F)c(F)c(F)c(F)c6F)c6ccc([nH]6)c(-c6c(F)c(F)c(F)c(F)c6F)c6nc(c(-c7c(F)c(F)c(F)c(F)c7F)c7ccc4[nH]7)C=C6)C=C5)cc3)cc2-c2ccccc2)cc1
REMARK SMILES IDX 23 1 22 2 21 3 19 4 20 5 18 6 17 7 16 8 15 9 12 10 13 11
REMARK SMILES IDX 14 13 11 15 9 16 10 17 97 18 96 19 8 20 5 21 6 22 105 23
REMARK SMILES IDX 7 24 104 25 2 26 3 27 4 28 1 29 98 32 99 33 103 34 100 35
REMARK SMILES IDX 102 36 101 37 24 38 25 39 26 40 27 41 28 42 29 43 30 44
REMARK SMILES IDX 31 45 32 46 33 47 34 48 95 49 35 50 94 51 36 52 37 53 38 54
REMARK SMILES IDX 88 55 39 56 93 57 87 58 89 59 40 60 92 61 86 62 85 63 41 65
REMARK SMILES IDX 73 66 53 67 72 68 54 69 57 70 71 71 90 72 55 73 56 74 70 76
REMARK SMILES IDX 91 77 58 78 42 79 43 80 51 81 44 82 45 83 49 84 52 85 46 86
REMARK SMILES IDX 47 87 50 88 48 89 74 90 75 91 83 92 76 93 77 94 81 95 84 96
REMARK SMILES IDX 78 97 79 98 82 99 80 100 59 101 60 102 68 103 61 104 62 105
REMARK SMILES IDX 66 106 69 107 63 108 64 109 67 110 65 111
REMARK H PARENT 12 12 15 14 1 30 1 31 89 64 57 75
REMARK Flexibility Score: inf
ROOT
ATOM      1  C   UNL A   1      39.135  20.357  25.988  1.00  0.00     0.202 C 
ENDROOT
BRANCH   1   2
ATOM      2  C   UNL A   1      38.284  21.473  25.343  1.00  0.00     0.261 C 
BRANCH   2   3
ATOM      3  O   UNL A   1      37.229  22.039  26.146  1.00  0.00    -0.463 OA
BRANCH   3   4
ATOM      4  C   UNL A   1      35.983  21.940  25.631  1.00  0.00     0.305 C 
ATOM      5  O   UNL A   1      35.000  21.579  26.271  1.00  0.00    -0.252 OA
BRANCH   4   6
ATOM      6  C   UNL A   1      35.884  22.282  24.152  1.00  0.00     0.124 C 
BRANCH   6   7
ATOM      7  C   UNL A   1      34.679  22.990  23.535  1.00  0.00     0.033 C 
BRANCH   7   8
ATOM      8  C   UNL A   1      33.492  22.199  22.985  1.00  0.00     0.118 C 
BRANCH   8   9
ATOM      9  N   UNL A   1      33.075  21.041  23.716  1.00  0.00    -0.338 N 
ATOM     10  N   UNL A   1      31.791  21.924  25.548  1.00  0.00    -0.291 N 
ATOM     11  C   UNL A   1      32.275  20.925  24.789  1.00  0.00     0.320 C 
ATOM     12  H   UNL A   1      31.444  21.587  26.405  1.00  0.00     0.173 HD
ATOM     13  O   UNL A   1      32.027  19.770  25.161  1.00  0.00    -0.248 OA
ATOM     14  H   UNL A   1      33.433  20.189  23.376  1.00  0.00     0.165 HD
BRANCH  10  15
ATOM     15  C   UNL A   1      31.646  23.296  25.455  1.00  0.00     0.157 A 
ATOM     16  N   UNL A   1      31.160  25.251  24.802  1.00  0.00    -0.231 N 
ATOM     17  N   UNL A   1      30.758  23.969  24.722  1.00  0.00    -0.149 NA
ATOM     18  C   UNL A   1      32.046  25.475  25.843  1.00  0.00     0.076 A 
ATOM     19  C   UNL A   1      32.426  24.209  26.236  1.00  0.00     0.078 A 
BRANCH  16  20
ATOM     20  C   UNL A   1      30.612  26.270  23.999  1.00  0.00     0.065 A 
ATOM     21  C   UNL A   1      29.644  28.644  22.967  1.00  0.00     0.082 A 
ATOM     22  C   UNL A   1      30.985  28.304  22.755  1.00  0.00     0.024 A 
ATOM     23  C   UNL A   1      28.791  27.806  23.699  1.00  0.00     0.024 A 
ATOM     24  C   UNL A   1      31.477  27.117  23.291  1.00  0.00     0.030 A 
ATOM     25  C   UNL A   1      29.274  26.602  24.205  1.00  0.00     0.030 A 
BRANCH  21  26
ATOM     26  S   UNL A   1      28.926  29.988  22.083  1.00  0.00     0.238 S 
ATOM     27  O   UNL A   1      28.757  31.095  22.990  1.00  0.00    -0.207 OA
ATOM     28  O   UNL A   1      27.871  29.491  21.223  1.00  0.00    -0.207 OA
BRANCH  26  29
ATOM     29  N   UNL A   1      30.139  30.482  21.037  1.00  0.00    -0.225 NA
ATOM     30  H   UNL A   1      30.772  29.703  20.857  1.00  0.00     0.137 HD
ATOM     31  H   UNL A   1      30.659  31.251  21.459  1.00  0.00     0.137 HD
ENDBRANCH  26  29
ENDBRANCH  21  26
ENDBRANCH  16  20
BRANCH  18  32
ATOM     32  C   UNL A   1      32.406  26.840  26.249  1.00  0.00     0.000 A 
ATOM     33  C   UNL A   1      33.707  27.313  25.984  1.00  0.00     0.010 A 
ATOM     34  C   UNL A   1      31.591  27.567  27.119  1.00  0.00     0.010 A 
ATOM     35  C   UNL A   1      34.225  28.413  26.666  1.00  0.00     0.001 A 
ATOM     36  C   UNL A   1      32.101  28.696  27.774  1.00  0.00     0.001 A 
ATOM     37  C   UNL A   1      33.422  29.099  27.570  1.00  0.00     0.000 A 
ENDBRANCH  18  32
ENDBRANCH  10  15
ENDBRANCH   8   9
ENDBRANCH   7   8
ENDBRANCH   6   7
ENDBRANCH   4   6
ENDBRANCH   3   4
ENDBRANCH   2   3
ENDBRANCH   1   2
BRANCH   1  38
ATOM     38  O   UNL A   1      40.548  20.493  26.049  1.00  0.00    -0.376 OA
BRANCH  38  39
ATOM     39  C   UNL A   1      41.354  19.322  26.058  1.00  0.00     0.188 C 
BRANCH  39  40
ATOM     40  C   UNL A   1      42.886  19.442  26.195  1.00  0.00     0.188 C 
BRANCH  40  41
ATOM     41  O   UNL A   1      43.611  19.402  24.988  1.00  0.00    -0.376 OA
BRANCH  41  42
ATOM     42  C   UNL A   1      44.287  20.580  24.615  1.00  0.00     0.202 C 
BRANCH  42  43
ATOM     43  C   UNL A   1      43.997  21.899  25.334  1.00  0.00     0.261 C 
BRANCH  43  44
ATOM     44  O   UNL A   1      42.959  22.749  24.850  1.00  0.00    -0.460 OA
BRANCH  44  45
ATOM     45  C   UNL A   1      43.026  24.045  25.208  1.00  0.00     0.338 C 
ATOM     46  O   UNL A   1      43.865  24.863  24.878  1.00  0.00    -0.246 OA
BRANCH  45  47
ATOM     47  C   UNL A   1      42.039  24.389  26.230  1.00  0.00     0.060 A 
ATOM     48  C   UNL A   1      41.097  25.330  25.797  1.00  0.00     0.016 A 
ATOM     49  C   UNL A   1      42.515  24.347  27.543  1.00  0.00     0.016 A 
ATOM     50  C   UNL A   1      40.947  26.450  26.571  1.00  0.00     0.010 A 
ATOM     51  C   UNL A   1      42.369  25.474  28.309  1.00  0.00     0.010 A 
ATOM     52  C   UNL A   1      41.686  26.555  27.760  1.00  0.00    -0.014 A 
BRANCH  52  53
ATOM     53  C   UNL A   1      41.553  27.795  28.494  1.00  0.00     0.031 A 
ATOM     54  C   UNL A   1      42.723  28.656  28.222  1.00  0.00     0.074 A 
ATOM     55  C   UNL A   1      40.498  28.121  29.261  1.00  0.00     0.049 A 
ATOM     56  N   UNL A   1      43.641  29.030  29.047  1.00  0.00    -0.248 NA
ATOM     57  C   UNL A   1      43.033  28.912  26.802  1.00  0.00     0.031 C 
ATOM     58  C   UNL A   1      39.212  27.436  29.395  1.00  0.00     0.029 A 
ATOM     59  N   UNL A   1      40.335  29.220  30.049  1.00  0.00    -0.354 N 
ATOM     60  C   UNL A   1      44.554  29.727  28.269  1.00  0.00     0.074 A 
ATOM     61  C   UNL A   1      44.251  29.439  26.894  1.00  0.00     0.031 C 
ATOM     62  C   UNL A   1      38.340  28.235  30.050  1.00  0.00     0.029 A 
ATOM     63  C   UNL A   1      39.025  29.451  30.443  1.00  0.00     0.049 A 
ATOM     64  H   UNL A   1      41.083  29.801  30.316  1.00  0.00     0.167 HD
ATOM     65  C   UNL A   1      45.279  30.740  28.805  1.00  0.00     0.037 A 
ATOM     66  C   UNL A   1      38.535  30.618  30.936  1.00  0.00     0.037 A 
ATOM     67  C   UNL A   1      45.404  30.604  30.232  1.00  0.00     0.049 A 
ATOM     68  C   UNL A   1      39.694  31.410  31.427  1.00  0.00     0.074 A 
ATOM     69  C   UNL A   1      45.978  29.662  31.062  1.00  0.00     0.029 A 
ATOM     70  N   UNL A   1      44.543  31.327  31.021  1.00  0.00    -0.354 N 
ATOM     71  N   UNL A   1      40.416  31.060  32.456  1.00  0.00    -0.248 NA
ATOM     72  C   UNL A   1      40.350  32.299  30.478  1.00  0.00     0.031 C 
ATOM     73  C   UNL A   1      45.108  29.573  32.188  1.00  0.00     0.029 A 
ATOM     74  C   UNL A   1      44.081  30.500  32.012  1.00  0.00     0.049 A 
ATOM     75  H   UNL A   1      44.302  32.273  30.897  1.00  0.00     0.167 HD
ATOM     76  C   UNL A   1      41.726  31.324  32.077  1.00  0.00     0.074 A 
ATOM     77  C   UNL A   1      41.617  32.145  30.873  1.00  0.00     0.031 C 
ATOM     78  C   UNL A   1      42.766  30.613  32.601  1.00  0.00     0.037 A 
BRANCH  65  79
ATOM     79  C   UNL A   1      45.462  32.040  28.072  1.00  0.00     0.064 A 
ATOM     80  C   UNL A   1      44.333  32.811  27.758  1.00  0.00     0.173 A 
ATOM     81  C   UNL A   1      46.662  32.411  27.417  1.00  0.00     0.173 A 
ATOM     82  F   UNL A   1      43.139  32.520  28.295  1.00  0.00    -0.203 F 
ATOM     83  C   UNL A   1      44.392  33.840  26.813  1.00  0.00     0.198 A 
ATOM     84  C   UNL A   1      46.730  33.474  26.526  1.00  0.00     0.198 A 
ATOM     85  F   UNL A   1      47.787  31.693  27.513  1.00  0.00    -0.203 F 
ATOM     86  F   UNL A   1      43.268  34.468  26.449  1.00  0.00    -0.200 F 
ATOM     87  C   UNL A   1      45.589  34.168  26.198  1.00  0.00     0.200 A 
ATOM     88  F   UNL A   1      47.895  33.755  25.925  1.00  0.00    -0.200 F 
ATOM     89  F   UNL A   1      45.633  35.113  25.251  1.00  0.00    -0.200 F 
ENDBRANCH  65  79
BRANCH  66  90
ATOM     90  C   UNL A   1      37.205  31.212  30.641  1.00  0.00     0.064 A 
ATOM     91  C   UNL A   1      36.302  31.547  31.663  1.00  0.00     0.173 A 
ATOM     92  C   UNL A   1      36.883  31.683  29.351  1.00  0.00     0.173 A 
ATOM     93  F   UNL A   1      36.558  31.196  32.931  1.00  0.00    -0.203 F 
ATOM     94  C   UNL A   1      35.145  32.297  31.404  1.00  0.00     0.198 A 
ATOM     95  C   UNL A   1      35.727  32.418  29.093  1.00  0.00     0.198 A 
ATOM     96  F   UNL A   1      37.727  31.514  28.323  1.00  0.00    -0.203 F 
ATOM     97  F   UNL A   1      34.327  32.634  32.410  1.00  0.00    -0.200 F 
ATOM     98  C   UNL A   1      34.861  32.733  30.120  1.00  0.00     0.200 A 
ATOM     99  F   UNL A   1      35.489  32.863  27.850  1.00  0.00    -0.200 F 
ATOM    100  F   UNL A   1      33.777  33.483  29.878  1.00  0.00    -0.200 F 
ENDBRANCH  66  90
BRANCH  78 101
ATOM    101  C   UNL A   1      42.462  29.703  33.758  1.00  0.00     0.064 A 
ATOM    102  C   UNL A   1      42.004  28.381  33.613  1.00  0.00     0.173 A 
ATOM    103  C   UNL A   1      42.789  30.135  35.050  1.00  0.00     0.173 A 
ATOM    104  F   UNL A   1      41.748  27.865  32.405  1.00  0.00    -0.203 F 
ATOM    105  C   UNL A   1      41.852  27.543  34.718  1.00  0.00     0.198 A 
ATOM    106  C   UNL A   1      42.664  29.287  36.147  1.00  0.00     0.198 A 
ATOM    107  F   UNL A   1      43.279  31.369  35.240  1.00  0.00    -0.203 F 
ATOM    108  F   UNL A   1      41.410  26.286  34.551  1.00  0.00    -0.200 F 
ATOM    109  C   UNL A   1      42.189  27.996  35.983  1.00  0.00     0.200 A 
ATOM    110  F   UNL A   1      43.033  29.714  37.363  1.00  0.00    -0.200 F 
ATOM    111  F   UNL A   1      42.080  27.179  37.041  1.00  0.00    -0.200 F 
ENDBRANCH  78 101
ENDBRANCH  52  53
ENDBRANCH  45  47
ENDBRANCH  44  45
ENDBRANCH  43  44
ENDBRANCH  42  43
ENDBRANCH  41  42
ENDBRANCH  40  41
ENDBRANCH  39  40
ENDBRANCH  38  39
ENDBRANCH   1  38
TORSDOF 25
ENDMDL
MODEL 2
REMARK VINA RESULT:     -11.5      1.666      2.613
REMARK SMILES NS(=O)(=O)c1ccc(-n2nc(NC(=O)NCCCC(=O)OCCOCCOCCOC(=O)c3ccc(-c4c5nc(c(-c6c(F)c(F)c(F)c(F)c6F)c6ccc([nH]6)c(-c6c(F)c(F)c(F)c(F)c6F)c6nc(c(-c7c(F)c(F)c(F)c(F)c7F)c7ccc4[nH]7)C=C6)C=C5)cc3)cc2-c2ccccc2)cc1
REMARK SMILES IDX 23 1 22 2 21 3 19 4 20 5 18 6 17 7 16 8 15 9 12 10 13 11
REMARK SMILES IDX 14 13 11 15 9 16 10 17 97 18 96 19 8 20 5 21 6 22 105 23
REMARK SMILES IDX 7 24 104 25 2 26 3 27 4 28 1 29 98 32 99 33 103 34 100 35
REMARK SMILES IDX 102 36 101 37 24 38 25 39 26 40 27 41 28 42 29 43 30 44
REMARK SMILES IDX 31 45 32 46 33 47 34 48 95 49 35 50 94 51 36 52 37 53 38 54
REMARK SMILES IDX 88 55 39 56 93 57 87 58 89 59 40 60 92 61 86 62 85 63 41 65
REMARK SMILES IDX 73 66 53 67 72 68 54 69 57 70 71 71 90 72 55 73 56 74 70 76
REMARK SMILES IDX 91 77 58 78 42 79 43 80 51 81 44 82 45 83 49 84 52 85 46 86
REMARK SMILES IDX 47 87 50 88 48 89 74 90 75 91 83 92 76 93 77 94 81 95 84 96
REMARK SMILES IDX 78 97 79 98 82 99 80 100 59 101 60 102 68 103 61 104 62 105
REMARK SMILES IDX 66 106 69 107 63 108 64 109 67 110 65 111
REMARK H PARENT 12 12 15 14 1 30 1 31 89 64 57 75
REMARK Flexibility Score: inf
ROOT
ATOM      1  C   UNL A   1      42.685  18.871  26.577  1.00  0.00     0.202 C 
ENDROOT
BRANCH   1   2
ATOM      2  C   UNL A   1      41.381  19.572  27.015  1.00  0.00     0.261 C 
BRANCH   2   3
ATOM      3  O   UNL A   1      40.635  20.266  25.995  1.00  0.00    -0.463 OA
BRANCH   3   4
ATOM      4  C   UNL A   1      39.886  21.307  26.422  1.00  0.00     0.305 C 
ATOM      5  O   UNL A   1      40.160  21.998  27.398  1.00  0.00    -0.252 OA
BRANCH   4   6
ATOM      6  C   UNL A   1      38.624  21.549  25.608  1.00  0.00     0.124 C 
BRANCH   6   7
ATOM      7  C   UNL A   1      37.794  20.423  24.996  1.00  0.00     0.033 C 
BRANCH   7   8
ATOM      8  C   UNL A   1      36.272  20.526  24.892  1.00  0.00     0.118 C 
BRANCH   8   9
ATOM      9  N   UNL A   1      35.526  19.305  24.898  1.00  0.00    -0.338 N 
ATOM     10  N   UNL A   1      33.231  20.007  24.742  1.00  0.00    -0.291 N 
ATOM     11  C   UNL A   1      34.208  19.083  24.760  1.00  0.00     0.320 C 
ATOM     12  H   UNL A   1      32.348  19.596  24.880  1.00  0.00     0.173 HD
ATOM     13  O   UNL A   1      33.856  17.896  24.727  1.00  0.00    -0.248 OA
ATOM     14  H   UNL A   1      36.068  18.492  25.023  1.00  0.00     0.165 HD
BRANCH  10  15
ATOM     15  C   UNL A   1      33.126  21.376  24.583  1.00  0.00     0.157 A 
ATOM     16  N   UNL A   1      32.909  23.454  24.929  1.00  0.00    -0.231 N 
ATOM     17  N   UNL A   1      33.350  22.319  25.501  1.00  0.00    -0.149 NA
ATOM     18  C   UNL A   1      32.752  23.343  23.557  1.00  0.00     0.076 A 
ATOM     19  C   UNL A   1      32.823  21.985  23.323  1.00  0.00     0.078 A 
BRANCH  16  20
ATOM     20  C   UNL A   1      32.773  24.660  25.643  1.00  0.00     0.065 A 
ATOM     21  C   UNL A   1      32.439  27.288  26.432  1.00  0.00     0.082 A 
ATOM     22  C   UNL A   1      31.320  26.452  26.356  1.00  0.00     0.024 A 
ATOM     23  C   UNL A   1      33.720  26.817  26.108  1.00  0.00     0.024 A 
ATOM     24  C   UNL A   1      31.486  25.132  25.940  1.00  0.00     0.030 A 
ATOM     25  C   UNL A   1      33.891  25.489  25.727  1.00  0.00     0.030 A 
BRANCH  21  26
ATOM     26  S   UNL A   1      32.308  28.864  27.207  1.00  0.00     0.238 S 
ATOM     27  O   UNL A   1      33.633  29.322  27.541  1.00  0.00    -0.207 OA
ATOM     28  O   UNL A   1      31.208  28.848  28.150  1.00  0.00    -0.207 OA
BRANCH  26  29
ATOM     29  N   UNL A   1      31.807  29.884  25.975  1.00  0.00    -0.225 NA
ATOM     30  H   UNL A   1      31.773  29.366  25.097  1.00  0.00     0.137 HD
ATOM     31  H   UNL A   1      32.463  30.659  25.888  1.00  0.00     0.137 HD
ENDBRANCH  26  29
ENDBRANCH  21  26
ENDBRANCH  16  20
BRANCH  18  32
ATOM     32  C   UNL A   1      32.522  24.530  22.723  1.00  0.00     0.000 A 
ATOM     33  C   UNL A   1      33.624  25.317  22.333  1.00  0.00     0.010 A 
ATOM     34  C   UNL A   1      31.234  25.039  22.541  1.00  0.00     0.010 A 
ATOM     35  C   UNL A   1      33.450  26.627  21.890  1.00  0.00     0.001 A 
ATOM     36  C   UNL A   1      31.061  26.342  22.058  1.00  0.00     0.001 A 
ATOM     37  C   UNL A   1      32.165  27.143  21.761  1.00  0.00     0.000 A 
ENDBRANCH  18  32
ENDBRANCH  10  15
ENDBRANCH   8   9
ENDBRANCH   7   8
ENDBRANCH   6   7
ENDBRANCH   4   6
ENDBRANCH   3   4
ENDBRANCH   2   3
ENDBRANCH   1   2
BRANCH   1  38
ATOM     38  O   UNL A   1      43.289  19.214  25.337  1.00  0.00    -0.376 OA
BRANCH  38  39
ATOM     39  C   UNL A   1      44.607  18.759  25.062  1.00  0.00     0.188 C 
BRANCH  39  40
ATOM     40  C   UNL A   1      45.599  19.674  24.314  1.00  0.00     0.188 C 
BRANCH  40  41
ATOM     41  O   UNL A   1      46.349  20.550  25.122  1.00  0.00    -0.376 OA
BRANCH  41  42
ATOM     42  C   UNL A   1      45.708  21.732  25.540  1.00  0.00     0.202 C 
BRANCH  42  43
ATOM     43  C   UNL A   1      44.644  22.389  24.659  1.00  0.00     0.261 C 
BRANCH  43  44
ATOM     44  O   UNL A   1      43.412  22.808  25.240  1.00  0.00    -0.460 OA
BRANCH  44  45
ATOM     45  C   UNL A   1      43.197  24.136  25.306  1.00  0.00     0.338 C 
ATOM     46  O   UNL A   1      43.845  25.018  24.773  1.00  0.00    -0.246 OA
BRANCH  45  47
ATOM     47  C   UNL A   1      42.152  24.481  26.267  1.00  0.00     0.060 A 
ATOM     48  C   UNL A   1      41.239  25.423  25.780  1.00  0.00     0.016 A 
ATOM     49  C   UNL A   1      42.550  24.438  27.606  1.00  0.00     0.016 A 
ATOM     50  C   UNL A   1      41.045  26.544  26.543  1.00  0.00     0.010 A 
ATOM     51  C   UNL A   1      42.360  25.566  28.363  1.00  0.00     0.010 A 
ATOM     52  C   UNL A   1      41.713  26.647  27.775  1.00  0.00    -0.014 A 
BRANCH  52  53
ATOM     53  C   UNL A   1      41.538  27.888  28.499  1.00  0.00     0.031 A 
ATOM     54  C   UNL A   1      42.702  28.767  28.259  1.00  0.00     0.074 A 
ATOM     55  C   UNL A   1      40.456  28.200  29.234  1.00  0.00     0.049 A 
ATOM     56  N   UNL A   1      43.590  29.158  29.108  1.00  0.00    -0.248 NA
ATOM     57  C   UNL A   1      43.049  29.022  26.847  1.00  0.00     0.031 C 
ATOM     58  C   UNL A   1      39.178  27.494  29.333  1.00  0.00     0.029 A 
ATOM     59  N   UNL A   1      40.252  29.298  30.012  1.00  0.00    -0.354 N 
ATOM     60  C   UNL A   1      44.513  29.868  28.354  1.00  0.00     0.074 A 
ATOM     61  C   UNL A   1      44.255  29.569  26.972  1.00  0.00     0.031 C 
ATOM     62  C   UNL A   1      38.275  28.281  29.959  1.00  0.00     0.029 A 
ATOM     63  C   UNL A   1      38.928  29.510  30.368  1.00  0.00     0.049 A 
ATOM     64  H   UNL A   1      40.984  29.892  30.299  1.00  0.00     0.167 HD
ATOM     65  C   UNL A   1      45.206  30.894  28.908  1.00  0.00     0.037 A 
ATOM     66  C   UNL A   1      38.405  30.670  30.841  1.00  0.00     0.037 A 
ATOM     67  C   UNL A   1      45.291  30.765  30.338  1.00  0.00     0.049 A 
ATOM     68  C   UNL A   1      39.537  31.483  31.362  1.00  0.00     0.074 A 
ATOM     69  C   UNL A   1      45.856  29.835  31.188  1.00  0.00     0.029 A 
ATOM     70  N   UNL A   1      44.397  31.476  31.099  1.00  0.00    -0.354 N 
ATOM     71  N   UNL A   1      40.234  31.147  32.414  1.00  0.00    -0.248 NA
ATOM     72  C   UNL A   1      40.206  32.379  30.430  1.00  0.00     0.031 C 
ATOM     73  C   UNL A   1      44.955  29.736  32.289  1.00  0.00     0.029 A 
ATOM     74  C   UNL A   1      43.918  30.645  32.079  1.00  0.00     0.049 A 
ATOM     75  H   UNL A   1      44.144  32.418  30.964  1.00  0.00     0.167 HD
ATOM     76  C   UNL A   1      41.550  31.431  32.072  1.00  0.00     0.074 A 
ATOM     77  C   UNL A   1      41.463  32.246  30.862  1.00  0.00     0.031 C 
ATOM     78  C   UNL A   1      42.586  30.740  32.629  1.00  0.00     0.037 A 
BRANCH  65  79
ATOM     79  C   UNL A   1      45.390  32.194  28.175  1.00  0.00     0.064 A 
ATOM     80  C   UNL A   1      44.261  32.970  27.868  1.00  0.00     0.173 A 
ATOM     81  C   UNL A   1      46.587  32.561  27.514  1.00  0.00     0.173 A 
ATOM     82  F   UNL A   1      43.070  32.682  28.411  1.00  0.00    -0.203 F 
ATOM     83  C   UNL A   1      44.318  33.999  26.924  1.00  0.00     0.198 A 
ATOM     84  C   UNL A   1      46.653  33.625  26.623  1.00  0.00     0.198 A 
ATOM     85  F   UNL A   1      47.710  31.839  27.602  1.00  0.00    -0.203 F 
ATOM     86  F   UNL A   1      43.195  34.632  26.567  1.00  0.00    -0.200 F 
ATOM     87  C   UNL A   1      45.513  34.324  26.303  1.00  0.00     0.200 A 
ATOM     88  F   UNL A   1      47.816  33.903  26.017  1.00  0.00    -0.200 F 
ATOM     89  F   UNL A   1      45.555  35.270  25.357  1.00  0.00    -0.200 F 
ENDBRANCH  65  79
BRANCH  66  90
ATOM     90  C   UNL A   1      37.075  31.242  30.506  1.00  0.00     0.064 A 
ATOM     91  C   UNL A   1      36.178  31.662  31.501  1.00  0.00     0.173 A 
ATOM     92  C   UNL A   1      36.747  31.605  29.182  1.00  0.00     0.173 A 
ATOM     93  F   UNL A   1      36.441  31.417  32.792  1.00  0.00    -0.203 F 
ATOM     94  C   UNL A   1      35.023  32.392  31.187  1.00  0.00     0.198 A 
ATOM     95  C   UNL A   1      35.592  32.320  28.871  1.00  0.00     0.198 A 
ATOM     96  F   UNL A   1      37.585  31.349  28.168  1.00  0.00    -0.203 F 
ATOM     97  F   UNL A   1      34.210  32.814  32.166  1.00  0.00    -0.200 F 
ATOM     98  C   UNL A   1      34.732  32.721  29.873  1.00  0.00     0.200 A 
ATOM     99  F   UNL A   1      35.348  32.661  27.597  1.00  0.00    -0.200 F 
ATOM    100  F   UNL A   1      33.649  33.452  29.576  1.00  0.00    -0.200 F 
ENDBRANCH  66  90
BRANCH  78 101
ATOM    101  C   UNL A   1      42.263  29.828  33.781  1.00  0.00     0.064 A 
ATOM    102  C   UNL A   1      41.824  28.500  33.627  1.00  0.00     0.173 A 
ATOM    103  C   UNL A   1      42.551  30.267  35.079  1.00  0.00     0.173 A 
ATOM    104  F   UNL A   1      41.606  27.979  32.414  1.00  0.00    -0.203 F 
ATOM    105  C   UNL A   1      41.653  27.664  34.730  1.00  0.00     0.198 A 
ATOM    106  C   UNL A   1      42.407  29.421  36.175  1.00  0.00     0.198 A 
ATOM    107  F   UNL A   1      43.020  31.508  35.278  1.00  0.00    -0.203 F 
ATOM    108  F   UNL A   1      41.231  26.401  34.555  1.00  0.00    -0.200 F 
ATOM    109  C   UNL A   1      41.952  28.123  36.002  1.00  0.00     0.200 A 
ATOM    110  F   UNL A   1      42.739  29.855  37.399  1.00  0.00    -0.200 F 
ATOM    111  F   UNL A   1      41.826  27.308  37.059  1.00  0.00    -0.200 F 
ENDBRANCH  78 101
ENDBRANCH  52  53
ENDBRANCH  45  47
ENDBRANCH  44  45
ENDBRANCH  43  44
ENDBRANCH  42  43
ENDBRANCH  41  42
ENDBRANCH  40  41
ENDBRANCH  39  40
ENDBRANCH  38  39
ENDBRANCH   1  38
TORSDOF 25
ENDMDL
MODEL 3
REMARK VINA RESULT:     -11.1      1.583      2.500
REMARK SMILES NS(=O)(=O)c1ccc(-n2nc(NC(=O)NCCCC(=O)OCCOCCOCCOC(=O)c3ccc(-c4c5nc(c(-c6c(F)c(F)c(F)c(F)c6F)c6ccc([nH]6)c(-c6c(F)c(F)c(F)c(F)c6F)c6nc(c(-c7c(F)c(F)c(F)c(F)c7F)c7ccc4[nH]7)C=C6)C=C5)cc3)cc2-c2ccccc2)cc1
REMARK SMILES IDX 23 1 22 2 21 3 19 4 20 5 18 6 17 7 16 8 15 9 12 10 13 11
REMARK SMILES IDX 14 13 11 15 9 16 10 17 97 18 96 19 8 20 5 21 6 22 105 23
REMARK SMILES IDX 7 24 104 25 2 26 3 27 4 28 1 29 98 32 99 33 103 34 100 35
REMARK SMILES IDX 102 36 101 37 24 38 25 39 26 40 27 41 28 42 29 43 30 44
REMARK SMILES IDX 31 45 32 46 33 47 34 48 95 49 35 50 94 51 36 52 37 53 38 54
REMARK SMILES IDX 88 55 39 56 93 57 87 58 89 59 40 60 92 61 86 62 85 63 41 65
REMARK SMILES IDX 73 66 53 67 72 68 54 69 57 70 71 71 90 72 55 73 56 74 70 76
REMARK SMILES IDX 91 77 58 78 42 79 43 80 51 81 44 82 45 83 49 84 52 85 46 86
REMARK SMILES IDX 47 87 50 88 48 89 74 90 75 91 83 92 76 93 77 94 81 95 84 96
REMARK SMILES IDX 78 97 79 98 82 99 80 100 59 101 60 102 68 103 61 104 62 105
REMARK SMILES IDX 66 106 69 107 63 108 64 109 67 110 65 111
REMARK H PARENT 12 12 15 14 1 30 1 31 89 64 57 75
REMARK Flexibility Score: inf
ROOT
ATOM      1  C   UNL A   1      40.827  20.918  26.583  1.00  0.00     0.202 C 
ENDROOT
BRANCH   1   2
ATOM      2  C   UNL A   1      40.665  22.411  26.944  1.00  0.00     0.261 C 
BRANCH   2   3
ATOM      3  O   UNL A   1      39.328  22.879  27.212  1.00  0.00    -0.463 OA
BRANCH   3   4
ATOM      4  C   UNL A   1      38.891  23.888  26.426  1.00  0.00     0.305 C 
ATOM      5  O   UNL A   1      39.575  24.853  26.101  1.00  0.00    -0.252 OA
BRANCH   4   6
ATOM      6  C   UNL A   1      37.440  23.761  25.988  1.00  0.00     0.124 C 
BRANCH   6   7
ATOM      7  C   UNL A   1      36.750  22.418  25.758  1.00  0.00     0.033 C 
BRANCH   7   8
ATOM      8  C   UNL A   1      35.558  22.292  24.809  1.00  0.00     0.118 C 
BRANCH   8   9
ATOM      9  N   UNL A   1      34.959  20.999  24.671  1.00  0.00    -0.338 N 
ATOM     10  N   UNL A   1      32.598  21.412  24.878  1.00  0.00    -0.291 N 
ATOM     11  C   UNL A   1      33.667  20.633  24.630  1.00  0.00     0.320 C 
ATOM     12  H   UNL A   1      31.789  20.872  25.028  1.00  0.00     0.173 HD
ATOM     13  O   UNL A   1      33.447  19.433  24.419  1.00  0.00    -0.248 OA
ATOM     14  H   UNL A   1      35.599  20.255  24.592  1.00  0.00     0.165 HD
BRANCH  10  15
ATOM     15  C   UNL A   1      32.324  22.763  24.979  1.00  0.00     0.157 A 
ATOM     16  N   UNL A   1      31.681  24.743  24.591  1.00  0.00    -0.231 N 
ATOM     17  N   UNL A   1      31.412  23.458  24.295  1.00  0.00    -0.149 NA
ATOM     18  C   UNL A   1      32.485  24.884  25.710  1.00  0.00     0.076 A 
ATOM     19  C   UNL A   1      32.967  23.612  25.936  1.00  0.00     0.078 A 
BRANCH  16  20
ATOM     20  C   UNL A   1      31.078  25.820  23.912  1.00  0.00     0.065 A 
ATOM     21  C   UNL A   1      30.045  28.265  23.141  1.00  0.00     0.082 A 
ATOM     22  C   UNL A   1      31.364  27.944  22.802  1.00  0.00     0.024 A 
ATOM     23  C   UNL A   1      29.246  27.371  23.870  1.00  0.00     0.024 A 
ATOM     24  C   UNL A   1      31.891  26.720  23.207  1.00  0.00     0.030 A 
ATOM     25  C   UNL A   1      29.760  26.133  24.243  1.00  0.00     0.030 A 
BRANCH  21  26
ATOM     26  S   UNL A   1      29.268  29.671  22.419  1.00  0.00     0.238 S 
ATOM     27  O   UNL A   1      29.217  30.722  23.404  1.00  0.00    -0.207 OA
ATOM     28  O   UNL A   1      28.118  29.243  21.648  1.00  0.00    -0.207 OA
BRANCH  26  29
ATOM     29  N   UNL A   1      30.375  30.210  21.283  1.00  0.00    -0.225 NA
ATOM     30  H   UNL A   1      30.946  29.427  20.965  1.00  0.00     0.137 HD
ATOM     31  H   UNL A   1      30.974  30.920  21.702  1.00  0.00     0.137 HD
ENDBRANCH  26  29
ENDBRANCH  21  26
ENDBRANCH  16  20
BRANCH  18  32
ATOM     32  C   UNL A   1      32.686  26.197  26.337  1.00  0.00     0.000 A 
ATOM     33  C   UNL A   1      31.600  26.819  26.985  1.00  0.00     0.010 A 
ATOM     34  C   UNL A   1      33.831  26.950  26.072  1.00  0.00     0.010 A 
ATOM     35  C   UNL A   1      31.610  28.189  27.249  1.00  0.00     0.001 A 
ATOM     36  C   UNL A   1      33.853  28.317  26.374  1.00  0.00     0.001 A 
ATOM     37  C   UNL A   1      32.736  28.940  26.934  1.00  0.00     0.000 A 
ENDBRANCH  18  32
ENDBRANCH  10  15
ENDBRANCH   8   9
ENDBRANCH   7   8
ENDBRANCH   6   7
ENDBRANCH   4   6
ENDBRANCH   3   4
ENDBRANCH   2   3
ENDBRANCH   1   2
BRANCH   1  38
ATOM     38  O   UNL A   1      42.050  20.454  26.031  1.00  0.00    -0.376 OA
BRANCH  38  39
ATOM     39  C   UNL A   1      42.370  19.072  26.125  1.00  0.00     0.188 C 
BRANCH  39  40
ATOM     40  C   UNL A   1      43.647  18.529  25.450  1.00  0.00     0.188 C 
BRANCH  40  41
ATOM     41  O   UNL A   1      44.809  19.303  25.630  1.00  0.00    -0.376 OA
BRANCH  41  42
ATOM     42  C   UNL A   1      45.388  19.855  24.471  1.00  0.00     0.202 C 
BRANCH  42  43
ATOM     43  C   UNL A   1      44.688  20.991  23.720  1.00  0.00     0.261 C 
BRANCH  43  44
ATOM     44  O   UNL A   1      45.253  22.299  23.742  1.00  0.00    -0.460 OA
BRANCH  44  45
ATOM     45  C   UNL A   1      45.554  22.805  24.954  1.00  0.00     0.338 C 
ATOM     46  O   UNL A   1      46.652  22.877  25.474  1.00  0.00    -0.246 OA
BRANCH  45  47
ATOM     47  C   UNL A   1      44.359  23.138  25.727  1.00  0.00     0.060 A 
ATOM     48  C   UNL A   1      43.521  24.058  25.086  1.00  0.00     0.016 A 
ATOM     49  C   UNL A   1      44.533  23.115  27.113  1.00  0.00     0.016 A 
ATOM     50  C   UNL A   1      43.185  25.181  25.794  1.00  0.00     0.010 A 
ATOM     51  C   UNL A   1      44.201  24.244  27.816  1.00  0.00     0.010 A 
ATOM     52  C   UNL A   1      43.640  25.308  27.117  1.00  0.00    -0.014 A 
BRANCH  52  53
ATOM     53  C   UNL A   1      43.327  26.551  27.789  1.00  0.00     0.031 A 
ATOM     54  C   UNL A   1      44.357  27.560  27.463  1.00  0.00     0.074 A 
ATOM     55  C   UNL A   1      42.237  26.757  28.549  1.00  0.00     0.049 A 
ATOM     56  N   UNL A   1      45.211  28.106  28.259  1.00  0.00    -0.248 NA
ATOM     57  C   UNL A   1      44.622  27.785  26.028  1.00  0.00     0.031 C 
ATOM     58  C   UNL A   1      41.066  25.898  28.729  1.00  0.00     0.029 A 
ATOM     59  N   UNL A   1      41.915  27.859  29.282  1.00  0.00    -0.354 N 
ATOM     60  C   UNL A   1      46.010  28.890  27.438  1.00  0.00     0.074 A 
ATOM     61  C   UNL A   1      45.749  28.490  26.082  1.00  0.00     0.031 C 
ATOM     62  C   UNL A   1      40.088  26.592  29.351  1.00  0.00     0.029 A 
ATOM     63  C   UNL A   1      40.586  27.914  29.677  1.00  0.00     0.049 A 
ATOM     64  H   UNL A   1      42.570  28.556  29.512  1.00  0.00     0.167 HD
ATOM     65  C   UNL A   1      46.578  30.024  27.916  1.00  0.00     0.037 A 
ATOM     66  C   UNL A   1      39.930  29.020  30.114  1.00  0.00     0.037 A 
ATOM     67  C   UNL A   1      46.725  29.981  29.346  1.00  0.00     0.049 A 
ATOM     68  C   UNL A   1      40.961  29.998  30.554  1.00  0.00     0.074 A 
ATOM     69  C   UNL A   1      47.433  29.177  30.217  1.00  0.00     0.029 A 
ATOM     70  N   UNL A   1      45.769  30.608  30.106  1.00  0.00    -0.354 N 
ATOM     71  N   UNL A   1      41.729  29.811  31.593  1.00  0.00    -0.248 NA
ATOM     72  C   UNL A   1      41.477  30.924  29.556  1.00  0.00     0.031 C 
ATOM     73  C   UNL A   1      46.588  29.019  31.355  1.00  0.00     0.029 A 
ATOM     74  C   UNL A   1      45.435  29.774  31.142  1.00  0.00     0.049 A 
ATOM     75  H   UNL A   1      45.391  31.502  29.938  1.00  0.00     0.167 HD
ATOM     76  C   UNL A   1      42.985  30.245  31.188  1.00  0.00     0.074 A 
ATOM     77  C   UNL A   1      42.754  30.978  29.946  1.00  0.00     0.031 C 
ATOM     78  C   UNL A   1      44.120  29.723  31.738  1.00  0.00     0.037 A 
BRANCH  65  79
ATOM     79  C   UNL A   1      46.566  31.298  27.116  1.00  0.00     0.064 A 
ATOM     80  C   UNL A   1      47.757  32.027  26.977  1.00  0.00     0.173 A 
ATOM     81  C   UNL A   1      45.382  31.974  26.732  1.00  0.00     0.173 A 
ATOM     82  F   UNL A   1      48.929  31.493  27.348  1.00  0.00    -0.203 F 
ATOM     83  C   UNL A   1      47.752  33.354  26.539  1.00  0.00     0.198 A 
ATOM     84  C   UNL A   1      45.389  33.272  26.238  1.00  0.00     0.198 A 
ATOM     85  F   UNL A   1      44.162  31.460  26.929  1.00  0.00    -0.203 F 
ATOM     86  F   UNL A   1      48.892  34.055  26.540  1.00  0.00    -0.200 F 
ATOM     87  C   UNL A   1      46.569  33.975  26.172  1.00  0.00     0.200 A 
ATOM     88  F   UNL A   1      44.228  33.858  25.914  1.00  0.00    -0.200 F 
ATOM     89  F   UNL A   1      46.558  35.263  25.810  1.00  0.00    -0.200 F 
ENDBRANCH  65  79
BRANCH  66  90
ATOM     90  C   UNL A   1      38.527  29.396  29.804  1.00  0.00     0.064 A 
ATOM     91  C   UNL A   1      37.647  29.856  30.796  1.00  0.00     0.173 A 
ATOM     92  C   UNL A   1      38.084  29.534  28.471  1.00  0.00     0.173 A 
ATOM     93  F   UNL A   1      38.009  29.823  32.086  1.00  0.00    -0.203 F 
ATOM     94  C   UNL A   1      36.399  30.409  30.473  1.00  0.00     0.198 A 
ATOM     95  C   UNL A   1      36.839  30.072  28.152  1.00  0.00     0.198 A 
ATOM     96  F   UNL A   1      38.886  29.228  27.442  1.00  0.00    -0.203 F 
ATOM     97  F   UNL A   1      35.602  30.876  31.444  1.00  0.00    -0.200 F 
ATOM     98  C   UNL A   1      35.998  30.518  29.152  1.00  0.00     0.200 A 
ATOM     99  F   UNL A   1      36.484  30.204  26.865  1.00  0.00    -0.200 F 
ATOM    100  F   UNL A   1      34.823  31.082  28.839  1.00  0.00    -0.200 F 
ENDBRANCH  66  90
BRANCH  78 101
ATOM    101  C   UNL A   1      43.956  28.838  32.942  1.00  0.00     0.064 A 
ATOM    102  C   UNL A   1      43.778  29.323  34.250  1.00  0.00     0.173 A 
ATOM    103  C   UNL A   1      43.824  27.458  32.741  1.00  0.00     0.173 A 
ATOM    104  F   UNL A   1      43.807  30.635  34.512  1.00  0.00    -0.203 F 
ATOM    105  C   UNL A   1      43.513  28.458  35.312  1.00  0.00     0.198 A 
ATOM    106  C   UNL A   1      43.531  26.600  33.797  1.00  0.00     0.198 A 
ATOM    107  F   UNL A   1      43.933  26.947  31.506  1.00  0.00    -0.203 F 
ATOM    108  F   UNL A   1      43.350  28.948  36.552  1.00  0.00    -0.200 F 
ATOM    109  C   UNL A   1      43.382  27.098  35.082  1.00  0.00     0.200 A 
ATOM    110  F   UNL A   1      43.361  25.292  33.565  1.00  0.00    -0.200 F 
ATOM    111  F   UNL A   1      43.088  26.270  36.096  1.00  0.00    -0.200 F 
ENDBRANCH  78 101
ENDBRANCH  52  53
ENDBRANCH  45  47
ENDBRANCH  44  45
ENDBRANCH  43  44
ENDBRANCH  42  43
ENDBRANCH  41  42
ENDBRANCH  40  41
ENDBRANCH  39  40
ENDBRANCH  38  39
ENDBRANCH   1  38
TORSDOF 25
ENDMDL
