MODEL 1
REMARK VINA RESULT:     -11.4      0.000      0.000
REMARK SMILES O=C(OCCOCCOCCOC(=O)c1ccc(-c2c3nc(c(-c4c(F)c(F)c(F)c(F)c4F)c4ccc([nH]4)c(-c4c(F)c(F)c(F)c(F)c4F)c4nc(c(-c5c(F)c(F)c(F)c(F)c5F)c5ccc2[nH]5)C=C4)C=C3)cc1)c1ccc(NS(=O)(=O)Cc2c(Cl)cccc2Cl)cc1
REMARK SMILES IDX 7 1 6 2 5 3 4 4 3 5 2 6 1 7 78 8 79 9 96 10 80 11 95 12
REMARK SMILES IDX 81 13 82 14 83 16 84 17 85 18 86 19 87 20 88 21 93 22 89 23
REMARK SMILES IDX 90 24 92 25 94 26 91 27 8 28 9 29 10 30 11 31 12 32 13 33
REMARK SMILES IDX 14 34 15 35 16 36 77 37 17 38 76 39 18 40 19 41 20 42 70 43
REMARK SMILES IDX 21 44 75 45 69 46 71 47 22 48 74 49 68 50 67 51 23 53 55 54
REMARK SMILES IDX 35 55 54 56 36 57 39 58 53 59 72 60 37 61 38 62 52 64 73 65
REMARK SMILES IDX 40 66 24 67 25 68 33 69 26 70 27 71 31 72 34 73 28 74 29 75
REMARK SMILES IDX 32 76 30 77 56 78 57 79 65 80 58 81 59 82 63 83 66 84 60 85
REMARK SMILES IDX 61 86 64 87 62 88 41 89 42 90 50 91 43 92 44 93 48 94 51 95
REMARK SMILES IDX 45 96 46 97 49 98 47 99
REMARK H PARENT 82 15 71 52 39 63
REMARK Flexibility Score: inf
ROOT
ATOM      1  C   UNL A   1      43.777  19.464  25.129  1.00  0.00     0.188 C 
ENDROOT
BRANCH   1   2
ATOM      2  O   UNL A   1      42.668  20.280  25.517  1.00  0.00    -0.376 OA
BRANCH   2   3
ATOM      3  C   UNL A   1      41.622  19.548  26.156  1.00  0.00     0.202 C 
BRANCH   3   4
ATOM      4  C   UNL A   1      40.830  20.433  27.112  1.00  0.00     0.261 C 
BRANCH   4   5
ATOM      5  O   UNL A   1      39.592  20.847  26.492  1.00  0.00    -0.460 OA
BRANCH   5   6
ATOM      6  C   UNL A   1      39.235  22.140  26.276  1.00  0.00     0.338 C 
ATOM      7  O   UNL A   1      40.008  23.072  26.446  1.00  0.00    -0.246 OA
BRANCH   6   8
ATOM      8  C   UNL A   1      37.890  22.397  25.735  1.00  0.00     0.060 A 
ATOM      9  C   UNL A   1      37.367  23.689  25.724  1.00  0.00     0.018 A 
ATOM     10  C   UNL A   1      37.138  21.323  25.261  1.00  0.00     0.018 A 
ATOM     11  C   UNL A   1      36.045  23.892  25.327  1.00  0.00     0.027 A 
ATOM     12  C   UNL A   1      35.815  21.538  24.866  1.00  0.00     0.027 A 
ATOM     13  C   UNL A   1      35.249  22.818  24.922  1.00  0.00     0.049 A 
BRANCH  13  14
ATOM     14  N   UNL A   1      33.840  22.904  24.753  1.00  0.00    -0.283 N 
ATOM     15  H   UNL A   1      33.496  22.907  23.831  1.00  0.00     0.180 HD
BRANCH  14  16
ATOM     16  S   UNL A   1      32.724  22.999  25.984  1.00  0.00     0.237 S 
ATOM     17  O   UNL A   1      31.734  21.957  25.808  1.00  0.00    -0.206 OA
ATOM     18  O   UNL A   1      33.525  23.025  27.190  1.00  0.00    -0.206 OA
BRANCH  16  19
ATOM     19  C   UNL A   1      31.910  24.611  25.846  1.00  0.00     0.198 C 
BRANCH  19  20
ATOM     20  C   UNL A   1      32.228  25.383  24.585  1.00  0.00     0.006 A 
ATOM     21  C   UNL A   1      31.657  25.038  23.345  1.00  0.00     0.046 A 
ATOM     22  C   UNL A   1      33.179  26.427  24.578  1.00  0.00     0.046 A 
ATOM     23  Cl  UNL A   1      30.558  23.714  23.174  1.00  0.00    -0.084 Cl
ATOM     24  C   UNL A   1      31.986  25.727  22.169  1.00  0.00     0.021 A 
ATOM     25  C   UNL A   1      33.509  27.111  23.399  1.00  0.00     0.021 A 
ATOM     26  Cl  UNL A   1      34.050  26.906  25.995  1.00  0.00    -0.084 Cl
ATOM     27  C   UNL A   1      32.908  26.766  22.195  1.00  0.00     0.003 A 
ENDBRANCH  19  20
ENDBRANCH  16  19
ENDBRANCH  14  16
ENDBRANCH  13  14
ENDBRANCH   6   8
ENDBRANCH   5   6
ENDBRANCH   4   5
ENDBRANCH   3   4
ENDBRANCH   2   3
ENDBRANCH   1   2
BRANCH   1  28
ATOM     28  C   UNL A   1      44.916  20.318  24.571  1.00  0.00     0.188 C 
BRANCH  28  29
ATOM     29  O   UNL A   1      44.506  21.254  23.575  1.00  0.00    -0.376 OA
BRANCH  29  30
ATOM     30  C   UNL A   1      44.809  22.631  23.828  1.00  0.00     0.202 C 
BRANCH  30  31
ATOM     31  C   UNL A   1      44.006  23.267  24.968  1.00  0.00     0.261 C 
BRANCH  31  32
ATOM     32  O   UNL A   1      43.442  24.541  24.588  1.00  0.00    -0.460 OA
BRANCH  32  33
ATOM     33  C   UNL A   1      44.073  25.624  25.096  1.00  0.00     0.338 C 
ATOM     34  O   UNL A   1      45.215  25.990  24.883  1.00  0.00    -0.246 OA
BRANCH  33  35
ATOM     35  C   UNL A   1      43.161  26.400  25.950  1.00  0.00     0.060 A 
ATOM     36  C   UNL A   1      43.497  27.723  26.262  1.00  0.00     0.016 A 
ATOM     37  C   UNL A   1      42.119  25.752  26.615  1.00  0.00     0.016 A 
ATOM     38  C   UNL A   1      42.836  28.377  27.305  1.00  0.00     0.010 A 
ATOM     39  C   UNL A   1      41.461  26.408  27.657  1.00  0.00     0.010 A 
ATOM     40  C   UNL A   1      41.856  27.702  28.045  1.00  0.00    -0.014 A 
BRANCH  40  41
ATOM     41  C   UNL A   1      41.371  28.256  29.335  1.00  0.00     0.031 A 
ATOM     42  C   UNL A   1      40.137  29.118  29.343  1.00  0.00     0.074 A 
ATOM     43  C   UNL A   1      42.021  28.010  30.485  1.00  0.00     0.049 A 
ATOM     44  N   UNL A   1      39.590  29.788  30.327  1.00  0.00    -0.248 NA
ATOM     45  C   UNL A   1      39.422  29.246  28.062  1.00  0.00     0.031 C 
ATOM     46  C   UNL A   1      43.205  27.167  30.620  1.00  0.00     0.029 A 
ATOM     47  N   UNL A   1      41.779  28.467  31.757  1.00  0.00    -0.354 N 
ATOM     48  C   UNL A   1      38.484  30.426  29.784  1.00  0.00     0.074 A 
ATOM     49  C   UNL A   1      38.441  30.079  28.379  1.00  0.00     0.031 C 
ATOM     50  C   UNL A   1      43.601  27.181  31.905  1.00  0.00     0.029 A 
ATOM     51  C   UNL A   1      42.720  28.065  32.670  1.00  0.00     0.049 A 
ATOM     52  H   UNL A   1      41.005  29.030  31.990  1.00  0.00     0.167 HD
ATOM     53  C   UNL A   1      37.580  31.227  30.399  1.00  0.00     0.037 A 
ATOM     54  C   UNL A   1      42.872  28.399  33.966  1.00  0.00     0.037 A 
ATOM     55  C   UNL A   1      37.615  31.571  31.796  1.00  0.00     0.049 A 
ATOM     56  C   UNL A   1      41.893  29.344  34.615  1.00  0.00     0.074 A 
ATOM     57  C   UNL A   1      36.730  32.356  32.516  1.00  0.00     0.029 A 
ATOM     58  N   UNL A   1      38.594  31.154  32.686  1.00  0.00    -0.354 N 
ATOM     59  N   UNL A   1      40.838  29.927  34.101  1.00  0.00    -0.248 NA
ATOM     60  C   UNL A   1      42.131  29.677  36.028  1.00  0.00     0.031 C 
ATOM     61  C   UNL A   1      37.197  32.448  33.832  1.00  0.00     0.029 A 
ATOM     62  C   UNL A   1      38.347  31.684  33.942  1.00  0.00     0.049 A 
ATOM     63  H   UNL A   1      39.352  30.569  32.458  1.00  0.00     0.167 HD
ATOM     64  C   UNL A   1      40.272  30.671  35.129  1.00  0.00     0.074 A 
ATOM     65  C   UNL A   1      41.097  30.461  36.300  1.00  0.00     0.031 C 
ATOM     66  C   UNL A   1      39.167  31.456  35.104  1.00  0.00     0.037 A 
BRANCH  53  67
ATOM     67  C   UNL A   1      36.485  31.811  29.557  1.00  0.00     0.064 A 
ATOM     68  C   UNL A   1      35.450  31.016  29.042  1.00  0.00     0.173 A 
ATOM     69  C   UNL A   1      36.451  33.188  29.292  1.00  0.00     0.173 A 
ATOM     70  F   UNL A   1      35.442  29.692  29.260  1.00  0.00    -0.203 F 
ATOM     71  C   UNL A   1      34.433  31.577  28.273  1.00  0.00     0.198 A 
ATOM     72  C   UNL A   1      35.420  33.749  28.543  1.00  0.00     0.198 A 
ATOM     73  F   UNL A   1      37.414  33.993  29.766  1.00  0.00    -0.203 F 
ATOM     74  F   UNL A   1      33.475  30.794  27.758  1.00  0.00    -0.200 F 
ATOM     75  C   UNL A   1      34.415  32.942  28.029  1.00  0.00     0.200 A 
ATOM     76  F   UNL A   1      35.398  35.069  28.319  1.00  0.00    -0.200 F 
ATOM     77  F   UNL A   1      33.433  33.480  27.294  1.00  0.00    -0.200 F 
ENDBRANCH  53  67
BRANCH  54  78
ATOM     78  C   UNL A   1      44.012  27.846  34.739  1.00  0.00     0.064 A 
ATOM     79  C   UNL A   1      45.220  28.548  34.843  1.00  0.00     0.173 A 
ATOM     80  C   UNL A   1      43.918  26.604  35.383  1.00  0.00     0.173 A 
ATOM     81  F   UNL A   1      45.364  29.727  34.219  1.00  0.00    -0.203 F 
ATOM     82  C   UNL A   1      46.295  28.024  35.556  1.00  0.00     0.198 A 
ATOM     83  C   UNL A   1      44.986  26.093  36.117  1.00  0.00     0.198 A 
ATOM     84  F   UNL A   1      42.786  25.891  35.307  1.00  0.00    -0.203 F 
ATOM     85  F   UNL A   1      47.452  28.698  35.609  1.00  0.00    -0.200 F 
ATOM     86  C   UNL A   1      46.175  26.800  36.198  1.00  0.00     0.200 A 
ATOM     87  F   UNL A   1      44.863  24.917  36.746  1.00  0.00    -0.200 F 
ATOM     88  F   UNL A   1      47.208  26.301  36.890  1.00  0.00    -0.200 F 
ENDBRANCH  54  78
BRANCH  66  89
ATOM     89  C   UNL A   1      38.755  32.114  36.388  1.00  0.00     0.064 A 
ATOM     90  C   UNL A   1      39.109  33.439  36.684  1.00  0.00     0.173 A 
ATOM     91  C   UNL A   1      37.956  31.425  37.313  1.00  0.00     0.173 A 
ATOM     92  F   UNL A   1      39.884  34.136  35.838  1.00  0.00    -0.203 F 
ATOM     93  C   UNL A   1      38.693  34.043  37.867  1.00  0.00     0.198 A 
ATOM     94  C   UNL A   1      37.522  32.040  38.484  1.00  0.00     0.198 A 
ATOM     95  F   UNL A   1      37.585  30.158  37.074  1.00  0.00    -0.203 F 
ATOM     96  F   UNL A   1      39.075  35.296  38.149  1.00  0.00    -0.200 F 
ATOM     97  C   UNL A   1      37.895  33.346  38.763  1.00  0.00     0.200 A 
ATOM     98  F   UNL A   1      36.741  31.369  39.343  1.00  0.00    -0.200 F 
ATOM     99  F   UNL A   1      37.490  33.932  39.898  1.00  0.00    -0.200 F 
ENDBRANCH  66  89
ENDBRANCH  40  41
ENDBRANCH  33  35
ENDBRANCH  32  33
ENDBRANCH  31  32
ENDBRANCH  30  31
ENDBRANCH  29  30
ENDBRANCH  28  29
ENDBRANCH   1  28
TORSDOF 21
ENDMDL
MODEL 2
REMARK VINA RESULT:     -11.2      1.807      7.684
REMARK SMILES O=C(OCCOCCOCCOC(=O)c1ccc(-c2c3nc(c(-c4c(F)c(F)c(F)c(F)c4F)c4ccc([nH]4)c(-c4c(F)c(F)c(F)c(F)c4F)c4nc(c(-c5c(F)c(F)c(F)c(F)c5F)c5ccc2[nH]5)C=C4)C=C3)cc1)c1ccc(NS(=O)(=O)Cc2c(Cl)cccc2Cl)cc1
REMARK SMILES IDX 7 1 6 2 5 3 4 4 3 5 2 6 1 7 78 8 79 9 96 10 80 11 95 12
REMARK SMILES IDX 81 13 82 14 83 16 84 17 85 18 86 19 87 20 88 21 93 22 89 23
REMARK SMILES IDX 90 24 92 25 94 26 91 27 8 28 9 29 10 30 11 31 12 32 13 33
REMARK SMILES IDX 14 34 15 35 16 36 77 37 17 38 76 39 18 40 19 41 20 42 70 43
REMARK SMILES IDX 21 44 75 45 69 46 71 47 22 48 74 49 68 50 67 51 23 53 55 54
REMARK SMILES IDX 35 55 54 56 36 57 39 58 53 59 72 60 37 61 38 62 52 64 73 65
REMARK SMILES IDX 40 66 24 67 25 68 33 69 26 70 27 71 31 72 34 73 28 74 29 75
REMARK SMILES IDX 32 76 30 77 56 78 57 79 65 80 58 81 59 82 63 83 66 84 60 85
REMARK SMILES IDX 61 86 64 87 62 88 41 89 42 90 50 91 43 92 44 93 48 94 51 95
REMARK SMILES IDX 45 96 46 97 49 98 47 99
REMARK H PARENT 82 15 71 52 39 63
REMARK Flexibility Score: inf
ROOT
ATOM      1  C   UNL A   1      38.913  22.217  25.709  1.00  0.00     0.188 C 
ENDROOT
BRANCH   1   2
ATOM      2  O   UNL A   1      37.589  21.810  26.068  1.00  0.00    -0.376 OA
BRANCH   2   3
ATOM      3  C   UNL A   1      36.583  22.744  25.676  1.00  0.00     0.202 C 
BRANCH   3   4
ATOM      4  C   UNL A   1      35.635  22.140  24.647  1.00  0.00     0.261 C 
BRANCH   4   5
ATOM      5  O   UNL A   1      34.440  22.948  24.540  1.00  0.00    -0.460 OA
BRANCH   5   6
ATOM      6  C   UNL A   1      33.474  23.021  25.492  1.00  0.00     0.338 C 
ATOM      7  O   UNL A   1      33.072  22.038  26.099  1.00  0.00    -0.246 OA
BRANCH   6   8
ATOM      8  C   UNL A   1      32.966  24.356  25.850  1.00  0.00     0.060 A 
ATOM      9  C   UNL A   1      31.662  24.516  26.315  1.00  0.00     0.018 A 
ATOM     10  C   UNL A   1      33.802  25.460  25.689  1.00  0.00     0.018 A 
ATOM     11  C   UNL A   1      31.160  25.800  26.527  1.00  0.00     0.027 A 
ATOM     12  C   UNL A   1      33.289  26.742  25.902  1.00  0.00     0.027 A 
ATOM     13  C   UNL A   1      31.957  26.924  26.296  1.00  0.00     0.049 A 
BRANCH  13  14
ATOM     14  N   UNL A   1      31.448  28.250  26.239  1.00  0.00    -0.283 N 
ATOM     15  H   UNL A   1      30.754  28.496  26.894  1.00  0.00     0.180 HD
BRANCH  14  16
ATOM     16  S   UNL A   1      31.925  29.423  25.159  1.00  0.00     0.237 S 
ATOM     17  O   UNL A   1      31.396  30.703  25.582  1.00  0.00    -0.206 OA
ATOM     18  O   UNL A   1      33.359  29.245  25.051  1.00  0.00    -0.206 OA
BRANCH  16  19
ATOM     19  C   UNL A   1      31.210  28.994  23.552  1.00  0.00     0.198 C 
BRANCH  19  20
ATOM     20  C   UNL A   1      31.584  27.625  23.029  1.00  0.00     0.006 A 
ATOM     21  C   UNL A   1      30.706  26.529  23.140  1.00  0.00     0.046 A 
ATOM     22  C   UNL A   1      32.861  27.363  22.488  1.00  0.00     0.046 A 
ATOM     23  Cl  UNL A   1      29.149  26.667  23.878  1.00  0.00    -0.084 Cl
ATOM     24  C   UNL A   1      31.071  25.249  22.695  1.00  0.00     0.021 A 
ATOM     25  C   UNL A   1      33.223  26.082  22.048  1.00  0.00     0.021 A 
ATOM     26  Cl  UNL A   1      34.093  28.574  22.377  1.00  0.00    -0.084 Cl
ATOM     27  C   UNL A   1      32.326  25.026  22.145  1.00  0.00     0.003 A 
ENDBRANCH  19  20
ENDBRANCH  16  19
ENDBRANCH  14  16
ENDBRANCH  13  14
ENDBRANCH   6   8
ENDBRANCH   5   6
ENDBRANCH   4   5
ENDBRANCH   3   4
ENDBRANCH   2   3
ENDBRANCH   1   2
BRANCH   1  28
ATOM     28  C   UNL A   1      39.959  21.425  26.493  1.00  0.00     0.188 C 
BRANCH  28  29
ATOM     29  O   UNL A   1      41.114  21.074  25.730  1.00  0.00    -0.376 OA
BRANCH  29  30
ATOM     30  C   UNL A   1      42.338  20.918  26.458  1.00  0.00     0.202 C 
BRANCH  30  31
ATOM     31  C   UNL A   1      43.565  21.552  25.796  1.00  0.00     0.261 C 
BRANCH  31  32
ATOM     32  O   UNL A   1      43.832  22.876  26.304  1.00  0.00    -0.460 OA
BRANCH  32  33
ATOM     33  C   UNL A   1      43.593  23.886  25.436  1.00  0.00     0.338 C 
ATOM     34  O   UNL A   1      43.897  23.943  24.257  1.00  0.00    -0.246 OA
BRANCH  33  35
ATOM     35  C   UNL A   1      42.833  24.962  26.089  1.00  0.00     0.060 A 
ATOM     36  C   UNL A   1      43.405  26.238  26.164  1.00  0.00     0.016 A 
ATOM     37  C   UNL A   1      41.683  24.651  26.816  1.00  0.00     0.016 A 
ATOM     38  C   UNL A   1      42.867  27.188  27.035  1.00  0.00     0.010 A 
ATOM     39  C   UNL A   1      41.147  25.603  27.687  1.00  0.00     0.010 A 
ATOM     40  C   UNL A   1      41.772  26.854  27.844  1.00  0.00    -0.014 A 
BRANCH  40  41
ATOM     41  C   UNL A   1      41.385  27.723  28.985  1.00  0.00     0.031 A 
ATOM     42  C   UNL A   1      42.157  27.624  30.274  1.00  0.00     0.074 A 
ATOM     43  C   UNL A   1      40.357  28.582  28.886  1.00  0.00     0.049 A 
ATOM     44  N   UNL A   1      41.938  28.207  31.427  1.00  0.00    -0.248 NA
ATOM     45  C   UNL A   1      43.336  26.743  30.263  1.00  0.00     0.031 C 
ATOM     46  C   UNL A   1      39.552  28.799  27.688  1.00  0.00     0.029 A 
ATOM     47  N   UNL A   1      39.806  29.419  29.825  1.00  0.00    -0.354 N 
ATOM     48  C   UNL A   1      42.936  27.753  32.278  1.00  0.00     0.074 A 
ATOM     49  C   UNL A   1      43.756  26.833  31.517  1.00  0.00     0.031 C 
ATOM     50  C   UNL A   1      38.593  29.699  27.969  1.00  0.00     0.029 A 
ATOM     51  C   UNL A   1      38.697  30.088  29.376  1.00  0.00     0.049 A 
ATOM     52  H   UNL A   1      40.172  29.527  30.733  1.00  0.00     0.167 HD
ATOM     53  C   UNL A   1      43.155  28.074  33.575  1.00  0.00     0.037 A 
ATOM     54  C   UNL A   1      37.844  30.897  30.034  1.00  0.00     0.037 A 
ATOM     55  C   UNL A   1      42.347  28.992  34.335  1.00  0.00     0.049 A 
ATOM     56  C   UNL A   1      38.068  31.191  31.495  1.00  0.00     0.074 A 
ATOM     57  C   UNL A   1      42.504  29.400  35.649  1.00  0.00     0.029 A 
ATOM     58  N   UNL A   1      41.222  29.640  33.847  1.00  0.00    -0.354 N 
ATOM     59  N   UNL A   1      39.025  30.775  32.288  1.00  0.00    -0.248 NA
ATOM     60  C   UNL A   1      37.087  32.068  32.153  1.00  0.00     0.031 C 
ATOM     61  C   UNL A   1      41.450  30.263  35.968  1.00  0.00     0.029 A 
ATOM     62  C   UNL A   1      40.663  30.427  34.840  1.00  0.00     0.049 A 
ATOM     63  H   UNL A   1      40.873  29.553  32.931  1.00  0.00     0.167 HD
ATOM     64  C   UNL A   1      38.780  31.358  33.525  1.00  0.00     0.074 A 
ATOM     65  C   UNL A   1      37.586  32.164  33.378  1.00  0.00     0.031 C 
ATOM     66  C   UNL A   1      39.482  31.236  34.678  1.00  0.00     0.037 A 
BRANCH  53  67
ATOM     67  C   UNL A   1      44.306  27.408  34.270  1.00  0.00     0.064 A 
ATOM     68  C   UNL A   1      45.565  28.021  34.361  1.00  0.00     0.173 A 
ATOM     69  C   UNL A   1      44.137  26.158  34.883  1.00  0.00     0.173 A 
ATOM     70  F   UNL A   1      45.779  29.213  33.784  1.00  0.00    -0.203 F 
ATOM     71  C   UNL A   1      46.618  27.394  35.022  1.00  0.00     0.198 A 
ATOM     72  C   UNL A   1      45.186  25.545  35.563  1.00  0.00     0.198 A 
ATOM     73  F   UNL A   1      42.951  25.532  34.829  1.00  0.00    -0.203 F 
ATOM     74  F   UNL A   1      47.823  27.979  35.064  1.00  0.00    -0.200 F 
ATOM     75  C   UNL A   1      46.428  26.161  35.626  1.00  0.00     0.200 A 
ATOM     76  F   UNL A   1      44.996  24.359  36.156  1.00  0.00    -0.200 F 
ATOM     77  F   UNL A   1      47.441  25.562  36.266  1.00  0.00    -0.200 F 
ENDBRANCH  53  67
BRANCH  54  78
ATOM     78  C   UNL A   1      36.682  31.479  29.317  1.00  0.00     0.064 A 
ATOM     79  C   UNL A   1      36.645  32.841  28.990  1.00  0.00     0.173 A 
ATOM     80  C   UNL A   1      35.584  30.687  28.950  1.00  0.00     0.173 A 
ATOM     81  F   UNL A   1      37.659  33.642  29.347  1.00  0.00    -0.203 F 
ATOM     82  C   UNL A   1      35.549  33.391  28.330  1.00  0.00     0.198 A 
ATOM     83  C   UNL A   1      34.500  31.234  28.267  1.00  0.00     0.198 A 
ATOM     84  F   UNL A   1      35.569  29.380  29.246  1.00  0.00    -0.203 F 
ATOM     85  F   UNL A   1      35.521  34.703  28.062  1.00  0.00    -0.200 F 
ATOM     86  C   UNL A   1      34.481  32.586  27.964  1.00  0.00     0.200 A 
ATOM     87  F   UNL A   1      33.475  30.451  27.904  1.00  0.00    -0.200 F 
ATOM     88  F   UNL A   1      33.430  33.115  27.321  1.00  0.00    -0.200 F 
ENDBRANCH  54  78
BRANCH  66  89
ATOM     89  C   UNL A   1      39.009  32.025  35.864  1.00  0.00     0.064 A 
ATOM     90  C   UNL A   1      38.199  31.452  36.855  1.00  0.00     0.173 A 
ATOM     91  C   UNL A   1      39.410  33.359  36.033  1.00  0.00     0.173 A 
ATOM     92  F   UNL A   1      37.778  30.183  36.732  1.00  0.00    -0.203 F 
ATOM     93  C   UNL A   1      37.794  32.190  37.963  1.00  0.00     0.198 A 
ATOM     94  C   UNL A   1      39.023  34.087  37.155  1.00  0.00     0.198 A 
ATOM     95  F   UNL A   1      40.189  33.953  35.117  1.00  0.00    -0.203 F 
ATOM     96  F   UNL A   1      36.989  31.634  38.880  1.00  0.00    -0.200 F 
ATOM     97  C   UNL A   1      38.211  33.504  38.116  1.00  0.00     0.200 A 
ATOM     98  F   UNL A   1      39.436  35.353  37.307  1.00  0.00    -0.200 F 
ATOM     99  F   UNL A   1      37.825  34.211  39.187  1.00  0.00    -0.200 F 
ENDBRANCH  66  89
ENDBRANCH  40  41
ENDBRANCH  33  35
ENDBRANCH  32  33
ENDBRANCH  31  32
ENDBRANCH  30  31
ENDBRANCH  29  30
ENDBRANCH  28  29
ENDBRANCH   1  28
TORSDOF 21
ENDMDL
MODEL 3
REMARK VINA RESULT:     -10.7      2.010      7.895
REMARK SMILES O=C(OCCOCCOCCOC(=O)c1ccc(-c2c3nc(c(-c4c(F)c(F)c(F)c(F)c4F)c4ccc([nH]4)c(-c4c(F)c(F)c(F)c(F)c4F)c4nc(c(-c5c(F)c(F)c(F)c(F)c5F)c5ccc2[nH]5)C=C4)C=C3)cc1)c1ccc(NS(=O)(=O)Cc2c(Cl)cccc2Cl)cc1
REMARK SMILES IDX 7 1 6 2 5 3 4 4 3 5 2 6 1 7 78 8 79 9 96 10 80 11 95 12
REMARK SMILES IDX 81 13 82 14 83 16 84 17 85 18 86 19 87 20 88 21 93 22 89 23
REMARK SMILES IDX 90 24 92 25 94 26 91 27 8 28 9 29 10 30 11 31 12 32 13 33
REMARK SMILES IDX 14 34 15 35 16 36 77 37 17 38 76 39 18 40 19 41 20 42 70 43
REMARK SMILES IDX 21 44 75 45 69 46 71 47 22 48 74 49 68 50 67 51 23 53 55 54
REMARK SMILES IDX 35 55 54 56 36 57 39 58 53 59 72 60 37 61 38 62 52 64 73 65
REMARK SMILES IDX 40 66 24 67 25 68 33 69 26 70 27 71 31 72 34 73 28 74 29 75
REMARK SMILES IDX 32 76 30 77 56 78 57 79 65 80 58 81 59 82 63 83 66 84 60 85
REMARK SMILES IDX 61 86 64 87 62 88 41 89 42 90 50 91 43 92 44 93 48 94 51 95
REMARK SMILES IDX 45 96 46 97 49 98 47 99
REMARK H PARENT 82 15 71 52 39 63
REMARK Flexibility Score: inf
ROOT
ATOM      1  C   UNL A   1      37.399  22.471  24.763  1.00  0.00     0.188 C 
ENDROOT
BRANCH   1   2
ATOM      2  O   UNL A   1      36.218  21.707  24.501  1.00  0.00    -0.376 OA
BRANCH   2   3
ATOM      3  C   UNL A   1      35.177  22.467  23.887  1.00  0.00     0.202 C 
BRANCH   3   4
ATOM      4  C   UNL A   1      33.865  21.691  23.864  1.00  0.00     0.261 C 
BRANCH   4   5
ATOM      5  O   UNL A   1      32.868  22.381  24.652  1.00  0.00    -0.460 OA
BRANCH   5   6
ATOM      6  C   UNL A   1      33.083  22.881  25.897  1.00  0.00     0.338 C 
ATOM      7  O   UNL A   1      33.670  22.252  26.766  1.00  0.00    -0.246 OA
BRANCH   6   8
ATOM      8  C   UNL A   1      32.658  24.265  26.161  1.00  0.00     0.060 A 
ATOM      9  C   UNL A   1      31.360  24.539  26.586  1.00  0.00     0.018 A 
ATOM     10  C   UNL A   1      33.569  25.301  25.951  1.00  0.00     0.018 A 
ATOM     11  C   UNL A   1      30.940  25.864  26.707  1.00  0.00     0.027 A 
ATOM     12  C   UNL A   1      33.138  26.624  26.074  1.00  0.00     0.027 A 
ATOM     13  C   UNL A   1      31.815  26.917  26.426  1.00  0.00     0.049 A 
BRANCH  13  14
ATOM     14  N   UNL A   1      31.396  28.268  26.277  1.00  0.00    -0.283 N 
ATOM     15  H   UNL A   1      30.731  28.607  26.919  1.00  0.00     0.180 HD
BRANCH  14  16
ATOM     16  S   UNL A   1      31.935  29.323  25.108  1.00  0.00     0.237 S 
ATOM     17  O   UNL A   1      31.421  30.647  25.390  1.00  0.00    -0.206 OA
ATOM     18  O   UNL A   1      33.367  29.107  25.067  1.00  0.00    -0.206 OA
BRANCH  16  19
ATOM     19  C   UNL A   1      31.263  28.757  23.525  1.00  0.00     0.198 C 
BRANCH  19  20
ATOM     20  C   UNL A   1      31.619  27.336  23.149  1.00  0.00     0.006 A 
ATOM     21  C   UNL A   1      32.869  27.013  22.585  1.00  0.00     0.046 A 
ATOM     22  C   UNL A   1      30.684  26.284  23.263  1.00  0.00     0.046 A 
ATOM     23  Cl  UNL A   1      34.079  28.210  22.282  1.00  0.00    -0.084 Cl
ATOM     24  C   UNL A   1      33.182  25.702  22.196  1.00  0.00     0.021 A 
ATOM     25  C   UNL A   1      30.999  24.976  22.870  1.00  0.00     0.021 A 
ATOM     26  Cl  UNL A   1      29.070  26.530  23.838  1.00  0.00    -0.084 Cl
ATOM     27  C   UNL A   1      32.250  24.682  22.342  1.00  0.00     0.003 A 
ENDBRANCH  19  20
ENDBRANCH  16  19
ENDBRANCH  14  16
ENDBRANCH  13  14
ENDBRANCH   6   8
ENDBRANCH   5   6
ENDBRANCH   4   5
ENDBRANCH   3   4
ENDBRANCH   2   3
ENDBRANCH   1   2
BRANCH   1  28
ATOM     28  C   UNL A   1      38.225  21.835  25.882  1.00  0.00     0.188 C 
BRANCH  28  29
ATOM     29  O   UNL A   1      39.511  21.376  25.465  1.00  0.00    -0.376 OA
BRANCH  29  30
ATOM     30  C   UNL A   1      40.446  21.066  26.505  1.00  0.00     0.202 C 
BRANCH  30  31
ATOM     31  C   UNL A   1      41.918  21.104  26.078  1.00  0.00     0.261 C 
BRANCH  31  32
ATOM     32  O   UNL A   1      42.610  22.246  26.625  1.00  0.00    -0.460 OA
BRANCH  32  33
ATOM     33  C   UNL A   1      42.674  23.325  25.813  1.00  0.00     0.338 C 
ATOM     34  O   UNL A   1      43.188  23.399  24.710  1.00  0.00    -0.246 OA
BRANCH  33  35
ATOM     35  C   UNL A   1      41.968  24.467  26.412  1.00  0.00     0.060 A 
ATOM     36  C   UNL A   1      42.356  25.763  26.048  1.00  0.00     0.016 A 
ATOM     37  C   UNL A   1      41.101  24.257  27.485  1.00  0.00     0.016 A 
ATOM     38  C   UNL A   1      41.936  26.853  26.814  1.00  0.00     0.010 A 
ATOM     39  C   UNL A   1      40.683  25.349  28.250  1.00  0.00     0.010 A 
ATOM     40  C   UNL A   1      41.147  26.644  27.954  1.00  0.00    -0.014 A 
BRANCH  40  41
ATOM     41  C   UNL A   1      40.953  27.732  28.946  1.00  0.00     0.031 A 
ATOM     42  C   UNL A   1      41.885  27.821  30.125  1.00  0.00     0.074 A 
ATOM     43  C   UNL A   1      39.958  28.625  28.812  1.00  0.00     0.049 A 
ATOM     44  N   UNL A   1      41.846  28.620  31.163  1.00  0.00    -0.248 NA
ATOM     45  C   UNL A   1      43.013  26.876  30.138  1.00  0.00     0.031 C 
ATOM     46  C   UNL A   1      39.010  28.670  27.703  1.00  0.00     0.029 A 
ATOM     47  N   UNL A   1      39.573  29.655  29.634  1.00  0.00    -0.354 N 
ATOM     48  C   UNL A   1      42.930  28.264  31.956  1.00  0.00     0.074 A 
ATOM     49  C   UNL A   1      43.600  27.167  31.289  1.00  0.00     0.031 C 
ATOM     50  C   UNL A   1      38.137  29.668  27.922  1.00  0.00     0.029 A 
ATOM     51  C   UNL A   1      38.444  30.303  29.204  1.00  0.00     0.049 A 
ATOM     52  H   UNL A   1      40.062  29.904  30.452  1.00  0.00     0.167 HD
ATOM     53  C   UNL A   1      43.333  28.804  33.131  1.00  0.00     0.037 A 
ATOM     54  C   UNL A   1      37.721  31.274  29.796  1.00  0.00     0.037 A 
ATOM     55  C   UNL A   1      42.673  29.897  33.794  1.00  0.00     0.049 A 
ATOM     56  C   UNL A   1      38.151  31.816  31.135  1.00  0.00     0.074 A 
ATOM     57  C   UNL A   1      43.021  30.529  34.976  1.00  0.00     0.029 A 
ATOM     58  N   UNL A   1      41.522  30.518  33.334  1.00  0.00    -0.354 N 
ATOM     59  N   UNL A   1      39.186  31.490  31.869  1.00  0.00    -0.248 NA
ATOM     60  C   UNL A   1      37.304  32.863  31.728  1.00  0.00     0.031 C 
ATOM     61  C   UNL A   1      42.057  31.505  35.252  1.00  0.00     0.029 A 
ATOM     62  C   UNL A   1      41.133  31.511  34.219  1.00  0.00     0.049 A 
ATOM     63  H   UNL A   1      41.050  30.287  32.501  1.00  0.00     0.167 HD
ATOM     64  C   UNL A   1      39.133  32.306  32.992  1.00  0.00     0.074 A 
ATOM     65  C   UNL A   1      37.965  33.149  32.841  1.00  0.00     0.031 C 
ATOM     66  C   UNL A   1      39.977  32.353  34.051  1.00  0.00     0.037 A 
BRANCH  53  67
ATOM     67  C   UNL A   1      44.537  28.202  33.793  1.00  0.00     0.064 A 
ATOM     68  C   UNL A   1      44.422  27.140  34.703  1.00  0.00     0.173 A 
ATOM     69  C   UNL A   1      45.823  28.669  33.485  1.00  0.00     0.173 A 
ATOM     70  F   UNL A   1      43.213  26.665  35.037  1.00  0.00    -0.203 F 
ATOM     71  C   UNL A   1      45.552  26.584  35.298  1.00  0.00     0.198 A 
ATOM     72  C   UNL A   1      46.952  28.094  34.064  1.00  0.00     0.198 A 
ATOM     73  F   UNL A   1      45.988  29.678  32.616  1.00  0.00    -0.203 F 
ATOM     74  F   UNL A   1      45.418  25.597  36.194  1.00  0.00    -0.200 F 
ATOM     75  C   UNL A   1      46.815  27.056  34.974  1.00  0.00     0.200 A 
ATOM     76  F   UNL A   1      48.172  28.544  33.740  1.00  0.00    -0.200 F 
ATOM     77  F   UNL A   1      47.901  26.516  35.544  1.00  0.00    -0.200 F 
ENDBRANCH  53  67
BRANCH  54  78
ATOM     78  C   UNL A   1      36.499  31.790  29.129  1.00  0.00     0.064 A 
ATOM     79  C   UNL A   1      35.404  30.952  28.885  1.00  0.00     0.173 A 
ATOM     80  C   UNL A   1      36.405  33.129  28.721  1.00  0.00     0.173 A 
ATOM     81  F   UNL A   1      35.461  29.658  29.233  1.00  0.00    -0.203 F 
ATOM     82  C   UNL A   1      34.262  31.431  28.247  1.00  0.00     0.198 A 
ATOM     83  C   UNL A   1      35.252  33.612  28.106  1.00  0.00     0.198 A 
ATOM     84  F   UNL A   1      37.429  33.968  28.926  1.00  0.00    -0.203 F 
ATOM     85  F   UNL A   1      33.243  30.600  27.991  1.00  0.00    -0.200 F 
ATOM     86  C   UNL A   1      34.185  32.762  27.864  1.00  0.00     0.200 A 
ATOM     87  F   UNL A   1      35.176  34.901  27.748  1.00  0.00    -0.200 F 
ATOM     88  F   UNL A   1      33.083  33.224  27.258  1.00  0.00    -0.200 F 
ENDBRANCH  54  78
BRANCH  66  89
ATOM     89  C   UNL A   1      39.700  33.377  35.113  1.00  0.00     0.064 A 
ATOM     90  C   UNL A   1      38.942  33.070  36.253  1.00  0.00     0.173 A 
ATOM     91  C   UNL A   1      40.240  34.668  35.011  1.00  0.00     0.173 A 
ATOM     92  F   UNL A   1      38.393  31.853  36.390  1.00  0.00    -0.203 F 
ATOM     93  C   UNL A   1      38.720  34.023  37.242  1.00  0.00     0.198 A 
ATOM     94  C   UNL A   1      40.036  35.611  36.014  1.00  0.00     0.198 A 
ATOM     95  F   UNL A   1      40.977  35.010  33.944  1.00  0.00    -0.203 F 
ATOM     96  F   UNL A   1      37.961  33.721  38.305  1.00  0.00    -0.200 F 
ATOM     97  C   UNL A   1      39.273  35.290  37.126  1.00  0.00     0.200 A 
ATOM     98  F   UNL A   1      40.580  36.832  35.905  1.00  0.00    -0.200 F 
ATOM     99  F   UNL A   1      39.063  36.205  38.083  1.00  0.00    -0.200 F 
ENDBRANCH  66  89
ENDBRANCH  40  41
ENDBRANCH  33  35
ENDBRANCH  32  33
ENDBRANCH  31  32
ENDBRANCH  30  31
ENDBRANCH  29  30
ENDBRANCH  28  29
ENDBRANCH   1  28
TORSDOF 21
ENDMDL
