MODEL 1
REMARK VINA RESULT:     -11.1      0.000      0.000
REMARK SMILES O=C(OCCOCCOCCOC(=O)[C@H]1CS[C@]2(c3ccccc3)CCC(=O)N12)c1ccc(-c2c3nc(c(-c4c(F)c(F)c(F)c(F)c4F)c4ccc([nH]4)c(-c4c(F)c(F)c(F)c(F)c4F)c4nc(c(-c5c(F)c(F)c(F)c(F)c5F)c5ccc2[nH]5)C=C4)C=C3)cc1
REMARK SMILES IDX 7 1 6 2 5 3 4 4 3 5 2 6 1 7 30 8 31 9 92 10 32 11 91 12
REMARK SMILES IDX 33 13 34 14 35 15 85 16 36 17 90 18 84 19 86 20 37 21 89 22
REMARK SMILES IDX 83 23 82 24 38 26 70 27 50 28 69 29 51 30 54 31 68 32 87 33
REMARK SMILES IDX 52 34 53 35 67 37 88 38 55 39 39 40 40 41 48 42 41 43 42 44
REMARK SMILES IDX 46 45 49 46 43 47 44 48 47 49 45 50 71 51 72 52 80 53 73 54
REMARK SMILES IDX 74 55 78 56 81 57 75 58 76 59 79 60 77 61 56 62 57 63 65 64
REMARK SMILES IDX 58 65 59 66 63 67 66 68 60 69 61 70 64 71 62 72 8 73 9 74
REMARK SMILES IDX 10 75 11 76 12 77 13 78 14 79 15 80 16 81 29 82 17 83 18 84
REMARK SMILES IDX 27 85 25 86 26 87 28 88 19 89 20 90 24 91 21 92 23 93 22 94
REMARK H PARENT 86 25 54 36
REMARK Flexibility Score: inf
ROOT
ATOM      1  C   UNL A   1      33.883  29.518  26.415  1.00  0.00     0.188 C 
ENDROOT
BRANCH   1   2
ATOM      2  O   UNL A   1      33.210  30.570  27.115  1.00  0.00    -0.376 OA
BRANCH   2   3
ATOM      3  C   UNL A   1      31.974  30.953  26.501  1.00  0.00     0.202 C 
BRANCH   3   4
ATOM      4  C   UNL A   1      31.456  32.328  26.952  1.00  0.00     0.261 C 
BRANCH   4   5
ATOM      5  O   UNL A   1      32.458  33.358  26.962  1.00  0.00    -0.460 OA
BRANCH   5   6
ATOM      6  C   UNL A   1      33.027  34.011  28.003  1.00  0.00     0.338 C 
ATOM      7  O   UNL A   1      32.492  35.053  28.381  1.00  0.00    -0.246 OA
BRANCH   6   8
ATOM      8  C   UNL A   1      34.269  33.576  28.730  1.00  0.00     0.060 A 
ATOM      9  C   UNL A   1      35.580  33.952  28.430  1.00  0.00     0.016 A 
ATOM     10  C   UNL A   1      34.080  32.742  29.851  1.00  0.00     0.016 A 
ATOM     11  C   UNL A   1      36.661  33.543  29.207  1.00  0.00     0.010 A 
ATOM     12  C   UNL A   1      35.159  32.313  30.633  1.00  0.00     0.010 A 
ATOM     13  C   UNL A   1      36.457  32.710  30.302  1.00  0.00    -0.014 A 
BRANCH  13  14
ATOM     14  C   UNL A   1      37.633  32.136  30.978  1.00  0.00     0.031 A 
ATOM     15  C   UNL A   1      38.354  31.018  30.301  1.00  0.00     0.074 A 
ATOM     16  C   UNL A   1      38.119  32.680  32.106  1.00  0.00     0.049 A 
ATOM     17  N   UNL A   1      39.380  30.330  30.718  1.00  0.00    -0.248 NA
ATOM     18  C   UNL A   1      37.888  30.662  28.951  1.00  0.00     0.031 C 
ATOM     19  C   UNL A   1      37.607  33.893  32.730  1.00  0.00     0.029 A 
ATOM     20  N   UNL A   1      39.145  32.288  32.925  1.00  0.00    -0.354 N 
ATOM     21  C   UNL A   1      39.692  29.469  29.679  1.00  0.00     0.074 A 
ATOM     22  C   UNL A   1      38.737  29.703  28.619  1.00  0.00     0.031 C 
ATOM     23  C   UNL A   1      38.284  34.117  33.867  1.00  0.00     0.029 A 
ATOM     24  C   UNL A   1      39.217  33.026  34.081  1.00  0.00     0.049 A 
ATOM     25  H   UNL A   1      39.765  31.556  32.708  1.00  0.00     0.167 HD
ATOM     26  C   UNL A   1      40.697  28.569  29.629  1.00  0.00     0.037 A 
ATOM     27  C   UNL A   1      39.907  32.806  35.214  1.00  0.00     0.037 A 
ATOM     28  C   UNL A   1      41.617  28.347  30.709  1.00  0.00     0.049 A 
ATOM     29  C   UNL A   1      40.866  31.654  35.230  1.00  0.00     0.074 A 
ATOM     30  C   UNL A   1      42.665  27.451  30.782  1.00  0.00     0.029 A 
ATOM     31  N   UNL A   1      41.579  29.023  31.923  1.00  0.00    -0.354 N 
ATOM     32  N   UNL A   1      41.154  30.822  34.257  1.00  0.00    -0.248 NA
ATOM     33  C   UNL A   1      41.608  31.415  36.471  1.00  0.00     0.031 C 
ATOM     34  C   UNL A   1      43.219  27.538  32.064  1.00  0.00     0.029 A 
ATOM     35  C   UNL A   1      42.552  28.527  32.772  1.00  0.00     0.049 A 
ATOM     36  H   UNL A   1      40.952  29.749  32.145  1.00  0.00     0.167 HD
ATOM     37  C   UNL A   1      42.139  29.986  34.751  1.00  0.00     0.074 A 
ATOM     38  C   UNL A   1      42.397  30.409  36.114  1.00  0.00     0.031 C 
ATOM     39  C   UNL A   1      42.781  28.969  34.126  1.00  0.00     0.037 A 
BRANCH  26  40
ATOM     40  C   UNL A   1      40.787  27.722  28.399  1.00  0.00     0.064 A 
ATOM     41  C   UNL A   1      40.128  26.488  28.294  1.00  0.00     0.173 A 
ATOM     42  C   UNL A   1      41.573  28.144  27.317  1.00  0.00     0.173 A 
ATOM     43  F   UNL A   1      39.393  26.024  29.316  1.00  0.00    -0.203 F 
ATOM     44  C   UNL A   1      40.269  25.699  27.154  1.00  0.00     0.198 A 
ATOM     45  C   UNL A   1      41.693  27.365  26.172  1.00  0.00     0.198 A 
ATOM     46  F   UNL A   1      42.235  29.309  27.378  1.00  0.00    -0.203 F 
ATOM     47  F   UNL A   1      39.674  24.500  27.094  1.00  0.00    -0.200 F 
ATOM     48  C   UNL A   1      41.046  26.140  26.094  1.00  0.00     0.200 A 
ATOM     49  F   UNL A   1      42.446  27.792  25.149  1.00  0.00    -0.200 F 
ATOM     50  F   UNL A   1      41.186  25.378  25.000  1.00  0.00    -0.200 F 
ENDBRANCH  26  40
BRANCH  27  51
ATOM     51  C   UNL A   1      39.646  33.634  36.423  1.00  0.00     0.064 A 
ATOM     52  C   UNL A   1      38.758  33.225  37.425  1.00  0.00     0.173 A 
ATOM     53  C   UNL A   1      40.282  34.878  36.588  1.00  0.00     0.173 A 
ATOM     54  F   UNL A   1      38.106  32.060  37.307  1.00  0.00    -0.203 F 
ATOM     55  C   UNL A   1      38.503  34.031  38.535  1.00  0.00     0.198 A 
ATOM     56  C   UNL A   1      40.048  35.669  37.710  1.00  0.00     0.198 A 
ATOM     57  F   UNL A   1      41.134  35.326  35.654  1.00  0.00    -0.203 F 
ATOM     58  F   UNL A   1      37.612  33.638  39.455  1.00  0.00    -0.200 F 
ATOM     59  C   UNL A   1      39.151  35.250  38.679  1.00  0.00     0.200 A 
ATOM     60  F   UNL A   1      40.682  36.842  37.848  1.00  0.00    -0.200 F 
ATOM     61  F   UNL A   1      38.902  36.024  39.744  1.00  0.00    -0.200 F 
ENDBRANCH  27  51
BRANCH  39  62
ATOM     62  C   UNL A   1      43.849  28.268  34.906  1.00  0.00     0.064 A 
ATOM     63  C   UNL A   1      43.574  27.109  35.644  1.00  0.00     0.173 A 
ATOM     64  C   UNL A   1      45.170  28.739  34.871  1.00  0.00     0.173 A 
ATOM     65  F   UNL A   1      42.320  26.640  35.721  1.00  0.00    -0.203 F 
ATOM     66  C   UNL A   1      44.586  26.451  36.332  1.00  0.00     0.198 A 
ATOM     67  C   UNL A   1      46.184  28.059  35.536  1.00  0.00     0.198 A 
ATOM     68  F   UNL A   1      45.477  29.844  34.177  1.00  0.00    -0.203 F 
ATOM     69  F   UNL A   1      44.297  25.368  37.067  1.00  0.00    -0.200 F 
ATOM     70  C   UNL A   1      45.891  26.919  36.269  1.00  0.00     0.200 A 
ATOM     71  F   UNL A   1      47.445  28.505  35.463  1.00  0.00    -0.200 F 
ATOM     72  F   UNL A   1      46.867  26.274  36.923  1.00  0.00    -0.200 F 
ENDBRANCH  39  62
ENDBRANCH  13  14
ENDBRANCH   6   8
ENDBRANCH   5   6
ENDBRANCH   4   5
ENDBRANCH   3   4
ENDBRANCH   2   3
ENDBRANCH   1   2
BRANCH   1  73
ATOM     73  C   UNL A   1      33.147  29.065  25.154  1.00  0.00     0.188 C 
BRANCH  73  74
ATOM     74  O   UNL A   1      33.973  28.244  24.332  1.00  0.00    -0.376 OA
BRANCH  74  75
ATOM     75  C   UNL A   1      33.512  28.099  22.984  1.00  0.00     0.202 C 
BRANCH  75  76
ATOM     76  C   UNL A   1      33.599  26.666  22.421  1.00  0.00     0.261 C 
BRANCH  76  77
ATOM     77  O   UNL A   1      33.575  25.660  23.455  1.00  0.00    -0.462 OA
BRANCH  77  78
ATOM     78  C   UNL A   1      33.542  24.387  22.982  1.00  0.00     0.329 C 
ATOM     79  O   UNL A   1      34.460  23.878  22.348  1.00  0.00    -0.250 OA
BRANCH  78  80
ATOM     80  C   UNL A   1      32.325  23.613  23.485  1.00  0.00     0.206 C 
ATOM     81  C   UNL A   1      32.150  22.134  23.113  1.00  0.00     0.109 C 
ATOM     82  N   UNL A   1      32.354  23.669  24.936  1.00  0.00    -0.309 N 
ATOM     83  S   UNL A   1      32.297  21.167  24.688  1.00  0.00    -0.126 SA
ATOM     84  C   UNL A   1      33.038  22.590  25.613  1.00  0.00     0.116 C 
ATOM     85  C   UNL A   1      31.204  24.087  25.598  1.00  0.00     0.224 C 
ATOM     86  C   UNL A   1      32.480  22.715  27.040  1.00  0.00     0.055 C 
ATOM     87  C   UNL A   1      31.093  23.325  26.888  1.00  0.00     0.104 C 
ATOM     88  O   UNL A   1      30.340  24.821  25.142  1.00  0.00    -0.275 OA
BRANCH  84  89
ATOM     89  C   UNL A   1      34.586  22.578  25.500  1.00  0.00    -0.012 A 
ATOM     90  C   UNL A   1      35.314  21.477  24.983  1.00  0.00     0.007 A 
ATOM     91  C   UNL A   1      35.374  23.665  25.927  1.00  0.00     0.007 A 
ATOM     92  C   UNL A   1      36.714  21.453  24.911  1.00  0.00     0.000 A 
ATOM     93  C   UNL A   1      36.778  23.642  25.866  1.00  0.00     0.000 A 
ATOM     94  C   UNL A   1      37.447  22.538  25.359  1.00  0.00     0.000 A 
ENDBRANCH  84  89
ENDBRANCH  78  80
ENDBRANCH  77  78
ENDBRANCH  76  77
ENDBRANCH  75  76
ENDBRANCH  74  75
ENDBRANCH  73  74
ENDBRANCH   1  73
TORSDOF 18
ENDMDL
MODEL 2
REMARK VINA RESULT:     -10.9      5.187     10.704
REMARK SMILES O=C(OCCOCCOCCOC(=O)[C@H]1CS[C@]2(c3ccccc3)CCC(=O)N12)c1ccc(-c2c3nc(c(-c4c(F)c(F)c(F)c(F)c4F)c4ccc([nH]4)c(-c4c(F)c(F)c(F)c(F)c4F)c4nc(c(-c5c(F)c(F)c(F)c(F)c5F)c5ccc2[nH]5)C=C4)C=C3)cc1
REMARK SMILES IDX 7 1 6 2 5 3 4 4 3 5 2 6 1 7 30 8 31 9 92 10 32 11 91 12
REMARK SMILES IDX 33 13 34 14 35 15 85 16 36 17 90 18 84 19 86 20 37 21 89 22
REMARK SMILES IDX 83 23 82 24 38 26 70 27 50 28 69 29 51 30 54 31 68 32 87 33
REMARK SMILES IDX 52 34 53 35 67 37 88 38 55 39 39 40 40 41 48 42 41 43 42 44
REMARK SMILES IDX 46 45 49 46 43 47 44 48 47 49 45 50 71 51 72 52 80 53 73 54
REMARK SMILES IDX 74 55 78 56 81 57 75 58 76 59 79 60 77 61 56 62 57 63 65 64
REMARK SMILES IDX 58 65 59 66 63 67 66 68 60 69 61 70 64 71 62 72 8 73 9 74
REMARK SMILES IDX 10 75 11 76 12 77 13 78 14 79 15 80 16 81 29 82 17 83 18 84
REMARK SMILES IDX 27 85 25 86 26 87 28 88 19 89 20 90 24 91 21 92 23 93 22 94
REMARK H PARENT 86 25 54 36
REMARK Flexibility Score: inf
ROOT
ATOM      1  C   UNL A   1      37.000  22.962  24.607  1.00  0.00     0.188 C 
ENDROOT
BRANCH   1   2
ATOM      2  O   UNL A   1      37.113  21.589  24.996  1.00  0.00    -0.376 OA
BRANCH   2   3
ATOM      3  C   UNL A   1      38.401  21.261  25.530  1.00  0.00     0.202 C 
BRANCH   3   4
ATOM      4  C   UNL A   1      38.848  19.821  25.231  1.00  0.00     0.261 C 
BRANCH   4   5
ATOM      5  O   UNL A   1      39.896  19.341  26.089  1.00  0.00    -0.460 OA
BRANCH   5   6
ATOM      6  C   UNL A   1      41.222  19.612  26.082  1.00  0.00     0.338 C 
ATOM      7  O   UNL A   1      41.986  18.705  25.752  1.00  0.00    -0.246 OA
BRANCH   6   8
ATOM      8  C   UNL A   1      41.843  20.929  26.458  1.00  0.00     0.060 A 
ATOM      9  C   UNL A   1      42.184  21.348  27.745  1.00  0.00     0.016 A 
ATOM     10  C   UNL A   1      42.152  21.803  25.395  1.00  0.00     0.016 A 
ATOM     11  C   UNL A   1      42.817  22.566  27.982  1.00  0.00     0.010 A 
ATOM     12  C   UNL A   1      42.775  23.035  25.620  1.00  0.00     0.010 A 
ATOM     13  C   UNL A   1      43.101  23.421  26.923  1.00  0.00    -0.014 A 
BRANCH  13  14
ATOM     14  C   UNL A   1      43.583  24.779  27.225  1.00  0.00     0.031 A 
ATOM     15  C   UNL A   1      42.601  25.772  27.750  1.00  0.00     0.074 A 
ATOM     16  C   UNL A   1      44.890  25.084  27.152  1.00  0.00     0.049 A 
ATOM     17  N   UNL A   1      42.779  27.030  28.044  1.00  0.00    -0.248 NA
ATOM     18  C   UNL A   1      41.246  25.266  28.028  1.00  0.00     0.031 C 
ATOM     19  C   UNL A   1      45.949  24.130  26.847  1.00  0.00     0.029 A 
ATOM     20  N   UNL A   1      45.549  26.273  27.326  1.00  0.00    -0.354 N 
ATOM     21  C   UNL A   1      41.567  27.464  28.554  1.00  0.00     0.074 A 
ATOM     22  C   UNL A   1      40.652  26.345  28.512  1.00  0.00     0.031 C 
ATOM     23  C   UNL A   1      47.121  24.781  26.799  1.00  0.00     0.029 A 
ATOM     24  C   UNL A   1      46.880  26.199  26.995  1.00  0.00     0.049 A 
ATOM     25  H   UNL A   1      45.114  27.092  27.654  1.00  0.00     0.167 HD
ATOM     26  C   UNL A   1      41.263  28.694  29.019  1.00  0.00     0.037 A 
ATOM     27  C   UNL A   1      47.786  27.174  26.803  1.00  0.00     0.037 A 
ATOM     28  C   UNL A   1      42.191  29.790  29.028  1.00  0.00     0.049 A 
ATOM     29  C   UNL A   1      47.365  28.581  27.107  1.00  0.00     0.074 A 
ATOM     30  C   UNL A   1      41.991  31.088  29.457  1.00  0.00     0.029 A 
ATOM     31  N   UNL A   1      43.497  29.715  28.560  1.00  0.00    -0.354 N 
ATOM     32  N   UNL A   1      46.214  29.003  27.572  1.00  0.00    -0.248 NA
ATOM     33  C   UNL A   1      48.355  29.640  26.887  1.00  0.00     0.031 C 
ATOM     34  C   UNL A   1      43.157  31.814  29.188  1.00  0.00     0.029 A 
ATOM     35  C   UNL A   1      44.101  30.958  28.641  1.00  0.00     0.049 A 
ATOM     36  H   UNL A   1      43.929  28.898  28.221  1.00  0.00     0.167 HD
ATOM     37  C   UNL A   1      46.349  30.369  27.741  1.00  0.00     0.074 A 
ATOM     38  C   UNL A   1      47.697  30.706  27.323  1.00  0.00     0.031 C 
ATOM     39  C   UNL A   1      45.444  31.261  28.213  1.00  0.00     0.037 A 
BRANCH  26  40
ATOM     40  C   UNL A   1      39.855  28.916  29.474  1.00  0.00     0.064 A 
ATOM     41  C   UNL A   1      39.446  28.651  30.790  1.00  0.00     0.173 A 
ATOM     42  C   UNL A   1      38.891  29.376  28.564  1.00  0.00     0.173 A 
ATOM     43  F   UNL A   1      40.323  28.176  31.688  1.00  0.00    -0.203 F 
ATOM     44  C   UNL A   1      38.118  28.822  31.172  1.00  0.00     0.198 A 
ATOM     45  C   UNL A   1      37.571  29.568  28.956  1.00  0.00     0.198 A 
ATOM     46  F   UNL A   1      39.231  29.626  27.291  1.00  0.00    -0.203 F 
ATOM     47  F   UNL A   1      37.737  28.515  32.420  1.00  0.00    -0.200 F 
ATOM     48  C   UNL A   1      37.184  29.284  30.257  1.00  0.00     0.200 A 
ATOM     49  F   UNL A   1      36.669  30.012  28.069  1.00  0.00    -0.200 F 
ATOM     50  F   UNL A   1      35.905  29.444  30.625  1.00  0.00    -0.200 F 
ENDBRANCH  26  40
BRANCH  27  51
ATOM     51  C   UNL A   1      49.119  26.855  26.224  1.00  0.00     0.064 A 
ATOM     52  C   UNL A   1      50.189  26.425  27.017  1.00  0.00     0.173 A 
ATOM     53  C   UNL A   1      49.350  26.992  24.843  1.00  0.00     0.173 A 
ATOM     54  F   UNL A   1      50.031  26.300  28.342  1.00  0.00    -0.203 F 
ATOM     55  C   UNL A   1      51.440  26.161  26.458  1.00  0.00     0.198 A 
ATOM     56  C   UNL A   1      50.591  26.702  24.282  1.00  0.00     0.198 A 
ATOM     57  F   UNL A   1      48.364  27.412  24.035  1.00  0.00    -0.203 F 
ATOM     58  F   UNL A   1      52.460  25.798  27.247  1.00  0.00    -0.200 F 
ATOM     59  C   UNL A   1      51.639  26.295  25.092  1.00  0.00     0.200 A 
ATOM     60  F   UNL A   1      50.776  26.826  22.961  1.00  0.00    -0.200 F 
ATOM     61  F   UNL A   1      52.842  26.045  24.558  1.00  0.00    -0.200 F 
ENDBRANCH  27  51
BRANCH  39  62
ATOM     62  C   UNL A   1      45.899  32.681  28.331  1.00  0.00     0.064 A 
ATOM     63  C   UNL A   1      46.561  33.145  29.475  1.00  0.00     0.173 A 
ATOM     64  C   UNL A   1      45.712  33.571  27.263  1.00  0.00     0.173 A 
ATOM     65  F   UNL A   1      46.740  32.332  30.528  1.00  0.00    -0.203 F 
ATOM     66  C   UNL A   1      47.010  34.458  29.552  1.00  0.00     0.198 A 
ATOM     67  C   UNL A   1      46.190  34.874  27.332  1.00  0.00     0.198 A 
ATOM     68  F   UNL A   1      45.084  33.169  26.149  1.00  0.00    -0.203 F 
ATOM     69  F   UNL A   1      47.604  34.896  30.671  1.00  0.00    -0.200 F 
ATOM     70  C   UNL A   1      46.835  35.318  28.477  1.00  0.00     0.200 A 
ATOM     71  F   UNL A   1      46.032  35.700  26.289  1.00  0.00    -0.200 F 
ATOM     72  F   UNL A   1      47.281  36.580  28.549  1.00  0.00    -0.200 F 
ENDBRANCH  39  62
ENDBRANCH  13  14
ENDBRANCH   6   8
ENDBRANCH   5   6
ENDBRANCH   4   5
ENDBRANCH   3   4
ENDBRANCH   2   3
ENDBRANCH   1   2
BRANCH   1  73
ATOM     73  C   UNL A   1      35.555  23.408  24.379  1.00  0.00     0.188 C 
BRANCH  73  74
ATOM     74  O   UNL A   1      34.961  23.890  25.583  1.00  0.00    -0.376 OA
BRANCH  74  75
ATOM     75  C   UNL A   1      33.968  23.022  26.142  1.00  0.00     0.202 C 
BRANCH  75  76
ATOM     76  C   UNL A   1      32.594  23.681  26.382  1.00  0.00     0.261 C 
BRANCH  76  77
ATOM     77  O   UNL A   1      32.645  25.120  26.298  1.00  0.00    -0.462 OA
BRANCH  77  78
ATOM     78  C   UNL A   1      31.446  25.697  26.029  1.00  0.00     0.329 C 
ATOM     79  O   UNL A   1      30.790  26.313  26.862  1.00  0.00    -0.250 OA
BRANCH  78  80
ATOM     80  C   UNL A   1      31.103  25.654  24.541  1.00  0.00     0.206 C 
ATOM     81  C   UNL A   1      29.880  26.418  24.014  1.00  0.00     0.109 C 
ATOM     82  N   UNL A   1      32.252  26.177  23.822  1.00  0.00    -0.309 N 
ATOM     83  S   UNL A   1      30.525  27.761  22.910  1.00  0.00    -0.126 SA
ATOM     84  C   UNL A   1      32.255  27.597  23.549  1.00  0.00     0.116 C 
ATOM     85  C   UNL A   1      32.772  25.419  22.779  1.00  0.00     0.224 C 
ATOM     86  C   UNL A   1      33.305  27.696  22.431  1.00  0.00     0.055 C 
ATOM     87  C   UNL A   1      33.269  26.354  21.713  1.00  0.00     0.104 C 
ATOM     88  O   UNL A   1      32.689  24.205  22.662  1.00  0.00    -0.275 OA
BRANCH  84  89
ATOM     89  C   UNL A   1      32.486  28.532  24.767  1.00  0.00    -0.012 A 
ATOM     90  C   UNL A   1      31.558  29.527  25.164  1.00  0.00     0.007 A 
ATOM     91  C   UNL A   1      33.655  28.461  25.551  1.00  0.00     0.007 A 
ATOM     92  C   UNL A   1      31.782  30.392  26.244  1.00  0.00     0.000 A 
ATOM     93  C   UNL A   1      33.889  29.333  26.628  1.00  0.00     0.000 A 
ATOM     94  C   UNL A   1      32.953  30.298  26.974  1.00  0.00     0.000 A 
ENDBRANCH  84  89
ENDBRANCH  78  80
ENDBRANCH  77  78
ENDBRANCH  76  77
ENDBRANCH  75  76
ENDBRANCH  74  75
ENDBRANCH  73  74
ENDBRANCH   1  73
TORSDOF 18
ENDMDL
MODEL 3
REMARK VINA RESULT:     -10.8      1.120      2.875
REMARK SMILES O=C(OCCOCCOCCOC(=O)[C@H]1CS[C@]2(c3ccccc3)CCC(=O)N12)c1ccc(-c2c3nc(c(-c4c(F)c(F)c(F)c(F)c4F)c4ccc([nH]4)c(-c4c(F)c(F)c(F)c(F)c4F)c4nc(c(-c5c(F)c(F)c(F)c(F)c5F)c5ccc2[nH]5)C=C4)C=C3)cc1
REMARK SMILES IDX 7 1 6 2 5 3 4 4 3 5 2 6 1 7 30 8 31 9 92 10 32 11 91 12
REMARK SMILES IDX 33 13 34 14 35 15 85 16 36 17 90 18 84 19 86 20 37 21 89 22
REMARK SMILES IDX 83 23 82 24 38 26 70 27 50 28 69 29 51 30 54 31 68 32 87 33
REMARK SMILES IDX 52 34 53 35 67 37 88 38 55 39 39 40 40 41 48 42 41 43 42 44
REMARK SMILES IDX 46 45 49 46 43 47 44 48 47 49 45 50 71 51 72 52 80 53 73 54
REMARK SMILES IDX 74 55 78 56 81 57 75 58 76 59 79 60 77 61 56 62 57 63 65 64
REMARK SMILES IDX 58 65 59 66 63 67 66 68 60 69 61 70 64 71 62 72 8 73 9 74
REMARK SMILES IDX 10 75 11 76 12 77 13 78 14 79 15 80 16 81 29 82 17 83 18 84
REMARK SMILES IDX 27 85 25 86 26 87 28 88 19 89 20 90 24 91 21 92 23 93 22 94
REMARK H PARENT 86 25 54 36
REMARK Flexibility Score: inf
ROOT
ATOM      1  C   UNL A   1      34.601  29.739  27.607  1.00  0.00     0.188 C 
ENDROOT
BRANCH   1   2
ATOM      2  O   UNL A   1      34.324  31.125  27.378  1.00  0.00    -0.376 OA
BRANCH   2   3
ATOM      3  C   UNL A   1      32.955  31.472  27.616  1.00  0.00     0.202 C 
BRANCH   3   4
ATOM      4  C   UNL A   1      32.498  32.739  26.877  1.00  0.00     0.261 C 
BRANCH   4   5
ATOM      5  O   UNL A   1      32.163  33.836  27.743  1.00  0.00    -0.460 OA
BRANCH   5   6
ATOM      6  C   UNL A   1      32.952  34.583  28.550  1.00  0.00     0.338 C 
ATOM      7  O   UNL A   1      32.632  35.758  28.729  1.00  0.00    -0.246 OA
BRANCH   6   8
ATOM      8  C   UNL A   1      34.199  34.100  29.237  1.00  0.00     0.060 A 
ATOM      9  C   UNL A   1      35.509  34.242  28.775  1.00  0.00     0.016 A 
ATOM     10  C   UNL A   1      34.024  33.486  30.494  1.00  0.00     0.016 A 
ATOM     11  C   UNL A   1      36.605  33.815  29.521  1.00  0.00     0.010 A 
ATOM     12  C   UNL A   1      35.116  33.041  31.248  1.00  0.00     0.010 A 
ATOM     13  C   UNL A   1      36.413  33.199  30.752  1.00  0.00    -0.014 A 
BRANCH  13  14
ATOM     14  C   UNL A   1      37.572  32.582  31.419  1.00  0.00     0.031 A 
ATOM     15  C   UNL A   1      38.228  31.420  30.751  1.00  0.00     0.074 A 
ATOM     16  C   UNL A   1      38.103  33.121  32.529  1.00  0.00     0.049 A 
ATOM     17  N   UNL A   1      39.228  30.692  31.163  1.00  0.00    -0.248 NA
ATOM     18  C   UNL A   1      37.722  31.064  29.415  1.00  0.00     0.031 C 
ATOM     19  C   UNL A   1      37.659  34.368  33.140  1.00  0.00     0.029 A 
ATOM     20  N   UNL A   1      39.124  32.695  33.338  1.00  0.00    -0.354 N 
ATOM     21  C   UNL A   1      39.481  29.799  30.134  1.00  0.00     0.074 A 
ATOM     22  C   UNL A   1      38.520  30.060  29.086  1.00  0.00     0.031 C 
ATOM     23  C   UNL A   1      38.365  34.579  34.260  1.00  0.00     0.029 A 
ATOM     24  C   UNL A   1      39.251  33.449  34.479  1.00  0.00     0.049 A 
ATOM     25  H   UNL A   1      39.705  31.931  33.123  1.00  0.00     0.167 HD
ATOM     26  C   UNL A   1      40.442  28.852  30.084  1.00  0.00     0.037 A 
ATOM     27  C   UNL A   1      39.949  33.217  35.604  1.00  0.00     0.037 A 
ATOM     28  C   UNL A   1      41.369  28.605  31.152  1.00  0.00     0.049 A 
ATOM     29  C   UNL A   1      40.853  32.021  35.625  1.00  0.00     0.074 A 
ATOM     30  C   UNL A   1      42.375  27.662  31.223  1.00  0.00     0.029 A 
ATOM     31  N   UNL A   1      41.384  29.303  32.354  1.00  0.00    -0.354 N 
ATOM     32  N   UNL A   1      41.085  31.160  34.662  1.00  0.00    -0.248 NA
ATOM     33  C   UNL A   1      41.605  31.768  36.857  1.00  0.00     0.031 C 
ATOM     34  C   UNL A   1      42.955  27.745  32.494  1.00  0.00     0.029 A 
ATOM     35  C   UNL A   1      42.348  28.776  33.196  1.00  0.00     0.049 A 
ATOM     36  H   UNL A   1      40.796  30.062  32.574  1.00  0.00     0.167 HD
ATOM     37  C   UNL A   1      42.038  30.286  35.154  1.00  0.00     0.074 A 
ATOM     38  C   UNL A   1      42.339  30.721  36.505  1.00  0.00     0.031 C 
ATOM     39  C   UNL A   1      42.621  29.230  34.537  1.00  0.00     0.037 A 
BRANCH  26  40
ATOM     40  C   UNL A   1      40.470  27.981  28.867  1.00  0.00     0.064 A 
ATOM     41  C   UNL A   1      41.235  28.304  27.737  1.00  0.00     0.173 A 
ATOM     42  C   UNL A   1      39.691  26.816  28.825  1.00  0.00     0.173 A 
ATOM     43  F   UNL A   1      41.970  29.427  27.715  1.00  0.00    -0.203 F 
ATOM     44  C   UNL A   1      41.204  27.498  26.601  1.00  0.00     0.198 A 
ATOM     45  C   UNL A   1      39.681  26.001  27.698  1.00  0.00     0.198 A 
ATOM     46  F   UNL A   1      38.929  26.475  29.876  1.00  0.00    -0.203 F 
ATOM     47  F   UNL A   1      41.902  27.851  25.512  1.00  0.00    -0.200 F 
ATOM     48  C   UNL A   1      40.432  26.347  26.584  1.00  0.00     0.200 A 
ATOM     49  F   UNL A   1      38.931  24.890  27.684  1.00  0.00    -0.200 F 
ATOM     50  F   UNL A   1      40.399  25.575  25.489  1.00  0.00    -0.200 F 
ENDBRANCH  26  40
BRANCH  27  51
ATOM     51  C   UNL A   1      39.748  34.076  36.802  1.00  0.00     0.064 A 
ATOM     52  C   UNL A   1      40.439  35.282  36.975  1.00  0.00     0.173 A 
ATOM     53  C   UNL A   1      38.856  33.689  37.818  1.00  0.00     0.173 A 
ATOM     54  F   UNL A   1      41.319  35.687  36.049  1.00  0.00    -0.203 F 
ATOM     55  C   UNL A   1      40.259  36.057  38.121  1.00  0.00     0.198 A 
ATOM     56  C   UNL A   1      38.656  34.478  38.949  1.00  0.00     0.198 A 
ATOM     57  F   UNL A   1      38.176  32.537  37.712  1.00  0.00    -0.203 F 
ATOM     58  F   UNL A   1      40.968  37.182  38.284  1.00  0.00    -0.200 F 
ATOM     59  C   UNL A   1      39.365  35.658  39.104  1.00  0.00     0.200 A 
ATOM     60  F   UNL A   1      37.787  34.090  39.892  1.00  0.00    -0.200 F 
ATOM     61  F   UNL A   1      39.197  36.402  40.205  1.00  0.00    -0.200 F 
ENDBRANCH  27  51
BRANCH  39  62
ATOM     62  C   UNL A   1      43.668  28.493  35.312  1.00  0.00     0.064 A 
ATOM     63  C   UNL A   1      45.018  28.864  35.253  1.00  0.00     0.173 A 
ATOM     64  C   UNL A   1      43.303  27.438  36.160  1.00  0.00     0.173 A 
ATOM     65  F   UNL A   1      45.411  29.853  34.437  1.00  0.00    -0.203 F 
ATOM     66  C   UNL A   1      45.971  28.192  36.008  1.00  0.00     0.198 A 
ATOM     67  C   UNL A   1      44.255  26.789  36.938  1.00  0.00     0.198 A 
ATOM     68  F   UNL A   1      42.022  27.051  36.247  1.00  0.00    -0.203 F 
ATOM     69  F   UNL A   1      47.263  28.532  35.908  1.00  0.00    -0.200 F 
ATOM     70  C   UNL A   1      45.588  27.163  36.858  1.00  0.00     0.200 A 
ATOM     71  F   UNL A   1      43.882  25.805  37.767  1.00  0.00    -0.200 F 
ATOM     72  F   UNL A   1      46.508  26.526  37.596  1.00  0.00    -0.200 F 
ENDBRANCH  39  62
ENDBRANCH  13  14
ENDBRANCH   6   8
ENDBRANCH   5   6
ENDBRANCH   4   5
ENDBRANCH   3   4
ENDBRANCH   2   3
ENDBRANCH   1   2
BRANCH   1  73
ATOM     73  C   UNL A   1      34.214  28.844  26.429  1.00  0.00     0.188 C 
BRANCH  73  74
ATOM     74  O   UNL A   1      33.366  27.774  26.841  1.00  0.00    -0.376 OA
BRANCH  74  75
ATOM     75  C   UNL A   1      31.965  28.057  26.743  1.00  0.00     0.202 C 
BRANCH  75  76
ATOM     76  C   UNL A   1      31.063  26.814  26.611  1.00  0.00     0.261 C 
BRANCH  76  77
ATOM     77  O   UNL A   1      31.811  25.581  26.608  1.00  0.00    -0.462 OA
BRANCH  77  78
ATOM     78  C   UNL A   1      31.289  24.624  25.797  1.00  0.00     0.329 C 
ATOM     79  O   UNL A   1      30.403  24.841  24.978  1.00  0.00    -0.250 OA
BRANCH  78  80
ATOM     80  C   UNL A   1      32.054  23.305  25.890  1.00  0.00     0.206 C 
ATOM     81  C   UNL A   1      31.791  22.192  24.866  1.00  0.00     0.109 C 
ATOM     82  N   UNL A   1      33.468  23.624  25.793  1.00  0.00    -0.309 N 
ATOM     83  S   UNL A   1      33.349  21.993  23.882  1.00  0.00    -0.126 SA
ATOM     84  C   UNL A   1      34.047  23.605  24.467  1.00  0.00     0.116 C 
ATOM     85  C   UNL A   1      34.322  23.121  26.768  1.00  0.00     0.224 C 
ATOM     86  C   UNL A   1      35.548  23.513  24.786  1.00  0.00     0.055 C 
ATOM     87  C   UNL A   1      35.641  22.798  26.127  1.00  0.00     0.104 C 
ATOM     88  O   UNL A   1      34.010  22.828  27.913  1.00  0.00    -0.275 OA
BRANCH  84  89
ATOM     89  C   UNL A   1      33.635  24.764  23.520  1.00  0.00    -0.012 A 
ATOM     90  C   UNL A   1      33.877  26.128  23.818  1.00  0.00     0.007 A 
ATOM     91  C   UNL A   1      32.968  24.529  22.300  1.00  0.00     0.007 A 
ATOM     92  C   UNL A   1      33.475  27.176  22.977  1.00  0.00     0.000 A 
ATOM     93  C   UNL A   1      32.555  25.576  21.459  1.00  0.00     0.000 A 
ATOM     94  C   UNL A   1      32.808  26.899  21.797  1.00  0.00     0.000 A 
ENDBRANCH  84  89
ENDBRANCH  78  80
ENDBRANCH  77  78
ENDBRANCH  76  77
ENDBRANCH  75  76
ENDBRANCH  74  75
ENDBRANCH  73  74
ENDBRANCH   1  73
TORSDOF 18
ENDMDL
