MODEL 1
REMARK VINA RESULT:     -12.4      0.000      0.000
REMARK SMILES O=C(OCCOCCOCCOC(=O)c1ccc(-c2c3nc(c(-c4c(F)c(F)c(F)c(F)c4F)c4ccc([nH]4)c(-c4c(F)c(F)c(F)c(F)c4F)c4nc(c(-c5c(F)c(F)c(F)c(F)c5F)c5ccc2[nH]5)C=C4)C=C3)cc1)C1=Cc2cc(S(F)(F)(F)(F)F)cc(Br)c2O[C@H]1C(F)(F)F
REMARK SMILES IDX 8 1 7 2 6 3 5 4 4 5 3 6 2 7 1 8 78 9 79 10 94 11 80 12 93 13
REMARK SMILES IDX 81 14 92 15 82 16 90 17 89 18 91 19 95 20 96 21 97 22 98 23
REMARK SMILES IDX 83 24 84 25 85 26 86 27 87 28 88 29 9 30 10 31 11 32 12 33
REMARK SMILES IDX 13 34 14 35 15 36 16 37 77 38 17 39 76 40 18 41 19 42 20 43
REMARK SMILES IDX 70 44 21 45 75 46 69 47 71 48 22 49 74 50 68 51 67 52 23 54
REMARK SMILES IDX 55 55 35 56 54 57 36 58 39 59 53 60 72 61 37 62 38 63 52 65
REMARK SMILES IDX 73 66 40 67 24 68 25 69 33 70 26 71 27 72 31 73 34 74 28 75
REMARK SMILES IDX 29 76 32 77 30 78 56 79 57 80 65 81 58 82 59 83 63 84 66 85
REMARK SMILES IDX 60 86 61 87 64 88 62 89 41 90 42 91 50 92 43 93 44 94 48 95
REMARK SMILES IDX 51 96 45 97 46 98 49 99 47 100
REMARK H PARENT 71 53 39 64
REMARK Flexibility Score: inf
ROOT
ATOM      1  C   UNL A   1      32.798  27.533  23.292  1.00  0.00     0.188 C 
ENDROOT
BRANCH   1   2
ATOM      2  C   UNL A   1      33.554  27.383  21.982  1.00  0.00     0.188 C 
BRANCH   2   3
ATOM      3  O   UNL A   1      34.028  26.050  21.860  1.00  0.00    -0.376 OA
BRANCH   3   4
ATOM      4  C   UNL A   1      32.939  25.146  21.985  1.00  0.00     0.202 C 
BRANCH   4   5
ATOM      5  C   UNL A   1      33.463  23.774  22.377  1.00  0.00     0.261 C 
BRANCH   5   6
ATOM      6  O   UNL A   1      32.579  23.182  23.318  1.00  0.00    -0.460 OA
BRANCH   6   7
ATOM      7  C   UNL A   1      32.637  23.562  24.684  1.00  0.00     0.338 C 
ATOM      8  O   UNL A   1      33.518  24.390  25.076  1.00  0.00    -0.246 OA
BRANCH   7   9
ATOM      9  C   UNL A   1      31.646  22.978  25.677  1.00  0.00     0.087 C 
ATOM     10  C   UNL A   1      31.774  21.688  26.087  1.00  0.00     0.027 C 
ATOM     11  C   UNL A   1      30.512  23.837  26.214  1.00  0.00     0.316 C 
ATOM     12  C   UNL A   1      32.908  20.829  25.552  1.00  0.00     0.020 A 
ATOM     13  O   UNL A   1      34.485  22.585  25.825  1.00  0.00    -0.474 OA
ATOM     14  C   UNL A   1      32.527  19.592  25.057  1.00  0.00     0.036 A 
ATOM     15  C   UNL A   1      34.162  21.252  25.455  1.00  0.00     0.142 A 
ATOM     16  C   UNL A   1      33.614  18.745  24.732  1.00  0.00     0.109 A 
ATOM     17  C   UNL A   1      35.150  20.413  25.001  1.00  0.00     0.062 A 
ATOM     18  C   UNL A   1      34.856  19.156  24.551  1.00  0.00     0.044 A 
ATOM     19  Br  UNL A   1      37.012  21.028  24.995  1.00  0.00    -0.047 Br
BRANCH  11  20
ATOM     20  C   UNL A   1      30.596  25.226  25.602  1.00  0.00     0.430 C 
ATOM     21  F   UNL A   1      30.638  25.128  24.277  1.00  0.00    -0.167 F 
ATOM     22  F   UNL A   1      29.527  25.933  25.960  1.00  0.00    -0.167 F 
ATOM     23  F   UNL A   1      31.695  25.835  26.037  1.00  0.00    -0.167 F 
ENDBRANCH  11  20
BRANCH  16  24
ATOM     24  S   UNL A   1      33.277  16.976  24.553  1.00  0.00     0.310 S 
ATOM     25  F   UNL A   1      34.826  16.637  24.534  1.00  0.00    -0.094 F 
ATOM     26  F   UNL A   1      33.362  17.132  22.988  1.00  0.00    -0.094 F 
ATOM     27  F   UNL A   1      33.005  15.451  24.415  1.00  0.00    -0.094 F 
ATOM     28  F   UNL A   1      33.336  16.815  26.124  1.00  0.00    -0.094 F 
ATOM     29  F   UNL A   1      33.667  18.500  24.709  1.00  0.00    -0.094 F 
ENDBRANCH  16  24
ENDBRANCH   7   9
ENDBRANCH   6   7
ENDBRANCH   5   6
ENDBRANCH   4   5
ENDBRANCH   3   4
ENDBRANCH   2   3
ENDBRANCH   1   2
BRANCH   1  30
ATOM     30  O   UNL A   1      32.449  28.895  23.485  1.00  0.00    -0.376 OA
BRANCH  30  31
ATOM     31  C   UNL A   1      31.217  28.973  24.186  1.00  0.00     0.202 C 
BRANCH  31  32
ATOM     32  C   UNL A   1      31.403  29.795  25.450  1.00  0.00     0.261 C 
BRANCH  32  33
ATOM     33  O   UNL A   1      32.782  30.095  25.620  1.00  0.00    -0.460 OA
BRANCH  33  34
ATOM     34  C   UNL A   1      33.203  30.902  26.710  1.00  0.00     0.338 C 
ATOM     35  O   UNL A   1      32.447  31.825  27.147  1.00  0.00    -0.246 OA
BRANCH  34  36
ATOM     36  C   UNL A   1      34.559  30.661  27.353  1.00  0.00     0.060 A 
ATOM     37  C   UNL A   1      34.845  29.379  27.792  1.00  0.00     0.016 A 
ATOM     38  C   UNL A   1      35.361  31.681  27.637  1.00  0.00     0.016 A 
ATOM     39  C   UNL A   1      35.861  29.322  28.776  1.00  0.00     0.010 A 
ATOM     40  C   UNL A   1      36.416  31.522  28.502  1.00  0.00     0.010 A 
ATOM     41  C   UNL A   1      36.722  30.295  29.020  1.00  0.00    -0.014 A 
BRANCH  41  42
ATOM     42  C   UNL A   1      37.984  30.060  29.833  1.00  0.00     0.031 A 
ATOM     43  C   UNL A   1      38.142  30.591  31.114  1.00  0.00     0.074 A 
ATOM     44  C   UNL A   1      38.872  29.174  29.248  1.00  0.00     0.049 A 
ATOM     45  N   UNL A   1      39.114  30.330  31.989  1.00  0.00    -0.248 NA
ATOM     46  C   UNL A   1      37.218  31.559  31.724  1.00  0.00     0.031 C 
ATOM     47  C   UNL A   1      38.717  28.627  27.959  1.00  0.00     0.029 A 
ATOM     48  N   UNL A   1      40.037  28.669  29.781  1.00  0.00    -0.354 N 
ATOM     49  C   UNL A   1      38.915  31.014  33.117  1.00  0.00     0.074 A 
ATOM     50  C   UNL A   1      37.696  31.820  32.961  1.00  0.00     0.031 C 
ATOM     51  C   UNL A   1      39.777  27.813  27.715  1.00  0.00     0.029 A 
ATOM     52  C   UNL A   1      40.614  27.837  28.847  1.00  0.00     0.049 A 
ATOM     53  H   UNL A   1      40.396  28.868  30.676  1.00  0.00     0.167 HD
ATOM     54  C   UNL A   1      39.701  30.998  34.271  1.00  0.00     0.037 A 
ATOM     55  C   UNL A   1      41.802  27.133  28.956  1.00  0.00     0.037 A 
ATOM     56  C   UNL A   1      40.867  30.259  34.396  1.00  0.00     0.049 A 
ATOM     57  C   UNL A   1      42.620  27.161  30.088  1.00  0.00     0.074 A 
ATOM     58  C   UNL A   1      41.666  30.226  35.554  1.00  0.00     0.029 A 
ATOM     59  N   UNL A   1      41.456  29.447  33.452  1.00  0.00    -0.354 N 
ATOM     60  N   UNL A   1      42.400  27.815  31.230  1.00  0.00    -0.248 NA
ATOM     61  C   UNL A   1      43.897  26.445  30.203  1.00  0.00     0.031 C 
ATOM     62  C   UNL A   1      42.728  29.411  35.310  1.00  0.00     0.029 A 
ATOM     63  C   UNL A   1      42.609  28.924  33.994  1.00  0.00     0.049 A 
ATOM     64  H   UNL A   1      41.112  29.271  32.547  1.00  0.00     0.167 HD
ATOM     65  C   UNL A   1      43.394  27.586  32.090  1.00  0.00     0.074 A 
ATOM     66  C   UNL A   1      44.376  26.708  31.439  1.00  0.00     0.031 C 
ATOM     67  C   UNL A   1      43.521  28.071  33.392  1.00  0.00     0.037 A 
BRANCH  54  68
ATOM     68  C   UNL A   1      39.252  31.836  35.457  1.00  0.00     0.064 A 
ATOM     69  C   UNL A   1      39.714  33.141  35.500  1.00  0.00     0.173 A 
ATOM     70  C   UNL A   1      38.412  31.372  36.375  1.00  0.00     0.173 A 
ATOM     71  F   UNL A   1      40.344  33.721  34.483  1.00  0.00    -0.203 F 
ATOM     72  C   UNL A   1      39.455  33.800  36.725  1.00  0.00     0.198 A 
ATOM     73  C   UNL A   1      38.097  32.126  37.479  1.00  0.00     0.198 A 
ATOM     74  F   UNL A   1      37.870  30.167  36.223  1.00  0.00    -0.203 F 
ATOM     75  F   UNL A   1      40.156  34.897  36.997  1.00  0.00    -0.200 F 
ATOM     76  C   UNL A   1      38.566  33.402  37.616  1.00  0.00     0.200 A 
ATOM     77  F   UNL A   1      37.324  31.606  38.430  1.00  0.00    -0.200 F 
ATOM     78  F   UNL A   1      38.150  34.201  38.596  1.00  0.00    -0.200 F 
ENDBRANCH  54  68
BRANCH  55  79
ATOM     79  C   UNL A   1      42.242  26.281  27.776  1.00  0.00     0.064 A 
ATOM     80  C   UNL A   1      41.868  24.953  27.663  1.00  0.00     0.173 A 
ATOM     81  C   UNL A   1      43.054  26.847  26.891  1.00  0.00     0.173 A 
ATOM     82  F   UNL A   1      40.874  24.416  28.364  1.00  0.00    -0.203 F 
ATOM     83  C   UNL A   1      42.641  24.217  26.732  1.00  0.00     0.198 A 
ATOM     84  C   UNL A   1      43.671  26.090  25.923  1.00  0.00     0.198 A 
ATOM     85  F   UNL A   1      43.274  28.158  26.941  1.00  0.00    -0.203 F 
ATOM     86  F   UNL A   1      42.607  22.890  26.812  1.00  0.00    -0.200 F 
ATOM     87  C   UNL A   1      43.393  24.758  25.791  1.00  0.00     0.200 A 
ATOM     88  F   UNL A   1      44.549  26.661  25.105  1.00  0.00    -0.200 F 
ATOM     89  F   UNL A   1      43.857  24.043  24.769  1.00  0.00    -0.200 F 
ENDBRANCH  55  79
BRANCH  67  90
ATOM     90  C   UNL A   1      44.733  27.638  34.201  1.00  0.00     0.064 A 
ATOM     91  C   UNL A   1      44.585  26.507  34.989  1.00  0.00     0.173 A 
ATOM     92  C   UNL A   1      45.839  28.371  34.250  1.00  0.00     0.173 A 
ATOM     93  F   UNL A   1      43.622  25.611  34.797  1.00  0.00    -0.203 F 
ATOM     94  C   UNL A   1      45.551  26.395  36.016  1.00  0.00     0.198 A 
ATOM     95  C   UNL A   1      46.804  28.119  35.193  1.00  0.00     0.198 A 
ATOM     96  F   UNL A   1      46.014  29.359  33.377  1.00  0.00    -0.203 F 
ATOM     97  F   UNL A   1      45.289  25.567  37.024  1.00  0.00    -0.200 F 
ATOM     98  C   UNL A   1      46.696  27.054  36.044  1.00  0.00     0.200 A 
ATOM     99  F   UNL A   1      47.861  28.922  35.281  1.00  0.00    -0.200 F 
ATOM    100  F   UNL A   1      47.688  26.701  36.856  1.00  0.00    -0.200 F 
ENDBRANCH  67  90
ENDBRANCH  41  42
ENDBRANCH  34  36
ENDBRANCH  33  34
ENDBRANCH  32  33
ENDBRANCH  31  32
ENDBRANCH  30  31
ENDBRANCH   1  30
TORSDOF 19
ENDMDL
MODEL 2
REMARK VINA RESULT:     -12.2      2.749      4.868
REMARK SMILES O=C(OCCOCCOCCOC(=O)c1ccc(-c2c3nc(c(-c4c(F)c(F)c(F)c(F)c4F)c4ccc([nH]4)c(-c4c(F)c(F)c(F)c(F)c4F)c4nc(c(-c5c(F)c(F)c(F)c(F)c5F)c5ccc2[nH]5)C=C4)C=C3)cc1)C1=Cc2cc(S(F)(F)(F)(F)F)cc(Br)c2O[C@H]1C(F)(F)F
REMARK SMILES IDX 8 1 7 2 6 3 5 4 4 5 3 6 2 7 1 8 78 9 79 10 94 11 80 12 93 13
REMARK SMILES IDX 81 14 92 15 82 16 90 17 89 18 91 19 95 20 96 21 97 22 98 23
REMARK SMILES IDX 83 24 84 25 85 26 86 27 87 28 88 29 9 30 10 31 11 32 12 33
REMARK SMILES IDX 13 34 14 35 15 36 16 37 77 38 17 39 76 40 18 41 19 42 20 43
REMARK SMILES IDX 70 44 21 45 75 46 69 47 71 48 22 49 74 50 68 51 67 52 23 54
REMARK SMILES IDX 55 55 35 56 54 57 36 58 39 59 53 60 72 61 37 62 38 63 52 65
REMARK SMILES IDX 73 66 40 67 24 68 25 69 33 70 26 71 27 72 31 73 34 74 28 75
REMARK SMILES IDX 29 76 32 77 30 78 56 79 57 80 65 81 58 82 59 83 63 84 66 85
REMARK SMILES IDX 60 86 61 87 64 88 62 89 41 90 42 91 50 92 43 93 44 94 48 95
REMARK SMILES IDX 51 96 45 97 46 98 49 99 47 100
REMARK H PARENT 71 53 39 64
REMARK Flexibility Score: inf
ROOT
ATOM      1  C   UNL A   1      32.882  30.077  25.795  1.00  0.00     0.188 C 
ENDROOT
BRANCH   1   2
ATOM      2  C   UNL A   1      33.017  29.211  24.553  1.00  0.00     0.188 C 
BRANCH   2   3
ATOM      3  O   UNL A   1      33.907  28.137  24.821  1.00  0.00    -0.376 OA
BRANCH   3   4
ATOM      4  C   UNL A   1      33.876  27.831  26.208  1.00  0.00     0.202 C 
BRANCH   4   5
ATOM      5  C   UNL A   1      33.257  26.458  26.410  1.00  0.00     0.261 C 
BRANCH   5   6
ATOM      6  O   UNL A   1      33.706  25.581  25.388  1.00  0.00    -0.460 OA
BRANCH   6   7
ATOM      7  C   UNL A   1      33.039  24.347  25.167  1.00  0.00     0.338 C 
ATOM      8  O   UNL A   1      33.562  23.468  24.412  1.00  0.00    -0.246 OA
BRANCH   7   9
ATOM      9  C   UNL A   1      31.700  24.079  25.832  1.00  0.00     0.087 C 
ATOM     10  C   UNL A   1      30.578  24.700  25.379  1.00  0.00     0.027 C 
ATOM     11  C   UNL A   1      31.613  23.115  27.005  1.00  0.00     0.316 C 
ATOM     12  C   UNL A   1      30.664  25.663  24.206  1.00  0.00     0.020 A 
ATOM     13  O   UNL A   1      32.084  24.196  22.990  1.00  0.00    -0.474 OA
ATOM     14  C   UNL A   1      30.065  26.895  24.411  1.00  0.00     0.036 A 
ATOM     15  C   UNL A   1      31.350  25.407  23.099  1.00  0.00     0.142 A 
ATOM     16  C   UNL A   1      30.002  27.703  23.250  1.00  0.00     0.109 A 
ATOM     17  C   UNL A   1      31.355  26.302  22.057  1.00  0.00     0.062 A 
ATOM     18  C   UNL A   1      30.733  27.515  22.167  1.00  0.00     0.044 A 
ATOM     19  Br  UNL A   1      32.268  25.834  20.386  1.00  0.00    -0.047 Br
BRANCH  11  20
ATOM     20  C   UNL A   1      32.995  22.562  27.309  1.00  0.00     0.430 C 
ATOM     21  F   UNL A   1      33.876  23.558  27.344  1.00  0.00    -0.167 F 
ATOM     22  F   UNL A   1      32.977  21.946  28.488  1.00  0.00    -0.167 F 
ATOM     23  F   UNL A   1      33.344  21.696  26.362  1.00  0.00    -0.167 F 
ENDBRANCH  11  20
BRANCH  16  24
ATOM     24  S   UNL A   1      28.838  29.088  23.250  1.00  0.00     0.310 S 
ATOM     25  F   UNL A   1      29.003  29.287  21.686  1.00  0.00    -0.094 F 
ATOM     26  F   UNL A   1      30.043  30.085  23.436  1.00  0.00    -0.094 F 
ATOM     27  F   UNL A   1      27.826  30.270  23.231  1.00  0.00    -0.094 F 
ATOM     28  F   UNL A   1      27.660  28.086  22.924  1.00  0.00    -0.094 F 
ATOM     29  F   UNL A   1      29.864  27.890  23.153  1.00  0.00    -0.094 F 
ENDBRANCH  16  24
ENDBRANCH   7   9
ENDBRANCH   6   7
ENDBRANCH   5   6
ENDBRANCH   4   5
ENDBRANCH   3   4
ENDBRANCH   2   3
ENDBRANCH   1   2
BRANCH   1  30
ATOM     30  O   UNL A   1      31.507  30.287  26.080  1.00  0.00    -0.376 OA
BRANCH  30  31
ATOM     31  C   UNL A   1      31.275  31.670  26.303  1.00  0.00     0.202 C 
BRANCH  31  32
ATOM     32  C   UNL A   1      32.440  32.260  27.081  1.00  0.00     0.261 C 
BRANCH  32  33
ATOM     33  O   UNL A   1      32.182  33.630  27.352  1.00  0.00    -0.460 OA
BRANCH  33  34
ATOM     34  C   UNL A   1      32.972  34.326  28.305  1.00  0.00     0.338 C 
ATOM     35  O   UNL A   1      32.617  35.480  28.704  1.00  0.00    -0.246 OA
BRANCH  34  36
ATOM     36  C   UNL A   1      34.241  33.692  28.849  1.00  0.00     0.060 A 
ATOM     37  C   UNL A   1      34.105  32.614  29.708  1.00  0.00     0.016 A 
ATOM     38  C   UNL A   1      35.422  34.263  28.642  1.00  0.00     0.016 A 
ATOM     39  C   UNL A   1      35.235  32.389  30.530  1.00  0.00     0.010 A 
ATOM     40  C   UNL A   1      36.515  33.900  29.390  1.00  0.00     0.010 A 
ATOM     41  C   UNL A   1      36.439  32.882  30.299  1.00  0.00    -0.014 A 
BRANCH  41  42
ATOM     42  C   UNL A   1      37.672  32.345  31.006  1.00  0.00     0.031 A 
ATOM     43  C   UNL A   1      38.014  32.752  32.297  1.00  0.00     0.074 A 
ATOM     44  C   UNL A   1      38.320  31.335  30.316  1.00  0.00     0.049 A 
ATOM     45  N   UNL A   1      38.962  32.244  33.086  1.00  0.00    -0.248 NA
ATOM     46  C   UNL A   1      37.349  33.847  33.019  1.00  0.00     0.031 C 
ATOM     47  C   UNL A   1      37.977  30.913  29.017  1.00  0.00     0.029 A 
ATOM     48  N   UNL A   1      39.385  30.572  30.739  1.00  0.00    -0.354 N 
ATOM     49  C   UNL A   1      38.978  32.883  34.258  1.00  0.00     0.074 A 
ATOM     50  C   UNL A   1      37.945  33.928  34.229  1.00  0.00     0.031 C 
ATOM     51  C   UNL A   1      38.829  29.918  28.658  1.00  0.00     0.029 A 
ATOM     52  C   UNL A   1      39.720  29.700  29.726  1.00  0.00     0.049 A 
ATOM     53  H   UNL A   1      39.831  30.637  31.614  1.00  0.00     0.167 HD
ATOM     54  C   UNL A   1      39.811  32.634  35.350  1.00  0.00     0.037 A 
ATOM     55  C   UNL A   1      40.741  28.763  29.715  1.00  0.00     0.037 A 
ATOM     56  C   UNL A   1      40.804  31.668  35.354  1.00  0.00     0.049 A 
ATOM     57  C   UNL A   1      41.613  28.554  30.785  1.00  0.00     0.074 A 
ATOM     58  C   UNL A   1      41.648  31.400  36.449  1.00  0.00     0.029 A 
ATOM     59  N   UNL A   1      41.154  30.814  34.331  1.00  0.00    -0.354 N 
ATOM     60  N   UNL A   1      41.603  29.166  31.970  1.00  0.00    -0.248 NA
ATOM     61  C   UNL A   1      42.719  27.587  30.772  1.00  0.00     0.031 C 
ATOM     62  C   UNL A   1      42.501  30.403  36.088  1.00  0.00     0.029 A 
ATOM     63  C   UNL A   1      42.205  30.034  34.762  1.00  0.00     0.049 A 
ATOM     64  H   UNL A   1      40.728  30.768  33.446  1.00  0.00     0.167 HD
ATOM     65  C   UNL A   1      42.579  28.686  32.744  1.00  0.00     0.074 A 
ATOM     66  C   UNL A   1      43.316  27.669  31.982  1.00  0.00     0.031 C 
ATOM     67  C   UNL A   1      42.882  29.053  34.056  1.00  0.00     0.037 A 
BRANCH  54  68
ATOM     68  C   UNL A   1      39.618  33.471  36.604  1.00  0.00     0.064 A 
ATOM     69  C   UNL A   1      38.767  32.953  37.566  1.00  0.00     0.173 A 
ATOM     70  C   UNL A   1      40.274  34.609  36.805  1.00  0.00     0.173 A 
ATOM     71  F   UNL A   1      38.292  31.712  37.521  1.00  0.00    -0.203 F 
ATOM     72  C   UNL A   1      38.448  33.865  38.600  1.00  0.00     0.198 A 
ATOM     73  C   UNL A   1      40.009  35.382  37.909  1.00  0.00     0.198 A 
ATOM     74  F   UNL A   1      41.195  35.001  35.930  1.00  0.00    -0.203 F 
ATOM     75  F   UNL A   1      37.384  33.599  39.352  1.00  0.00    -0.200 F 
ATOM     76  C   UNL A   1      39.134  34.960  38.870  1.00  0.00     0.200 A 
ATOM     77  F   UNL A   1      40.612  36.560  38.043  1.00  0.00    -0.200 F 
ATOM     78  F   UNL A   1      38.981  35.618  40.017  1.00  0.00    -0.200 F 
ENDBRANCH  54  68
BRANCH  55  79
ATOM     79  C   UNL A   1      40.923  27.916  28.466  1.00  0.00     0.064 A 
ATOM     80  C   UNL A   1      41.750  28.319  27.431  1.00  0.00     0.173 A 
ATOM     81  C   UNL A   1      40.204  26.802  28.380  1.00  0.00     0.173 A 
ATOM     82  F   UNL A   1      42.668  29.271  27.565  1.00  0.00    -0.203 F 
ATOM     83  C   UNL A   1      41.529  27.625  26.217  1.00  0.00     0.198 A 
ATOM     84  C   UNL A   1      40.142  26.099  27.201  1.00  0.00     0.198 A 
ATOM     85  F   UNL A   1      39.539  26.363  29.445  1.00  0.00    -0.203 F 
ATOM     86  F   UNL A   1      42.001  28.168  25.099  1.00  0.00    -0.200 F 
ATOM     87  C   UNL A   1      40.888  26.474  26.118  1.00  0.00     0.200 A 
ATOM     88  F   UNL A   1      39.345  25.038  27.111  1.00  0.00    -0.200 F 
ATOM     89  F   UNL A   1      40.962  25.723  25.023  1.00  0.00    -0.200 F 
ENDBRANCH  55  79
BRANCH  67  90
ATOM     90  C   UNL A   1      44.025  28.332  34.753  1.00  0.00     0.064 A 
ATOM     91  C   UNL A   1      43.699  27.188  35.464  1.00  0.00     0.173 A 
ATOM     92  C   UNL A   1      45.253  28.836  34.785  1.00  0.00     0.173 A 
ATOM     93  F   UNL A   1      42.573  26.509  35.269  1.00  0.00    -0.203 F 
ATOM     94  C   UNL A   1      44.673  26.810  36.417  1.00  0.00     0.198 A 
ATOM     95  C   UNL A   1      46.195  28.328  35.645  1.00  0.00     0.198 A 
ATOM     96  F   UNL A   1      45.573  29.843  33.977  1.00  0.00    -0.203 F 
ATOM     97  F   UNL A   1      44.305  25.965  37.377  1.00  0.00    -0.200 F 
ATOM     98  C   UNL A   1      45.924  27.236  36.421  1.00  0.00     0.200 A 
ATOM     99  F   UNL A   1      47.390  28.907  35.725  1.00  0.00    -0.200 F 
ATOM    100  F   UNL A   1      46.866  26.635  37.141  1.00  0.00    -0.200 F 
ENDBRANCH  67  90
ENDBRANCH  41  42
ENDBRANCH  34  36
ENDBRANCH  33  34
ENDBRANCH  32  33
ENDBRANCH  31  32
ENDBRANCH  30  31
ENDBRANCH   1  30
TORSDOF 19
ENDMDL
MODEL 3
REMARK VINA RESULT:     -12.1      1.844      3.286
REMARK SMILES O=C(OCCOCCOCCOC(=O)c1ccc(-c2c3nc(c(-c4c(F)c(F)c(F)c(F)c4F)c4ccc([nH]4)c(-c4c(F)c(F)c(F)c(F)c4F)c4nc(c(-c5c(F)c(F)c(F)c(F)c5F)c5ccc2[nH]5)C=C4)C=C3)cc1)C1=Cc2cc(S(F)(F)(F)(F)F)cc(Br)c2O[C@H]1C(F)(F)F
REMARK SMILES IDX 8 1 7 2 6 3 5 4 4 5 3 6 2 7 1 8 78 9 79 10 94 11 80 12 93 13
REMARK SMILES IDX 81 14 92 15 82 16 90 17 89 18 91 19 95 20 96 21 97 22 98 23
REMARK SMILES IDX 83 24 84 25 85 26 86 27 87 28 88 29 9 30 10 31 11 32 12 33
REMARK SMILES IDX 13 34 14 35 15 36 16 37 77 38 17 39 76 40 18 41 19 42 20 43
REMARK SMILES IDX 70 44 21 45 75 46 69 47 71 48 22 49 74 50 68 51 67 52 23 54
REMARK SMILES IDX 55 55 35 56 54 57 36 58 39 59 53 60 72 61 37 62 38 63 52 65
REMARK SMILES IDX 73 66 40 67 24 68 25 69 33 70 26 71 27 72 31 73 34 74 28 75
REMARK SMILES IDX 29 76 32 77 30 78 56 79 57 80 65 81 58 82 59 83 63 84 66 85
REMARK SMILES IDX 60 86 61 87 64 88 62 89 41 90 42 91 50 92 43 93 44 94 48 95
REMARK SMILES IDX 51 96 45 97 46 98 49 99 47 100
REMARK H PARENT 71 53 39 64
REMARK Flexibility Score: inf
ROOT
ATOM      1  C   UNL A   1      32.741  30.180  26.706  1.00  0.00     0.188 C 
ENDROOT
BRANCH   1   2
ATOM      2  C   UNL A   1      32.630  28.672  26.857  1.00  0.00     0.188 C 
BRANCH   2   3
ATOM      3  O   UNL A   1      33.715  28.048  26.186  1.00  0.00    -0.376 OA
BRANCH   3   4
ATOM      4  C   UNL A   1      33.825  28.575  24.871  1.00  0.00     0.202 C 
BRANCH   4   5
ATOM      5  C   UNL A   1      33.633  27.457  23.860  1.00  0.00     0.261 C 
BRANCH   5   6
ATOM      6  O   UNL A   1      32.960  26.370  24.479  1.00  0.00    -0.460 OA
BRANCH   6   7
ATOM      7  C   UNL A   1      32.170  25.487  23.697  1.00  0.00     0.338 C 
ATOM      8  O   UNL A   1      32.561  25.140  22.539  1.00  0.00    -0.246 OA
BRANCH   7   9
ATOM      9  C   UNL A   1      30.855  24.957  24.246  1.00  0.00     0.087 C 
ATOM     10  C   UNL A   1      30.794  23.705  24.772  1.00  0.00     0.027 C 
ATOM     11  C   UNL A   1      29.608  25.827  24.206  1.00  0.00     0.316 C 
ATOM     12  C   UNL A   1      32.039  22.835  24.812  1.00  0.00     0.020 A 
ATOM     13  O   UNL A   1      33.386  24.643  25.563  1.00  0.00    -0.474 OA
ATOM     14  C   UNL A   1      31.881  21.555  24.305  1.00  0.00     0.036 A 
ATOM     15  C   UNL A   1      33.228  23.279  25.199  1.00  0.00     0.142 A 
ATOM     16  C   UNL A   1      32.997  20.712  24.516  1.00  0.00     0.109 A 
ATOM     17  C   UNL A   1      34.308  22.431  25.253  1.00  0.00     0.062 A 
ATOM     18  C   UNL A   1      34.210  21.137  24.823  1.00  0.00     0.044 A 
ATOM     19  Br  UNL A   1      36.018  23.087  25.954  1.00  0.00    -0.047 Br
BRANCH  11  20
ATOM     20  C   UNL A   1      29.947  27.167  23.575  1.00  0.00     0.430 C 
ATOM     21  F   UNL A   1      30.656  27.897  24.431  1.00  0.00    -0.167 F 
ATOM     22  F   UNL A   1      30.658  26.969  22.468  1.00  0.00    -0.167 F 
ATOM     23  F   UNL A   1      28.823  27.809  23.270  1.00  0.00    -0.167 F 
ENDBRANCH  11  20
BRANCH  16  24
ATOM     24  S   UNL A   1      32.747  18.927  24.355  1.00  0.00     0.310 S 
ATOM     25  F   UNL A   1      34.308  18.670  24.251  1.00  0.00    -0.094 F 
ATOM     26  F   UNL A   1      32.736  19.082  22.788  1.00  0.00    -0.094 F 
ATOM     27  F   UNL A   1      32.548  17.389  24.233  1.00  0.00    -0.094 F 
ATOM     28  F   UNL A   1      32.901  18.774  25.921  1.00  0.00    -0.094 F 
ATOM     29  F   UNL A   1      33.062  20.470  24.490  1.00  0.00    -0.094 F 
ENDBRANCH  16  24
ENDBRANCH   7   9
ENDBRANCH   6   7
ENDBRANCH   5   6
ENDBRANCH   4   5
ENDBRANCH   3   4
ENDBRANCH   2   3
ENDBRANCH   1   2
BRANCH   1  30
ATOM     30  O   UNL A   1      31.611  30.670  26.000  1.00  0.00    -0.376 OA
BRANCH  30  31
ATOM     31  C   UNL A   1      31.258  31.950  26.504  1.00  0.00     0.202 C 
BRANCH  31  32
ATOM     32  C   UNL A   1      32.446  32.553  27.235  1.00  0.00     0.261 C 
BRANCH  32  33
ATOM     33  O   UNL A   1      32.152  33.897  27.588  1.00  0.00    -0.460 OA
BRANCH  33  34
ATOM     34  C   UNL A   1      32.972  34.581  28.525  1.00  0.00     0.338 C 
ATOM     35  O   UNL A   1      32.673  35.761  28.889  1.00  0.00    -0.246 OA
BRANCH  34  36
ATOM     36  C   UNL A   1      34.206  33.900  29.092  1.00  0.00     0.060 A 
ATOM     37  C   UNL A   1      34.026  32.991  30.121  1.00  0.00     0.016 A 
ATOM     38  C   UNL A   1      35.421  34.297  28.730  1.00  0.00     0.016 A 
ATOM     39  C   UNL A   1      35.184  32.772  30.904  1.00  0.00     0.010 A 
ATOM     40  C   UNL A   1      36.524  33.935  29.463  1.00  0.00     0.010 A 
ATOM     41  C   UNL A   1      36.412  33.086  30.529  1.00  0.00    -0.014 A 
BRANCH  41  42
ATOM     42  C   UNL A   1      37.633  32.530  31.243  1.00  0.00     0.031 A 
ATOM     43  C   UNL A   1      37.990  32.954  32.524  1.00  0.00     0.074 A 
ATOM     44  C   UNL A   1      38.252  31.490  30.572  1.00  0.00     0.049 A 
ATOM     45  N   UNL A   1      38.927  32.438  33.321  1.00  0.00    -0.248 NA
ATOM     46  C   UNL A   1      37.357  34.082  33.225  1.00  0.00     0.031 C 
ATOM     47  C   UNL A   1      37.893  31.050  29.283  1.00  0.00     0.029 A 
ATOM     48  N   UNL A   1      39.297  30.707  31.007  1.00  0.00    -0.354 N 
ATOM     49  C   UNL A   1      38.964  33.100  34.479  1.00  0.00     0.074 A 
ATOM     50  C   UNL A   1      37.959  34.171  34.432  1.00  0.00     0.031 C 
ATOM     51  C   UNL A   1      38.717  30.025  28.942  1.00  0.00     0.029 A 
ATOM     52  C   UNL A   1      39.606  29.806  30.012  1.00  0.00     0.049 A 
ATOM     53  H   UNL A   1      39.748  30.778  31.880  1.00  0.00     0.167 HD
ATOM     54  C   UNL A   1      39.794  32.852  35.573  1.00  0.00     0.037 A 
ATOM     55  C   UNL A   1      40.601  28.842  30.017  1.00  0.00     0.037 A 
ATOM     56  C   UNL A   1      40.761  31.859  35.594  1.00  0.00     0.049 A 
ATOM     57  C   UNL A   1      41.471  28.632  31.088  1.00  0.00     0.074 A 
ATOM     58  C   UNL A   1      41.601  31.592  36.692  1.00  0.00     0.029 A 
ATOM     59  N   UNL A   1      41.085  30.976  34.589  1.00  0.00    -0.354 N 
ATOM     60  N   UNL A   1      41.482  29.268  32.261  1.00  0.00    -0.248 NA
ATOM     61  C   UNL A   1      42.551  27.635  31.092  1.00  0.00     0.031 C 
ATOM     62  C   UNL A   1      42.427  30.566  36.350  1.00  0.00     0.029 A 
ATOM     63  C   UNL A   1      42.116  30.177  35.032  1.00  0.00     0.049 A 
ATOM     64  H   UNL A   1      40.654  30.923  33.705  1.00  0.00     0.167 HD
ATOM     65  C   UNL A   1      42.447  28.778  33.042  1.00  0.00     0.074 A 
ATOM     66  C   UNL A   1      43.154  27.727  32.298  1.00  0.00     0.031 C 
ATOM     67  C   UNL A   1      42.764  29.164  34.344  1.00  0.00     0.037 A 
BRANCH  54  68
ATOM     68  C   UNL A   1      39.628  33.719  36.811  1.00  0.00     0.064 A 
ATOM     69  C   UNL A   1      38.835  33.204  37.823  1.00  0.00     0.173 A 
ATOM     70  C   UNL A   1      40.255  34.882  36.950  1.00  0.00     0.173 A 
ATOM     71  F   UNL A   1      38.399  31.948  37.833  1.00  0.00    -0.203 F 
ATOM     72  C   UNL A   1      38.532  34.136  38.843  1.00  0.00     0.198 A 
ATOM     73  C   UNL A   1      40.012  35.679  38.042  1.00  0.00     0.198 A 
ATOM     74  F   UNL A   1      41.125  35.276  36.026  1.00  0.00    -0.203 F 
ATOM     75  F   UNL A   1      37.510  33.859  39.648  1.00  0.00    -0.200 F 
ATOM     76  C   UNL A   1      39.193  35.259  39.052  1.00  0.00     0.200 A 
ATOM     77  F   UNL A   1      40.583  36.879  38.117  1.00  0.00    -0.200 F 
ATOM     78  F   UNL A   1      39.068  35.945  40.185  1.00  0.00    -0.200 F 
ENDBRANCH  54  68
BRANCH  55  79
ATOM     79  C   UNL A   1      40.756  27.965  28.785  1.00  0.00     0.064 A 
ATOM     80  C   UNL A   1      41.607  28.313  27.750  1.00  0.00     0.173 A 
ATOM     81  C   UNL A   1      39.990  26.881  28.713  1.00  0.00     0.173 A 
ATOM     82  F   UNL A   1      42.565  29.227  27.875  1.00  0.00    -0.203 F 
ATOM     83  C   UNL A   1      41.366  27.606  26.547  1.00  0.00     0.198 A 
ATOM     84  C   UNL A   1      39.907  26.160  27.547  1.00  0.00     0.198 A 
ATOM     85  F   UNL A   1      39.298  26.492  29.780  1.00  0.00    -0.203 F 
ATOM     86  F   UNL A   1      41.870  28.108  25.424  1.00  0.00    -0.200 F 
ATOM     87  C   UNL A   1      40.677  26.483  26.464  1.00  0.00     0.200 A 
ATOM     88  F   UNL A   1      39.066  25.133  27.469  1.00  0.00    -0.200 F 
ATOM     89  F   UNL A   1      40.727  25.709  25.383  1.00  0.00    -0.200 F 
ENDBRANCH  55  79
BRANCH  67  90
ATOM     90  C   UNL A   1      43.890  28.428  35.053  1.00  0.00     0.064 A 
ATOM     91  C   UNL A   1      45.173  28.912  34.855  1.00  0.00     0.173 A 
ATOM     92  C   UNL A   1      43.674  27.304  35.728  1.00  0.00     0.173 A 
ATOM     93  F   UNL A   1      45.425  30.141  34.416  1.00  0.00    -0.203 F 
ATOM     94  C   UNL A   1      46.191  27.978  35.163  1.00  0.00     0.198 A 
ATOM     95  C   UNL A   1      44.724  26.509  36.116  1.00  0.00     0.198 A 
ATOM     96  F   UNL A   1      42.429  26.946  36.030  1.00  0.00    -0.203 F 
ATOM     97  F   UNL A   1      47.408  28.207  34.677  1.00  0.00    -0.200 F 
ATOM     98  C   UNL A   1      46.017  26.896  35.900  1.00  0.00     0.200 A 
ATOM     99  F   UNL A   1      44.479  25.345  36.711  1.00  0.00    -0.200 F 
ATOM    100  F   UNL A   1      47.045  26.219  36.405  1.00  0.00    -0.200 F 
ENDBRANCH  67  90
ENDBRANCH  41  42
ENDBRANCH  34  36
ENDBRANCH  33  34
ENDBRANCH  32  33
ENDBRANCH  31  32
ENDBRANCH  30  31
ENDBRANCH   1  30
TORSDOF 19
ENDMDL
