MODEL 1
REMARK VINA RESULT:     -11.6      0.000      0.000
REMARK SMILES Cc1ccc(N2C(=O)C[C@H](Sc3ccccc3C(=O)OCCOCCOCCOC(=O)c3ccc(-c4c5nc(c(-c6c(F)c(F)c(F)c(F)c6F)c6ccc([nH]6)c(-c6c(F)c(F)c(F)c(F)c6F)c6nc(c(-c7c(F)c(F)c(F)c(F)c7F)c7ccc4[nH]7)C=C6)C=C5)cc3)C2=O)cc1
REMARK SMILES IDX 24 1 23 2 22 3 21 4 20 5 18 6 19 7 17 8 12 9 13 10 14 11
REMARK SMILES IDX 16 12 15 13 11 14 10 15 6 16 7 17 95 18 8 19 9 20 96 21 5 22
REMARK SMILES IDX 1 23 2 24 3 25 98 26 4 27 97 28 25 29 26 30 27 31 28 32
REMARK SMILES IDX 29 33 30 34 31 35 32 36 33 37 94 38 34 39 93 40 35 41 36 42
REMARK SMILES IDX 37 43 87 44 38 45 92 46 86 47 88 48 39 49 91 50 85 51 84 52
REMARK SMILES IDX 40 54 72 55 52 56 71 57 53 58 56 59 70 60 89 61 54 62 55 63
REMARK SMILES IDX 69 65 90 66 57 67 41 68 42 69 50 70 43 71 44 72 48 73 51 74
REMARK SMILES IDX 45 75 46 76 49 77 47 78 73 79 74 80 82 81 75 82 76 83 80 84
REMARK SMILES IDX 83 85 77 86 78 87 81 88 79 89 58 90 59 91 67 92 60 93 61 94
REMARK SMILES IDX 65 95 68 96 62 97 63 98 66 99 64 100
REMARK H PARENT 88 53 56 64
REMARK Flexibility Score: inf
ROOT
ATOM      1  C   UNL A   1      35.376  24.144  24.474  1.00  0.00     0.188 C 
ENDROOT
BRANCH   1   2
ATOM      2  O   UNL A   1      34.724  24.495  23.273  1.00  0.00    -0.376 OA
BRANCH   2   3
ATOM      3  C   UNL A   1      34.053  25.741  23.330  1.00  0.00     0.202 C 
BRANCH   3   4
ATOM      4  C   UNL A   1      32.994  26.111  22.262  1.00  0.00     0.261 C 
BRANCH   4   5
ATOM      5  O   UNL A   1      31.880  27.152  22.163  1.00  0.00    -0.460 OA
BRANCH   5   6
ATOM      6  C   UNL A   1      30.841  27.657  22.880  1.00  0.00     0.339 C 
ATOM      7  O   UNL A   1      29.768  27.836  22.378  1.00  0.00    -0.246 OA
BRANCH   6   8
ATOM      8  C   UNL A   1      31.143  28.021  24.313  1.00  0.00     0.073 A 
ATOM      9  C   UNL A   1      31.239  27.049  25.315  1.00  0.00     0.023 A 
ATOM     10  C   UNL A   1      31.750  27.403  26.581  1.00  0.00     0.016 A 
ATOM     11  C   UNL A   1      32.084  28.720  26.885  1.00  0.00     0.001 A 
ATOM     12  C   UNL A   1      31.269  29.362  24.711  1.00  0.00     0.017 A 
ATOM     13  C   UNL A   1      31.786  29.714  25.968  1.00  0.00     0.001 A 
BRANCH   9  14
ATOM     14  S   UNL A   1      30.419  25.463  25.240  1.00  0.00    -0.111 SA
BRANCH  14  15
ATOM     15  C   UNL A   1      31.745  24.298  25.544  1.00  0.00     0.151 C 
ATOM     16  N   UNL A   1      32.396  22.107  25.416  1.00  0.00    -0.250 N 
ATOM     17  C   UNL A   1      32.574  22.488  26.726  1.00  0.00     0.235 C 
ATOM     18  C   UNL A   1      31.800  23.085  24.648  1.00  0.00     0.247 C 
ATOM     19  O   UNL A   1      33.155  21.914  27.633  1.00  0.00    -0.274 OA
ATOM     20  C   UNL A   1      31.745  23.695  26.923  1.00  0.00     0.126 C 
ATOM     21  O   UNL A   1      31.508  23.046  23.463  1.00  0.00    -0.273 OA
BRANCH  16  22
ATOM     22  C   UNL A   1      32.928  20.913  24.939  1.00  0.00     0.052 A 
ATOM     23  C   UNL A   1      34.746  17.094  24.347  1.00  0.00     0.044 C 
ATOM     24  C   UNL A   1      34.092  18.432  24.493  1.00  0.00    -0.051 A 
ATOM     25  C   UNL A   1      34.897  19.537  24.777  1.00  0.00     0.005 A 
ATOM     26  C   UNL A   1      32.704  18.595  24.360  1.00  0.00     0.005 A 
ATOM     27  C   UNL A   1      34.315  20.766  25.014  1.00  0.00     0.027 A 
ATOM     28  C   UNL A   1      32.115  19.845  24.564  1.00  0.00     0.027 A 
ENDBRANCH  16  22
ENDBRANCH  14  15
ENDBRANCH   9  14
ENDBRANCH   6   8
ENDBRANCH   5   6
ENDBRANCH   4   5
ENDBRANCH   3   4
ENDBRANCH   2   3
ENDBRANCH   1   2
BRANCH   1  29
ATOM     29  C   UNL A   1      36.662  23.301  24.315  1.00  0.00     0.188 C 
BRANCH  29  30
ATOM     30  O   UNL A   1      37.090  22.727  25.552  1.00  0.00    -0.376 OA
BRANCH  30  31
ATOM     31  C   UNL A   1      38.123  21.762  25.547  1.00  0.00     0.202 C 
BRANCH  31  32
ATOM     32  C   UNL A   1      39.394  22.150  26.306  1.00  0.00     0.261 C 
BRANCH  32  33
ATOM     33  O   UNL A   1      39.945  20.979  26.939  1.00  0.00    -0.460 OA
BRANCH  33  34
ATOM     34  C   UNL A   1      41.055  20.468  26.355  1.00  0.00     0.338 C 
ATOM     35  O   UNL A   1      41.173  19.340  25.908  1.00  0.00    -0.246 OA
BRANCH  34  36
ATOM     36  C   UNL A   1      42.187  21.414  26.568  1.00  0.00     0.060 A 
ATOM     37  C   UNL A   1      42.488  21.828  27.860  1.00  0.00     0.016 A 
ATOM     38  C   UNL A   1      42.793  22.078  25.499  1.00  0.00     0.016 A 
ATOM     39  C   UNL A   1      43.253  22.992  28.051  1.00  0.00     0.010 A 
ATOM     40  C   UNL A   1      43.442  23.303  25.703  1.00  0.00     0.010 A 
ATOM     41  C   UNL A   1      43.564  23.860  26.986  1.00  0.00    -0.014 A 
BRANCH  41  42
ATOM     42  C   UNL A   1      44.057  25.305  27.049  1.00  0.00     0.031 A 
ATOM     43  C   UNL A   1      45.533  25.394  27.043  1.00  0.00     0.074 A 
ATOM     44  C   UNL A   1      43.413  26.544  27.086  1.00  0.00     0.049 A 
ATOM     45  N   UNL A   1      46.208  26.399  27.497  1.00  0.00    -0.248 NA
ATOM     46  C   UNL A   1      46.367  24.239  26.697  1.00  0.00     0.031 C 
ATOM     47  C   UNL A   1      43.823  27.700  26.278  1.00  0.00     0.029 A 
ATOM     48  N   UNL A   1      42.228  27.067  27.637  1.00  0.00    -0.354 N 
ATOM     49  C   UNL A   1      47.482  26.196  27.030  1.00  0.00     0.074 A 
ATOM     50  C   UNL A   1      47.576  24.770  26.873  1.00  0.00     0.031 C 
ATOM     51  C   UNL A   1      42.979  28.743  26.462  1.00  0.00     0.029 A 
ATOM     52  C   UNL A   1      41.995  28.422  27.491  1.00  0.00     0.049 A 
ATOM     53  H   UNL A   1      41.588  26.488  28.110  1.00  0.00     0.167 HD
ATOM     54  C   UNL A   1      48.142  27.250  26.465  1.00  0.00     0.037 A 
ATOM     55  C   UNL A   1      41.367  29.249  28.403  1.00  0.00     0.037 A 
ATOM     56  C   UNL A   1      47.424  28.519  26.698  1.00  0.00     0.049 A 
ATOM     57  C   UNL A   1      42.432  30.174  28.929  1.00  0.00     0.074 A 
ATOM     58  C   UNL A   1      46.724  29.363  25.848  1.00  0.00     0.029 A 
ATOM     59  N   UNL A   1      47.103  28.939  27.994  1.00  0.00    -0.354 N 
ATOM     60  N   UNL A   1      43.676  29.986  28.616  1.00  0.00    -0.248 NA
ATOM     61  C   UNL A   1      42.261  31.256  29.894  1.00  0.00     0.031 C 
ATOM     62  C   UNL A   1      46.015  30.304  26.628  1.00  0.00     0.029 A 
ATOM     63  C   UNL A   1      46.261  30.039  27.963  1.00  0.00     0.049 A 
ATOM     64  H   UNL A   1      47.432  28.511  28.816  1.00  0.00     0.167 HD
ATOM     65  C   UNL A   1      44.465  30.820  29.323  1.00  0.00     0.074 A 
ATOM     66  C   UNL A   1      43.542  31.602  30.123  1.00  0.00     0.031 C 
ATOM     67  C   UNL A   1      45.812  30.722  29.175  1.00  0.00     0.037 A 
BRANCH  54  68
ATOM     68  C   UNL A   1      49.191  27.072  25.360  1.00  0.00     0.064 A 
ATOM     69  C   UNL A   1      50.553  26.886  25.689  1.00  0.00     0.173 A 
ATOM     70  C   UNL A   1      48.957  27.151  23.969  1.00  0.00     0.173 A 
ATOM     71  F   UNL A   1      50.947  26.654  26.946  1.00  0.00    -0.203 F 
ATOM     72  C   UNL A   1      51.579  26.907  24.735  1.00  0.00     0.198 A 
ATOM     73  C   UNL A   1      49.981  27.204  23.017  1.00  0.00     0.198 A 
ATOM     74  F   UNL A   1      47.731  27.115  23.445  1.00  0.00    -0.203 F 
ATOM     75  F   UNL A   1      52.850  26.751  25.128  1.00  0.00    -0.200 F 
ATOM     76  C   UNL A   1      51.295  27.093  23.401  1.00  0.00     0.200 A 
ATOM     77  F   UNL A   1      49.670  27.349  21.720  1.00  0.00    -0.200 F 
ATOM     78  F   UNL A   1      52.274  27.124  22.488  1.00  0.00    -0.200 F 
ENDBRANCH  54  68
BRANCH  55  79
ATOM     79  C   UNL A   1      40.176  28.856  29.265  1.00  0.00     0.064 A 
ATOM     80  C   UNL A   1      40.388  28.283  30.535  1.00  0.00     0.173 A 
ATOM     81  C   UNL A   1      38.820  29.101  28.947  1.00  0.00     0.173 A 
ATOM     82  F   UNL A   1      41.611  27.836  30.864  1.00  0.00    -0.203 F 
ATOM     83  C   UNL A   1      39.369  28.168  31.496  1.00  0.00     0.198 A 
ATOM     84  C   UNL A   1      37.792  28.968  29.904  1.00  0.00     0.198 A 
ATOM     85  F   UNL A   1      38.478  29.598  27.750  1.00  0.00    -0.203 F 
ATOM     86  F   UNL A   1      39.644  27.709  32.726  1.00  0.00    -0.200 F 
ATOM     87  C   UNL A   1      38.078  28.552  31.191  1.00  0.00     0.200 A 
ATOM     88  F   UNL A   1      36.534  29.326  29.600  1.00  0.00    -0.200 F 
ATOM     89  F   UNL A   1      37.121  28.536  32.133  1.00  0.00    -0.200 F 
ENDBRANCH  55  79
BRANCH  67  90
ATOM     90  C   UNL A   1      46.781  31.423  30.055  1.00  0.00     0.064 A 
ATOM     91  C   UNL A   1      47.410  32.628  29.707  1.00  0.00     0.173 A 
ATOM     92  C   UNL A   1      47.044  30.922  31.344  1.00  0.00     0.173 A 
ATOM     93  F   UNL A   1      47.119  33.262  28.561  1.00  0.00    -0.203 F 
ATOM     94  C   UNL A   1      48.336  33.231  30.553  1.00  0.00     0.198 A 
ATOM     95  C   UNL A   1      47.922  31.559  32.210  1.00  0.00     0.198 A 
ATOM     96  F   UNL A   1      46.449  29.809  31.800  1.00  0.00    -0.203 F 
ATOM     97  F   UNL A   1      48.972  34.342  30.156  1.00  0.00    -0.200 F 
ATOM     98  C   UNL A   1      48.590  32.696  31.804  1.00  0.00     0.200 A 
ATOM     99  F   UNL A   1      48.111  31.064  33.440  1.00  0.00    -0.200 F 
ATOM    100  F   UNL A   1      49.468  33.286  32.624  1.00  0.00    -0.200 F 
ENDBRANCH  67  90
ENDBRANCH  41  42
ENDBRANCH  34  36
ENDBRANCH  33  34
ENDBRANCH  32  33
ENDBRANCH  31  32
ENDBRANCH  30  31
ENDBRANCH  29  30
ENDBRANCH   1  29
TORSDOF 20
ENDMDL
MODEL 2
REMARK VINA RESULT:     -11.5      1.966      7.371
REMARK SMILES Cc1ccc(N2C(=O)C[C@H](Sc3ccccc3C(=O)OCCOCCOCCOC(=O)c3ccc(-c4c5nc(c(-c6c(F)c(F)c(F)c(F)c6F)c6ccc([nH]6)c(-c6c(F)c(F)c(F)c(F)c6F)c6nc(c(-c7c(F)c(F)c(F)c(F)c7F)c7ccc4[nH]7)C=C6)C=C5)cc3)C2=O)cc1
REMARK SMILES IDX 24 1 23 2 22 3 21 4 20 5 18 6 19 7 17 8 12 9 13 10 14 11
REMARK SMILES IDX 16 12 15 13 11 14 10 15 6 16 7 17 95 18 8 19 9 20 96 21 5 22
REMARK SMILES IDX 1 23 2 24 3 25 98 26 4 27 97 28 25 29 26 30 27 31 28 32
REMARK SMILES IDX 29 33 30 34 31 35 32 36 33 37 94 38 34 39 93 40 35 41 36 42
REMARK SMILES IDX 37 43 87 44 38 45 92 46 86 47 88 48 39 49 91 50 85 51 84 52
REMARK SMILES IDX 40 54 72 55 52 56 71 57 53 58 56 59 70 60 89 61 54 62 55 63
REMARK SMILES IDX 69 65 90 66 57 67 41 68 42 69 50 70 43 71 44 72 48 73 51 74
REMARK SMILES IDX 45 75 46 76 49 77 47 78 73 79 74 80 82 81 75 82 76 83 80 84
REMARK SMILES IDX 83 85 77 86 78 87 81 88 79 89 58 90 59 91 67 92 60 93 61 94
REMARK SMILES IDX 65 95 68 96 62 97 63 98 66 99 64 100
REMARK H PARENT 88 53 56 64
REMARK Flexibility Score: inf
ROOT
ATOM      1  C   UNL A   1      35.011  24.439  24.300  1.00  0.00     0.188 C 
ENDROOT
BRANCH   1   2
ATOM      2  O   UNL A   1      34.541  23.836  23.114  1.00  0.00    -0.376 OA
BRANCH   2   3
ATOM      3  C   UNL A   1      33.777  24.704  22.295  1.00  0.00     0.202 C 
BRANCH   3   4
ATOM      4  C   UNL A   1      33.220  26.031  22.867  1.00  0.00     0.261 C 
BRANCH   4   5
ATOM      5  O   UNL A   1      32.096  26.988  22.471  1.00  0.00    -0.460 OA
BRANCH   5   6
ATOM      6  C   UNL A   1      31.066  27.689  23.015  1.00  0.00     0.339 C 
ATOM      7  O   UNL A   1      30.081  27.941  22.380  1.00  0.00    -0.246 OA
BRANCH   6   8
ATOM      8  C   UNL A   1      31.266  28.165  24.432  1.00  0.00     0.073 A 
ATOM      9  C   UNL A   1      31.192  27.290  25.522  1.00  0.00     0.023 A 
ATOM     10  C   UNL A   1      31.614  27.725  26.794  1.00  0.00     0.016 A 
ATOM     11  C   UNL A   1      32.027  29.037  27.012  1.00  0.00     0.001 A 
ATOM     12  C   UNL A   1      31.468  29.526  24.721  1.00  0.00     0.017 A 
ATOM     13  C   UNL A   1      31.896  29.957  25.985  1.00  0.00     0.001 A 
BRANCH   9  14
ATOM     14  S   UNL A   1      30.253  25.768  25.508  1.00  0.00    -0.111 SA
BRANCH  14  15
ATOM     15  C   UNL A   1      31.519  24.503  25.477  1.00  0.00     0.151 C 
ATOM     16  N   UNL A   1      31.933  22.253  25.392  1.00  0.00    -0.250 N 
ATOM     17  C   UNL A   1      32.583  22.725  26.509  1.00  0.00     0.235 C 
ATOM     18  C   UNL A   1      31.175  23.218  24.764  1.00  0.00     0.247 C 
ATOM     19  O   UNL A   1      33.404  22.173  27.225  1.00  0.00    -0.274 OA
ATOM     20  C   UNL A   1      31.959  24.023  26.834  1.00  0.00     0.126 C 
ATOM     21  O   UNL A   1      30.486  23.108  23.762  1.00  0.00    -0.273 OA
BRANCH  16  22
ATOM     22  C   UNL A   1      32.183  20.973  24.905  1.00  0.00     0.052 A 
ATOM     23  C   UNL A   1      33.741  17.402  23.156  1.00  0.00     0.044 C 
ATOM     24  C   UNL A   1      33.146  18.619  23.791  1.00  0.00    -0.051 A 
ATOM     25  C   UNL A   1      32.701  19.650  22.961  1.00  0.00     0.005 A 
ATOM     26  C   UNL A   1      33.036  18.747  25.185  1.00  0.00     0.005 A 
ATOM     27  C   UNL A   1      32.237  20.825  23.517  1.00  0.00     0.027 A 
ATOM     28  C   UNL A   1      32.534  19.922  25.750  1.00  0.00     0.027 A 
ENDBRANCH  16  22
ENDBRANCH  14  15
ENDBRANCH   9  14
ENDBRANCH   6   8
ENDBRANCH   5   6
ENDBRANCH   4   5
ENDBRANCH   3   4
ENDBRANCH   2   3
ENDBRANCH   1   2
BRANCH   1  29
ATOM     29  C   UNL A   1      36.096  23.649  25.067  1.00  0.00     0.188 C 
BRANCH  29  30
ATOM     30  O   UNL A   1      35.962  22.237  24.895  1.00  0.00    -0.376 OA
BRANCH  30  31
ATOM     31  C   UNL A   1      36.712  21.365  25.716  1.00  0.00     0.202 C 
BRANCH  31  32
ATOM     32  C   UNL A   1      38.123  21.041  25.221  1.00  0.00     0.261 C 
BRANCH  32  33
ATOM     33  O   UNL A   1      39.086  21.616  26.125  1.00  0.00    -0.460 OA
BRANCH  33  34
ATOM     34  C   UNL A   1      40.253  20.939  26.243  1.00  0.00     0.338 C 
ATOM     35  O   UNL A   1      40.395  19.733  26.137  1.00  0.00    -0.246 OA
BRANCH  34  36
ATOM     36  C   UNL A   1      41.294  21.867  26.770  1.00  0.00     0.060 A 
ATOM     37  C   UNL A   1      41.500  21.944  28.142  1.00  0.00     0.016 A 
ATOM     38  C   UNL A   1      41.895  22.828  25.953  1.00  0.00     0.016 A 
ATOM     39  C   UNL A   1      42.158  23.063  28.679  1.00  0.00     0.010 A 
ATOM     40  C   UNL A   1      42.432  23.995  26.511  1.00  0.00     0.010 A 
ATOM     41  C   UNL A   1      42.449  24.200  27.900  1.00  0.00    -0.014 A 
BRANCH  41  42
ATOM     42  C   UNL A   1      42.820  25.607  28.369  1.00  0.00     0.031 A 
ATOM     43  C   UNL A   1      41.685  26.548  28.266  1.00  0.00     0.074 A 
ATOM     44  C   UNL A   1      43.984  26.174  28.892  1.00  0.00     0.049 A 
ATOM     45  N   UNL A   1      41.804  27.833  28.185  1.00  0.00    -0.248 NA
ATOM     46  C   UNL A   1      40.315  26.074  28.040  1.00  0.00     0.031 C 
ATOM     47  C   UNL A   1      44.001  27.079  30.048  1.00  0.00     0.029 A 
ATOM     48  N   UNL A   1      45.371  26.016  28.713  1.00  0.00    -0.354 N 
ATOM     49  C   UNL A   1      40.536  28.310  28.406  1.00  0.00     0.074 A 
ATOM     50  C   UNL A   1      39.677  27.241  27.973  1.00  0.00     0.031 C 
ATOM     51  C   UNL A   1      45.269  27.420  30.378  1.00  0.00     0.029 A 
ATOM     52  C   UNL A   1      46.210  26.867  29.409  1.00  0.00     0.049 A 
ATOM     53  H   UNL A   1      45.731  25.323  28.114  1.00  0.00     0.167 HD
ATOM     54  C   UNL A   1      40.377  29.350  29.276  1.00  0.00     0.037 A 
ATOM     55  C   UNL A   1      47.421  27.367  28.967  1.00  0.00     0.037 A 
ATOM     56  C   UNL A   1      41.676  29.951  29.639  1.00  0.00     0.049 A 
ATOM     57  C   UNL A   1      47.210  28.841  28.751  1.00  0.00     0.074 A 
ATOM     58  C   UNL A   1      42.406  29.948  30.819  1.00  0.00     0.029 A 
ATOM     59  N   UNL A   1      42.551  30.425  28.656  1.00  0.00    -0.354 N 
ATOM     60  N   UNL A   1      46.022  29.353  28.840  1.00  0.00    -0.248 NA
ATOM     61  C   UNL A   1      48.204  29.820  28.318  1.00  0.00     0.031 C 
ATOM     62  C   UNL A   1      43.699  30.450  30.551  1.00  0.00     0.029 A 
ATOM     63  C   UNL A   1      43.781  30.753  29.203  1.00  0.00     0.049 A 
ATOM     64  H   UNL A   1      42.323  30.516  27.703  1.00  0.00     0.167 HD
ATOM     65  C   UNL A   1      46.040  30.643  28.450  1.00  0.00     0.074 A 
ATOM     66  C   UNL A   1      47.428  30.904  28.122  1.00  0.00     0.031 C 
ATOM     67  C   UNL A   1      44.868  31.329  28.415  1.00  0.00     0.037 A 
BRANCH  54  68
ATOM     68  C   UNL A   1      39.104  29.542  30.110  1.00  0.00     0.064 A 
ATOM     69  C   UNL A   1      38.220  30.610  29.834  1.00  0.00     0.173 A 
ATOM     70  C   UNL A   1      38.723  28.778  31.237  1.00  0.00     0.173 A 
ATOM     71  F   UNL A   1      38.344  31.357  28.731  1.00  0.00    -0.203 F 
ATOM     72  C   UNL A   1      37.149  30.952  30.670  1.00  0.00     0.198 A 
ATOM     73  C   UNL A   1      37.674  29.134  32.091  1.00  0.00     0.198 A 
ATOM     74  F   UNL A   1      39.297  27.614  31.540  1.00  0.00    -0.203 F 
ATOM     75  F   UNL A   1      36.371  31.996  30.355  1.00  0.00    -0.200 F 
ATOM     76  C   UNL A   1      36.892  30.230  31.814  1.00  0.00     0.200 A 
ATOM     77  F   UNL A   1      37.425  28.389  33.178  1.00  0.00    -0.200 F 
ATOM     78  F   UNL A   1      35.874  30.559  32.620  1.00  0.00    -0.200 F 
ENDBRANCH  54  68
BRANCH  55  79
ATOM     79  C   UNL A   1      48.437  26.591  28.141  1.00  0.00     0.064 A 
ATOM     80  C   UNL A   1      48.229  26.415  26.758  1.00  0.00     0.173 A 
ATOM     81  C   UNL A   1      49.668  26.088  28.621  1.00  0.00     0.173 A 
ATOM     82  F   UNL A   1      47.023  26.683  26.231  1.00  0.00    -0.203 F 
ATOM     83  C   UNL A   1      49.242  25.979  25.888  1.00  0.00     0.198 A 
ATOM     84  C   UNL A   1      50.680  25.632  27.750  1.00  0.00     0.198 A 
ATOM     85  F   UNL A   1      49.969  26.149  29.926  1.00  0.00    -0.203 F 
ATOM     86  F   UNL A   1      49.023  25.924  24.565  1.00  0.00    -0.200 F 
ATOM     87  C   UNL A   1      50.483  25.628  26.382  1.00  0.00     0.200 A 
ATOM     88  F   UNL A   1      51.880  25.275  28.236  1.00  0.00    -0.200 F 
ATOM     89  F   UNL A   1      51.483  25.304  25.547  1.00  0.00    -0.200 F 
ENDBRANCH  55  79
BRANCH  67  90
ATOM     90  C   UNL A   1      44.728  32.672  27.796  1.00  0.00     0.064 A 
ATOM     91  C   UNL A   1      44.163  32.883  26.529  1.00  0.00     0.173 A 
ATOM     92  C   UNL A   1      45.099  33.819  28.522  1.00  0.00     0.173 A 
ATOM     93  F   UNL A   1      43.649  31.870  25.815  1.00  0.00    -0.203 F 
ATOM     94  C   UNL A   1      44.084  34.158  25.977  1.00  0.00     0.198 A 
ATOM     95  C   UNL A   1      44.962  35.094  27.992  1.00  0.00     0.198 A 
ATOM     96  F   UNL A   1      45.594  33.733  29.766  1.00  0.00    -0.203 F 
ATOM     97  F   UNL A   1      43.607  34.313  24.734  1.00  0.00    -0.200 F 
ATOM     98  C   UNL A   1      44.483  35.262  26.709  1.00  0.00     0.200 A 
ATOM     99  F   UNL A   1      45.294  36.157  28.737  1.00  0.00    -0.200 F 
ATOM    100  F   UNL A   1      44.390  36.489  26.184  1.00  0.00    -0.200 F 
ENDBRANCH  67  90
ENDBRANCH  41  42
ENDBRANCH  34  36
ENDBRANCH  33  34
ENDBRANCH  32  33
ENDBRANCH  31  32
ENDBRANCH  30  31
ENDBRANCH  29  30
ENDBRANCH   1  29
TORSDOF 20
ENDMDL
MODEL 3
REMARK VINA RESULT:     -11.3      6.197     11.166
REMARK SMILES Cc1ccc(N2C(=O)C[C@H](Sc3ccccc3C(=O)OCCOCCOCCOC(=O)c3ccc(-c4c5nc(c(-c6c(F)c(F)c(F)c(F)c6F)c6ccc([nH]6)c(-c6c(F)c(F)c(F)c(F)c6F)c6nc(c(-c7c(F)c(F)c(F)c(F)c7F)c7ccc4[nH]7)C=C6)C=C5)cc3)C2=O)cc1
REMARK SMILES IDX 24 1 23 2 22 3 21 4 20 5 18 6 19 7 17 8 12 9 13 10 14 11
REMARK SMILES IDX 16 12 15 13 11 14 10 15 6 16 7 17 95 18 8 19 9 20 96 21 5 22
REMARK SMILES IDX 1 23 2 24 3 25 98 26 4 27 97 28 25 29 26 30 27 31 28 32
REMARK SMILES IDX 29 33 30 34 31 35 32 36 33 37 94 38 34 39 93 40 35 41 36 42
REMARK SMILES IDX 37 43 87 44 38 45 92 46 86 47 88 48 39 49 91 50 85 51 84 52
REMARK SMILES IDX 40 54 72 55 52 56 71 57 53 58 56 59 70 60 89 61 54 62 55 63
REMARK SMILES IDX 69 65 90 66 57 67 41 68 42 69 50 70 43 71 44 72 48 73 51 74
REMARK SMILES IDX 45 75 46 76 49 77 47 78 73 79 74 80 82 81 75 82 76 83 80 84
REMARK SMILES IDX 83 85 77 86 78 87 81 88 79 89 58 90 59 91 67 92 60 93 61 94
REMARK SMILES IDX 65 95 68 96 62 97 63 98 66 99 64 100
REMARK H PARENT 88 53 56 64
REMARK Flexibility Score: inf
ROOT
ATOM      1  C   UNL A   1      41.711  20.173  27.454  1.00  0.00     0.188 C 
ENDROOT
BRANCH   1   2
ATOM      2  O   UNL A   1      40.410  20.692  27.283  1.00  0.00    -0.376 OA
BRANCH   2   3
ATOM      3  C   UNL A   1      40.382  21.987  26.708  1.00  0.00     0.202 C 
BRANCH   3   4
ATOM      4  C   UNL A   1      40.387  23.245  27.611  1.00  0.00     0.261 C 
BRANCH   4   5
ATOM      5  O   UNL A   1      40.436  24.752  27.360  1.00  0.00    -0.460 OA
BRANCH   5   6
ATOM      6  C   UNL A   1      40.305  25.935  28.015  1.00  0.00     0.339 C 
ATOM      7  O   UNL A   1      39.647  26.024  29.014  1.00  0.00    -0.246 OA
BRANCH   6   8
ATOM      8  C   UNL A   1      40.988  27.121  27.381  1.00  0.00     0.073 A 
ATOM      9  C   UNL A   1      41.244  28.295  28.098  1.00  0.00     0.023 A 
ATOM     10  C   UNL A   1      42.086  29.280  27.543  1.00  0.00     0.016 A 
ATOM     11  C   UNL A   1      42.604  29.150  26.257  1.00  0.00     0.001 A 
ATOM     12  C   UNL A   1      41.332  27.119  26.018  1.00  0.00     0.017 A 
ATOM     13  C   UNL A   1      42.178  28.095  25.469  1.00  0.00     0.001 A 
BRANCH   9  14
ATOM     14  S   UNL A   1      40.289  28.817  29.517  1.00  0.00    -0.111 SA
BRANCH  14  15
ATOM     15  C   UNL A   1      38.882  29.647  28.784  1.00  0.00     0.151 C 
ATOM     16  N   UNL A   1      36.960  30.821  29.196  1.00  0.00    -0.250 N 
ATOM     17  C   UNL A   1      36.599  29.748  28.415  1.00  0.00     0.235 C 
ATOM     18  C   UNL A   1      38.288  30.793  29.566  1.00  0.00     0.247 C 
ATOM     19  O   UNL A   1      35.546  29.522  27.839  1.00  0.00    -0.274 OA
ATOM     20  C   UNL A   1      37.691  28.762  28.534  1.00  0.00     0.126 C 
ATOM     21  O   UNL A   1      38.900  31.593  30.256  1.00  0.00    -0.273 OA
BRANCH  16  22
ATOM     22  C   UNL A   1      36.077  31.873  29.421  1.00  0.00     0.052 A 
ATOM     23  C   UNL A   1      33.938  35.310  30.781  1.00  0.00     0.044 C 
ATOM     24  C   UNL A   1      34.648  34.103  30.255  1.00  0.00    -0.051 A 
ATOM     25  C   UNL A   1      34.597  32.925  31.003  1.00  0.00     0.005 A 
ATOM     26  C   UNL A   1      35.361  34.133  29.045  1.00  0.00     0.005 A 
ATOM     27  C   UNL A   1      35.321  31.823  30.595  1.00  0.00     0.027 A 
ATOM     28  C   UNL A   1      36.066  33.007  28.611  1.00  0.00     0.027 A 
ENDBRANCH  16  22
ENDBRANCH  14  15
ENDBRANCH   9  14
ENDBRANCH   6   8
ENDBRANCH   5   6
ENDBRANCH   4   5
ENDBRANCH   3   4
ENDBRANCH   2   3
ENDBRANCH   1   2
BRANCH   1  29
ATOM     29  C   UNL A   1      42.346  19.535  26.198  1.00  0.00     0.188 C 
BRANCH  29  30
ATOM     30  O   UNL A   1      42.858  20.514  25.292  1.00  0.00    -0.376 OA
BRANCH  30  31
ATOM     31  C   UNL A   1      44.214  20.901  25.383  1.00  0.00     0.202 C 
BRANCH  31  32
ATOM     32  C   UNL A   1      44.493  22.391  25.174  1.00  0.00     0.261 C 
BRANCH  32  33
ATOM     33  O   UNL A   1      44.412  23.071  26.442  1.00  0.00    -0.460 OA
BRANCH  33  34
ATOM     34  C   UNL A   1      45.499  23.805  26.781  1.00  0.00     0.338 C 
ATOM     35  O   UNL A   1      46.628  23.655  26.345  1.00  0.00    -0.246 OA
BRANCH  34  36
ATOM     36  C   UNL A   1      45.152  24.659  27.952  1.00  0.00     0.060 A 
ATOM     37  C   UNL A   1      46.176  25.221  28.706  1.00  0.00     0.016 A 
ATOM     38  C   UNL A   1      43.849  24.716  28.453  1.00  0.00     0.016 A 
ATOM     39  C   UNL A   1      45.903  25.676  30.007  1.00  0.00     0.010 A 
ATOM     40  C   UNL A   1      43.621  25.053  29.794  1.00  0.00     0.010 A 
ATOM     41  C   UNL A   1      44.676  25.411  30.647  1.00  0.00    -0.014 A 
BRANCH  41  42
ATOM     42  C   UNL A   1      44.339  25.504  32.135  1.00  0.00     0.031 A 
ATOM     43  C   UNL A   1      43.829  26.840  32.509  1.00  0.00     0.074 A 
ATOM     44  C   UNL A   1      44.387  24.596  33.194  1.00  0.00     0.049 A 
ATOM     45  N   UNL A   1      43.865  27.328  33.707  1.00  0.00    -0.248 NA
ATOM     46  C   UNL A   1      43.417  27.815  31.494  1.00  0.00     0.031 C 
ATOM     47  C   UNL A   1      43.314  24.442  34.185  1.00  0.00     0.029 A 
ATOM     48  N   UNL A   1      45.209  23.522  33.587  1.00  0.00    -0.354 N 
ATOM     49  C   UNL A   1      43.040  28.424  33.655  1.00  0.00     0.074 A 
ATOM     50  C   UNL A   1      43.093  28.841  32.280  1.00  0.00     0.031 C 
ATOM     51  C   UNL A   1      43.597  23.443  35.054  1.00  0.00     0.029 A 
ATOM     52  C   UNL A   1      44.931  22.911  34.797  1.00  0.00     0.049 A 
ATOM     53  H   UNL A   1      45.954  23.218  33.021  1.00  0.00     0.167 HD
ATOM     54  C   UNL A   1      42.126  28.596  34.655  1.00  0.00     0.037 A 
ATOM     55  C   UNL A   1      45.854  22.374  35.674  1.00  0.00     0.037 A 
ATOM     56  C   UNL A   1      42.376  27.668  35.776  1.00  0.00     0.049 A 
ATOM     57  C   UNL A   1      45.841  23.263  36.889  1.00  0.00     0.074 A 
ATOM     58  C   UNL A   1      41.683  26.559  36.240  1.00  0.00     0.029 A 
ATOM     59  N   UNL A   1      43.620  27.629  36.417  1.00  0.00    -0.354 N 
ATOM     60  N   UNL A   1      45.167  24.370  36.882  1.00  0.00    -0.248 NA
ATOM     61  C   UNL A   1      46.620  23.095  38.112  1.00  0.00     0.031 C 
ATOM     62  C   UNL A   1      42.491  25.880  37.178  1.00  0.00     0.029 A 
ATOM     63  C   UNL A   1      43.694  26.556  37.290  1.00  0.00     0.049 A 
ATOM     64  H   UNL A   1      44.344  28.279  36.269  1.00  0.00     0.167 HD
ATOM     65  C   UNL A   1      45.427  25.081  37.998  1.00  0.00     0.074 A 
ATOM     66  C   UNL A   1      46.351  24.252  38.748  1.00  0.00     0.031 C 
ATOM     67  C   UNL A   1      44.858  26.307  38.137  1.00  0.00     0.037 A 
BRANCH  54  68
ATOM     68  C   UNL A   1      40.780  29.297  34.433  1.00  0.00     0.064 A 
ATOM     69  C   UNL A   1      39.863  28.802  33.479  1.00  0.00     0.173 A 
ATOM     70  C   UNL A   1      40.353  30.494  35.051  1.00  0.00     0.173 A 
ATOM     71  F   UNL A   1      40.033  27.612  32.893  1.00  0.00    -0.203 F 
ATOM     72  C   UNL A   1      38.709  29.497  33.095  1.00  0.00     0.198 A 
ATOM     73  C   UNL A   1      39.218  31.207  34.649  1.00  0.00     0.198 A 
ATOM     74  F   UNL A   1      40.965  31.008  36.118  1.00  0.00    -0.203 F 
ATOM     75  F   UNL A   1      37.901  28.975  32.163  1.00  0.00    -0.200 F 
ATOM     76  C   UNL A   1      38.400  30.714  33.662  1.00  0.00     0.200 A 
ATOM     77  F   UNL A   1      38.924  32.371  35.246  1.00  0.00    -0.200 F 
ATOM     78  F   UNL A   1      37.303  31.385  33.290  1.00  0.00    -0.200 F 
ENDBRANCH  54  68
BRANCH  55  79
ATOM     79  C   UNL A   1      47.114  21.623  35.267  1.00  0.00     0.064 A 
ATOM     80  C   UNL A   1      47.010  20.343  34.686  1.00  0.00     0.173 A 
ATOM     81  C   UNL A   1      48.429  22.138  35.328  1.00  0.00     0.173 A 
ATOM     82  F   UNL A   1      45.843  19.681  34.746  1.00  0.00    -0.203 F 
ATOM     83  C   UNL A   1      48.082  19.721  34.023  1.00  0.00     0.198 A 
ATOM     84  C   UNL A   1      49.511  21.506  34.680  1.00  0.00     0.198 A 
ATOM     85  F   UNL A   1      48.671  23.325  35.902  1.00  0.00    -0.203 F 
ATOM     86  F   UNL A   1      47.905  18.546  33.399  1.00  0.00    -0.200 F 
ATOM     87  C   UNL A   1      49.323  20.326  33.985  1.00  0.00     0.200 A 
ATOM     88  F   UNL A   1      50.720  22.088  34.659  1.00  0.00    -0.200 F 
ATOM     89  F   UNL A   1      50.324  19.785  33.272  1.00  0.00    -0.200 F 
ENDBRANCH  55  79
BRANCH  67  90
ATOM     90  C   UNL A   1      45.242  27.266  39.203  1.00  0.00     0.064 A 
ATOM     91  C   UNL A   1      45.911  28.474  38.952  1.00  0.00     0.173 A 
ATOM     92  C   UNL A   1      44.861  27.020  40.536  1.00  0.00     0.173 A 
ATOM     93  F   UNL A   1      46.192  28.869  37.701  1.00  0.00    -0.203 F 
ATOM     94  C   UNL A   1      46.278  29.326  39.988  1.00  0.00     0.198 A 
ATOM     95  C   UNL A   1      45.177  27.902  41.560  1.00  0.00     0.198 A 
ATOM     96  F   UNL A   1      44.166  25.925  40.877  1.00  0.00    -0.203 F 
ATOM     97  F   UNL A   1      46.982  30.434  39.717  1.00  0.00    -0.200 F 
ATOM     98  C   UNL A   1      45.911  29.040  41.291  1.00  0.00     0.200 A 
ATOM     99  F   UNL A   1      44.760  27.643  42.806  1.00  0.00    -0.200 F 
ATOM    100  F   UNL A   1      46.250  29.869  42.285  1.00  0.00    -0.200 F 
ENDBRANCH  67  90
ENDBRANCH  41  42
ENDBRANCH  34  36
ENDBRANCH  33  34
ENDBRANCH  32  33
ENDBRANCH  31  32
ENDBRANCH  30  31
ENDBRANCH  29  30
ENDBRANCH   1  29
TORSDOF 20
ENDMDL
