MODEL 1
REMARK VINA RESULT:     -10.4      0.000      0.000
REMARK SMILES CCc1cc([C@H]([NH3+])C(=O)OCCOCCOCCOC(=O)c2ccc(-c3c4nc(c(-c5c(F)c(F)c(F)c(F)c5F)c5ccc([nH]5)c(-c5c(F)c(F)c(F)c(F)c5F)c5nc(c(-c6c(F)c(F)c(F)c(F)c6F)c6ccc3[nH]6)C=C5)C=C4)cc2)cc(CC)c1N
REMARK SMILES IDX 14 1 13 2 12 3 11 4 10 5 8 6 9 7 6 8 5 9 3 10 4 11 89 12
REMARK SMILES IDX 86 13 85 14 2 15 1 16 90 17 87 20 88 21 7 22 15 26 16 27
REMARK SMILES IDX 17 28 18 29 19 30 20 31 21 32 22 33 23 34 84 35 24 36 83 37
REMARK SMILES IDX 25 38 26 39 27 40 77 41 28 42 82 43 76 44 78 45 29 46 81 47
REMARK SMILES IDX 75 48 74 49 30 51 62 52 42 53 61 54 43 55 46 56 60 57 79 58
REMARK SMILES IDX 44 59 45 60 59 62 80 63 47 64 31 65 32 66 40 67 33 68 34 69
REMARK SMILES IDX 38 70 41 71 35 72 36 73 39 74 37 75 63 76 64 77 72 78 65 79
REMARK SMILES IDX 66 80 70 81 73 82 67 83 68 84 71 85 69 86 48 87 49 88 57 89
REMARK SMILES IDX 50 90 51 91 55 92 58 93 52 94 53 95 56 96 54 97
REMARK H PARENT 90 18 90 19 7 23 7 24 7 25 78 50 46 61
REMARK Flexibility Score: inf
ROOT
ATOM      1  C   UNL A   1      33.510  27.364  22.843  1.00  0.00     0.188 C 
ENDROOT
BRANCH   1   2
ATOM      2  O   UNL A   1      33.573  26.216  23.681  1.00  0.00    -0.376 OA
BRANCH   2   3
ATOM      3  C   UNL A   1      33.911  26.354  25.057  1.00  0.00     0.202 C 
BRANCH   3   4
ATOM      4  C   UNL A   1      32.790  26.376  26.106  1.00  0.00     0.261 C 
BRANCH   4   5
ATOM      5  O   UNL A   1      31.563  25.734  25.714  1.00  0.00    -0.459 OA
BRANCH   5   6
ATOM      6  C   UNL A   1      31.439  24.418  26.044  1.00  0.00     0.369 C 
ATOM      7  O   UNL A   1      31.495  23.990  27.196  1.00  0.00    -0.245 OA
BRANCH   6   8
ATOM      8  C   UNL A   1      31.261  23.471  24.827  1.00  0.00     0.323 C 
BRANCH   8   9
ATOM      9  C   UNL A   1      32.377  22.466  24.831  1.00  0.00     0.021 A 
ATOM     10  C   UNL A   1      33.174  20.206  25.183  1.00  0.00    -0.024 A 
ATOM     11  C   UNL A   1      32.123  21.126  25.091  1.00  0.00     0.016 A 
ATOM     12  C   UNL A   1      34.513  20.651  24.967  1.00  0.00     0.038 A 
ATOM     13  C   UNL A   1      34.764  22.013  24.674  1.00  0.00    -0.024 A 
ATOM     14  C   UNL A   1      33.683  22.893  24.603  1.00  0.00     0.016 A 
BRANCH  10  15
ATOM     15  C   UNL A   1      32.875  18.757  25.534  1.00  0.00     0.034 C 
ATOM     16  C   UNL A   1      32.367  17.852  24.409  1.00  0.00     0.009 C 
ENDBRANCH  10  15
BRANCH  12  17
ATOM     17  N   UNL A   1      35.568  19.766  25.167  1.00  0.00    -0.398 N 
ATOM     18  H   UNL A   1      36.316  19.741  24.528  1.00  0.00     0.156 HD
ATOM     19  H   UNL A   1      35.566  19.166  25.948  1.00  0.00     0.156 HD
ENDBRANCH  12  17
BRANCH  13  20
ATOM     20  C   UNL A   1      36.138  22.633  24.507  1.00  0.00     0.034 C 
ATOM     21  C   UNL A   1      36.524  22.890  23.051  1.00  0.00     0.009 C 
ENDBRANCH  13  20
ENDBRANCH   8   9
BRANCH   8  22
ATOM     22  N   UNL A   1      31.186  24.111  23.493  1.00  0.00    -0.342 N 
ATOM     23  H   UNL A   1      30.444  24.812  23.493  1.00  0.00     0.345 HD
ATOM     24  H   UNL A   1      30.984  23.403  22.787  1.00  0.00     0.345 HD
ATOM     25  H   UNL A   1      32.077  24.560  23.281  1.00  0.00     0.345 HD
ENDBRANCH   8  22
ENDBRANCH   6   8
ENDBRANCH   5   6
ENDBRANCH   4   5
ENDBRANCH   3   4
ENDBRANCH   2   3
ENDBRANCH   1   2
BRANCH   1  26
ATOM     26  C   UNL A   1      32.322  28.335  22.957  1.00  0.00     0.188 C 
BRANCH  26  27
ATOM     27  O   UNL A   1      32.482  29.328  23.939  1.00  0.00    -0.376 OA
BRANCH  27  28
ATOM     28  C   UNL A   1      31.399  29.583  24.807  1.00  0.00     0.202 C 
BRANCH  28  29
ATOM     29  C   UNL A   1      31.599  30.541  25.994  1.00  0.00     0.261 C 
BRANCH  29  30
ATOM     30  O   UNL A   1      32.807  30.395  26.762  1.00  0.00    -0.460 OA
BRANCH  30  31
ATOM     31  C   UNL A   1      33.387  31.525  27.233  1.00  0.00     0.338 C 
ATOM     32  O   UNL A   1      32.860  32.609  27.389  1.00  0.00    -0.246 OA
BRANCH  31  33
ATOM     33  C   UNL A   1      34.732  31.169  27.756  1.00  0.00     0.060 A 
ATOM     34  C   UNL A   1      35.022  29.823  28.021  1.00  0.00     0.016 A 
ATOM     35  C   UNL A   1      35.699  32.151  27.985  1.00  0.00     0.016 A 
ATOM     36  C   UNL A   1      36.261  29.460  28.558  1.00  0.00     0.010 A 
ATOM     37  C   UNL A   1      36.930  31.790  28.545  1.00  0.00     0.010 A 
ATOM     38  C   UNL A   1      37.204  30.448  28.870  1.00  0.00    -0.014 A 
BRANCH  38  39
ATOM     39  C   UNL A   1      38.372  30.115  29.727  1.00  0.00     0.031 A 
ATOM     40  C   UNL A   1      39.389  29.140  29.194  1.00  0.00     0.074 A 
ATOM     41  C   UNL A   1      38.548  30.666  30.941  1.00  0.00     0.049 A 
ATOM     42  N   UNL A   1      40.455  28.643  29.770  1.00  0.00    -0.248 NA
ATOM     43  C   UNL A   1      39.169  28.657  27.821  1.00  0.00     0.031 C 
ATOM     44  C   UNL A   1      37.667  31.653  31.558  1.00  0.00     0.029 A 
ATOM     45  N   UNL A   1      39.532  30.458  31.878  1.00  0.00    -0.354 N 
ATOM     46  C   UNL A   1      41.021  27.784  28.836  1.00  0.00     0.074 A 
ATOM     47  C   UNL A   1      40.168  27.803  27.669  1.00  0.00     0.031 C 
ATOM     48  C   UNL A   1      38.140  31.954  32.782  1.00  0.00     0.029 A 
ATOM     49  C   UNL A   1      39.337  31.156  33.045  1.00  0.00     0.049 A 
ATOM     50  H   UNL A   1      40.302  29.864  31.727  1.00  0.00     0.167 HD
ATOM     51  C   UNL A   1      42.155  27.050  28.939  1.00  0.00     0.037 A 
ATOM     52  C   UNL A   1      40.032  31.131  34.201  1.00  0.00     0.037 A 
ATOM     53  C   UNL A   1      43.006  27.029  30.100  1.00  0.00     0.049 A 
ATOM     54  C   UNL A   1      41.253  30.249  34.317  1.00  0.00     0.074 A 
ATOM     55  C   UNL A   1      44.184  26.330  30.292  1.00  0.00     0.029 A 
ATOM     56  N   UNL A   1      42.761  27.732  31.270  1.00  0.00    -0.354 N 
ATOM     57  N   UNL A   1      41.797  29.460  33.423  1.00  0.00    -0.248 NA
ATOM     58  C   UNL A   1      41.960  30.263  35.606  1.00  0.00     0.031 C 
ATOM     59  C   UNL A   1      44.623  26.563  31.600  1.00  0.00     0.029 A 
ATOM     60  C   UNL A   1      43.755  27.463  32.198  1.00  0.00     0.049 A 
ATOM     61  H   UNL A   1      41.997  28.333  31.420  1.00  0.00     0.167 HD
ATOM     62  C   UNL A   1      42.926  28.916  34.025  1.00  0.00     0.074 A 
ATOM     63  C   UNL A   1      42.995  29.474  35.359  1.00  0.00     0.031 C 
ATOM     64  C   UNL A   1      43.825  28.036  33.518  1.00  0.00     0.037 A 
BRANCH  51  65
ATOM     65  C   UNL A   1      42.527  26.183  27.771  1.00  0.00     0.064 A 
ATOM     66  C   UNL A   1      43.481  26.585  26.823  1.00  0.00     0.173 A 
ATOM     67  C   UNL A   1      41.946  24.914  27.618  1.00  0.00     0.173 A 
ATOM     68  F   UNL A   1      44.055  27.795  26.915  1.00  0.00    -0.203 F 
ATOM     69  C   UNL A   1      43.819  25.761  25.753  1.00  0.00     0.198 A 
ATOM     70  C   UNL A   1      42.312  24.080  26.566  1.00  0.00     0.198 A 
ATOM     71  F   UNL A   1      41.031  24.479  28.498  1.00  0.00    -0.203 F 
ATOM     72  F   UNL A   1      44.696  26.187  24.833  1.00  0.00    -0.200 F 
ATOM     73  C   UNL A   1      43.241  24.506  25.630  1.00  0.00     0.200 A 
ATOM     74  F   UNL A   1      41.763  22.862  26.456  1.00  0.00    -0.200 F 
ATOM     75  F   UNL A   1      43.576  23.711  24.605  1.00  0.00    -0.200 F 
ENDBRANCH  51  65
BRANCH  52  76
ATOM     76  C   UNL A   1      39.590  31.957  35.357  1.00  0.00     0.064 A 
ATOM     77  C   UNL A   1      38.679  31.459  36.298  1.00  0.00     0.173 A 
ATOM     78  C   UNL A   1      40.039  33.276  35.522  1.00  0.00     0.173 A 
ATOM     79  F   UNL A   1      38.195  30.214  36.168  1.00  0.00    -0.203 F 
ATOM     80  C   UNL A   1      38.215  32.255  37.346  1.00  0.00     0.198 A 
ATOM     81  C   UNL A   1      39.600  34.060  36.587  1.00  0.00     0.198 A 
ATOM     82  F   UNL A   1      40.905  33.806  34.646  1.00  0.00    -0.203 F 
ATOM     83  F   UNL A   1      37.298  31.771  38.195  1.00  0.00    -0.200 F 
ATOM     84  C   UNL A   1      38.681  33.552  37.493  1.00  0.00     0.200 A 
ATOM     85  F   UNL A   1      40.059  35.311  36.731  1.00  0.00    -0.200 F 
ATOM     86  F   UNL A   1      38.233  34.317  38.498  1.00  0.00    -0.200 F 
ENDBRANCH  52  76
BRANCH  64  87
ATOM     87  C   UNL A   1      44.999  27.665  34.382  1.00  0.00     0.064 A 
ATOM     88  C   UNL A   1      44.972  26.553  35.238  1.00  0.00     0.173 A 
ATOM     89  C   UNL A   1      46.185  28.413  34.322  1.00  0.00     0.173 A 
ATOM     90  F   UNL A   1      43.861  25.807  35.342  1.00  0.00    -0.203 F 
ATOM     91  C   UNL A   1      46.074  26.227  36.025  1.00  0.00     0.198 A 
ATOM     92  C   UNL A   1      47.297  28.064  35.084  1.00  0.00     0.198 A 
ATOM     93  F   UNL A   1      46.271  29.480  33.513  1.00  0.00    -0.203 F 
ATOM     94  F   UNL A   1      46.004  25.195  36.877  1.00  0.00    -0.200 F 
ATOM     95  C   UNL A   1      47.237  26.977  35.943  1.00  0.00     0.200 A 
ATOM     96  F   UNL A   1      48.425  28.781  34.988  1.00  0.00    -0.200 F 
ATOM     97  F   UNL A   1      48.298  26.660  36.697  1.00  0.00    -0.200 F 
ENDBRANCH  64  87
ENDBRANCH  38  39
ENDBRANCH  31  33
ENDBRANCH  30  31
ENDBRANCH  29  30
ENDBRANCH  28  29
ENDBRANCH  27  28
ENDBRANCH  26  27
ENDBRANCH   1  26
TORSDOF 22
ENDMDL
MODEL 2
REMARK VINA RESULT:     -10.4      3.217      8.246
REMARK SMILES CCc1cc([C@H]([NH3+])C(=O)OCCOCCOCCOC(=O)c2ccc(-c3c4nc(c(-c5c(F)c(F)c(F)c(F)c5F)c5ccc([nH]5)c(-c5c(F)c(F)c(F)c(F)c5F)c5nc(c(-c6c(F)c(F)c(F)c(F)c6F)c6ccc3[nH]6)C=C5)C=C4)cc2)cc(CC)c1N
REMARK SMILES IDX 14 1 13 2 12 3 11 4 10 5 8 6 9 7 6 8 5 9 3 10 4 11 89 12
REMARK SMILES IDX 86 13 85 14 2 15 1 16 90 17 87 20 88 21 7 22 15 26 16 27
REMARK SMILES IDX 17 28 18 29 19 30 20 31 21 32 22 33 23 34 84 35 24 36 83 37
REMARK SMILES IDX 25 38 26 39 27 40 77 41 28 42 82 43 76 44 78 45 29 46 81 47
REMARK SMILES IDX 75 48 74 49 30 51 62 52 42 53 61 54 43 55 46 56 60 57 79 58
REMARK SMILES IDX 44 59 45 60 59 62 80 63 47 64 31 65 32 66 40 67 33 68 34 69
REMARK SMILES IDX 38 70 41 71 35 72 36 73 39 74 37 75 63 76 64 77 72 78 65 79
REMARK SMILES IDX 66 80 70 81 73 82 67 83 68 84 71 85 69 86 48 87 49 88 57 89
REMARK SMILES IDX 50 90 51 91 55 92 58 93 52 94 53 95 56 96 54 97
REMARK H PARENT 90 18 90 19 7 23 7 24 7 25 78 50 46 61
REMARK Flexibility Score: inf
ROOT
ATOM      1  C   UNL A   1      39.906  21.439  26.412  1.00  0.00     0.188 C 
ENDROOT
BRANCH   1   2
ATOM      2  O   UNL A   1      38.852  22.375  26.214  1.00  0.00    -0.376 OA
BRANCH   2   3
ATOM      3  C   UNL A   1      37.778  22.066  25.332  1.00  0.00     0.202 C 
BRANCH   3   4
ATOM      4  C   UNL A   1      36.383  22.639  25.622  1.00  0.00     0.261 C 
BRANCH   4   5
ATOM      5  O   UNL A   1      35.991  23.756  24.806  1.00  0.00    -0.459 OA
BRANCH   5   6
ATOM      6  C   UNL A   1      35.710  23.481  23.501  1.00  0.00     0.369 C 
ATOM      7  O   UNL A   1      36.446  22.827  22.764  1.00  0.00    -0.245 OA
BRANCH   6   8
ATOM      8  C   UNL A   1      34.384  24.104  22.990  1.00  0.00     0.323 C 
BRANCH   8   9
ATOM      9  C   UNL A   1      33.683  24.758  24.145  1.00  0.00     0.021 A 
ATOM     10  C   UNL A   1      32.051  24.685  25.934  1.00  0.00    -0.024 A 
ATOM     11  C   UNL A   1      32.769  24.050  24.914  1.00  0.00     0.016 A 
ATOM     12  C   UNL A   1      32.294  26.065  26.204  1.00  0.00     0.038 A 
ATOM     13  C   UNL A   1      33.248  26.776  25.436  1.00  0.00    -0.024 A 
ATOM     14  C   UNL A   1      33.931  26.100  24.424  1.00  0.00     0.016 A 
BRANCH  10  15
ATOM     15  C   UNL A   1      31.010  23.903  26.719  1.00  0.00     0.034 C 
ATOM     16  C   UNL A   1      30.538  22.573  26.128  1.00  0.00     0.009 C 
ENDBRANCH  10  15
BRANCH  12  17
ATOM     17  N   UNL A   1      31.506  26.728  27.140  1.00  0.00    -0.398 N 
ATOM     18  H   UNL A   1      31.752  26.709  28.092  1.00  0.00     0.156 HD
ATOM     19  H   UNL A   1      30.702  27.216  26.848  1.00  0.00     0.156 HD
ENDBRANCH  12  17
BRANCH  13  20
ATOM     20  C   UNL A   1      33.541  28.259  25.561  1.00  0.00     0.034 C 
ATOM     21  C   UNL A   1      33.045  29.086  24.375  1.00  0.00     0.009 C 
ENDBRANCH  13  20
ENDBRANCH   8   9
BRANCH   8  22
ATOM     22  N   UNL A   1      33.442  23.191  22.301  1.00  0.00    -0.342 N 
ATOM     23  H   UNL A   1      33.891  22.286  22.155  1.00  0.00     0.345 HD
ATOM     24  H   UNL A   1      33.180  23.590  21.400  1.00  0.00     0.345 HD
ATOM     25  H   UNL A   1      32.608  23.067  22.874  1.00  0.00     0.345 HD
ENDBRANCH   8  22
ENDBRANCH   6   8
ENDBRANCH   5   6
ENDBRANCH   4   5
ENDBRANCH   3   4
ENDBRANCH   2   3
ENDBRANCH   1   2
BRANCH   1  26
ATOM     26  C   UNL A   1      40.824  21.563  27.640  1.00  0.00     0.188 C 
BRANCH  26  27
ATOM     27  O   UNL A   1      42.142  21.126  27.420  1.00  0.00    -0.376 OA
BRANCH  27  28
ATOM     28  C   UNL A   1      42.533  20.837  26.096  1.00  0.00     0.202 C 
BRANCH  28  29
ATOM     29  C   UNL A   1      43.513  21.783  25.379  1.00  0.00     0.261 C 
BRANCH  29  30
ATOM     30  O   UNL A   1      42.977  23.011  24.854  1.00  0.00    -0.460 OA
BRANCH  30  31
ATOM     31  C   UNL A   1      43.746  24.122  24.957  1.00  0.00     0.338 C 
ATOM     32  O   UNL A   1      44.727  24.397  24.296  1.00  0.00    -0.246 OA
BRANCH  31  33
ATOM     33  C   UNL A   1      43.057  25.076  25.865  1.00  0.00     0.060 A 
ATOM     34  C   UNL A   1      43.599  26.359  26.038  1.00  0.00     0.016 A 
ATOM     35  C   UNL A   1      41.890  24.713  26.540  1.00  0.00     0.016 A 
ATOM     36  C   UNL A   1      43.002  27.263  26.921  1.00  0.00     0.010 A 
ATOM     37  C   UNL A   1      41.307  25.611  27.442  1.00  0.00     0.010 A 
ATOM     38  C   UNL A   1      41.881  26.876  27.667  1.00  0.00    -0.014 A 
BRANCH  38  39
ATOM     39  C   UNL A   1      41.441  27.697  28.826  1.00  0.00     0.031 A 
ATOM     40  C   UNL A   1      42.200  27.563  30.119  1.00  0.00     0.074 A 
ATOM     41  C   UNL A   1      40.407  28.553  28.743  1.00  0.00     0.049 A 
ATOM     42  N   UNL A   1      41.976  28.121  31.283  1.00  0.00    -0.248 NA
ATOM     43  C   UNL A   1      43.374  26.675  30.095  1.00  0.00     0.031 C 
ATOM     44  C   UNL A   1      39.616  28.811  27.544  1.00  0.00     0.029 A 
ATOM     45  N   UNL A   1      39.841  29.358  29.702  1.00  0.00    -0.354 N 
ATOM     46  C   UNL A   1      42.970  27.641  32.127  1.00  0.00     0.074 A 
ATOM     47  C   UNL A   1      43.780  26.726  31.354  1.00  0.00     0.031 C 
ATOM     48  C   UNL A   1      38.652  29.702  27.842  1.00  0.00     0.029 A 
ATOM     49  C   UNL A   1      38.739  30.051  29.260  1.00  0.00     0.049 A 
ATOM     50  H   UNL A   1      40.191  29.432  30.619  1.00  0.00     0.167 HD
ATOM     51  C   UNL A   1      43.193  27.941  33.429  1.00  0.00     0.037 A 
ATOM     52  C   UNL A   1      37.887  30.850  29.932  1.00  0.00     0.037 A 
ATOM     53  C   UNL A   1      42.387  28.850  34.202  1.00  0.00     0.049 A 
ATOM     54  C   UNL A   1      38.113  31.113  31.402  1.00  0.00     0.074 A 
ATOM     55  C   UNL A   1      42.543  29.231  35.523  1.00  0.00     0.029 A 
ATOM     56  N   UNL A   1      41.266  29.513  33.724  1.00  0.00    -0.354 N 
ATOM     57  N   UNL A   1      39.069  30.678  32.187  1.00  0.00    -0.248 NA
ATOM     58  C   UNL A   1      37.143  31.988  32.076  1.00  0.00     0.031 C 
ATOM     59  C   UNL A   1      41.484  30.078  35.862  1.00  0.00     0.029 A 
ATOM     60  C   UNL A   1      40.707  30.281  34.733  1.00  0.00     0.049 A 
ATOM     61  H   UNL A   1      40.920  29.448  32.805  1.00  0.00     0.167 HD
ATOM     62  C   UNL A   1      38.837  31.253  33.432  1.00  0.00     0.074 A 
ATOM     63  C   UNL A   1      37.656  32.079  33.294  1.00  0.00     0.031 C 
ATOM     64  C   UNL A   1      39.540  31.113  34.582  1.00  0.00     0.037 A 
BRANCH  51  65
ATOM     65  C   UNL A   1      44.340  27.255  34.112  1.00  0.00     0.064 A 
ATOM     66  C   UNL A   1      44.188  26.015  34.752  1.00  0.00     0.173 A 
ATOM     67  C   UNL A   1      45.621  27.830  34.094  1.00  0.00     0.173 A 
ATOM     68  F   UNL A   1      42.982  25.430  34.811  1.00  0.00    -0.203 F 
ATOM     69  C   UNL A   1      45.267  25.391  35.372  1.00  0.00     0.198 A 
ATOM     70  C   UNL A   1      46.705  27.186  34.685  1.00  0.00     0.198 A 
ATOM     71  F   UNL A   1      45.823  29.012  33.493  1.00  0.00    -0.203 F 
ATOM     72  F   UNL A   1      45.087  24.232  36.020  1.00  0.00    -0.200 F 
ATOM     73  C   UNL A   1      46.526  25.973  35.330  1.00  0.00     0.200 A 
ATOM     74  F   UNL A   1      47.923  27.743  34.632  1.00  0.00    -0.200 F 
ATOM     75  F   UNL A   1      47.566  25.365  35.918  1.00  0.00    -0.200 F 
ENDBRANCH  51  65
BRANCH  52  76
ATOM     76  C   UNL A   1      36.723  31.459  29.232  1.00  0.00     0.064 A 
ATOM     77  C   UNL A   1      36.686  32.831  28.943  1.00  0.00     0.173 A 
ATOM     78  C   UNL A   1      35.607  30.690  28.873  1.00  0.00     0.173 A 
ATOM     79  F   UNL A   1      37.716  33.617  29.294  1.00  0.00    -0.203 F 
ATOM     80  C   UNL A   1      35.569  33.413  28.346  1.00  0.00     0.198 A 
ATOM     81  C   UNL A   1      34.504  31.266  28.246  1.00  0.00     0.198 A 
ATOM     82  F   UNL A   1      35.585  29.374  29.133  1.00  0.00    -0.203 F 
ATOM     83  F   UNL A   1      35.538  34.736  28.137  1.00  0.00    -0.200 F 
ATOM     84  C   UNL A   1      34.481  32.629  27.992  1.00  0.00     0.200 A 
ATOM     85  F   UNL A   1      33.458  30.504  27.899  1.00  0.00    -0.200 F 
ATOM     86  F   UNL A   1      33.407  33.190  27.420  1.00  0.00    -0.200 F 
ENDBRANCH  52  76
BRANCH  64  87
ATOM     87  C   UNL A   1      39.093  31.914  35.774  1.00  0.00     0.064 A 
ATOM     88  C   UNL A   1      39.494  33.244  35.971  1.00  0.00     0.173 A 
ATOM     89  C   UNL A   1      38.217  31.351  36.716  1.00  0.00     0.173 A 
ATOM     90  F   UNL A   1      40.339  33.829  35.108  1.00  0.00    -0.203 F 
ATOM     91  C   UNL A   1      39.064  33.966  37.082  1.00  0.00     0.198 A 
ATOM     92  C   UNL A   1      37.760  32.088  37.805  1.00  0.00     0.198 A 
ATOM     93  F   UNL A   1      37.792  30.087  36.572  1.00  0.00    -0.203 F 
ATOM     94  F   UNL A   1      39.506  35.216  37.278  1.00  0.00    -0.200 F 
ATOM     95  C   UNL A   1      38.192  33.391  37.993  1.00  0.00     0.200 A 
ATOM     96  F   UNL A   1      36.903  31.534  38.675  1.00  0.00    -0.200 F 
ATOM     97  F   UNL A   1      37.774  34.089  39.058  1.00  0.00    -0.200 F 
ENDBRANCH  64  87
ENDBRANCH  38  39
ENDBRANCH  31  33
ENDBRANCH  30  31
ENDBRANCH  29  30
ENDBRANCH  28  29
ENDBRANCH  27  28
ENDBRANCH  26  27
ENDBRANCH   1  26
TORSDOF 22
ENDMDL
MODEL 3
REMARK VINA RESULT:     -10.4      3.261      8.223
REMARK SMILES CCc1cc([C@H]([NH3+])C(=O)OCCOCCOCCOC(=O)c2ccc(-c3c4nc(c(-c5c(F)c(F)c(F)c(F)c5F)c5ccc([nH]5)c(-c5c(F)c(F)c(F)c(F)c5F)c5nc(c(-c6c(F)c(F)c(F)c(F)c6F)c6ccc3[nH]6)C=C5)C=C4)cc2)cc(CC)c1N
REMARK SMILES IDX 14 1 13 2 12 3 11 4 10 5 8 6 9 7 6 8 5 9 3 10 4 11 89 12
REMARK SMILES IDX 86 13 85 14 2 15 1 16 90 17 87 20 88 21 7 22 15 26 16 27
REMARK SMILES IDX 17 28 18 29 19 30 20 31 21 32 22 33 23 34 84 35 24 36 83 37
REMARK SMILES IDX 25 38 26 39 27 40 77 41 28 42 82 43 76 44 78 45 29 46 81 47
REMARK SMILES IDX 75 48 74 49 30 51 62 52 42 53 61 54 43 55 46 56 60 57 79 58
REMARK SMILES IDX 44 59 45 60 59 62 80 63 47 64 31 65 32 66 40 67 33 68 34 69
REMARK SMILES IDX 38 70 41 71 35 72 36 73 39 74 37 75 63 76 64 77 72 78 65 79
REMARK SMILES IDX 66 80 70 81 73 82 67 83 68 84 71 85 69 86 48 87 49 88 57 89
REMARK SMILES IDX 50 90 51 91 55 92 58 93 52 94 53 95 56 96 54 97
REMARK H PARENT 90 18 90 19 7 23 7 24 7 25 78 50 46 61
REMARK Flexibility Score: inf
ROOT
ATOM      1  C   UNL A   1      39.731  20.992  26.258  1.00  0.00     0.188 C 
ENDROOT
BRANCH   1   2
ATOM      2  O   UNL A   1      38.491  21.607  25.928  1.00  0.00    -0.376 OA
BRANCH   2   3
ATOM      3  C   UNL A   1      37.701  21.095  24.860  1.00  0.00     0.202 C 
BRANCH   3   4
ATOM      4  C   UNL A   1      36.338  20.461  25.173  1.00  0.00     0.261 C 
BRANCH   4   5
ATOM      5  O   UNL A   1      35.214  21.357  25.132  1.00  0.00    -0.459 OA
BRANCH   5   6
ATOM      6  C   UNL A   1      35.031  22.145  26.229  1.00  0.00     0.369 C 
ATOM      7  O   UNL A   1      34.851  21.710  27.365  1.00  0.00    -0.245 OA
BRANCH   6   8
ATOM      8  C   UNL A   1      35.025  23.667  25.925  1.00  0.00     0.323 C 
BRANCH   8   9
ATOM      9  C   UNL A   1      33.606  24.158  25.952  1.00  0.00     0.021 A 
ATOM     10  C   UNL A   1      32.007  25.970  26.110  1.00  0.00    -0.024 A 
ATOM     11  C   UNL A   1      33.326  25.517  25.994  1.00  0.00     0.016 A 
ATOM     12  C   UNL A   1      30.942  25.020  26.145  1.00  0.00     0.038 A 
ATOM     13  C   UNL A   1      31.231  23.636  26.073  1.00  0.00    -0.024 A 
ATOM     14  C   UNL A   1      32.564  23.234  25.968  1.00  0.00     0.016 A 
BRANCH  10  15
ATOM     15  C   UNL A   1      31.732  27.461  26.219  1.00  0.00     0.034 C 
ATOM     16  C   UNL A   1      31.471  28.027  27.617  1.00  0.00     0.009 C 
ENDBRANCH  10  15
BRANCH  12  17
ATOM     17  N   UNL A   1      29.641  25.459  26.372  1.00  0.00    -0.398 N 
ATOM     18  H   UNL A   1      28.880  24.880  26.139  1.00  0.00     0.156 HD
ATOM     19  H   UNL A   1      29.483  26.347  26.765  1.00  0.00     0.156 HD
ENDBRANCH  12  17
BRANCH  13  20
ATOM     20  C   UNL A   1      30.207  22.522  26.185  1.00  0.00     0.034 C 
ATOM     21  C   UNL A   1      29.240  22.692  27.356  1.00  0.00     0.009 C 
ENDBRANCH  13  20
ENDBRANCH   8   9
BRANCH   8  22
ATOM     22  N   UNL A   1      35.665  24.095  24.659  1.00  0.00    -0.342 N 
ATOM     23  H   UNL A   1      36.056  23.281  24.184  1.00  0.00     0.345 HD
ATOM     24  H   UNL A   1      36.410  24.760  24.864  1.00  0.00     0.345 HD
ATOM     25  H   UNL A   1      34.969  24.537  24.059  1.00  0.00     0.345 HD
ENDBRANCH   8  22
ENDBRANCH   6   8
ENDBRANCH   5   6
ENDBRANCH   4   5
ENDBRANCH   3   4
ENDBRANCH   2   3
ENDBRANCH   1   2
BRANCH   1  26
ATOM     26  C   UNL A   1      40.578  21.543  27.418  1.00  0.00     0.188 C 
BRANCH  26  27
ATOM     27  O   UNL A   1      41.930  21.162  27.375  1.00  0.00    -0.376 OA
BRANCH  27  28
ATOM     28  C   UNL A   1      42.464  20.744  26.138  1.00  0.00     0.202 C 
BRANCH  28  29
ATOM     29  C   UNL A   1      43.451  21.664  25.397  1.00  0.00     0.261 C 
BRANCH  29  30
ATOM     30  O   UNL A   1      42.944  22.923  24.917  1.00  0.00    -0.460 OA
BRANCH  30  31
ATOM     31  C   UNL A   1      43.750  24.005  25.036  1.00  0.00     0.338 C 
ATOM     32  O   UNL A   1      44.755  24.244  24.397  1.00  0.00    -0.246 OA
BRANCH  31  33
ATOM     33  C   UNL A   1      43.075  24.986  25.926  1.00  0.00     0.060 A 
ATOM     34  C   UNL A   1      43.648  26.255  26.095  1.00  0.00     0.016 A 
ATOM     35  C   UNL A   1      41.890  24.660  26.589  1.00  0.00     0.016 A 
ATOM     36  C   UNL A   1      43.065  27.183  26.962  1.00  0.00     0.010 A 
ATOM     37  C   UNL A   1      41.320  25.581  27.476  1.00  0.00     0.010 A 
ATOM     38  C   UNL A   1      41.924  26.833  27.697  1.00  0.00    -0.014 A 
BRANCH  38  39
ATOM     39  C   UNL A   1      41.492  27.675  28.843  1.00  0.00     0.031 A 
ATOM     40  C   UNL A   1      42.253  27.560  30.137  1.00  0.00     0.074 A 
ATOM     41  C   UNL A   1      40.462  28.536  28.747  1.00  0.00     0.049 A 
ATOM     42  N   UNL A   1      42.034  28.138  31.291  1.00  0.00    -0.248 NA
ATOM     43  C   UNL A   1      43.422  26.665  30.125  1.00  0.00     0.031 C 
ATOM     44  C   UNL A   1      39.669  28.778  27.546  1.00  0.00     0.029 A 
ATOM     45  N   UNL A   1      39.902  29.360  29.694  1.00  0.00    -0.354 N 
ATOM     46  C   UNL A   1      43.028  27.668  32.141  1.00  0.00     0.074 A 
ATOM     47  C   UNL A   1      43.831  26.736  31.382  1.00  0.00     0.031 C 
ATOM     48  C   UNL A   1      38.710  29.679  27.831  1.00  0.00     0.029 A 
ATOM     49  C   UNL A   1      38.804  30.051  29.243  1.00  0.00     0.049 A 
ATOM     50  H   UNL A   1      40.255  29.447  30.609  1.00  0.00     0.167 HD
ATOM     51  C   UNL A   1      43.255  27.989  33.437  1.00  0.00     0.037 A 
ATOM     52  C   UNL A   1      37.957  30.867  29.903  1.00  0.00     0.037 A 
ATOM     53  C   UNL A   1      42.456  28.915  34.197  1.00  0.00     0.049 A 
ATOM     54  C   UNL A   1      38.188  31.153  31.368  1.00  0.00     0.074 A 
ATOM     55  C   UNL A   1      42.617  29.317  35.510  1.00  0.00     0.029 A 
ATOM     56  N   UNL A   1      41.338  29.576  33.710  1.00  0.00    -0.354 N 
ATOM     57  N   UNL A   1      39.143  30.726  32.158  1.00  0.00    -0.248 NA
ATOM     58  C   UNL A   1      37.224  32.045  32.030  1.00  0.00     0.031 C 
ATOM     59  C   UNL A   1      41.563  30.176  35.838  1.00  0.00     0.029 A 
ATOM     60  C   UNL A   1      40.785  30.364  34.707  1.00  0.00     0.049 A 
ATOM     61  H   UNL A   1      40.989  29.497  32.793  1.00  0.00     0.167 HD
ATOM     62  C   UNL A   1      38.917  31.324  33.393  1.00  0.00     0.074 A 
ATOM     63  C   UNL A   1      37.740  32.154  33.244  1.00  0.00     0.031 C 
ATOM     64  C   UNL A   1      39.622  31.199  34.545  1.00  0.00     0.037 A 
BRANCH  51  65
ATOM     65  C   UNL A   1      44.400  27.308  34.129  1.00  0.00     0.064 A 
ATOM     66  C   UNL A   1      45.684  27.874  34.170  1.00  0.00     0.173 A 
ATOM     67  C   UNL A   1      44.201  26.087  34.792  1.00  0.00     0.173 A 
ATOM     68  F   UNL A   1      45.931  29.032  33.539  1.00  0.00    -0.203 F 
ATOM     69  C   UNL A   1      46.730  27.230  34.826  1.00  0.00     0.198 A 
ATOM     70  C   UNL A   1      45.242  25.463  35.476  1.00  0.00     0.198 A 
ATOM     71  F   UNL A   1      42.993  25.503  34.788  1.00  0.00    -0.203 F 
ATOM     72  F   UNL A   1      47.959  27.765  34.809  1.00  0.00    -0.200 F 
ATOM     73  C   UNL A   1      46.506  26.030  35.485  1.00  0.00     0.200 A 
ATOM     74  F   UNL A   1      45.020  24.311  36.124  1.00  0.00    -0.200 F 
ATOM     75  F   UNL A   1      47.512  25.418  36.125  1.00  0.00    -0.200 F 
ENDBRANCH  51  65
BRANCH  52  76
ATOM     76  C   UNL A   1      36.795  31.470  29.195  1.00  0.00     0.064 A 
ATOM     77  C   UNL A   1      36.765  32.837  28.883  1.00  0.00     0.173 A 
ATOM     78  C   UNL A   1      35.673  30.701  28.852  1.00  0.00     0.173 A 
ATOM     79  F   UNL A   1      37.799  33.623  29.218  1.00  0.00    -0.203 F 
ATOM     80  C   UNL A   1      35.649  33.414  28.278  1.00  0.00     0.198 A 
ATOM     81  C   UNL A   1      34.572  31.273  28.218  1.00  0.00     0.198 A 
ATOM     82  F   UNL A   1      35.645  29.390  29.134  1.00  0.00    -0.203 F 
ATOM     83  F   UNL A   1      35.624  34.734  28.048  1.00  0.00    -0.200 F 
ATOM     84  C   UNL A   1      34.556  32.630  27.941  1.00  0.00     0.200 A 
ATOM     85  F   UNL A   1      33.521  30.510  27.886  1.00  0.00    -0.200 F 
ATOM     86  F   UNL A   1      33.484  33.187  27.362  1.00  0.00    -0.200 F 
ENDBRANCH  52  76
BRANCH  64  87
ATOM     87  C   UNL A   1      39.182  32.023  35.724  1.00  0.00     0.064 A 
ATOM     88  C   UNL A   1      38.315  31.517  36.704  1.00  0.00     0.173 A 
ATOM     89  C   UNL A   1      39.668  33.329  35.894  1.00  0.00     0.173 A 
ATOM     90  F   UNL A   1      37.813  30.278  36.587  1.00  0.00    -0.203 F 
ATOM     91  C   UNL A   1      37.925  32.299  37.789  1.00  0.00     0.198 A 
ATOM     92  C   UNL A   1      39.304  34.095  36.998  1.00  0.00     0.198 A 
ATOM     93  F   UNL A   1      40.508  33.861  34.993  1.00  0.00    -0.203 F 
ATOM     94  F   UNL A   1      37.051  31.813  38.682  1.00  0.00    -0.200 F 
ATOM     95  C   UNL A   1      38.424  33.583  37.940  1.00  0.00     0.200 A 
ATOM     96  F   UNL A   1      39.803  35.330  37.149  1.00  0.00    -0.200 F 
ATOM     97  F   UNL A   1      38.052  34.332  38.987  1.00  0.00    -0.200 F 
ENDBRANCH  64  87
ENDBRANCH  38  39
ENDBRANCH  31  33
ENDBRANCH  30  31
ENDBRANCH  29  30
ENDBRANCH  28  29
ENDBRANCH  27  28
ENDBRANCH  26  27
ENDBRANCH   1  26
TORSDOF 22
ENDMDL
