MODEL 1
REMARK VINA RESULT:     -10.4      0.000      0.000
REMARK SMILES CC1=NN(c2ccc(C(=O)OCCOCCOCCOC(=O)c3ccc(-c4c5nc(c(-c6c(F)c(F)c(F)c(F)c6F)c6ccc([nH]6)c(-c6c(F)c(F)c(F)c(F)c6F)c6nc(c(-c7c(F)c(F)c(F)c(F)c7F)c7ccc4[nH]7)C=C6)C=C5)cc3)cc2)C(=O)/C1=C\c1ccc(N2CCCC2)cc1
REMARK SMILES IDX 15 1 14 2 13 3 12 4 11 5 9 6 10 7 8 8 5 9 6 10 87 11 7 12
REMARK SMILES IDX 86 13 4 14 1 15 2 16 3 17 90 18 88 19 91 20 89 21 92 22
REMARK SMILES IDX 93 23 102 24 94 25 101 26 95 27 96 28 97 29 100 30 98 31
REMARK SMILES IDX 99 32 16 33 17 34 18 35 19 36 20 37 21 38 22 39 23 40 24 41
REMARK SMILES IDX 85 42 25 43 84 44 26 45 27 46 28 47 78 48 29 49 83 50 77 51
REMARK SMILES IDX 79 52 30 53 82 54 76 55 75 56 31 58 63 59 43 60 62 61 44 62
REMARK SMILES IDX 47 63 61 64 80 65 45 66 46 67 60 69 81 70 48 71 32 72 33 73
REMARK SMILES IDX 41 74 34 75 35 76 39 77 42 78 36 79 37 80 40 81 38 82 64 83
REMARK SMILES IDX 65 84 73 85 66 86 67 87 71 88 74 89 68 90 69 91 72 92 70 93
REMARK SMILES IDX 49 94 50 95 58 96 51 97 52 98 56 99 59 100 53 101 54 102
REMARK SMILES IDX 57 103 55 104
REMARK H PARENT 79 57 47 68
REMARK Flexibility Score: inf
ROOT
ATOM      1  C   UNL A   1      43.555  23.321  28.152  1.00  0.00     0.188 C 
ENDROOT
BRANCH   1   2
ATOM      2  O   UNL A   1      43.008  24.625  28.091  1.00  0.00    -0.376 OA
BRANCH   2   3
ATOM      3  C   UNL A   1      41.652  24.859  28.436  1.00  0.00     0.202 C 
BRANCH   3   4
ATOM      4  C   UNL A   1      40.878  26.095  27.956  1.00  0.00     0.261 C 
BRANCH   4   5
ATOM      5  O   UNL A   1      39.738  26.454  28.742  1.00  0.00    -0.460 OA
BRANCH   5   6
ATOM      6  C   UNL A   1      39.893  27.557  29.516  1.00  0.00     0.338 C 
ATOM      7  O   UNL A   1      40.822  27.811  30.264  1.00  0.00    -0.246 OA
BRANCH   6   8
ATOM      8  C   UNL A   1      38.835  28.533  29.188  1.00  0.00     0.060 A 
ATOM      9  C   UNL A   1      36.703  30.212  28.546  1.00  0.00     0.069 A 
ATOM     10  C   UNL A   1      36.758  29.627  29.814  1.00  0.00     0.029 A 
ATOM     11  C   UNL A   1      37.773  30.040  27.654  1.00  0.00     0.029 A 
ATOM     12  C   UNL A   1      37.806  28.752  30.117  1.00  0.00     0.018 A 
ATOM     13  C   UNL A   1      38.851  29.223  27.978  1.00  0.00     0.018 A 
BRANCH   9  14
ATOM     14  N   UNL A   1      35.520  30.822  28.093  1.00  0.00    -0.196 N 
ATOM     15  C   UNL A   1      33.196  33.569  28.119  1.00  0.00     0.069 C 
ATOM     16  C   UNL A   1      33.959  32.292  27.997  1.00  0.00     0.071 C 
ATOM     17  N   UNL A   1      35.124  32.071  28.554  1.00  0.00    -0.169 NA
ATOM     18  C   UNL A   1      33.467  31.120  27.246  1.00  0.00     0.065 C 
ATOM     19  C   UNL A   1      34.604  30.179  27.251  1.00  0.00     0.280 C 
ATOM     20  C   UNL A   1      32.223  30.898  26.801  1.00  0.00     0.024 C 
ATOM     21  O   UNL A   1      34.675  29.098  26.693  1.00  0.00    -0.267 OA
BRANCH  20  22
ATOM     22  C   UNL A   1      31.779  29.574  26.349  1.00  0.00    -0.025 A 
ATOM     23  C   UNL A   1      31.537  29.306  25.003  1.00  0.00     0.010 A 
ATOM     24  C   UNL A   1      31.648  28.537  27.279  1.00  0.00     0.010 A 
ATOM     25  C   UNL A   1      31.190  28.007  24.598  1.00  0.00     0.026 A 
ATOM     26  C   UNL A   1      31.292  27.249  26.864  1.00  0.00     0.026 A 
ATOM     27  C   UNL A   1      31.057  26.955  25.517  1.00  0.00     0.037 A 
BRANCH  27  28
ATOM     28  N   UNL A   1      30.746  25.684  25.090  1.00  0.00    -0.372 N 
ATOM     29  C   UNL A   1      30.629  24.525  25.969  1.00  0.00     0.116 C 
ATOM     30  C   UNL A   1      31.069  25.290  23.717  1.00  0.00     0.116 C 
ATOM     31  C   UNL A   1      31.287  23.401  25.174  1.00  0.00     0.023 C 
ATOM     32  C   UNL A   1      30.959  23.765  23.733  1.00  0.00     0.023 C 
ENDBRANCH  27  28
ENDBRANCH  20  22
ENDBRANCH   9  14
ENDBRANCH   6   8
ENDBRANCH   5   6
ENDBRANCH   4   5
ENDBRANCH   3   4
ENDBRANCH   2   3
ENDBRANCH   1   2
BRANCH   1  33
ATOM     33  C   UNL A   1      42.862  22.135  27.451  1.00  0.00     0.188 C 
BRANCH  33  34
ATOM     34  O   UNL A   1      43.426  21.657  26.256  1.00  0.00    -0.376 OA
BRANCH  34  35
ATOM     35  C   UNL A   1      43.255  22.357  25.038  1.00  0.00     0.202 C 
BRANCH  35  36
ATOM     36  C   UNL A   1      44.243  23.365  24.414  1.00  0.00     0.261 C 
BRANCH  36  37
ATOM     37  O   UNL A   1      44.157  24.735  24.807  1.00  0.00    -0.460 OA
BRANCH  37  38
ATOM     38  C   UNL A   1      45.343  25.362  25.004  1.00  0.00     0.338 C 
ATOM     39  O   UNL A   1      46.408  25.129  24.462  1.00  0.00    -0.246 OA
BRANCH  38  40
ATOM     40  C   UNL A   1      45.123  26.518  25.892  1.00  0.00     0.060 A 
ATOM     41  C   UNL A   1      46.171  26.941  26.720  1.00  0.00     0.016 A 
ATOM     42  C   UNL A   1      43.881  27.153  25.933  1.00  0.00     0.016 A 
ATOM     43  C   UNL A   1      45.970  27.995  27.612  1.00  0.00     0.010 A 
ATOM     44  C   UNL A   1      43.677  28.194  26.842  1.00  0.00     0.010 A 
ATOM     45  C   UNL A   1      44.711  28.602  27.704  1.00  0.00    -0.014 A 
BRANCH  45  46
ATOM     46  C   UNL A   1      44.421  29.545  28.812  1.00  0.00     0.031 A 
ATOM     47  C   UNL A   1      44.157  28.986  30.182  1.00  0.00     0.074 A 
ATOM     48  C   UNL A   1      44.397  30.873  28.608  1.00  0.00     0.049 A 
ATOM     49  N   UNL A   1      43.813  29.605  31.283  1.00  0.00    -0.248 NA
ATOM     50  C   UNL A   1      44.297  27.528  30.328  1.00  0.00     0.031 C 
ATOM     51  C   UNL A   1      44.677  31.539  27.338  1.00  0.00     0.029 A 
ATOM     52  N   UNL A   1      44.109  31.900  29.473  1.00  0.00    -0.354 N 
ATOM     53  C   UNL A   1      43.690  28.614  32.248  1.00  0.00     0.074 A 
ATOM     54  C   UNL A   1      43.965  27.350  31.598  1.00  0.00     0.031 C 
ATOM     55  C   UNL A   1      44.530  32.866  27.503  1.00  0.00     0.029 A 
ATOM     56  C   UNL A   1      44.113  33.138  28.877  1.00  0.00     0.049 A 
ATOM     57  H   UNL A   1      43.920  31.763  30.429  1.00  0.00     0.167 HD
ATOM     58  C   UNL A   1      43.382  28.747  33.560  1.00  0.00     0.037 A 
ATOM     59  C   UNL A   1      43.788  34.345  29.382  1.00  0.00     0.037 A 
ATOM     60  C   UNL A   1      43.104  30.004  34.204  1.00  0.00     0.049 A 
ATOM     61  C   UNL A   1      43.366  34.456  30.826  1.00  0.00     0.074 A 
ATOM     62  C   UNL A   1      42.797  30.243  35.532  1.00  0.00     0.029 A 
ATOM     63  N   UNL A   1      43.088  31.233  33.561  1.00  0.00    -0.354 N 
ATOM     64  N   UNL A   1      43.278  33.521  31.740  1.00  0.00    -0.248 NA
ATOM     65  C   UNL A   1      43.002  35.796  31.309  1.00  0.00     0.031 C 
ATOM     66  C   UNL A   1      42.539  31.610  35.680  1.00  0.00     0.029 A 
ATOM     67  C   UNL A   1      42.750  32.232  34.460  1.00  0.00     0.049 A 
ATOM     68  H   UNL A   1      43.289  31.375  32.607  1.00  0.00     0.167 HD
ATOM     69  C   UNL A   1      42.883  34.161  32.909  1.00  0.00     0.074 A 
ATOM     70  C   UNL A   1      42.761  35.568  32.592  1.00  0.00     0.031 C 
ATOM     71  C   UNL A   1      42.645  33.631  34.135  1.00  0.00     0.037 A 
BRANCH  58  72
ATOM     72  C   UNL A   1      43.301  27.494  34.384  1.00  0.00     0.064 A 
ATOM     73  C   UNL A   1      44.431  26.948  35.010  1.00  0.00     0.173 A 
ATOM     74  C   UNL A   1      42.068  26.852  34.578  1.00  0.00     0.173 A 
ATOM     75  F   UNL A   1      45.635  27.515  34.845  1.00  0.00    -0.203 F 
ATOM     76  C   UNL A   1      44.334  25.791  35.779  1.00  0.00     0.198 A 
ATOM     77  C   UNL A   1      41.971  25.714  35.374  1.00  0.00     0.198 A 
ATOM     78  F   UNL A   1      40.956  27.335  34.006  1.00  0.00    -0.203 F 
ATOM     79  F   UNL A   1      45.435  25.261  36.329  1.00  0.00    -0.200 F 
ATOM     80  C   UNL A   1      43.104  25.180  35.968  1.00  0.00     0.200 A 
ATOM     81  F   UNL A   1      40.778  25.134  35.566  1.00  0.00    -0.200 F 
ATOM     82  F   UNL A   1      43.011  24.073  36.716  1.00  0.00    -0.200 F 
ENDBRANCH  58  72
BRANCH  59  83
ATOM     83  C   UNL A   1      43.828  35.552  28.513  1.00  0.00     0.064 A 
ATOM     84  C   UNL A   1      45.019  36.266  28.323  1.00  0.00     0.173 A 
ATOM     85  C   UNL A   1      42.670  36.038  27.889  1.00  0.00     0.173 A 
ATOM     86  F   UNL A   1      46.147  35.859  28.923  1.00  0.00    -0.203 F 
ATOM     87  C   UNL A   1      45.045  37.433  27.560  1.00  0.00     0.198 A 
ATOM     88  C   UNL A   1      42.705  37.187  27.100  1.00  0.00     0.198 A 
ATOM     89  F   UNL A   1      41.502  35.397  28.044  1.00  0.00    -0.203 F 
ATOM     90  F   UNL A   1      46.186  38.127  27.443  1.00  0.00    -0.200 F 
ATOM     91  C   UNL A   1      43.890  37.889  26.944  1.00  0.00     0.200 A 
ATOM     92  F   UNL A   1      41.587  37.620  26.501  1.00  0.00    -0.200 F 
ATOM     93  F   UNL A   1      43.916  39.012  26.214  1.00  0.00    -0.200 F 
ENDBRANCH  59  83
BRANCH  71  94
ATOM     94  C   UNL A   1      42.277  34.580  35.242  1.00  0.00     0.064 A 
ATOM     95  C   UNL A   1      43.249  35.231  36.016  1.00  0.00     0.173 A 
ATOM     96  C   UNL A   1      40.929  34.877  35.500  1.00  0.00     0.173 A 
ATOM     97  F   UNL A   1      44.551  34.973  35.820  1.00  0.00    -0.203 F 
ATOM     98  C   UNL A   1      42.886  36.119  37.025  1.00  0.00     0.198 A 
ATOM     99  C   UNL A   1      40.570  35.792  36.486  1.00  0.00     0.198 A 
ATOM    100  F   UNL A   1      39.958  34.291  34.783  1.00  0.00    -0.203 F 
ATOM    101  F   UNL A   1      43.830  36.689  37.785  1.00  0.00    -0.200 F 
ATOM    102  C   UNL A   1      41.548  36.405  37.254  1.00  0.00     0.200 A 
ATOM    103  F   UNL A   1      39.278  36.080  36.693  1.00  0.00    -0.200 F 
ATOM    104  F   UNL A   1      41.201  37.269  38.219  1.00  0.00    -0.200 F 
ENDBRANCH  71  94
ENDBRANCH  45  46
ENDBRANCH  38  40
ENDBRANCH  37  38
ENDBRANCH  36  37
ENDBRANCH  35  36
ENDBRANCH  34  35
ENDBRANCH  33  34
ENDBRANCH   1  33
TORSDOF 20
ENDMDL
MODEL 2
REMARK VINA RESULT:     -10.2      4.499     10.356
REMARK SMILES CC1=NN(c2ccc(C(=O)OCCOCCOCCOC(=O)c3ccc(-c4c5nc(c(-c6c(F)c(F)c(F)c(F)c6F)c6ccc([nH]6)c(-c6c(F)c(F)c(F)c(F)c6F)c6nc(c(-c7c(F)c(F)c(F)c(F)c7F)c7ccc4[nH]7)C=C6)C=C5)cc3)cc2)C(=O)/C1=C\c1ccc(N2CCCC2)cc1
REMARK SMILES IDX 15 1 14 2 13 3 12 4 11 5 9 6 10 7 8 8 5 9 6 10 87 11 7 12
REMARK SMILES IDX 86 13 4 14 1 15 2 16 3 17 90 18 88 19 91 20 89 21 92 22
REMARK SMILES IDX 93 23 102 24 94 25 101 26 95 27 96 28 97 29 100 30 98 31
REMARK SMILES IDX 99 32 16 33 17 34 18 35 19 36 20 37 21 38 22 39 23 40 24 41
REMARK SMILES IDX 85 42 25 43 84 44 26 45 27 46 28 47 78 48 29 49 83 50 77 51
REMARK SMILES IDX 79 52 30 53 82 54 76 55 75 56 31 58 63 59 43 60 62 61 44 62
REMARK SMILES IDX 47 63 61 64 80 65 45 66 46 67 60 69 81 70 48 71 32 72 33 73
REMARK SMILES IDX 41 74 34 75 35 76 39 77 42 78 36 79 37 80 40 81 38 82 64 83
REMARK SMILES IDX 65 84 73 85 66 86 67 87 71 88 74 89 68 90 69 91 72 92 70 93
REMARK SMILES IDX 49 94 50 95 58 96 51 97 52 98 56 99 59 100 53 101 54 102
REMARK SMILES IDX 57 103 55 104
REMARK H PARENT 79 57 47 68
REMARK Flexibility Score: inf
ROOT
ATOM      1  C   UNL A   1      33.455  32.689  28.078  1.00  0.00     0.188 C 
ENDROOT
BRANCH   1   2
ATOM      2  O   UNL A   1      32.306  32.940  27.290  1.00  0.00    -0.376 OA
BRANCH   2   3
ATOM      3  C   UNL A   1      31.633  31.877  26.633  1.00  0.00     0.202 C 
BRANCH   3   4
ATOM      4  C   UNL A   1      32.363  30.628  26.119  1.00  0.00     0.261 C 
BRANCH   4   5
ATOM      5  O   UNL A   1      31.600  29.418  26.130  1.00  0.00    -0.460 OA
BRANCH   5   6
ATOM      6  C   UNL A   1      31.272  28.929  24.909  1.00  0.00     0.338 C 
ATOM      7  O   UNL A   1      30.650  29.497  24.028  1.00  0.00    -0.246 OA
BRANCH   6   8
ATOM      8  C   UNL A   1      31.949  27.632  24.707  1.00  0.00     0.060 A 
ATOM      9  C   UNL A   1      33.036  25.088  24.352  1.00  0.00     0.069 A 
ATOM     10  C   UNL A   1      32.295  25.669  23.318  1.00  0.00     0.029 A 
ATOM     11  C   UNL A   1      33.319  25.834  25.507  1.00  0.00     0.029 A 
ATOM     12  C   UNL A   1      31.715  26.926  23.517  1.00  0.00     0.018 A 
ATOM     13  C   UNL A   1      32.799  27.112  25.681  1.00  0.00     0.018 A 
BRANCH   9  14
ATOM     14  N   UNL A   1      33.349  23.719  24.321  1.00  0.00    -0.196 N 
ATOM     15  C   UNL A   1      32.337  20.266  24.357  1.00  0.00     0.069 C 
ATOM     16  C   UNL A   1      32.999  21.603  24.407  1.00  0.00     0.071 C 
ATOM     17  N   UNL A   1      32.359  22.746  24.373  1.00  0.00    -0.169 NA
ATOM     18  C   UNL A   1      34.459  21.783  24.523  1.00  0.00     0.065 C 
ATOM     19  C   UNL A   1      34.663  23.235  24.358  1.00  0.00     0.280 C 
ATOM     20  C   UNL A   1      35.371  20.861  24.860  1.00  0.00     0.024 C 
ATOM     21  O   UNL A   1      35.722  23.835  24.320  1.00  0.00    -0.267 OA
BRANCH  20  22
ATOM     22  C   UNL A   1      36.741  21.222  25.247  1.00  0.00    -0.025 A 
ATOM     23  C   UNL A   1      37.014  22.383  25.968  1.00  0.00     0.010 A 
ATOM     24  C   UNL A   1      37.795  20.356  24.936  1.00  0.00     0.010 A 
ATOM     25  C   UNL A   1      38.325  22.655  26.388  1.00  0.00     0.026 A 
ATOM     26  C   UNL A   1      39.099  20.644  25.352  1.00  0.00     0.026 A 
ATOM     27  C   UNL A   1      39.394  21.797  26.087  1.00  0.00     0.037 A 
BRANCH  27  28
ATOM     28  N   UNL A   1      40.665  22.072  26.538  1.00  0.00    -0.372 N 
ATOM     29  C   UNL A   1      41.390  21.256  27.507  1.00  0.00     0.116 C 
ATOM     30  C   UNL A   1      41.144  23.456  26.530  1.00  0.00     0.116 C 
ATOM     31  C   UNL A   1      42.081  22.283  28.398  1.00  0.00     0.023 C 
ATOM     32  C   UNL A   1      42.376  23.426  27.437  1.00  0.00     0.023 C 
ENDBRANCH  27  28
ENDBRANCH  20  22
ENDBRANCH   9  14
ENDBRANCH   6   8
ENDBRANCH   5   6
ENDBRANCH   4   5
ENDBRANCH   3   4
ENDBRANCH   2   3
ENDBRANCH   1   2
BRANCH   1  33
ATOM     33  C   UNL A   1      34.748  33.507  27.882  1.00  0.00     0.188 C 
BRANCH  33  34
ATOM     34  O   UNL A   1      35.002  34.559  28.779  1.00  0.00    -0.376 OA
BRANCH  34  35
ATOM     35  C   UNL A   1      34.188  35.717  28.795  1.00  0.00     0.202 C 
BRANCH  35  36
ATOM     36  C   UNL A   1      32.955  35.958  29.689  1.00  0.00     0.261 C 
BRANCH  36  37
ATOM     37  O   UNL A   1      33.159  36.456  31.012  1.00  0.00    -0.460 OA
BRANCH  37  38
ATOM     38  C   UNL A   1      32.756  35.637  32.014  1.00  0.00     0.338 C 
ATOM     39  O   UNL A   1      31.615  35.375  32.350  1.00  0.00    -0.246 OA
BRANCH  38  40
ATOM     40  C   UNL A   1      33.939  34.954  32.569  1.00  0.00     0.060 A 
ATOM     41  C   UNL A   1      35.195  35.559  32.427  1.00  0.00     0.016 A 
ATOM     42  C   UNL A   1      33.812  33.711  33.190  1.00  0.00     0.016 A 
ATOM     43  C   UNL A   1      36.337  34.906  32.892  1.00  0.00     0.010 A 
ATOM     44  C   UNL A   1      34.960  33.050  33.635  1.00  0.00     0.010 A 
ATOM     45  C   UNL A   1      36.229  33.632  33.464  1.00  0.00    -0.014 A 
BRANCH  45  46
ATOM     46  C   UNL A   1      37.451  32.833  33.730  1.00  0.00     0.031 A 
ATOM     47  C   UNL A   1      38.221  33.096  34.994  1.00  0.00     0.074 A 
ATOM     48  C   UNL A   1      37.867  31.889  32.869  1.00  0.00     0.049 A 
ATOM     49  N   UNL A   1      39.351  32.577  35.405  1.00  0.00    -0.248 NA
ATOM     50  C   UNL A   1      37.638  34.081  35.918  1.00  0.00     0.031 C 
ATOM     51  C   UNL A   1      37.186  31.511  31.633  1.00  0.00     0.029 A 
ATOM     52  N   UNL A   1      38.979  31.082  32.903  1.00  0.00    -0.354 N 
ATOM     53  C   UNL A   1      39.616  33.177  36.629  1.00  0.00     0.074 A 
ATOM     54  C   UNL A   1      38.547  34.120  36.881  1.00  0.00     0.031 C 
ATOM     55  C   UNL A   1      37.905  30.557  31.016  1.00  0.00     0.029 A 
ATOM     56  C   UNL A   1      39.111  30.282  31.795  1.00  0.00     0.049 A 
ATOM     57  H   UNL A   1      39.618  31.077  33.651  1.00  0.00     0.167 HD
ATOM     58  C   UNL A   1      40.653  32.956  37.470  1.00  0.00     0.037 A 
ATOM     59  C   UNL A   1      40.108  29.446  31.442  1.00  0.00     0.037 A 
ATOM     60  C   UNL A   1      41.718  32.021  37.216  1.00  0.00     0.049 A 
ATOM     61  C   UNL A   1      41.295  29.280  32.357  1.00  0.00     0.074 A 
ATOM     62  C   UNL A   1      42.806  31.715  38.014  1.00  0.00     0.029 A 
ATOM     63  N   UNL A   1      41.833  31.250  36.069  1.00  0.00    -0.354 N 
ATOM     64  N   UNL A   1      41.527  29.828  33.526  1.00  0.00    -0.248 NA
ATOM     65  C   UNL A   1      42.360  28.373  31.904  1.00  0.00     0.031 C 
ATOM     66  C   UNL A   1      43.609  30.801  37.325  1.00  0.00     0.029 A 
ATOM     67  C   UNL A   1      42.989  30.488  36.126  1.00  0.00     0.049 A 
ATOM     68  H   UNL A   1      41.189  31.244  35.324  1.00  0.00     0.167 HD
ATOM     69  C   UNL A   1      42.741  29.309  33.960  1.00  0.00     0.074 A 
ATOM     70  C   UNL A   1      43.192  28.391  32.936  1.00  0.00     0.031 C 
ATOM     71  C   UNL A   1      43.420  29.567  35.106  1.00  0.00     0.037 A 
BRANCH  58  72
ATOM     72  C   UNL A   1      40.704  33.761  38.737  1.00  0.00     0.064 A 
ATOM     73  C   UNL A   1      40.014  33.364  39.892  1.00  0.00     0.173 A 
ATOM     74  C   UNL A   1      41.481  34.927  38.805  1.00  0.00     0.173 A 
ATOM     75  F   UNL A   1      39.246  32.265  39.876  1.00  0.00    -0.203 F 
ATOM     76  C   UNL A   1      40.081  34.119  41.061  1.00  0.00     0.198 A 
ATOM     77  C   UNL A   1      41.571  35.661  39.984  1.00  0.00     0.198 A 
ATOM     78  F   UNL A   1      42.163  35.350  37.730  1.00  0.00    -0.203 F 
ATOM     79  F   UNL A   1      39.376  33.746  42.138  1.00  0.00    -0.200 F 
ATOM     80  C   UNL A   1      40.866  35.261  41.109  1.00  0.00     0.200 A 
ATOM     81  F   UNL A   1      42.341  36.757  40.032  1.00  0.00    -0.200 F 
ATOM     82  F   UNL A   1      40.937  35.980  42.237  1.00  0.00    -0.200 F 
ENDBRANCH  58  72
BRANCH  59  83
ATOM     83  C   UNL A   1      40.043  28.711  30.150  1.00  0.00     0.064 A 
ATOM     84  C   UNL A   1      39.460  27.439  30.072  1.00  0.00     0.173 A 
ATOM     85  C   UNL A   1      40.596  29.247  28.978  1.00  0.00     0.173 A 
ATOM     86  F   UNL A   1      38.944  26.869  31.171  1.00  0.00    -0.203 F 
ATOM     87  C   UNL A   1      39.454  26.721  28.876  1.00  0.00     0.198 A 
ATOM     88  C   UNL A   1      40.561  28.543  27.777  1.00  0.00     0.198 A 
ATOM     89  F   UNL A   1      41.172  30.458  29.000  1.00  0.00    -0.203 F 
ATOM     90  F   UNL A   1      38.942  25.483  28.844  1.00  0.00    -0.200 F 
ATOM     91  C   UNL A   1      39.999  27.276  27.728  1.00  0.00     0.200 A 
ATOM     92  F   UNL A   1      41.081  29.086  26.668  1.00  0.00    -0.200 F 
ATOM     93  F   UNL A   1      39.995  26.585  26.581  1.00  0.00    -0.200 F 
ENDBRANCH  59  83
BRANCH  71  94
ATOM     94  C   UNL A   1      44.699  28.812  35.341  1.00  0.00     0.064 A 
ATOM     95  C   UNL A   1      45.946  29.327  34.961  1.00  0.00     0.173 A 
ATOM     96  C   UNL A   1      44.676  27.571  35.999  1.00  0.00     0.173 A 
ATOM     97  F   UNL A   1      46.023  30.502  34.318  1.00  0.00    -0.203 F 
ATOM     98  C   UNL A   1      47.120  28.618  35.205  1.00  0.00     0.198 A 
ATOM     99  C   UNL A   1      45.854  26.880  36.272  1.00  0.00     0.198 A 
ATOM    100  F   UNL A   1      43.511  27.035  36.393  1.00  0.00    -0.203 F 
ATOM    101  F   UNL A   1      48.295  29.108  34.788  1.00  0.00    -0.200 F 
ATOM    102  C   UNL A   1      47.074  27.400  35.867  1.00  0.00     0.200 A 
ATOM    103  F   UNL A   1      45.808  25.713  36.928  1.00  0.00    -0.200 F 
ATOM    104  F   UNL A   1      48.205  26.724  36.110  1.00  0.00    -0.200 F 
ENDBRANCH  71  94
ENDBRANCH  45  46
ENDBRANCH  38  40
ENDBRANCH  37  38
ENDBRANCH  36  37
ENDBRANCH  35  36
ENDBRANCH  34  35
ENDBRANCH  33  34
ENDBRANCH   1  33
TORSDOF 20
ENDMDL
MODEL 3
REMARK VINA RESULT:     -10.1      3.182      4.336
REMARK SMILES CC1=NN(c2ccc(C(=O)OCCOCCOCCOC(=O)c3ccc(-c4c5nc(c(-c6c(F)c(F)c(F)c(F)c6F)c6ccc([nH]6)c(-c6c(F)c(F)c(F)c(F)c6F)c6nc(c(-c7c(F)c(F)c(F)c(F)c7F)c7ccc4[nH]7)C=C6)C=C5)cc3)cc2)C(=O)/C1=C\c1ccc(N2CCCC2)cc1
REMARK SMILES IDX 15 1 14 2 13 3 12 4 11 5 9 6 10 7 8 8 5 9 6 10 87 11 7 12
REMARK SMILES IDX 86 13 4 14 1 15 2 16 3 17 90 18 88 19 91 20 89 21 92 22
REMARK SMILES IDX 93 23 102 24 94 25 101 26 95 27 96 28 97 29 100 30 98 31
REMARK SMILES IDX 99 32 16 33 17 34 18 35 19 36 20 37 21 38 22 39 23 40 24 41
REMARK SMILES IDX 85 42 25 43 84 44 26 45 27 46 28 47 78 48 29 49 83 50 77 51
REMARK SMILES IDX 79 52 30 53 82 54 76 55 75 56 31 58 63 59 43 60 62 61 44 62
REMARK SMILES IDX 47 63 61 64 80 65 45 66 46 67 60 69 81 70 48 71 32 72 33 73
REMARK SMILES IDX 41 74 34 75 35 76 39 77 42 78 36 79 37 80 40 81 38 82 64 83
REMARK SMILES IDX 65 84 73 85 66 86 67 87 71 88 74 89 68 90 69 91 72 92 70 93
REMARK SMILES IDX 49 94 50 95 58 96 51 97 52 98 56 99 59 100 53 101 54 102
REMARK SMILES IDX 57 103 55 104
REMARK H PARENT 79 57 47 68
REMARK Flexibility Score: inf
ROOT
ATOM      1  C   UNL A   1      39.712  22.701  26.519  1.00  0.00     0.188 C 
ENDROOT
BRANCH   1   2
ATOM      2  O   UNL A   1      39.062  23.782  27.160  1.00  0.00    -0.376 OA
BRANCH   2   3
ATOM      3  C   UNL A   1      39.749  25.000  27.403  1.00  0.00     0.202 C 
BRANCH   3   4
ATOM      4  C   UNL A   1      39.639  25.760  28.733  1.00  0.00     0.261 C 
BRANCH   4   5
ATOM      5  O   UNL A   1      40.339  27.006  28.791  1.00  0.00    -0.460 OA
BRANCH   5   6
ATOM      6  C   UNL A   1      40.058  27.778  29.869  1.00  0.00     0.338 C 
ATOM      7  O   UNL A   1      40.672  27.830  30.921  1.00  0.00    -0.246 OA
BRANCH   6   8
ATOM      8  C   UNL A   1      38.973  28.719  29.524  1.00  0.00     0.060 A 
ATOM      9  C   UNL A   1      36.804  30.325  28.824  1.00  0.00     0.069 A 
ATOM     10  C   UNL A   1      36.782  29.634  30.039  1.00  0.00     0.029 A 
ATOM     11  C   UNL A   1      37.958  30.293  28.027  1.00  0.00     0.029 A 
ATOM     12  C   UNL A   1      37.853  28.796  30.367  1.00  0.00     0.018 A 
ATOM     13  C   UNL A   1      39.053  29.512  28.382  1.00  0.00     0.018 A 
BRANCH   9  14
ATOM     14  N   UNL A   1      35.629  30.904  28.313  1.00  0.00    -0.196 N 
ATOM     15  C   UNL A   1      33.238  33.592  28.221  1.00  0.00     0.069 C 
ATOM     16  C   UNL A   1      34.038  32.334  28.138  1.00  0.00     0.071 C 
ATOM     17  N   UNL A   1      35.180  32.142  28.752  1.00  0.00    -0.169 NA
ATOM     18  C   UNL A   1      33.613  31.150  27.366  1.00  0.00     0.065 C 
ATOM     19  C   UNL A   1      34.772  30.238  27.428  1.00  0.00     0.280 C 
ATOM     20  C   UNL A   1      32.398  30.897  26.862  1.00  0.00     0.024 C 
ATOM     21  O   UNL A   1      34.897  29.159  26.876  1.00  0.00    -0.267 OA
BRANCH  20  22
ATOM     22  C   UNL A   1      32.011  29.562  26.390  1.00  0.00    -0.025 A 
ATOM     23  C   UNL A   1      31.700  28.534  27.278  1.00  0.00     0.010 A 
ATOM     24  C   UNL A   1      31.895  29.324  25.016  1.00  0.00     0.010 A 
ATOM     25  C   UNL A   1      31.258  27.295  26.790  1.00  0.00     0.026 A 
ATOM     26  C   UNL A   1      31.464  28.081  24.542  1.00  0.00     0.026 A 
ATOM     27  C   UNL A   1      31.134  27.040  25.416  1.00  0.00     0.037 A 
BRANCH  27  28
ATOM     28  N   UNL A   1      30.669  25.825  24.965  1.00  0.00    -0.372 N 
ATOM     29  C   UNL A   1      30.547  24.631  25.795  1.00  0.00     0.116 C 
ATOM     30  C   UNL A   1      30.806  25.487  23.547  1.00  0.00     0.116 C 
ATOM     31  C   UNL A   1      31.014  23.506  24.878  1.00  0.00     0.023 C 
ATOM     32  C   UNL A   1      30.566  23.977  23.502  1.00  0.00     0.023 C 
ENDBRANCH  27  28
ENDBRANCH  20  22
ENDBRANCH   9  14
ENDBRANCH   6   8
ENDBRANCH   5   6
ENDBRANCH   4   5
ENDBRANCH   3   4
ENDBRANCH   2   3
ENDBRANCH   1   2
BRANCH   1  33
ATOM     33  C   UNL A   1      40.420  21.601  27.338  1.00  0.00     0.188 C 
BRANCH  33  34
ATOM     34  O   UNL A   1      41.825  21.609  27.371  1.00  0.00    -0.376 OA
BRANCH  34  35
ATOM     35  C   UNL A   1      42.581  20.841  26.453  1.00  0.00     0.202 C 
BRANCH  35  36
ATOM     36  C   UNL A   1      43.345  21.374  25.224  1.00  0.00     0.261 C 
BRANCH  36  37
ATOM     37  O   UNL A   1      43.113  22.720  24.809  1.00  0.00    -0.460 OA
BRANCH  37  38
ATOM     38  C   UNL A   1      44.224  23.467  24.596  1.00  0.00     0.338 C 
ATOM     39  O   UNL A   1      45.003  23.394  23.662  1.00  0.00    -0.246 OA
BRANCH  38  40
ATOM     40  C   UNL A   1      44.281  24.531  25.615  1.00  0.00     0.060 A 
ATOM     41  C   UNL A   1      45.202  25.573  25.451  1.00  0.00     0.016 A 
ATOM     42  C   UNL A   1      43.458  24.476  26.741  1.00  0.00     0.016 A 
ATOM     43  C   UNL A   1      45.317  26.560  26.431  1.00  0.00     0.010 A 
ATOM     44  C   UNL A   1      43.590  25.454  27.730  1.00  0.00     0.010 A 
ATOM     45  C   UNL A   1      44.538  26.484  27.593  1.00  0.00    -0.014 A 
BRANCH  45  46
ATOM     46  C   UNL A   1      44.828  27.380  28.739  1.00  0.00     0.031 A 
ATOM     47  C   UNL A   1      45.935  27.004  29.683  1.00  0.00     0.074 A 
ATOM     48  C   UNL A   1      44.125  28.508  28.937  1.00  0.00     0.049 A 
ATOM     49  N   UNL A   1      46.322  27.589  30.789  1.00  0.00    -0.248 NA
ATOM     50  C   UNL A   1      46.709  25.802  29.333  1.00  0.00     0.031 C 
ATOM     51  C   UNL A   1      43.057  29.003  28.071  1.00  0.00     0.029 A 
ATOM     52  N   UNL A   1      44.201  29.437  29.946  1.00  0.00    -0.354 N 
ATOM     53  C   UNL A   1      47.378  26.824  31.268  1.00  0.00     0.074 A 
ATOM     54  C   UNL A   1      47.551  25.716  30.353  1.00  0.00     0.031 C 
ATOM     55  C   UNL A   1      42.564  30.139  28.596  1.00  0.00     0.029 A 
ATOM     56  C   UNL A   1      43.257  30.431  29.849  1.00  0.00     0.049 A 
ATOM     57  H   UNL A   1      44.868  29.396  30.668  1.00  0.00     0.167 HD
ATOM     58  C   UNL A   1      48.138  27.030  32.369  1.00  0.00     0.037 A 
ATOM     59  C   UNL A   1      42.972  31.442  30.695  1.00  0.00     0.037 A 
ATOM     60  C   UNL A   1      47.962  28.129  33.282  1.00  0.00     0.049 A 
ATOM     61  C   UNL A   1      43.779  31.601  31.959  1.00  0.00     0.074 A 
ATOM     62  C   UNL A   1      48.691  28.433  34.418  1.00  0.00     0.029 A 
ATOM     63  N   UNL A   1      46.976  29.099  33.168  1.00  0.00    -0.354 N 
ATOM     64  N   UNL A   1      44.793  30.893  32.393  1.00  0.00    -0.248 NA
ATOM     65  C   UNL A   1      43.403  32.709  32.850  1.00  0.00     0.031 C 
ATOM     66  C   UNL A   1      48.111  29.553  35.022  1.00  0.00     0.029 A 
ATOM     67  C   UNL A   1      47.062  29.987  34.228  1.00  0.00     0.049 A 
ATOM     68  H   UNL A   1      46.314  29.150  32.440  1.00  0.00     0.167 HD
ATOM     69  C   UNL A   1      45.195  31.485  33.584  1.00  0.00     0.074 A 
ATOM     70  C   UNL A   1      44.324  32.621  33.799  1.00  0.00     0.031 C 
ATOM     71  C   UNL A   1      46.197  31.123  34.423  1.00  0.00     0.037 A 
BRANCH  58  72
ATOM     72  C   UNL A   1      49.217  26.028  32.666  1.00  0.00     0.064 A 
ATOM     73  C   UNL A   1      50.528  26.195  32.197  1.00  0.00     0.173 A 
ATOM     74  C   UNL A   1      48.942  24.905  33.460  1.00  0.00     0.173 A 
ATOM     75  F   UNL A   1      50.841  27.245  31.423  1.00  0.00    -0.203 F 
ATOM     76  C   UNL A   1      51.518  25.261  32.490  1.00  0.00     0.198 A 
ATOM     77  C   UNL A   1      49.942  23.989  33.777  1.00  0.00     0.198 A 
ATOM     78  F   UNL A   1      47.706  24.699  33.937  1.00  0.00    -0.203 F 
ATOM     79  F   UNL A   1      52.753  25.416  31.992  1.00  0.00    -0.200 F 
ATOM     80  C   UNL A   1      51.227  24.164  33.287  1.00  0.00     0.200 A 
ATOM     81  F   UNL A   1      49.661  22.938  34.559  1.00  0.00    -0.200 F 
ATOM     82  F   UNL A   1      52.183  23.271  33.577  1.00  0.00    -0.200 F 
ENDBRANCH  58  72
BRANCH  59  83
ATOM     83  C   UNL A   1      41.856  32.377  30.389  1.00  0.00     0.064 A 
ATOM     84  C   UNL A   1      42.096  33.604  29.753  1.00  0.00     0.173 A 
ATOM     85  C   UNL A   1      40.536  32.083  30.760  1.00  0.00     0.173 A 
ATOM     86  F   UNL A   1      43.346  33.946  29.406  1.00  0.00    -0.203 F 
ATOM     87  C   UNL A   1      41.062  34.510  29.522  1.00  0.00     0.198 A 
ATOM     88  C   UNL A   1      39.498  32.976  30.499  1.00  0.00     0.198 A 
ATOM     89  F   UNL A   1      40.253  30.927  31.377  1.00  0.00    -0.203 F 
ATOM     90  F   UNL A   1      41.329  35.699  28.966  1.00  0.00    -0.200 F 
ATOM     91  C   UNL A   1      39.763  34.193  29.890  1.00  0.00     0.200 A 
ATOM     92  F   UNL A   1      38.244  32.662  30.849  1.00  0.00    -0.200 F 
ATOM     93  F   UNL A   1      38.770  35.065  29.670  1.00  0.00    -0.200 F 
ENDBRANCH  59  83
BRANCH  71  94
ATOM     94  C   UNL A   1      46.443  31.989  35.627  1.00  0.00     0.064 A 
ATOM     95  C   UNL A   1      47.293  33.103  35.580  1.00  0.00     0.173 A 
ATOM     96  C   UNL A   1      45.778  31.724  36.836  1.00  0.00     0.173 A 
ATOM     97  F   UNL A   1      47.962  33.393  34.453  1.00  0.00    -0.203 F 
ATOM     98  C   UNL A   1      47.491  33.903  36.703  1.00  0.00     0.198 A 
ATOM     99  C   UNL A   1      45.952  32.545  37.947  1.00  0.00     0.198 A 
ATOM    100  F   UNL A   1      44.946  30.677  36.935  1.00  0.00    -0.203 F 
ATOM    101  F   UNL A   1      48.348  34.931  36.647  1.00  0.00    -0.200 F 
ATOM    102  C   UNL A   1      46.816  33.628  37.882  1.00  0.00     0.200 A 
ATOM    103  F   UNL A   1      45.285  32.288  39.080  1.00  0.00    -0.200 F 
ATOM    104  F   UNL A   1      47.001  34.404  38.959  1.00  0.00    -0.200 F 
ENDBRANCH  71  94
ENDBRANCH  45  46
ENDBRANCH  38  40
ENDBRANCH  37  38
ENDBRANCH  36  37
ENDBRANCH  35  36
ENDBRANCH  34  35
ENDBRANCH  33  34
ENDBRANCH   1  33
TORSDOF 20
ENDMDL
