MODEL 1
REMARK VINA RESULT:     -10.3      0.000      0.000
REMARK SMILES O=C(C[C@@H]([NH2+]Cc1cccnc1)C(=O)OCCOCCOCCOC(=O)c1ccc(-c2c3nc(c(-c4c(F)c(F)c(F)c(F)c4F)c4ccc([nH]4)c(-c4c(F)c(F)c(F)c(F)c4F)c4nc(c(-c5c(F)c(F)c(F)c(F)c5F)c5ccc2[nH]5)C=C4)C=C3)cc1)Nc1ccc2ccccc2c1
REMARK SMILES IDX 19 1 18 2 17 3 16 4 15 5 13 6 14 7 4 8 3 9 2 10 1 11 90 12
REMARK SMILES IDX 91 14 92 15 100 16 93 17 99 18 94 19 98 20 95 21 97 22 96 23
REMARK SMILES IDX 5 24 6 27 7 28 8 29 12 30 9 31 11 32 10 33 20 34 21 35 22 36
REMARK SMILES IDX 23 37 24 38 25 39 26 40 27 41 28 42 89 43 29 44 88 45 30 46
REMARK SMILES IDX 31 47 32 48 82 49 33 50 87 51 81 52 83 53 34 54 86 55 80 56
REMARK SMILES IDX 79 57 35 59 67 60 47 61 66 62 48 63 51 64 65 65 84 66 49 67
REMARK SMILES IDX 50 68 64 70 85 71 52 72 36 73 37 74 45 75 38 76 39 77 43 78
REMARK SMILES IDX 46 79 40 80 41 81 44 82 42 83 68 84 69 85 77 86 70 87 71 88
REMARK SMILES IDX 75 89 78 90 72 91 73 92 76 93 74 94 53 95 54 96 62 97 55 98
REMARK SMILES IDX 56 99 60 100 63 101 57 102 58 103 61 104 59 105
REMARK H PARENT 90 13 5 25 5 26 83 58 51 69
REMARK Flexibility Score: inf
ROOT
ATOM      1  C   UNL A   1      35.129  32.948  28.186  1.00  0.00     0.188 C 
ENDROOT
BRANCH   1   2
ATOM      2  O   UNL A   1      34.945  31.601  27.786  1.00  0.00    -0.376 OA
BRANCH   2   3
ATOM      3  C   UNL A   1      33.656  31.122  27.422  1.00  0.00     0.202 C 
BRANCH   3   4
ATOM      4  C   UNL A   1      33.419  29.650  27.016  1.00  0.00     0.261 C 
BRANCH   4   5
ATOM      5  O   UNL A   1      32.089  29.290  26.571  1.00  0.00    -0.459 OA
BRANCH   5   6
ATOM      6  C   UNL A   1      31.686  28.054  26.951  1.00  0.00     0.365 C 
ATOM      7  O   UNL A   1      31.285  27.826  28.089  1.00  0.00    -0.245 OA
BRANCH   6   8
ATOM      8  C   UNL A   1      31.604  26.993  25.811  1.00  0.00     0.303 C 
BRANCH   8   9
ATOM      9  C   UNL A   1      30.496  25.918  25.950  1.00  0.00     0.177 C 
BRANCH   9  10
ATOM     10  C   UNL A   1      31.088  24.515  26.133  1.00  0.00     0.231 C 
ATOM     11  O   UNL A   1      31.198  23.988  27.235  1.00  0.00    -0.274 OA
ATOM     12  N   UNL A   1      31.589  24.016  24.941  1.00  0.00    -0.326 N 
ATOM     13  H   UNL A   1      31.340  24.494  24.117  1.00  0.00     0.169 HD
BRANCH  12  14
ATOM     14  C   UNL A   1      32.418  22.891  24.798  1.00  0.00     0.041 A 
ATOM     15  C   UNL A   1      31.802  21.644  24.923  1.00  0.00     0.027 A 
ATOM     16  C   UNL A   1      33.805  22.966  24.657  1.00  0.00     0.034 A 
ATOM     17  C   UNL A   1      32.545  20.472  24.829  1.00  0.00     0.011 A 
ATOM     18  C   UNL A   1      34.587  21.786  24.724  1.00  0.00    -0.016 A 
ATOM     19  C   UNL A   1      33.939  20.527  24.753  1.00  0.00    -0.018 A 
ATOM     20  C   UNL A   1      35.991  21.806  24.820  1.00  0.00     0.009 A 
ATOM     21  C   UNL A   1      34.691  19.342  24.771  1.00  0.00     0.009 A 
ATOM     22  C   UNL A   1      36.724  20.618  24.936  1.00  0.00     0.001 A 
ATOM     23  C   UNL A   1      36.077  19.388  24.880  1.00  0.00     0.001 A 
ENDBRANCH  12  14
ENDBRANCH   9  10
ENDBRANCH   8   9
BRANCH   8  24
ATOM     24  N   UNL A   1      31.508  27.610  24.449  1.00  0.00    -0.330 N 
ATOM     25  H   UNL A   1      32.403  27.454  23.984  1.00  0.00     0.347 HD
ATOM     26  H   UNL A   1      31.260  28.582  24.633  1.00  0.00     0.347 HD
BRANCH  24  27
ATOM     27  C   UNL A   1      30.458  27.138  23.537  1.00  0.00     0.299 C 
BRANCH  27  28
ATOM     28  C   UNL A   1      29.601  28.221  22.936  1.00  0.00     0.024 A 
ATOM     29  C   UNL A   1      28.249  28.313  23.283  1.00  0.00     0.013 A 
ATOM     30  C   UNL A   1      30.083  29.195  22.065  1.00  0.00     0.120 A 
ATOM     31  C   UNL A   1      27.452  29.315  22.738  1.00  0.00     0.021 A 
ATOM     32  N   UNL A   1      29.329  30.166  21.497  1.00  0.00    -0.264 NA
ATOM     33  C   UNL A   1      28.029  30.201  21.846  1.00  0.00     0.111 A 
ENDBRANCH  27  28
ENDBRANCH  24  27
ENDBRANCH   8  24
ENDBRANCH   6   8
ENDBRANCH   5   6
ENDBRANCH   4   5
ENDBRANCH   3   4
ENDBRANCH   2   3
ENDBRANCH   1   2
BRANCH   1  34
ATOM     34  C   UNL A   1      34.077  33.646  29.058  1.00  0.00     0.188 C 
BRANCH  34  35
ATOM     35  O   UNL A   1      34.590  34.565  29.988  1.00  0.00    -0.376 OA
BRANCH  35  36
ATOM     36  C   UNL A   1      34.876  34.161  31.316  1.00  0.00     0.202 C 
BRANCH  36  37
ATOM     37  C   UNL A   1      36.306  33.875  31.823  1.00  0.00     0.261 C 
BRANCH  37  38
ATOM     38  O   UNL A   1      36.517  32.675  32.579  1.00  0.00    -0.460 OA
BRANCH  38  39
ATOM     39  C   UNL A   1      36.722  31.539  31.874  1.00  0.00     0.338 C 
ATOM     40  O   UNL A   1      35.869  30.774  31.449  1.00  0.00    -0.246 OA
BRANCH  39  41
ATOM     41  C   UNL A   1      38.149  31.512  31.475  1.00  0.00     0.060 A 
ATOM     42  C   UNL A   1      39.121  31.869  32.422  1.00  0.00     0.016 A 
ATOM     43  C   UNL A   1      38.527  31.116  30.192  1.00  0.00     0.016 A 
ATOM     44  C   UNL A   1      40.472  31.879  32.074  1.00  0.00     0.010 A 
ATOM     45  C   UNL A   1      39.878  31.156  29.833  1.00  0.00     0.010 A 
ATOM     46  C   UNL A   1      40.849  31.585  30.758  1.00  0.00    -0.014 A 
BRANCH  46  47
ATOM     47  C   UNL A   1      42.194  31.993  30.279  1.00  0.00     0.031 A 
ATOM     48  C   UNL A   1      42.357  33.409  29.790  1.00  0.00     0.074 A 
ATOM     49  C   UNL A   1      43.250  31.163  30.303  1.00  0.00     0.049 A 
ATOM     50  N   UNL A   1      43.399  33.998  29.262  1.00  0.00    -0.248 NA
ATOM     51  C   UNL A   1      41.174  34.277  29.913  1.00  0.00     0.031 C 
ATOM     52  C   UNL A   1      43.245  29.794  30.809  1.00  0.00     0.029 A 
ATOM     53  N   UNL A   1      44.541  31.362  29.877  1.00  0.00    -0.354 N 
ATOM     54  C   UNL A   1      42.993  35.297  28.983  1.00  0.00     0.074 A 
ATOM     55  C   UNL A   1      41.602  35.401  29.360  1.00  0.00     0.031 C 
ATOM     56  C   UNL A   1      44.473  29.268  30.650  1.00  0.00     0.029 A 
ATOM     57  C   UNL A   1      45.339  30.252  30.002  1.00  0.00     0.049 A 
ATOM     58  H   UNL A   1      44.863  32.219  29.515  1.00  0.00     0.167 HD
ATOM     59  C   UNL A   1      43.718  36.320  28.471  1.00  0.00     0.037 A 
ATOM     60  C   UNL A   1      46.616  30.054  29.617  1.00  0.00     0.037 A 
ATOM     61  C   UNL A   1      45.103  36.219  28.096  1.00  0.00     0.049 A 
ATOM     62  C   UNL A   1      47.378  31.183  28.964  1.00  0.00     0.074 A 
ATOM     63  C   UNL A   1      45.926  37.195  27.565  1.00  0.00     0.029 A 
ATOM     64  N   UNL A   1      45.867  35.066  28.206  1.00  0.00    -0.354 N 
ATOM     65  N   UNL A   1      46.995  32.411  28.709  1.00  0.00    -0.248 NA
ATOM     66  C   UNL A   1      48.761  30.896  28.550  1.00  0.00     0.031 C 
ATOM     67  C   UNL A   1      47.173  36.619  27.300  1.00  0.00     0.029 A 
ATOM     68  C   UNL A   1      47.148  35.303  27.734  1.00  0.00     0.049 A 
ATOM     69  H   UNL A   1      45.547  34.208  28.568  1.00  0.00     0.167 HD
ATOM     70  C   UNL A   1      48.097  33.052  28.154  1.00  0.00     0.074 A 
ATOM     71  C   UNL A   1      49.167  32.079  28.114  1.00  0.00     0.031 C 
ATOM     72  C   UNL A   1      48.213  34.333  27.721  1.00  0.00     0.037 A 
BRANCH  59  73
ATOM     73  C   UNL A   1      43.013  37.628  28.259  1.00  0.00     0.064 A 
ATOM     74  C   UNL A   1      43.089  38.671  29.197  1.00  0.00     0.173 A 
ATOM     75  C   UNL A   1      42.269  37.851  27.091  1.00  0.00     0.173 A 
ATOM     76  F   UNL A   1      43.773  38.504  30.339  1.00  0.00    -0.203 F 
ATOM     77  C   UNL A   1      42.422  39.875  28.985  1.00  0.00     0.198 A 
ATOM     78  C   UNL A   1      41.634  39.069  26.866  1.00  0.00     0.198 A 
ATOM     79  F   UNL A   1      42.166  36.890  26.161  1.00  0.00    -0.203 F 
ATOM     80  F   UNL A   1      42.462  40.835  29.919  1.00  0.00    -0.200 F 
ATOM     81  C   UNL A   1      41.702  40.075  27.817  1.00  0.00     0.200 A 
ATOM     82  F   UNL A   1      40.952  39.267  25.730  1.00  0.00    -0.200 F 
ATOM     83  F   UNL A   1      41.068  41.238  27.611  1.00  0.00    -0.200 F 
ENDBRANCH  59  73
BRANCH  60  84
ATOM     84  C   UNL A   1      47.266  28.733  29.826  1.00  0.00     0.064 A 
ATOM     85  C   UNL A   1      47.966  28.449  31.009  1.00  0.00     0.173 A 
ATOM     86  C   UNL A   1      47.242  27.742  28.832  1.00  0.00     0.173 A 
ATOM     87  F   UNL A   1      48.046  29.372  31.978  1.00  0.00    -0.203 F 
ATOM     88  C   UNL A   1      48.639  27.240  31.176  1.00  0.00     0.198 A 
ATOM     89  C   UNL A   1      47.887  26.521  29.014  1.00  0.00     0.198 A 
ATOM     90  F   UNL A   1      46.596  27.964  27.678  1.00  0.00    -0.203 F 
ATOM     91  F   UNL A   1      49.352  27.021  32.290  1.00  0.00    -0.200 F 
ATOM     92  C   UNL A   1      48.594  26.274  30.182  1.00  0.00     0.200 A 
ATOM     93  F   UNL A   1      47.837  25.588  28.054  1.00  0.00    -0.200 F 
ATOM     94  F   UNL A   1      49.245  25.114  30.342  1.00  0.00    -0.200 F 
ENDBRANCH  60  84
BRANCH  72  95
ATOM     95  C   UNL A   1      49.563  34.784  27.233  1.00  0.00     0.064 A 
ATOM     96  C   UNL A   1      49.878  34.860  25.869  1.00  0.00     0.173 A 
ATOM     97  C   UNL A   1      50.544  35.189  28.154  1.00  0.00     0.173 A 
ATOM     98  F   UNL A   1      48.982  34.480  24.947  1.00  0.00    -0.203 F 
ATOM     99  C   UNL A   1      51.135  35.287  25.446  1.00  0.00     0.198 A 
ATOM    100  C   UNL A   1      51.786  35.649  27.726  1.00  0.00     0.198 A 
ATOM    101  F   UNL A   1      50.294  35.149  29.472  1.00  0.00    -0.203 F 
ATOM    102  F   UNL A   1      51.434  35.293  24.140  1.00  0.00    -0.200 F 
ATOM    103  C   UNL A   1      52.085  35.687  26.374  1.00  0.00     0.200 A 
ATOM    104  F   UNL A   1      52.694  36.056  28.625  1.00  0.00    -0.200 F 
ATOM    105  F   UNL A   1      53.291  36.103  25.965  1.00  0.00    -0.200 F 
ENDBRANCH  72  95
ENDBRANCH  46  47
ENDBRANCH  39  41
ENDBRANCH  38  39
ENDBRANCH  37  38
ENDBRANCH  36  37
ENDBRANCH  35  36
ENDBRANCH  34  35
ENDBRANCH   1  34
TORSDOF 23
ENDMDL
MODEL 2
REMARK VINA RESULT:     -10.1      3.611      8.238
REMARK SMILES O=C(C[C@@H]([NH2+]Cc1cccnc1)C(=O)OCCOCCOCCOC(=O)c1ccc(-c2c3nc(c(-c4c(F)c(F)c(F)c(F)c4F)c4ccc([nH]4)c(-c4c(F)c(F)c(F)c(F)c4F)c4nc(c(-c5c(F)c(F)c(F)c(F)c5F)c5ccc2[nH]5)C=C4)C=C3)cc1)Nc1ccc2ccccc2c1
REMARK SMILES IDX 19 1 18 2 17 3 16 4 15 5 13 6 14 7 4 8 3 9 2 10 1 11 90 12
REMARK SMILES IDX 91 14 92 15 100 16 93 17 99 18 94 19 98 20 95 21 97 22 96 23
REMARK SMILES IDX 5 24 6 27 7 28 8 29 12 30 9 31 11 32 10 33 20 34 21 35 22 36
REMARK SMILES IDX 23 37 24 38 25 39 26 40 27 41 28 42 89 43 29 44 88 45 30 46
REMARK SMILES IDX 31 47 32 48 82 49 33 50 87 51 81 52 83 53 34 54 86 55 80 56
REMARK SMILES IDX 79 57 35 59 67 60 47 61 66 62 48 63 51 64 65 65 84 66 49 67
REMARK SMILES IDX 50 68 64 70 85 71 52 72 36 73 37 74 45 75 38 76 39 77 43 78
REMARK SMILES IDX 46 79 40 80 41 81 44 82 42 83 68 84 69 85 77 86 70 87 71 88
REMARK SMILES IDX 75 89 78 90 72 91 73 92 76 93 74 94 53 95 54 96 62 97 55 98
REMARK SMILES IDX 56 99 60 100 63 101 57 102 58 103 61 104 59 105
REMARK H PARENT 90 13 5 25 5 26 83 58 51 69
REMARK Flexibility Score: inf
ROOT
ATOM      1  C   UNL A   1      38.713  29.755  28.523  1.00  0.00     0.188 C 
ENDROOT
BRANCH   1   2
ATOM      2  O   UNL A   1      37.501  29.184  28.985  1.00  0.00    -0.376 OA
BRANCH   2   3
ATOM      3  C   UNL A   1      36.283  29.916  28.918  1.00  0.00     0.202 C 
BRANCH   3   4
ATOM      4  C   UNL A   1      35.514  30.099  27.590  1.00  0.00     0.261 C 
BRANCH   4   5
ATOM      5  O   UNL A   1      34.377  29.233  27.356  1.00  0.00    -0.459 OA
BRANCH   5   6
ATOM      6  C   UNL A   1      33.371  29.807  26.653  1.00  0.00     0.365 C 
ATOM      7  O   UNL A   1      33.025  30.968  26.850  1.00  0.00    -0.245 OA
BRANCH   6   8
ATOM      8  C   UNL A   1      32.806  28.958  25.474  1.00  0.00     0.303 C 
BRANCH   8   9
ATOM      9  C   UNL A   1      32.109  27.627  25.857  1.00  0.00     0.177 C 
BRANCH   9  10
ATOM     10  C   UNL A   1      32.851  26.413  25.283  1.00  0.00     0.231 C 
ATOM     11  O   UNL A   1      33.104  26.304  24.089  1.00  0.00    -0.274 OA
ATOM     12  N   UNL A   1      33.053  25.440  26.248  1.00  0.00    -0.326 N 
ATOM     13  H   UNL A   1      32.897  25.700  27.185  1.00  0.00     0.169 HD
BRANCH  12  14
ATOM     14  C   UNL A   1      33.461  24.115  26.016  1.00  0.00     0.041 A 
ATOM     15  C   UNL A   1      34.827  23.913  25.808  1.00  0.00     0.027 A 
ATOM     16  C   UNL A   1      32.573  23.047  25.872  1.00  0.00     0.034 A 
ATOM     17  C   UNL A   1      35.323  22.641  25.539  1.00  0.00     0.011 A 
ATOM     18  C   UNL A   1      33.051  21.786  25.439  1.00  0.00    -0.016 A 
ATOM     19  C   UNL A   1      34.447  21.574  25.327  1.00  0.00    -0.018 A 
ATOM     20  C   UNL A   1      32.193  20.737  25.053  1.00  0.00     0.009 A 
ATOM     21  C   UNL A   1      34.946  20.320  24.946  1.00  0.00     0.009 A 
ATOM     22  C   UNL A   1      32.705  19.522  24.581  1.00  0.00     0.001 A 
ATOM     23  C   UNL A   1      34.079  19.303  24.557  1.00  0.00     0.001 A 
ENDBRANCH  12  14
ENDBRANCH   9  10
ENDBRANCH   8   9
BRANCH   8  24
ATOM     24  N   UNL A   1      31.893  29.739  24.580  1.00  0.00    -0.330 N 
ATOM     25  H   UNL A   1      32.431  30.000  23.753  1.00  0.00     0.347 HD
ATOM     26  H   UNL A   1      31.569  30.508  25.167  1.00  0.00     0.347 HD
BRANCH  24  27
ATOM     27  C   UNL A   1      30.656  29.102  24.109  1.00  0.00     0.299 C 
BRANCH  27  28
ATOM     28  C   UNL A   1      29.760  29.984  23.279  1.00  0.00     0.024 A 
ATOM     29  C   UNL A   1      29.161  31.108  23.856  1.00  0.00     0.013 A 
ATOM     30  C   UNL A   1      29.512  29.778  21.924  1.00  0.00     0.120 A 
ATOM     31  C   UNL A   1      28.338  31.932  23.094  1.00  0.00     0.021 A 
ATOM     32  N   UNL A   1      28.695  30.544  21.163  1.00  0.00    -0.264 NA
ATOM     33  C   UNL A   1      28.126  31.603  21.768  1.00  0.00     0.111 A 
ENDBRANCH  27  28
ENDBRANCH  24  27
ENDBRANCH   8  24
ENDBRANCH   6   8
ENDBRANCH   5   6
ENDBRANCH   4   5
ENDBRANCH   3   4
ENDBRANCH   2   3
ENDBRANCH   1   2
BRANCH   1  34
ATOM     34  C   UNL A   1      39.940  28.868  28.278  1.00  0.00     0.188 C 
BRANCH  34  35
ATOM     35  O   UNL A   1      39.666  27.619  27.696  1.00  0.00    -0.376 OA
BRANCH  35  36
ATOM     36  C   UNL A   1      39.659  26.443  28.486  1.00  0.00     0.202 C 
BRANCH  36  37
ATOM     37  C   UNL A   1      39.804  25.025  27.893  1.00  0.00     0.261 C 
BRANCH  37  38
ATOM     38  O   UNL A   1      41.021  24.314  28.153  1.00  0.00    -0.460 OA
BRANCH  38  39
ATOM     39  C   UNL A   1      41.736  23.916  27.076  1.00  0.00     0.338 C 
ATOM     40  O   UNL A   1      41.403  23.094  26.237  1.00  0.00    -0.246 OA
BRANCH  39  41
ATOM     41  C   UNL A   1      42.888  24.838  26.939  1.00  0.00     0.060 A 
ATOM     42  C   UNL A   1      43.631  25.167  28.083  1.00  0.00     0.016 A 
ATOM     43  C   UNL A   1      43.247  25.355  25.693  1.00  0.00     0.016 A 
ATOM     44  C   UNL A   1      44.706  26.051  27.995  1.00  0.00     0.010 A 
ATOM     45  C   UNL A   1      44.305  26.267  25.610  1.00  0.00     0.010 A 
ATOM     46  C   UNL A   1      45.006  26.654  26.768  1.00  0.00    -0.014 A 
BRANCH  46  47
ATOM     47  C   UNL A   1      45.844  27.879  26.746  1.00  0.00     0.031 A 
ATOM     48  C   UNL A   1      47.323  27.706  26.512  1.00  0.00     0.074 A 
ATOM     49  C   UNL A   1      45.326  29.110  26.892  1.00  0.00     0.049 A 
ATOM     50  N   UNL A   1      48.281  28.597  26.510  1.00  0.00    -0.248 NA
ATOM     51  C   UNL A   1      47.779  26.332  26.245  1.00  0.00     0.031 C 
ATOM     52  C   UNL A   1      43.910  29.422  27.060  1.00  0.00     0.029 A 
ATOM     53  N   UNL A   1      45.949  30.334  26.928  1.00  0.00    -0.354 N 
ATOM     54  C   UNL A   1      49.449  27.889  26.254  1.00  0.00     0.074 A 
ATOM     55  C   UNL A   1      49.089  26.494  26.146  1.00  0.00     0.031 C 
ATOM     56  C   UNL A   1      43.772  30.753  27.197  1.00  0.00     0.029 A 
ATOM     57  C   UNL A   1      45.092  31.381  27.158  1.00  0.00     0.049 A 
ATOM     58  H   UNL A   1      46.918  30.449  26.800  1.00  0.00     0.167 HD
ATOM     59  C   UNL A   1      50.710  28.361  26.106  1.00  0.00     0.037 A 
ATOM     60  C   UNL A   1      45.353  32.692  27.338  1.00  0.00     0.037 A 
ATOM     61  C   UNL A   1      51.070  29.750  26.213  1.00  0.00     0.049 A 
ATOM     62  C   UNL A   1      46.780  33.182  27.259  1.00  0.00     0.074 A 
ATOM     63  C   UNL A   1      52.319  30.329  26.083  1.00  0.00     0.029 A 
ATOM     64  N   UNL A   1      50.177  30.776  26.483  1.00  0.00    -0.354 N 
ATOM     65  N   UNL A   1      47.879  32.514  27.009  1.00  0.00    -0.248 NA
ATOM     66  C   UNL A   1      46.998  34.621  27.482  1.00  0.00     0.031 C 
ATOM     67  C   UNL A   1      52.192  31.700  26.332  1.00  0.00     0.029 A 
ATOM     68  C   UNL A   1      50.853  31.985  26.543  1.00  0.00     0.049 A 
ATOM     69  H   UNL A   1      49.207  30.663  26.610  1.00  0.00     0.167 HD
ATOM     70  C   UNL A   1      48.907  33.451  26.997  1.00  0.00     0.074 A 
ATOM     71  C   UNL A   1      48.298  34.738  27.259  1.00  0.00     0.031 C 
ATOM     72  C   UNL A   1      50.233  33.263  26.783  1.00  0.00     0.037 A 
BRANCH  59  73
ATOM     73  C   UNL A   1      51.796  27.358  25.844  1.00  0.00     0.064 A 
ATOM     74  C   UNL A   1      52.553  26.797  26.886  1.00  0.00     0.173 A 
ATOM     75  C   UNL A   1      52.068  26.935  24.535  1.00  0.00     0.173 A 
ATOM     76  F   UNL A   1      52.345  27.179  28.154  1.00  0.00    -0.203 F 
ATOM     77  C   UNL A   1      53.561  25.873  26.621  1.00  0.00     0.198 A 
ATOM     78  C   UNL A   1      53.052  25.985  24.278  1.00  0.00     0.198 A 
ATOM     79  F   UNL A   1      51.373  27.437  23.503  1.00  0.00    -0.203 F 
ATOM     80  F   UNL A   1      54.308  25.393  27.624  1.00  0.00    -0.200 F 
ATOM     81  C   UNL A   1      53.803  25.462  25.319  1.00  0.00     0.200 A 
ATOM     82  F   UNL A   1      53.275  25.577  23.021  1.00  0.00    -0.200 F 
ATOM     83  F   UNL A   1      54.768  24.566  25.067  1.00  0.00    -0.200 F 
ENDBRANCH  59  73
BRANCH  60  84
ATOM     84  C   UNL A   1      44.246  33.645  27.618  1.00  0.00     0.064 A 
ATOM     85  C   UNL A   1      43.789  34.535  26.634  1.00  0.00     0.173 A 
ATOM     86  C   UNL A   1      43.653  33.721  28.888  1.00  0.00     0.173 A 
ATOM     87  F   UNL A   1      44.343  34.525  25.413  1.00  0.00    -0.203 F 
ATOM     88  C   UNL A   1      42.804  35.480  26.916  1.00  0.00     0.198 A 
ATOM     89  C   UNL A   1      42.645  34.644  29.160  1.00  0.00     0.198 A 
ATOM     90  F   UNL A   1      44.058  32.902  29.869  1.00  0.00    -0.203 F 
ATOM     91  F   UNL A   1      42.432  36.357  25.975  1.00  0.00    -0.200 F 
ATOM     92  C   UNL A   1      42.228  35.530  28.177  1.00  0.00     0.200 A 
ATOM     93  F   UNL A   1      42.086  34.685  30.377  1.00  0.00    -0.200 F 
ATOM     94  F   UNL A   1      41.284  36.441  28.449  1.00  0.00    -0.200 F 
ENDBRANCH  60  84
BRANCH  72  95
ATOM     95  C   UNL A   1      51.114  34.483  26.748  1.00  0.00     0.064 A 
ATOM     96  C   UNL A   1      51.304  35.233  25.578  1.00  0.00     0.173 A 
ATOM     97  C   UNL A   1      51.743  34.930  27.921  1.00  0.00     0.173 A 
ATOM     98  F   UNL A   1      50.734  34.848  24.428  1.00  0.00    -0.203 F 
ATOM     99  C   UNL A   1      52.122  36.362  25.576  1.00  0.00     0.198 A 
ATOM    100  C   UNL A   1      52.529  36.078  27.923  1.00  0.00     0.198 A 
ATOM    101  F   UNL A   1      51.586  34.258  29.072  1.00  0.00    -0.203 F 
ATOM    102  F   UNL A   1      52.338  37.028  24.434  1.00  0.00    -0.200 F 
ATOM    103  C   UNL A   1      52.728  36.787  26.750  1.00  0.00     0.200 A 
ATOM    104  F   UNL A   1      53.095  36.499  29.064  1.00  0.00    -0.200 F 
ATOM    105  F   UNL A   1      53.508  37.876  26.746  1.00  0.00    -0.200 F 
ENDBRANCH  72  95
ENDBRANCH  46  47
ENDBRANCH  39  41
ENDBRANCH  38  39
ENDBRANCH  37  38
ENDBRANCH  36  37
ENDBRANCH  35  36
ENDBRANCH  34  35
ENDBRANCH   1  34
TORSDOF 23
ENDMDL
MODEL 3
REMARK VINA RESULT:     -10.1      7.489     10.818
REMARK SMILES O=C(C[C@@H]([NH2+]Cc1cccnc1)C(=O)OCCOCCOCCOC(=O)c1ccc(-c2c3nc(c(-c4c(F)c(F)c(F)c(F)c4F)c4ccc([nH]4)c(-c4c(F)c(F)c(F)c(F)c4F)c4nc(c(-c5c(F)c(F)c(F)c(F)c5F)c5ccc2[nH]5)C=C4)C=C3)cc1)Nc1ccc2ccccc2c1
REMARK SMILES IDX 19 1 18 2 17 3 16 4 15 5 13 6 14 7 4 8 3 9 2 10 1 11 90 12
REMARK SMILES IDX 91 14 92 15 100 16 93 17 99 18 94 19 98 20 95 21 97 22 96 23
REMARK SMILES IDX 5 24 6 27 7 28 8 29 12 30 9 31 11 32 10 33 20 34 21 35 22 36
REMARK SMILES IDX 23 37 24 38 25 39 26 40 27 41 28 42 89 43 29 44 88 45 30 46
REMARK SMILES IDX 31 47 32 48 82 49 33 50 87 51 81 52 83 53 34 54 86 55 80 56
REMARK SMILES IDX 79 57 35 59 67 60 47 61 66 62 48 63 51 64 65 65 84 66 49 67
REMARK SMILES IDX 50 68 64 70 85 71 52 72 36 73 37 74 45 75 38 76 39 77 43 78
REMARK SMILES IDX 46 79 40 80 41 81 44 82 42 83 68 84 69 85 77 86 70 87 71 88
REMARK SMILES IDX 75 89 78 90 72 91 73 92 76 93 74 94 53 95 54 96 62 97 55 98
REMARK SMILES IDX 56 99 60 100 63 101 57 102 58 103 61 104 59 105
REMARK H PARENT 90 13 5 25 5 26 83 58 51 69
REMARK Flexibility Score: inf
ROOT
ATOM      1  C   UNL A   1      34.744  30.265  27.499  1.00  0.00     0.188 C 
ENDROOT
BRANCH   1   2
ATOM      2  O   UNL A   1      34.205  29.128  26.848  1.00  0.00    -0.376 OA
BRANCH   2   3
ATOM      3  C   UNL A   1      32.893  28.671  27.153  1.00  0.00     0.202 C 
BRANCH   3   4
ATOM      4  C   UNL A   1      32.406  27.261  26.749  1.00  0.00     0.261 C 
BRANCH   4   5
ATOM      5  O   UNL A   1      31.046  27.140  26.269  1.00  0.00    -0.459 OA
BRANCH   5   6
ATOM      6  C   UNL A   1      30.861  26.163  25.349  1.00  0.00     0.365 C 
ATOM      7  O   UNL A   1      29.962  25.333  25.460  1.00  0.00    -0.245 OA
BRANCH   6   8
ATOM      8  C   UNL A   1      31.745  26.269  24.070  1.00  0.00     0.303 C 
BRANCH   8   9
ATOM      9  C   UNL A   1      31.486  25.211  22.966  1.00  0.00     0.177 C 
BRANCH   9  10
ATOM     10  C   UNL A   1      32.502  24.063  23.032  1.00  0.00     0.231 C 
ATOM     11  O   UNL A   1      33.376  23.912  22.185  1.00  0.00    -0.274 OA
ATOM     12  N   UNL A   1      32.207  23.184  24.061  1.00  0.00    -0.326 N 
ATOM     13  H   UNL A   1      31.546  23.481  24.727  1.00  0.00     0.169 HD
BRANCH  12  14
ATOM     14  C   UNL A   1      32.765  21.907  24.245  1.00  0.00     0.041 A 
ATOM     15  C   UNL A   1      34.022  21.859  24.851  1.00  0.00     0.027 A 
ATOM     16  C   UNL A   1      32.186  20.734  23.757  1.00  0.00     0.034 A 
ATOM     17  C   UNL A   1      34.669  20.643  25.046  1.00  0.00     0.011 A 
ATOM     18  C   UNL A   1      32.909  19.517  23.805  1.00  0.00    -0.016 A 
ATOM     19  C   UNL A   1      34.138  19.468  24.509  1.00  0.00    -0.018 A 
ATOM     20  C   UNL A   1      32.490  18.353  23.132  1.00  0.00     0.009 A 
ATOM     21  C   UNL A   1      34.850  18.264  24.612  1.00  0.00     0.009 A 
ATOM     22  C   UNL A   1      33.261  17.184  23.163  1.00  0.00     0.001 A 
ATOM     23  C   UNL A   1      34.422  17.130  23.927  1.00  0.00     0.001 A 
ENDBRANCH  12  14
ENDBRANCH   9  10
ENDBRANCH   8   9
BRANCH   8  24
ATOM     24  N   UNL A   1      31.708  27.631  23.448  1.00  0.00    -0.330 N 
ATOM     25  H   UNL A   1      32.634  27.809  23.057  1.00  0.00     0.347 HD
ATOM     26  H   UNL A   1      31.416  28.244  24.209  1.00  0.00     0.347 HD
BRANCH  24  27
ATOM     27  C   UNL A   1      30.731  27.891  22.383  1.00  0.00     0.299 C 
BRANCH  27  28
ATOM     28  C   UNL A   1      29.616  28.833  22.756  1.00  0.00     0.024 A 
ATOM     29  C   UNL A   1      28.298  28.369  22.801  1.00  0.00     0.013 A 
ATOM     30  C   UNL A   1      29.816  30.165  23.114  1.00  0.00     0.120 A 
ATOM     31  C   UNL A   1      27.263  29.232  23.152  1.00  0.00     0.021 A 
ATOM     32  N   UNL A   1      28.829  31.036  23.434  1.00  0.00    -0.264 NA
ATOM     33  C   UNL A   1      27.574  30.547  23.443  1.00  0.00     0.111 A 
ENDBRANCH  27  28
ENDBRANCH  24  27
ENDBRANCH   8  24
ENDBRANCH   6   8
ENDBRANCH   5   6
ENDBRANCH   4   5
ENDBRANCH   3   4
ENDBRANCH   2   3
ENDBRANCH   1   2
BRANCH   1  34
ATOM     34  C   UNL A   1      33.877  31.510  27.724  1.00  0.00     0.188 C 
BRANCH  34  35
ATOM     35  O   UNL A   1      34.580  32.666  28.100  1.00  0.00    -0.376 OA
BRANCH  35  36
ATOM     36  C   UNL A   1      34.035  33.562  29.054  1.00  0.00     0.202 C 
BRANCH  36  37
ATOM     37  C   UNL A   1      34.678  33.823  30.433  1.00  0.00     0.261 C 
BRANCH  37  38
ATOM     38  O   UNL A   1      34.457  32.853  31.465  1.00  0.00    -0.460 OA
BRANCH  38  39
ATOM     39  C   UNL A   1      35.374  31.866  31.581  1.00  0.00     0.338 C 
ATOM     40  O   UNL A   1      35.659  31.025  30.742  1.00  0.00    -0.246 OA
BRANCH  39  41
ATOM     41  C   UNL A   1      36.168  32.134  32.804  1.00  0.00     0.060 A 
ATOM     42  C   UNL A   1      35.911  33.307  33.532  1.00  0.00     0.016 A 
ATOM     43  C   UNL A   1      37.136  31.231  33.242  1.00  0.00     0.016 A 
ATOM     44  C   UNL A   1      36.656  33.603  34.673  1.00  0.00     0.010 A 
ATOM     45  C   UNL A   1      37.905  31.544  34.368  1.00  0.00     0.010 A 
ATOM     46  C   UNL A   1      37.699  32.754  35.058  1.00  0.00    -0.014 A 
BRANCH  46  47
ATOM     47  C   UNL A   1      38.741  33.258  35.988  1.00  0.00     0.031 A 
ATOM     48  C   UNL A   1      38.536  33.014  37.461  1.00  0.00     0.074 A 
ATOM     49  C   UNL A   1      39.851  33.880  35.557  1.00  0.00     0.049 A 
ATOM     50  N   UNL A   1      39.255  33.403  38.482  1.00  0.00    -0.248 NA
ATOM     51  C   UNL A   1      37.351  32.221  37.827  1.00  0.00     0.031 C 
ATOM     52  C   UNL A   1      40.203  34.123  34.161  1.00  0.00     0.029 A 
ATOM     53  N   UNL A   1      40.890  34.430  36.268  1.00  0.00    -0.354 N 
ATOM     54  C   UNL A   1      38.603  32.912  39.607  1.00  0.00     0.074 A 
ATOM     55  C   UNL A   1      37.413  32.232  39.148  1.00  0.00     0.031 C 
ATOM     56  C   UNL A   1      41.371  34.788  34.117  1.00  0.00     0.029 A 
ATOM     57  C   UNL A   1      41.831  35.046  35.481  1.00  0.00     0.049 A 
ATOM     58  H   UNL A   1      40.953  34.388  37.250  1.00  0.00     0.167 HD
ATOM     59  C   UNL A   1      38.970  33.005  40.907  1.00  0.00     0.037 A 
ATOM     60  C   UNL A   1      42.925  35.753  35.830  1.00  0.00     0.037 A 
ATOM     61  C   UNL A   1      40.155  33.680  41.364  1.00  0.00     0.049 A 
ATOM     62  C   UNL A   1      43.265  35.921  37.292  1.00  0.00     0.074 A 
ATOM     63  C   UNL A   1      40.614  33.833  42.660  1.00  0.00     0.029 A 
ATOM     64  N   UNL A   1      41.065  34.321  40.538  1.00  0.00    -0.354 N 
ATOM     65  N   UNL A   1      42.654  35.449  38.351  1.00  0.00    -0.248 NA
ATOM     66  C   UNL A   1      44.462  36.719  37.605  1.00  0.00     0.031 C 
ATOM     67  C   UNL A   1      41.772  34.617  42.623  1.00  0.00     0.029 A 
ATOM     68  C   UNL A   1      42.074  34.890  41.299  1.00  0.00     0.049 A 
ATOM     69  H   UNL A   1      41.004  34.365  39.556  1.00  0.00     0.167 HD
ATOM     70  C   UNL A   1      43.412  35.850  39.446  1.00  0.00     0.074 A 
ATOM     71  C   UNL A   1      44.534  36.598  38.922  1.00  0.00     0.031 C 
ATOM     72  C   UNL A   1      43.200  35.614  40.765  1.00  0.00     0.037 A 
BRANCH  59  73
ATOM     73  C   UNL A   1      38.060  32.386  41.927  1.00  0.00     0.064 A 
ATOM     74  C   UNL A   1      36.876  33.015  42.343  1.00  0.00     0.173 A 
ATOM     75  C   UNL A   1      38.365  31.133  42.481  1.00  0.00     0.173 A 
ATOM     76  F   UNL A   1      36.545  34.221  41.858  1.00  0.00    -0.203 F 
ATOM     77  C   UNL A   1      36.048  32.427  43.296  1.00  0.00     0.198 A 
ATOM     78  C   UNL A   1      37.517  30.531  43.406  1.00  0.00     0.198 A 
ATOM     79  F   UNL A   1      39.483  30.487  42.117  1.00  0.00    -0.203 F 
ATOM     80  F   UNL A   1      34.952  33.072  43.719  1.00  0.00    -0.200 F 
ATOM     81  C   UNL A   1      36.365  31.183  43.820  1.00  0.00     0.200 A 
ATOM     82  F   UNL A   1      37.816  29.323  43.900  1.00  0.00    -0.200 F 
ATOM     83  F   UNL A   1      35.563  30.614  44.731  1.00  0.00    -0.200 F 
ENDBRANCH  59  73
BRANCH  60  84
ATOM     84  C   UNL A   1      43.785  36.368  34.783  1.00  0.00     0.064 A 
ATOM     85  C   UNL A   1      44.956  35.734  34.343  1.00  0.00     0.173 A 
ATOM     86  C   UNL A   1      43.481  37.624  34.235  1.00  0.00     0.173 A 
ATOM     87  F   UNL A   1      45.309  34.547  34.857  1.00  0.00    -0.203 F 
ATOM     88  C   UNL A   1      45.802  36.343  33.418  1.00  0.00     0.198 A 
ATOM     89  C   UNL A   1      44.310  38.217  33.286  1.00  0.00     0.198 A 
ATOM     90  F   UNL A   1      42.379  38.280  34.628  1.00  0.00    -0.203 F 
ATOM     91  F   UNL A   1      46.946  35.742  33.062  1.00  0.00    -0.200 F 
ATOM     92  C   UNL A   1      45.476  37.581  32.885  1.00  0.00     0.200 A 
ATOM     93  F   UNL A   1      43.989  39.411  32.769  1.00  0.00    -0.200 F 
ATOM     94  F   UNL A   1      46.293  38.168  31.999  1.00  0.00    -0.200 F 
ENDBRANCH  60  84
BRANCH  72  95
ATOM     95  C   UNL A   1      44.238  36.105  41.737  1.00  0.00     0.064 A 
ATOM     96  C   UNL A   1      44.157  37.368  42.342  1.00  0.00     0.173 A 
ATOM     97  C   UNL A   1      45.312  35.274  42.098  1.00  0.00     0.173 A 
ATOM     98  F   UNL A   1      43.158  38.205  42.027  1.00  0.00    -0.203 F 
ATOM     99  C   UNL A   1      45.132  37.795  43.242  1.00  0.00     0.198 A 
ATOM    100  C   UNL A   1      46.262  35.690  43.026  1.00  0.00     0.198 A 
ATOM    101  F   UNL A   1      45.433  34.051  41.560  1.00  0.00    -0.203 F 
ATOM    102  F   UNL A   1      45.067  39.028  43.761  1.00  0.00    -0.200 F 
ATOM    103  C   UNL A   1      46.179  36.953  43.588  1.00  0.00     0.200 A 
ATOM    104  F   UNL A   1      47.261  34.866  43.375  1.00  0.00    -0.200 F 
ATOM    105  F   UNL A   1      47.111  37.364  44.459  1.00  0.00    -0.200 F 
ENDBRANCH  72  95
ENDBRANCH  46  47
ENDBRANCH  39  41
ENDBRANCH  38  39
ENDBRANCH  37  38
ENDBRANCH  36  37
ENDBRANCH  35  36
ENDBRANCH  34  35
ENDBRANCH   1  34
TORSDOF 23
ENDMDL
