MODEL 1
REMARK VINA RESULT:     -10.5      0.000      0.000
REMARK SMILES Nc1ccc(O)c(C(=O)OCCOCCOCCOC(=O)c2ccc(-c3c4nc(c(-c5c(F)c(F)c(F)c(F)c5F)c5ccc([nH]5)c(-c5c(F)c(F)c(F)c(F)c5F)c5nc(c(-c6c(F)c(F)c(F)c(F)c6F)c6ccc3[nH]6)C=C5)C=C4)cc2)c1
REMARK SMILES IDX 15 1 14 2 13 3 12 4 11 5 10 6 8 7 9 8 7 9 2 10 3 11 85 12
REMARK SMILES IDX 4 13 5 14 1 15 6 18 16 20 17 21 18 22 19 23 20 24 21 25
REMARK SMILES IDX 22 26 23 27 84 28 24 29 83 30 25 31 26 32 27 33 77 34 28 35
REMARK SMILES IDX 82 36 76 37 78 38 29 39 81 40 75 41 74 42 30 44 62 45 42 46
REMARK SMILES IDX 61 47 43 48 46 49 60 50 79 51 44 52 45 53 59 55 80 56 47 57
REMARK SMILES IDX 31 58 32 59 40 60 33 61 34 62 38 63 41 64 35 65 36 66 39 67
REMARK SMILES IDX 37 68 63 69 64 70 72 71 65 72 66 73 70 74 73 75 67 76 68 77
REMARK SMILES IDX 71 78 69 79 48 80 49 81 57 82 50 83 51 84 55 85 58 86 52 87
REMARK SMILES IDX 53 88 56 89 54 90
REMARK H PARENT 1 16 1 17 6 19 78 43 46 54
REMARK Flexibility Score: inf
ROOT
ATOM      1  C   UNL A   1      39.812  20.954  26.117  1.00  0.00     0.188 C 
ENDROOT
BRANCH   1   2
ATOM      2  C   UNL A   1      38.832  22.140  26.003  1.00  0.00     0.188 C 
BRANCH   2   3
ATOM      3  O   UNL A   1      37.480  21.950  25.633  1.00  0.00    -0.376 OA
BRANCH   3   4
ATOM      4  C   UNL A   1      37.112  21.921  24.264  1.00  0.00     0.202 C 
BRANCH   4   5
ATOM      5  C   UNL A   1      36.642  23.203  23.572  1.00  0.00     0.261 C 
BRANCH   5   6
ATOM      6  O   UNL A   1      35.330  23.102  22.999  1.00  0.00    -0.460 OA
BRANCH   6   7
ATOM      7  C   UNL A   1      34.312  23.420  23.832  1.00  0.00     0.342 C 
ATOM      8  O   UNL A   1      33.816  22.706  24.693  1.00  0.00    -0.246 OA
BRANCH   7   9
ATOM      9  C   UNL A   1      33.998  24.860  23.765  1.00  0.00     0.103 A 
ATOM     10  C   UNL A   1      33.709  27.033  24.806  1.00  0.00     0.032 A 
ATOM     11  C   UNL A   1      33.344  27.557  23.559  1.00  0.00     0.029 A 
ATOM     12  C   UNL A   1      34.048  25.680  24.901  1.00  0.00     0.045 A 
ATOM     13  C   UNL A   1      33.277  26.742  22.428  1.00  0.00     0.049 A 
ATOM     14  C   UNL A   1      33.613  25.399  22.531  1.00  0.00     0.130 A 
BRANCH  10  15
ATOM     15  N   UNL A   1      33.837  27.872  25.900  1.00  0.00    -0.399 N 
ATOM     16  H   UNL A   1      34.672  28.374  26.040  1.00  0.00     0.156 HD
ATOM     17  H   UNL A   1      33.093  27.965  26.537  1.00  0.00     0.156 HD
ENDBRANCH  10  15
BRANCH  14  18
ATOM     18  O   UNL A   1      33.524  24.656  21.383  1.00  0.00    -0.507 OA
ATOM     19  H   UNL A   1      32.862  23.997  21.302  1.00  0.00     0.293 HD
ENDBRANCH  14  18
ENDBRANCH   7   9
ENDBRANCH   6   7
ENDBRANCH   5   6
ENDBRANCH   4   5
ENDBRANCH   3   4
ENDBRANCH   2   3
ENDBRANCH   1   2
BRANCH   1  20
ATOM     20  O   UNL A   1      40.987  21.039  26.892  1.00  0.00    -0.376 OA
BRANCH  20  21
ATOM     21  C   UNL A   1      42.245  20.628  26.389  1.00  0.00     0.202 C 
BRANCH  21  22
ATOM     22  C   UNL A   1      43.248  21.569  25.713  1.00  0.00     0.261 C 
BRANCH  22  23
ATOM     23  O   UNL A   1      42.697  22.685  25.010  1.00  0.00    -0.460 OA
BRANCH  23  24
ATOM     24  C   UNL A   1      43.470  23.799  25.019  1.00  0.00     0.338 C 
ATOM     25  O   UNL A   1      44.452  24.031  24.340  1.00  0.00    -0.246 OA
BRANCH  24  26
ATOM     26  C   UNL A   1      42.858  24.801  25.906  1.00  0.00     0.060 A 
ATOM     27  C   UNL A   1      43.488  26.044  26.041  1.00  0.00     0.016 A 
ATOM     28  C   UNL A   1      41.713  24.495  26.642  1.00  0.00     0.016 A 
ATOM     29  C   UNL A   1      42.986  26.982  26.942  1.00  0.00     0.010 A 
ATOM     30  C   UNL A   1      41.222  25.429  27.557  1.00  0.00     0.010 A 
ATOM     31  C   UNL A   1      41.873  26.663  27.732  1.00  0.00    -0.014 A 
BRANCH  31  32
ATOM     32  C   UNL A   1      41.488  27.549  28.856  1.00  0.00     0.031 A 
ATOM     33  C   UNL A   1      42.272  27.471  30.137  1.00  0.00     0.074 A 
ATOM     34  C   UNL A   1      40.465  28.413  28.741  1.00  0.00     0.049 A 
ATOM     35  N   UNL A   1      42.080  28.097  31.270  1.00  0.00    -0.248 NA
ATOM     36  C   UNL A   1      43.429  26.561  30.139  1.00  0.00     0.031 C 
ATOM     37  C   UNL A   1      39.659  28.613  27.539  1.00  0.00     0.029 A 
ATOM     38  N   UNL A   1      39.925  29.278  29.660  1.00  0.00    -0.354 N 
ATOM     39  C   UNL A   1      43.089  27.658  32.117  1.00  0.00     0.074 A 
ATOM     40  C   UNL A   1      43.872  26.690  31.381  1.00  0.00     0.031 C 
ATOM     41  C   UNL A   1      38.710  29.529  27.802  1.00  0.00     0.029 A 
ATOM     42  C   UNL A   1      38.826  29.956  29.196  1.00  0.00     0.049 A 
ATOM     43  H   UNL A   1      40.291  29.400  30.566  1.00  0.00     0.167 HD
ATOM     44  C   UNL A   1      43.343  28.035  33.392  1.00  0.00     0.037 A 
ATOM     45  C   UNL A   1      37.996  30.804  29.834  1.00  0.00     0.037 A 
ATOM     46  C   UNL A   1      42.561  28.994  34.126  1.00  0.00     0.049 A 
ATOM     47  C   UNL A   1      38.254  31.145  31.281  1.00  0.00     0.074 A 
ATOM     48  C   UNL A   1      42.747  29.449  35.420  1.00  0.00     0.029 A 
ATOM     49  N   UNL A   1      41.439  29.640  33.631  1.00  0.00    -0.354 N 
ATOM     50  N   UNL A   1      39.223  30.746  32.069  1.00  0.00    -0.248 NA
ATOM     51  C   UNL A   1      37.300  32.059  31.927  1.00  0.00     0.031 C 
ATOM     52  C   UNL A   1      41.708  30.334  35.726  1.00  0.00     0.029 A 
ATOM     53  C   UNL A   1      40.907  30.472  34.604  1.00  0.00     0.049 A 
ATOM     54  H   UNL A   1      41.074  29.525  32.724  1.00  0.00     0.167 HD
ATOM     55  C   UNL A   1      39.015  31.383  33.286  1.00  0.00     0.074 A 
ATOM     56  C   UNL A   1      37.834  32.205  33.131  1.00  0.00     0.031 C 
ATOM     57  C   UNL A   1      39.738  31.296  34.430  1.00  0.00     0.037 A 
BRANCH  44  58
ATOM     58  C   UNL A   1      44.507  27.392  34.085  1.00  0.00     0.064 A 
ATOM     59  C   UNL A   1      45.775  27.992  34.103  1.00  0.00     0.173 A 
ATOM     60  C   UNL A   1      44.342  26.182  34.775  1.00  0.00     0.173 A 
ATOM     61  F   UNL A   1      45.987  29.142  33.444  1.00  0.00    -0.203 F 
ATOM     62  C   UNL A   1      46.840  27.395  34.771  1.00  0.00     0.198 A 
ATOM     63  C   UNL A   1      45.402  25.601  35.465  1.00  0.00     0.198 A 
ATOM     64  F   UNL A   1      43.149  25.569  34.791  1.00  0.00    -0.203 F 
ATOM     65  F   UNL A   1      48.052  27.965  34.743  1.00  0.00    -0.200 F 
ATOM     66  C   UNL A   1      46.651  26.204  35.458  1.00  0.00     0.200 A 
ATOM     67  F   UNL A   1      45.216  24.458  36.137  1.00  0.00    -0.200 F 
ATOM     68  F   UNL A   1      47.675  25.635  36.109  1.00  0.00    -0.200 F 
ENDBRANCH  44  58
BRANCH  45  69
ATOM     69  C   UNL A   1      36.825  31.381  29.123  1.00  0.00     0.064 A 
ATOM     70  C   UNL A   1      36.791  32.736  28.766  1.00  0.00     0.173 A 
ATOM     71  C   UNL A   1      35.700  30.599  28.825  1.00  0.00     0.173 A 
ATOM     72  F   UNL A   1      37.831  33.532  29.058  1.00  0.00    -0.203 F 
ATOM     73  C   UNL A   1      35.666  33.293  28.162  1.00  0.00     0.198 A 
ATOM     74  C   UNL A   1      34.586  31.150  28.194  1.00  0.00     0.198 A 
ATOM     75  F   UNL A   1      35.679  29.299  29.152  1.00  0.00    -0.203 F 
ATOM     76  F   UNL A   1      35.636  34.604  27.887  1.00  0.00    -0.200 F 
ATOM     77  C   UNL A   1      34.566  32.499  27.873  1.00  0.00     0.200 A 
ATOM     78  F   UNL A   1      33.529  30.378  27.911  1.00  0.00    -0.200 F 
ATOM     79  F   UNL A   1      33.482  33.036  27.298  1.00  0.00    -0.200 F 
ENDBRANCH  45  69
BRANCH  57  80
ATOM     80  C   UNL A   1      39.302  32.141  35.592  1.00  0.00     0.064 A 
ATOM     81  C   UNL A   1      38.438  31.648  36.581  1.00  0.00     0.173 A 
ATOM     82  C   UNL A   1      39.794  33.447  35.743  1.00  0.00     0.173 A 
ATOM     83  F   UNL A   1      37.930  30.411  36.477  1.00  0.00    -0.203 F 
ATOM     84  C   UNL A   1      38.065  32.440  37.664  1.00  0.00     0.198 A 
ATOM     85  C   UNL A   1      39.442  34.225  36.842  1.00  0.00     0.198 A 
ATOM     86  F   UNL A   1      40.630  33.964  34.829  1.00  0.00    -0.203 F 
ATOM     87  F   UNL A   1      37.202  31.964  38.573  1.00  0.00    -0.200 F 
ATOM     88  C   UNL A   1      38.572  33.723  37.797  1.00  0.00     0.200 A 
ATOM     89  F   UNL A   1      39.945  35.460  36.976  1.00  0.00    -0.200 F 
ATOM     90  F   UNL A   1      38.218  34.480  38.845  1.00  0.00    -0.200 F 
ENDBRANCH  57  80
ENDBRANCH  31  32
ENDBRANCH  24  26
ENDBRANCH  23  24
ENDBRANCH  22  23
ENDBRANCH  21  22
ENDBRANCH  20  21
ENDBRANCH   1  20
TORSDOF 19
ENDMDL
MODEL 2
REMARK VINA RESULT:     -10.3      4.653      9.688
REMARK SMILES Nc1ccc(O)c(C(=O)OCCOCCOCCOC(=O)c2ccc(-c3c4nc(c(-c5c(F)c(F)c(F)c(F)c5F)c5ccc([nH]5)c(-c5c(F)c(F)c(F)c(F)c5F)c5nc(c(-c6c(F)c(F)c(F)c(F)c6F)c6ccc3[nH]6)C=C5)C=C4)cc2)c1
REMARK SMILES IDX 15 1 14 2 13 3 12 4 11 5 10 6 8 7 9 8 7 9 2 10 3 11 85 12
REMARK SMILES IDX 4 13 5 14 1 15 6 18 16 20 17 21 18 22 19 23 20 24 21 25
REMARK SMILES IDX 22 26 23 27 84 28 24 29 83 30 25 31 26 32 27 33 77 34 28 35
REMARK SMILES IDX 82 36 76 37 78 38 29 39 81 40 75 41 74 42 30 44 62 45 42 46
REMARK SMILES IDX 61 47 43 48 46 49 60 50 79 51 44 52 45 53 59 55 80 56 47 57
REMARK SMILES IDX 31 58 32 59 40 60 33 61 34 62 38 63 41 64 35 65 36 66 39 67
REMARK SMILES IDX 37 68 63 69 64 70 72 71 65 72 66 73 70 74 73 75 67 76 68 77
REMARK SMILES IDX 71 78 69 79 48 80 49 81 57 82 50 83 51 84 55 85 58 86 52 87
REMARK SMILES IDX 53 88 56 89 54 90
REMARK H PARENT 1 16 1 17 6 19 78 43 46 54
REMARK Flexibility Score: inf
ROOT
ATOM      1  C   UNL A   1      45.700  21.815  24.437  1.00  0.00     0.188 C 
ENDROOT
BRANCH   1   2
ATOM      2  C   UNL A   1      46.432  23.089  24.911  1.00  0.00     0.188 C 
BRANCH   2   3
ATOM      3  O   UNL A   1      47.017  23.991  23.992  1.00  0.00    -0.376 OA
BRANCH   3   4
ATOM      4  C   UNL A   1      47.751  25.110  24.460  1.00  0.00     0.202 C 
BRANCH   4   5
ATOM      5  C   UNL A   1      47.042  26.446  24.693  1.00  0.00     0.261 C 
BRANCH   5   6
ATOM      6  O   UNL A   1      46.076  26.410  25.754  1.00  0.00    -0.460 OA
BRANCH   6   7
ATOM      7  C   UNL A   1      44.783  26.354  25.353  1.00  0.00     0.342 C 
ATOM      8  O   UNL A   1      44.190  25.376  24.919  1.00  0.00    -0.246 OA
BRANCH   7   9
ATOM      9  C   UNL A   1      44.056  27.581  25.728  1.00  0.00     0.103 A 
ATOM     10  C   UNL A   1      43.963  29.780  26.750  1.00  0.00     0.032 A 
ATOM     11  C   UNL A   1      42.598  29.840  26.445  1.00  0.00     0.029 A 
ATOM     12  C   UNL A   1      44.693  28.647  26.377  1.00  0.00     0.045 A 
ATOM     13  C   UNL A   1      41.954  28.775  25.814  1.00  0.00     0.049 A 
ATOM     14  C   UNL A   1      42.685  27.653  25.448  1.00  0.00     0.130 A 
BRANCH  10  15
ATOM     15  N   UNL A   1      44.596  30.875  27.314  1.00  0.00    -0.399 N 
ATOM     16  H   UNL A   1      44.106  31.461  27.934  1.00  0.00     0.156 HD
ATOM     17  H   UNL A   1      45.536  31.067  27.092  1.00  0.00     0.156 HD
ENDBRANCH  10  15
BRANCH  14  18
ATOM     18  O   UNL A   1      41.991  26.643  24.833  1.00  0.00    -0.507 OA
ATOM     19  H   UNL A   1      41.123  26.432  25.116  1.00  0.00     0.293 HD
ENDBRANCH  14  18
ENDBRANCH   7   9
ENDBRANCH   6   7
ENDBRANCH   5   6
ENDBRANCH   4   5
ENDBRANCH   3   4
ENDBRANCH   2   3
ENDBRANCH   1   2
BRANCH   1  20
ATOM     20  O   UNL A   1      45.427  20.750  25.319  1.00  0.00    -0.376 OA
BRANCH  20  21
ATOM     21  C   UNL A   1      45.097  19.456  24.848  1.00  0.00     0.202 C 
BRANCH  21  22
ATOM     22  C   UNL A   1      43.727  18.796  25.041  1.00  0.00     0.261 C 
BRANCH  22  23
ATOM     23  O   UNL A   1      43.038  19.106  26.253  1.00  0.00    -0.460 OA
BRANCH  23  24
ATOM     24  C   UNL A   1      41.854  19.745  26.087  1.00  0.00     0.338 C 
ATOM     25  O   UNL A   1      40.817  19.291  25.643  1.00  0.00    -0.246 OA
BRANCH  24  26
ATOM     26  C   UNL A   1      41.950  21.094  26.668  1.00  0.00     0.060 A 
ATOM     27  C   UNL A   1      42.229  22.168  25.814  1.00  0.00     0.016 A 
ATOM     28  C   UNL A   1      41.831  21.285  28.044  1.00  0.00     0.016 A 
ATOM     29  C   UNL A   1      42.417  23.444  26.343  1.00  0.00     0.010 A 
ATOM     30  C   UNL A   1      42.038  22.561  28.574  1.00  0.00     0.010 A 
ATOM     31  C   UNL A   1      42.361  23.639  27.730  1.00  0.00    -0.014 A 
BRANCH  31  32
ATOM     32  C   UNL A   1      42.800  24.928  28.312  1.00  0.00     0.031 A 
ATOM     33  C   UNL A   1      41.776  26.007  28.533  1.00  0.00     0.074 A 
ATOM     34  C   UNL A   1      44.085  25.138  28.646  1.00  0.00     0.049 A 
ATOM     35  N   UNL A   1      41.936  27.231  28.966  1.00  0.00    -0.248 NA
ATOM     36  C   UNL A   1      40.381  25.654  28.220  1.00  0.00     0.031 C 
ATOM     37  C   UNL A   1      45.161  24.158  28.522  1.00  0.00     0.029 A 
ATOM     38  N   UNL A   1      44.701  26.257  29.150  1.00  0.00    -0.354 N 
ATOM     39  C   UNL A   1      40.667  27.794  28.978  1.00  0.00     0.074 A 
ATOM     40  C   UNL A   1      39.751  26.790  28.480  1.00  0.00     0.031 C 
ATOM     41  C   UNL A   1      46.313  24.727  28.920  1.00  0.00     0.029 A 
ATOM     42  C   UNL A   1      46.058  26.116  29.298  1.00  0.00     0.049 A 
ATOM     43  H   UNL A   1      44.215  27.081  29.383  1.00  0.00     0.167 HD
ATOM     44  C   UNL A   1      40.297  29.034  29.376  1.00  0.00     0.037 A 
ATOM     45  C   UNL A   1      46.987  27.017  29.671  1.00  0.00     0.037 A 
ATOM     46  C   UNL A   1      41.208  30.033  29.867  1.00  0.00     0.049 A 
ATOM     47  C   UNL A   1      46.560  28.418  30.032  1.00  0.00     0.074 A 
ATOM     48  C   UNL A   1      40.927  31.316  30.304  1.00  0.00     0.029 A 
ATOM     49  N   UNL A   1      42.580  29.864  29.977  1.00  0.00    -0.354 N 
ATOM     50  N   UNL A   1      45.356  28.937  30.065  1.00  0.00    -0.248 NA
ATOM     51  C   UNL A   1      47.625  29.360  30.410  1.00  0.00     0.031 C 
ATOM     52  C   UNL A   1      42.135  31.940  30.634  1.00  0.00     0.029 A 
ATOM     53  C   UNL A   1      43.162  31.028  30.453  1.00  0.00     0.049 A 
ATOM     54  H   UNL A   1      43.068  29.038  29.751  1.00  0.00     0.167 HD
ATOM     55  C   UNL A   1      45.514  30.248  30.498  1.00  0.00     0.074 A 
ATOM     56  C   UNL A   1      46.930  30.444  30.726  1.00  0.00     0.031 C 
ATOM     57  C   UNL A   1      44.572  31.204  30.689  1.00  0.00     0.037 A 
BRANCH  44  58
ATOM     58  C   UNL A   1      38.844  29.387  29.280  1.00  0.00     0.064 A 
ATOM     59  C   UNL A   1      38.226  29.634  28.044  1.00  0.00     0.173 A 
ATOM     60  C   UNL A   1      38.048  29.439  30.434  1.00  0.00     0.173 A 
ATOM     61  F   UNL A   1      38.948  29.611  26.913  1.00  0.00    -0.203 F 
ATOM     62  C   UNL A   1      36.870  29.938  27.970  1.00  0.00     0.198 A 
ATOM     63  C   UNL A   1      36.686  29.717  30.354  1.00  0.00     0.198 A 
ATOM     64  F   UNL A   1      38.589  29.208  31.640  1.00  0.00    -0.203 F 
ATOM     65  F   UNL A   1      36.309  30.208  26.784  1.00  0.00    -0.200 F 
ATOM     66  C   UNL A   1      36.100  29.971  29.123  1.00  0.00     0.200 A 
ATOM     67  F   UNL A   1      35.941  29.736  31.467  1.00  0.00    -0.200 F 
ATOM     68  F   UNL A   1      34.792  30.254  29.049  1.00  0.00    -0.200 F 
ENDBRANCH  44  58
BRANCH  45  69
ATOM     69  C   UNL A   1      48.425  26.637  29.707  1.00  0.00     0.064 A 
ATOM     70  C   UNL A   1      49.001  26.093  30.863  1.00  0.00     0.173 A 
ATOM     71  C   UNL A   1      49.259  26.853  28.600  1.00  0.00     0.173 A 
ATOM     72  F   UNL A   1      48.250  25.898  31.957  1.00  0.00    -0.203 F 
ATOM     73  C   UNL A   1      50.362  25.801  30.920  1.00  0.00     0.198 A 
ATOM     74  C   UNL A   1      50.615  26.533  28.648  1.00  0.00     0.198 A 
ATOM     75  F   UNL A   1      48.759  27.379  27.473  1.00  0.00    -0.203 F 
ATOM     76  F   UNL A   1      50.899  25.338  32.056  1.00  0.00    -0.200 F 
ATOM     77  C   UNL A   1      51.167  26.018  29.811  1.00  0.00     0.200 A 
ATOM     78  F   UNL A   1      51.387  26.739  27.573  1.00  0.00    -0.200 F 
ATOM     79  F   UNL A   1      52.477  25.744  29.868  1.00  0.00    -0.200 F 
ENDBRANCH  45  69
BRANCH  57  80
ATOM     80  C   UNL A   1      45.031  32.535  31.211  1.00  0.00     0.064 A 
ATOM     81  C   UNL A   1      45.359  33.592  30.351  1.00  0.00     0.173 A 
ATOM     82  C   UNL A   1      45.096  32.770  32.594  1.00  0.00     0.173 A 
ATOM     83  F   UNL A   1      45.325  33.416  29.021  1.00  0.00    -0.203 F 
ATOM     84  C   UNL A   1      45.759  34.827  30.854  1.00  0.00     0.198 A 
ATOM     85  C   UNL A   1      45.468  34.014  33.093  1.00  0.00     0.198 A 
ATOM     86  F   UNL A   1      44.785  31.794  33.461  1.00  0.00    -0.203 F 
ATOM     87  F   UNL A   1      46.112  35.809  30.013  1.00  0.00    -0.200 F 
ATOM     88  C   UNL A   1      45.806  35.039  32.224  1.00  0.00     0.200 A 
ATOM     89  F   UNL A   1      45.498  34.221  34.417  1.00  0.00    -0.200 F 
ATOM     90  F   UNL A   1      46.183  36.231  32.707  1.00  0.00    -0.200 F 
ENDBRANCH  57  80
ENDBRANCH  31  32
ENDBRANCH  24  26
ENDBRANCH  23  24
ENDBRANCH  22  23
ENDBRANCH  21  22
ENDBRANCH  20  21
ENDBRANCH   1  20
TORSDOF 19
ENDMDL
MODEL 3
REMARK VINA RESULT:     -10.3      5.071     10.750
REMARK SMILES Nc1ccc(O)c(C(=O)OCCOCCOCCOC(=O)c2ccc(-c3c4nc(c(-c5c(F)c(F)c(F)c(F)c5F)c5ccc([nH]5)c(-c5c(F)c(F)c(F)c(F)c5F)c5nc(c(-c6c(F)c(F)c(F)c(F)c6F)c6ccc3[nH]6)C=C5)C=C4)cc2)c1
REMARK SMILES IDX 15 1 14 2 13 3 12 4 11 5 10 6 8 7 9 8 7 9 2 10 3 11 85 12
REMARK SMILES IDX 4 13 5 14 1 15 6 18 16 20 17 21 18 22 19 23 20 24 21 25
REMARK SMILES IDX 22 26 23 27 84 28 24 29 83 30 25 31 26 32 27 33 77 34 28 35
REMARK SMILES IDX 82 36 76 37 78 38 29 39 81 40 75 41 74 42 30 44 62 45 42 46
REMARK SMILES IDX 61 47 43 48 46 49 60 50 79 51 44 52 45 53 59 55 80 56 47 57
REMARK SMILES IDX 31 58 32 59 40 60 33 61 34 62 38 63 41 64 35 65 36 66 39 67
REMARK SMILES IDX 37 68 63 69 64 70 72 71 65 72 66 73 70 74 73 75 67 76 68 77
REMARK SMILES IDX 71 78 69 79 48 80 49 81 57 82 50 83 51 84 55 85 58 86 52 87
REMARK SMILES IDX 53 88 56 89 54 90
REMARK H PARENT 1 16 1 17 6 19 78 43 46 54
REMARK Flexibility Score: inf
ROOT
ATOM      1  C   UNL A   1      33.598  35.742  30.825  1.00  0.00     0.188 C 
ENDROOT
BRANCH   1   2
ATOM      2  C   UNL A   1      33.255  35.553  32.318  1.00  0.00     0.188 C 
BRANCH   2   3
ATOM      3  O   UNL A   1      32.896  34.288  32.840  1.00  0.00    -0.376 OA
BRANCH   3   4
ATOM      4  C   UNL A   1      33.897  33.390  33.286  1.00  0.00     0.202 C 
BRANCH   4   5
ATOM      5  C   UNL A   1      35.189  33.931  33.903  1.00  0.00     0.261 C 
BRANCH   5   6
ATOM      6  O   UNL A   1      36.121  32.908  34.282  1.00  0.00    -0.460 OA
BRANCH   6   7
ATOM      7  C   UNL A   1      36.619  32.176  33.257  1.00  0.00     0.342 C 
ATOM      8  O   UNL A   1      36.403  30.995  33.024  1.00  0.00    -0.246 OA
BRANCH   7   9
ATOM      9  C   UNL A   1      37.290  33.036  32.265  1.00  0.00     0.103 A 
ATOM     10  C   UNL A   1      37.553  33.887  30.007  1.00  0.00     0.032 A 
ATOM     11  C   UNL A   1      38.642  34.651  30.445  1.00  0.00     0.029 A 
ATOM     12  C   UNL A   1      36.870  33.086  30.929  1.00  0.00     0.045 A 
ATOM     13  C   UNL A   1      39.074  34.593  31.771  1.00  0.00     0.049 A 
ATOM     14  C   UNL A   1      38.393  33.795  32.679  1.00  0.00     0.130 A 
BRANCH  10  15
ATOM     15  N   UNL A   1      37.098  34.012  28.706  1.00  0.00    -0.399 N 
ATOM     16  H   UNL A   1      36.817  34.891  28.365  1.00  0.00     0.156 HD
ATOM     17  H   UNL A   1      37.053  33.220  28.123  1.00  0.00     0.156 HD
ENDBRANCH  10  15
BRANCH  14  18
ATOM     18  O   UNL A   1      38.871  33.782  33.964  1.00  0.00    -0.507 OA
ATOM     19  H   UNL A   1      39.795  33.781  34.119  1.00  0.00     0.293 HD
ENDBRANCH  14  18
ENDBRANCH   7   9
ENDBRANCH   6   7
ENDBRANCH   5   6
ENDBRANCH   4   5
ENDBRANCH   3   4
ENDBRANCH   2   3
ENDBRANCH   1   2
BRANCH   1  20
ATOM     20  O   UNL A   1      34.045  34.669  30.029  1.00  0.00    -0.376 OA
BRANCH  20  21
ATOM     21  C   UNL A   1      33.509  34.419  28.742  1.00  0.00     0.202 C 
BRANCH  21  22
ATOM     22  C   UNL A   1      33.730  33.120  27.958  1.00  0.00     0.261 C 
BRANCH  22  23
ATOM     23  O   UNL A   1      34.574  32.144  28.571  1.00  0.00    -0.460 OA
BRANCH  23  24
ATOM     24  C   UNL A   1      34.531  30.916  27.998  1.00  0.00     0.338 C 
ATOM     25  O   UNL A   1      33.661  30.455  27.286  1.00  0.00    -0.246 OA
BRANCH  24  26
ATOM     26  C   UNL A   1      35.806  30.223  28.251  1.00  0.00     0.060 A 
ATOM     27  C   UNL A   1      36.047  29.725  29.537  1.00  0.00     0.016 A 
ATOM     28  C   UNL A   1      36.772  30.125  27.251  1.00  0.00     0.016 A 
ATOM     29  C   UNL A   1      37.279  29.144  29.835  1.00  0.00     0.010 A 
ATOM     30  C   UNL A   1      38.013  29.560  27.557  1.00  0.00     0.010 A 
ATOM     31  C   UNL A   1      38.282  29.095  28.857  1.00  0.00    -0.014 A 
BRANCH  31  32
ATOM     32  C   UNL A   1      39.662  28.710  29.233  1.00  0.00     0.031 A 
ATOM     33  C   UNL A   1      40.460  29.644  30.101  1.00  0.00     0.074 A 
ATOM     34  C   UNL A   1      40.197  27.549  28.819  1.00  0.00     0.049 A 
ATOM     35  N   UNL A   1      41.701  29.550  30.503  1.00  0.00    -0.248 NA
ATOM     36  C   UNL A   1      39.760  30.847  30.579  1.00  0.00     0.031 C 
ATOM     37  C   UNL A   1      39.512  26.542  28.013  1.00  0.00     0.029 A 
ATOM     38  N   UNL A   1      41.453  27.030  29.015  1.00  0.00    -0.354 N 
ATOM     39  C   UNL A   1      41.932  30.679  31.278  1.00  0.00     0.074 A 
ATOM     40  C   UNL A   1      40.713  31.459  31.266  1.00  0.00     0.031 C 
ATOM     41  C   UNL A   1      40.364  25.532  27.764  1.00  0.00     0.029 A 
ATOM     42  C   UNL A   1      41.660  25.837  28.369  1.00  0.00     0.049 A 
ATOM     43  H   UNL A   1      42.140  27.471  29.566  1.00  0.00     0.167 HD
ATOM     44  C   UNL A   1      43.055  31.029  31.946  1.00  0.00     0.037 A 
ATOM     45  C   UNL A   1      42.778  25.093  28.258  1.00  0.00     0.037 A 
ATOM     46  C   UNL A   1      44.269  30.256  31.954  1.00  0.00     0.049 A 
ATOM     47  C   UNL A   1      44.042  25.547  28.946  1.00  0.00     0.074 A 
ATOM     48  C   UNL A   1      45.457  30.523  32.610  1.00  0.00     0.029 A 
ATOM     49  N   UNL A   1      44.450  29.066  31.266  1.00  0.00    -0.354 N 
ATOM     50  N   UNL A   1      44.246  26.602  29.697  1.00  0.00    -0.248 NA
ATOM     51  C   UNL A   1      45.233  24.702  28.769  1.00  0.00     0.031 C 
ATOM     52  C   UNL A   1      46.375  29.520  32.280  1.00  0.00     0.029 A 
ATOM     53  C   UNL A   1      45.740  28.599  31.461  1.00  0.00     0.049 A 
ATOM     54  H   UNL A   1      43.763  28.619  30.719  1.00  0.00     0.167 HD
ATOM     55  C   UNL A   1      45.571  26.529  30.109  1.00  0.00     0.074 A 
ATOM     56  C   UNL A   1      46.122  25.321  29.533  1.00  0.00     0.031 C 
ATOM     57  C   UNL A   1      46.270  27.387  30.893  1.00  0.00     0.037 A 
BRANCH  44  58
ATOM     58  C   UNL A   1      43.033  32.318  32.712  1.00  0.00     0.064 A 
ATOM     59  C   UNL A   1      43.330  33.544  32.098  1.00  0.00     0.173 A 
ATOM     60  C   UNL A   1      42.668  32.332  34.066  1.00  0.00     0.173 A 
ATOM     61  F   UNL A   1      43.698  33.580  30.808  1.00  0.00    -0.203 F 
ATOM     62  C   UNL A   1      43.281  34.734  32.817  1.00  0.00     0.198 A 
ATOM     63  C   UNL A   1      42.595  33.527  34.776  1.00  0.00     0.198 A 
ATOM     64  F   UNL A   1      42.373  31.187  34.700  1.00  0.00    -0.203 F 
ATOM     65  F   UNL A   1      43.606  35.890  32.221  1.00  0.00    -0.200 F 
ATOM     66  C   UNL A   1      42.906  34.726  34.152  1.00  0.00     0.200 A 
ATOM     67  F   UNL A   1      42.221  33.519  36.062  1.00  0.00    -0.200 F 
ATOM     68  F   UNL A   1      42.849  35.875  34.841  1.00  0.00    -0.200 F 
ENDBRANCH  44  58
BRANCH  45  69
ATOM     69  C   UNL A   1      42.769  23.845  27.450  1.00  0.00     0.064 A 
ATOM     70  C   UNL A   1      42.412  22.615  28.019  1.00  0.00     0.173 A 
ATOM     71  C   UNL A   1      43.159  23.852  26.102  1.00  0.00     0.173 A 
ATOM     72  F   UNL A   1      42.062  22.553  29.312  1.00  0.00    -0.203 F 
ATOM     73  C   UNL A   1      42.470  21.436  27.280  1.00  0.00     0.198 A 
ATOM     74  C   UNL A   1      43.189  22.676  25.355  1.00  0.00     0.198 A 
ATOM     75  F   UNL A   1      43.517  25.001  25.512  1.00  0.00    -0.203 F 
ATOM     76  F   UNL A   1      42.183  20.266  27.866  1.00  0.00    -0.200 F 
ATOM     77  C   UNL A   1      42.855  21.468  25.947  1.00  0.00     0.200 A 
ATOM     78  F   UNL A   1      43.554  22.713  24.067  1.00  0.00    -0.200 F 
ATOM     79  F   UNL A   1      42.917  20.332  25.239  1.00  0.00    -0.200 F 
ENDBRANCH  45  69
BRANCH  57  80
ATOM     80  C   UNL A   1      47.693  27.030  31.214  1.00  0.00     0.064 A 
ATOM     81  C   UNL A   1      48.018  26.181  32.282  1.00  0.00     0.173 A 
ATOM     82  C   UNL A   1      48.742  27.507  30.412  1.00  0.00     0.173 A 
ATOM     83  F   UNL A   1      47.054  25.709  33.087  1.00  0.00    -0.203 F 
ATOM     84  C   UNL A   1      49.342  25.842  32.549  1.00  0.00     0.198 A 
ATOM     85  C   UNL A   1      50.061  27.142  30.664  1.00  0.00     0.198 A 
ATOM     86  F   UNL A   1      48.485  28.315  29.372  1.00  0.00    -0.203 F 
ATOM     87  F   UNL A   1      49.633  25.067  33.602  1.00  0.00    -0.200 F 
ATOM     88  C   UNL A   1      50.361  26.316  31.736  1.00  0.00     0.200 A 
ATOM     89  F   UNL A   1      51.042  27.589  29.868  1.00  0.00    -0.200 F 
ATOM     90  F   UNL A   1      51.633  25.982  31.990  1.00  0.00    -0.200 F 
ENDBRANCH  57  80
ENDBRANCH  31  32
ENDBRANCH  24  26
ENDBRANCH  23  24
ENDBRANCH  22  23
ENDBRANCH  21  22
ENDBRANCH  20  21
ENDBRANCH   1  20
TORSDOF 19
ENDMDL
