MODEL 1
REMARK VINA RESULT:      -9.1      0.000      0.000
REMARK SMILES CCN(CCOC)C(=O)c1cccn1CC(=O)OCCOCCOCCOC(=O)c1ccc(-c2c3nc(c(-c4c(F)c(F)c(F)c(F)c4F)c4ccc([nH]4)c(-c4c(F)c(F)c(F)c(F)c4F)c4nc(c(-c5c(F)c(F)c(F)c(F)c5F)c5ccc2[nH]5)C=C4)C=C3)cc1
REMARK SMILES IDX 20 1 19 2 18 3 16 4 17 5 15 6 14 7 10 8 11 9 12 10 13 11
REMARK SMILES IDX 8 12 9 13 3 14 2 15 1 16 4 17 5 18 6 19 7 20 21 21 22 22
REMARK SMILES IDX 23 23 24 24 25 25 26 26 27 27 28 28 29 29 30 30 31 31 92 32
REMARK SMILES IDX 32 33 91 34 33 35 34 36 35 37 85 38 36 39 90 40 84 41 86 42
REMARK SMILES IDX 37 43 89 44 83 45 82 46 38 48 70 49 50 50 69 51 51 52 54 53
REMARK SMILES IDX 68 54 87 55 52 56 53 57 67 59 88 60 55 61 39 62 40 63 48 64
REMARK SMILES IDX 41 65 42 66 46 67 49 68 43 69 44 70 47 71 45 72 71 73 72 74
REMARK SMILES IDX 80 75 73 76 74 77 78 78 81 79 75 80 76 81 79 82 77 83 56 84
REMARK SMILES IDX 57 85 65 86 58 87 59 88 63 89 66 90 60 91 61 92 64 93 62 94
REMARK H PARENT 86 47 54 58
REMARK Flexibility Score: inf
ROOT
ATOM      1  C   UNL A   1      33.284  32.038  27.290  1.00  0.00     0.202 C 
ENDROOT
BRANCH   1   2
ATOM      2  C   UNL A   1      32.874  30.560  27.229  1.00  0.00     0.261 C 
BRANCH   2   3
ATOM      3  O   UNL A   1      33.816  29.733  26.512  1.00  0.00    -0.462 OA
BRANCH   3   4
ATOM      4  C   UNL A   1      33.335  28.984  25.488  1.00  0.00     0.326 C 
ATOM      5  O   UNL A   1      34.010  28.644  24.518  1.00  0.00    -0.250 OA
BRANCH   4   6
ATOM      6  C   UNL A   1      31.915  28.490  25.670  1.00  0.00     0.244 C 
BRANCH   6   7
ATOM      7  N   UNL A   1      31.026  28.481  24.500  1.00  0.00    -0.332 N 
ATOM      8  C   UNL A   1      30.370  27.384  23.925  1.00  0.00     0.107 A 
ATOM      9  C   UNL A   1      29.787  27.901  22.772  1.00  0.00     0.033 A 
ATOM     10  C   UNL A   1      29.862  29.311  22.796  1.00  0.00     0.020 A 
ATOM     11  C   UNL A   1      30.589  29.648  23.905  1.00  0.00     0.087 A 
BRANCH   8  12
ATOM     12  C   UNL A   1      30.329  26.065  24.566  1.00  0.00     0.270 C 
ATOM     13  O   UNL A   1      29.461  25.860  25.419  1.00  0.00    -0.267 OA
BRANCH  12  14
ATOM     14  N   UNL A   1      31.173  24.993  24.217  1.00  0.00    -0.335 N 
BRANCH  14  15
ATOM     15  C   UNL A   1      31.306  23.897  25.190  1.00  0.00     0.116 C 
ATOM     16  C   UNL A   1      32.391  24.089  26.242  1.00  0.00     0.027 C 
ENDBRANCH  14  15
BRANCH  14  17
ATOM     17  C   UNL A   1      31.846  24.773  22.932  1.00  0.00     0.148 C 
BRANCH  17  18
ATOM     18  C   UNL A   1      33.312  25.261  22.891  1.00  0.00     0.181 C 
BRANCH  18  19
ATOM     19  O   UNL A   1      34.223  24.266  22.430  1.00  0.00    -0.383 OA
ATOM     20  C   UNL A   1      34.822  23.508  23.473  1.00  0.00     0.194 C 
ENDBRANCH  18  19
ENDBRANCH  17  18
ENDBRANCH  14  17
ENDBRANCH  12  14
ENDBRANCH   8  12
ENDBRANCH   6   7
ENDBRANCH   4   6
ENDBRANCH   3   4
ENDBRANCH   2   3
ENDBRANCH   1   2
BRANCH   1  21
ATOM     21  O   UNL A   1      33.936  32.398  28.497  1.00  0.00    -0.376 OA
BRANCH  21  22
ATOM     22  C   UNL A   1      34.251  33.774  28.715  1.00  0.00     0.188 C 
BRANCH  22  23
ATOM     23  C   UNL A   1      33.689  34.542  29.923  1.00  0.00     0.188 C 
BRANCH  23  24
ATOM     24  O   UNL A   1      34.035  33.924  31.158  1.00  0.00    -0.376 OA
BRANCH  24  25
ATOM     25  C   UNL A   1      34.633  32.642  31.026  1.00  0.00     0.202 C 
BRANCH  25  26
ATOM     26  C   UNL A   1      35.388  32.349  32.319  1.00  0.00     0.261 C 
BRANCH  26  27
ATOM     27  O   UNL A   1      36.620  33.069  32.404  1.00  0.00    -0.460 OA
BRANCH  27  28
ATOM     28  C   UNL A   1      37.286  33.132  31.236  1.00  0.00     0.338 C 
ATOM     29  O   UNL A   1      37.418  34.089  30.493  1.00  0.00    -0.246 OA
BRANCH  28  30
ATOM     30  C   UNL A   1      37.802  31.815  30.893  1.00  0.00     0.060 A 
ATOM     31  C   UNL A   1      38.749  31.264  31.763  1.00  0.00     0.016 A 
ATOM     32  C   UNL A   1      37.666  31.420  29.562  1.00  0.00     0.016 A 
ATOM     33  C   UNL A   1      39.727  30.455  31.234  1.00  0.00     0.010 A 
ATOM     34  C   UNL A   1      38.672  30.658  29.023  1.00  0.00     0.010 A 
ATOM     35  C   UNL A   1      39.725  30.240  29.853  1.00  0.00    -0.014 A 
BRANCH  35  36
ATOM     36  C   UNL A   1      40.833  29.511  29.237  1.00  0.00     0.031 A 
ATOM     37  C   UNL A   1      42.050  30.407  29.052  1.00  0.00     0.074 A 
ATOM     38  C   UNL A   1      40.603  28.179  29.032  1.00  0.00     0.049 A 
ATOM     39  N   UNL A   1      43.202  30.129  28.536  1.00  0.00    -0.248 NA
ATOM     40  C   UNL A   1      41.998  31.819  29.533  1.00  0.00     0.031 C 
ATOM     41  C   UNL A   1      39.317  27.495  29.302  1.00  0.00     0.029 A 
ATOM     42  N   UNL A   1      41.376  27.135  28.571  1.00  0.00    -0.354 N 
ATOM     43  C   UNL A   1      44.058  31.200  28.847  1.00  0.00     0.074 A 
ATOM     44  C   UNL A   1      43.250  32.248  29.386  1.00  0.00     0.031 C 
ATOM     45  C   UNL A   1      39.372  26.200  28.931  1.00  0.00     0.029 A 
ATOM     46  C   UNL A   1      40.699  25.893  28.438  1.00  0.00     0.049 A 
ATOM     47  H   UNL A   1      42.329  27.241  28.350  1.00  0.00     0.167 HD
ATOM     48  C   UNL A   1      45.412  31.101  28.765  1.00  0.00     0.037 A 
ATOM     49  C   UNL A   1      41.176  24.702  27.961  1.00  0.00     0.037 A 
ATOM     50  C   UNL A   1      45.785  29.858  28.183  1.00  0.00     0.049 A 
ATOM     51  C   UNL A   1      42.634  24.875  27.913  1.00  0.00     0.074 A 
ATOM     52  C   UNL A   1      45.698  29.408  26.893  1.00  0.00     0.029 A 
ATOM     53  N   UNL A   1      45.979  28.789  29.022  1.00  0.00    -0.354 N 
ATOM     54  N   UNL A   1      43.390  24.911  28.969  1.00  0.00    -0.248 NA
ATOM     55  C   UNL A   1      43.297  25.089  26.625  1.00  0.00     0.031 C 
ATOM     56  C   UNL A   1      45.440  28.031  27.027  1.00  0.00     0.029 A 
ATOM     57  C   UNL A   1      45.527  27.664  28.374  1.00  0.00     0.049 A 
ATOM     58  H   UNL A   1      46.370  28.822  29.926  1.00  0.00     0.167 HD
ATOM     59  C   UNL A   1      44.537  25.495  28.489  1.00  0.00     0.074 A 
ATOM     60  C   UNL A   1      44.542  25.273  27.061  1.00  0.00     0.031 C 
ATOM     61  C   UNL A   1      45.080  26.541  29.168  1.00  0.00     0.037 A 
BRANCH  48  62
ATOM     62  C   UNL A   1      46.489  31.967  29.325  1.00  0.00     0.064 A 
ATOM     63  C   UNL A   1      46.550  32.130  30.727  1.00  0.00     0.173 A 
ATOM     64  C   UNL A   1      47.207  32.889  28.551  1.00  0.00     0.173 A 
ATOM     65  F   UNL A   1      45.926  31.266  31.544  1.00  0.00    -0.203 F 
ATOM     66  C   UNL A   1      47.178  33.225  31.311  1.00  0.00     0.198 A 
ATOM     67  C   UNL A   1      47.876  33.962  29.146  1.00  0.00     0.198 A 
ATOM     68  F   UNL A   1      47.189  32.830  27.213  1.00  0.00    -0.203 F 
ATOM     69  F   UNL A   1      47.095  33.413  32.636  1.00  0.00    -0.200 F 
ATOM     70  C   UNL A   1      47.826  34.151  30.518  1.00  0.00     0.200 A 
ATOM     71  F   UNL A   1      48.507  34.858  28.375  1.00  0.00    -0.200 F 
ATOM     72  F   UNL A   1      48.372  35.243  31.069  1.00  0.00    -0.200 F 
ENDBRANCH  48  62
BRANCH  49  73
ATOM     73  C   UNL A   1      40.645  23.355  27.523  1.00  0.00     0.064 A 
ATOM     74  C   UNL A   1      39.584  23.132  26.634  1.00  0.00     0.173 A 
ATOM     75  C   UNL A   1      41.322  22.164  27.922  1.00  0.00     0.173 A 
ATOM     76  F   UNL A   1      38.793  24.129  26.230  1.00  0.00    -0.203 F 
ATOM     77  C   UNL A   1      39.295  21.854  26.117  1.00  0.00     0.198 A 
ATOM     78  C   UNL A   1      41.070  20.907  27.372  1.00  0.00     0.198 A 
ATOM     79  F   UNL A   1      42.281  22.178  28.858  1.00  0.00    -0.203 F 
ATOM     80  F   UNL A   1      38.275  21.701  25.261  1.00  0.00    -0.200 F 
ATOM     81  C   UNL A   1      40.061  20.753  26.454  1.00  0.00     0.200 A 
ATOM     82  F   UNL A   1      41.835  19.864  27.724  1.00  0.00    -0.200 F 
ATOM     83  F   UNL A   1      39.829  19.555  25.901  1.00  0.00    -0.200 F 
ENDBRANCH  49  73
BRANCH  61  84
ATOM     84  C   UNL A   1      44.714  26.549  30.644  1.00  0.00     0.064 A 
ATOM     85  C   UNL A   1      45.180  25.522  31.486  1.00  0.00     0.173 A 
ATOM     86  C   UNL A   1      43.796  27.443  31.220  1.00  0.00     0.173 A 
ATOM     87  F   UNL A   1      46.086  24.643  31.031  1.00  0.00    -0.203 F 
ATOM     88  C   UNL A   1      44.714  25.375  32.796  1.00  0.00     0.198 A 
ATOM     89  C   UNL A   1      43.332  27.301  32.530  1.00  0.00     0.198 A 
ATOM     90  F   UNL A   1      43.332  28.483  30.531  1.00  0.00    -0.203 F 
ATOM     91  F   UNL A   1      45.168  24.369  33.557  1.00  0.00    -0.200 F 
ATOM     92  C   UNL A   1      43.783  26.258  33.315  1.00  0.00     0.200 A 
ATOM     93  F   UNL A   1      42.449  28.182  33.027  1.00  0.00    -0.200 F 
ATOM     94  F   UNL A   1      43.336  26.117  34.570  1.00  0.00    -0.200 F 
ENDBRANCH  61  84
ENDBRANCH  35  36
ENDBRANCH  28  30
ENDBRANCH  27  28
ENDBRANCH  26  27
ENDBRANCH  25  26
ENDBRANCH  24  25
ENDBRANCH  23  24
ENDBRANCH  22  23
ENDBRANCH  21  22
ENDBRANCH   1  21
TORSDOF 24
ENDMDL
MODEL 2
REMARK VINA RESULT:      -8.8      7.521     13.059
REMARK SMILES CCN(CCOC)C(=O)c1cccn1CC(=O)OCCOCCOCCOC(=O)c1ccc(-c2c3nc(c(-c4c(F)c(F)c(F)c(F)c4F)c4ccc([nH]4)c(-c4c(F)c(F)c(F)c(F)c4F)c4nc(c(-c5c(F)c(F)c(F)c(F)c5F)c5ccc2[nH]5)C=C4)C=C3)cc1
REMARK SMILES IDX 20 1 19 2 18 3 16 4 17 5 15 6 14 7 10 8 11 9 12 10 13 11
REMARK SMILES IDX 8 12 9 13 3 14 2 15 1 16 4 17 5 18 6 19 7 20 21 21 22 22
REMARK SMILES IDX 23 23 24 24 25 25 26 26 27 27 28 28 29 29 30 30 31 31 92 32
REMARK SMILES IDX 32 33 91 34 33 35 34 36 35 37 85 38 36 39 90 40 84 41 86 42
REMARK SMILES IDX 37 43 89 44 83 45 82 46 38 48 70 49 50 50 69 51 51 52 54 53
REMARK SMILES IDX 68 54 87 55 52 56 53 57 67 59 88 60 55 61 39 62 40 63 48 64
REMARK SMILES IDX 41 65 42 66 46 67 49 68 43 69 44 70 47 71 45 72 71 73 72 74
REMARK SMILES IDX 80 75 73 76 74 77 78 78 81 79 75 80 76 81 79 82 77 83 56 84
REMARK SMILES IDX 57 85 65 86 58 87 59 88 63 89 66 90 60 91 61 92 64 93 62 94
REMARK H PARENT 86 47 54 58
REMARK Flexibility Score: inf
ROOT
ATOM      1  C   UNL A   1      50.326  19.512  37.070  1.00  0.00     0.202 C 
ENDROOT
BRANCH   1   2
ATOM      2  C   UNL A   1      49.732  20.014  38.393  1.00  0.00     0.261 C 
BRANCH   2   3
ATOM      3  O   UNL A   1      49.760  19.025  39.445  1.00  0.00    -0.462 OA
BRANCH   3   4
ATOM      4  C   UNL A   1      49.119  19.325  40.602  1.00  0.00     0.326 C 
ATOM      5  O   UNL A   1      48.888  20.473  40.976  1.00  0.00    -0.250 OA
BRANCH   4   6
ATOM      6  C   UNL A   1      48.598  18.129  41.372  1.00  0.00     0.244 C 
BRANCH   6   7
ATOM      7  N   UNL A   1      47.794  18.372  42.577  1.00  0.00    -0.332 N 
ATOM      8  C   UNL A   1      46.462  18.803  42.652  1.00  0.00     0.107 A 
ATOM      9  C   UNL A   1      46.246  19.010  44.012  1.00  0.00     0.033 A 
ATOM     10  C   UNL A   1      47.321  18.465  44.748  1.00  0.00     0.020 A 
ATOM     11  C   UNL A   1      48.243  18.029  43.837  1.00  0.00     0.087 A 
BRANCH   8  12
ATOM     12  C   UNL A   1      45.592  18.882  41.474  1.00  0.00     0.270 C 
ATOM     13  O   UNL A   1      45.278  20.000  41.056  1.00  0.00    -0.267 OA
BRANCH  12  14
ATOM     14  N   UNL A   1      45.150  17.761  40.745  1.00  0.00    -0.335 N 
BRANCH  14  15
ATOM     15  C   UNL A   1      43.977  17.040  41.263  1.00  0.00     0.116 C 
ATOM     16  C   UNL A   1      43.200  16.234  40.230  1.00  0.00     0.027 C 
ENDBRANCH  14  15
BRANCH  14  17
ATOM     17  C   UNL A   1      45.648  17.292  39.446  1.00  0.00     0.148 C 
BRANCH  17  18
ATOM     18  C   UNL A   1      46.223  18.409  38.546  1.00  0.00     0.181 C 
BRANCH  18  19
ATOM     19  O   UNL A   1      45.256  18.976  37.665  1.00  0.00    -0.383 OA
ATOM     20  C   UNL A   1      45.289  18.435  36.350  1.00  0.00     0.194 C 
ENDBRANCH  18  19
ENDBRANCH  17  18
ENDBRANCH  14  17
ENDBRANCH  12  14
ENDBRANCH   8  12
ENDBRANCH   6   7
ENDBRANCH   4   6
ENDBRANCH   3   4
ENDBRANCH   2   3
ENDBRANCH   1   2
BRANCH   1  21
ATOM     21  O   UNL A   1      50.471  20.529  36.091  1.00  0.00    -0.376 OA
BRANCH  21  22
ATOM     22  C   UNL A   1      49.850  21.793  36.327  1.00  0.00     0.188 C 
BRANCH  22  23
ATOM     23  C   UNL A   1      48.941  22.447  35.273  1.00  0.00     0.188 C 
BRANCH  23  24
ATOM     24  O   UNL A   1      47.717  21.739  35.108  1.00  0.00    -0.376 OA
BRANCH  24  25
ATOM     25  C   UNL A   1      46.929  21.644  36.287  1.00  0.00     0.202 C 
BRANCH  25  26
ATOM     26  C   UNL A   1      46.544  23.061  36.701  1.00  0.00     0.261 C 
BRANCH  26  27
ATOM     27  O   UNL A   1      45.966  23.803  35.623  1.00  0.00    -0.460 OA
BRANCH  27  28
ATOM     28  C   UNL A   1      45.183  24.820  36.032  1.00  0.00     0.338 C 
ATOM     29  O   UNL A   1      44.584  24.933  37.087  1.00  0.00    -0.246 OA
BRANCH  28  30
ATOM     30  C   UNL A   1      45.060  25.804  34.968  1.00  0.00     0.060 A 
ATOM     31  C   UNL A   1      43.768  26.250  34.670  1.00  0.00     0.016 A 
ATOM     32  C   UNL A   1      46.122  25.884  34.067  1.00  0.00     0.016 A 
ATOM     33  C   UNL A   1      43.477  26.585  33.368  1.00  0.00     0.010 A 
ATOM     34  C   UNL A   1      45.821  26.165  32.758  1.00  0.00     0.010 A 
ATOM     35  C   UNL A   1      44.489  26.447  32.414  1.00  0.00    -0.014 A 
BRANCH  35  36
ATOM     36  C   UNL A   1      44.176  26.649  31.000  1.00  0.00     0.031 A 
ATOM     37  C   UNL A   1      44.141  28.130  30.648  1.00  0.00     0.074 A 
ATOM     38  C   UNL A   1      44.064  25.503  30.264  1.00  0.00     0.049 A 
ATOM     39  N   UNL A   1      43.888  28.697  29.514  1.00  0.00    -0.248 NA
ATOM     40  C   UNL A   1      44.459  29.139  31.700  1.00  0.00     0.031 C 
ATOM     41  C   UNL A   1      44.147  24.132  30.823  1.00  0.00     0.029 A 
ATOM     42  N   UNL A   1      43.869  25.239  28.926  1.00  0.00    -0.354 N 
ATOM     43  C   UNL A   1      44.251  30.049  29.645  1.00  0.00     0.074 A 
ATOM     44  C   UNL A   1      44.515  30.288  31.028  1.00  0.00     0.031 C 
ATOM     45  C   UNL A   1      43.926  23.208  29.867  1.00  0.00     0.029 A 
ATOM     46  C   UNL A   1      43.732  23.865  28.591  1.00  0.00     0.049 A 
ATOM     47  H   UNL A   1      43.827  25.953  28.248  1.00  0.00     0.167 HD
ATOM     48  C   UNL A   1      44.443  30.861  28.570  1.00  0.00     0.037 A 
ATOM     49  C   UNL A   1      43.479  23.300  27.372  1.00  0.00     0.037 A 
ATOM     50  C   UNL A   1      44.071  30.194  27.370  1.00  0.00     0.049 A 
ATOM     51  C   UNL A   1      43.696  24.384  26.403  1.00  0.00     0.074 A 
ATOM     52  C   UNL A   1      42.840  29.863  26.869  1.00  0.00     0.029 A 
ATOM     53  N   UNL A   1      45.035  29.468  26.714  1.00  0.00    -0.354 N 
ATOM     54  N   UNL A   1      44.871  24.850  26.096  1.00  0.00    -0.248 NA
ATOM     55  C   UNL A   1      42.547  25.045  25.783  1.00  0.00     0.031 C 
ATOM     56  C   UNL A   1      43.059  28.647  26.198  1.00  0.00     0.029 A 
ATOM     57  C   UNL A   1      44.428  28.356  26.182  1.00  0.00     0.049 A 
ATOM     58  H   UNL A   1      45.989  29.702  26.641  1.00  0.00     0.167 HD
ATOM     59  C   UNL A   1      44.565  26.064  25.531  1.00  0.00     0.074 A 
ATOM     60  C   UNL A   1      43.194  25.972  25.081  1.00  0.00     0.031 C 
ATOM     61  C   UNL A   1      45.228  27.173  25.952  1.00  0.00     0.037 A 
BRANCH  48  62
ATOM     62  C   UNL A   1      45.111  32.190  28.459  1.00  0.00     0.064 A 
ATOM     63  C   UNL A   1      44.295  33.332  28.295  1.00  0.00     0.173 A 
ATOM     64  C   UNL A   1      46.471  32.337  28.158  1.00  0.00     0.173 A 
ATOM     65  F   UNL A   1      42.988  33.290  28.601  1.00  0.00    -0.203 F 
ATOM     66  C   UNL A   1      44.785  34.508  27.738  1.00  0.00     0.198 A 
ATOM     67  C   UNL A   1      46.968  33.537  27.642  1.00  0.00     0.198 A 
ATOM     68  F   UNL A   1      47.318  31.304  28.259  1.00  0.00    -0.203 F 
ATOM     69  F   UNL A   1      43.946  35.521  27.474  1.00  0.00    -0.200 F 
ATOM     70  C   UNL A   1      46.119  34.604  27.394  1.00  0.00     0.200 A 
ATOM     71  F   UNL A   1      48.264  33.629  27.312  1.00  0.00    -0.200 F 
ATOM     72  F   UNL A   1      46.581  35.709  26.793  1.00  0.00    -0.200 F 
ENDBRANCH  48  62
BRANCH  49  73
ATOM     73  C   UNL A   1      43.083  21.957  26.797  1.00  0.00     0.064 A 
ATOM     74  C   UNL A   1      43.778  21.239  25.814  1.00  0.00     0.173 A 
ATOM     75  C   UNL A   1      41.975  21.250  27.352  1.00  0.00     0.173 A 
ATOM     76  F   UNL A   1      44.788  21.789  25.134  1.00  0.00    -0.203 F 
ATOM     77  C   UNL A   1      43.458  19.906  25.493  1.00  0.00     0.198 A 
ATOM     78  C   UNL A   1      41.690  19.913  27.071  1.00  0.00     0.198 A 
ATOM     79  F   UNL A   1      41.129  21.828  28.215  1.00  0.00    -0.203 F 
ATOM     80  F   UNL A   1      44.166  19.264  24.552  1.00  0.00    -0.200 F 
ATOM     81  C   UNL A   1      42.443  19.233  26.148  1.00  0.00     0.200 A 
ATOM     82  F   UNL A   1      40.697  19.295  27.727  1.00  0.00    -0.200 F 
ATOM     83  F   UNL A   1      42.193  17.943  25.891  1.00  0.00    -0.200 F 
ENDBRANCH  49  73
BRANCH  61  84
ATOM     84  C   UNL A   1      46.597  26.865  26.538  1.00  0.00     0.064 A 
ATOM     85  C   UNL A   1      47.629  26.404  25.700  1.00  0.00     0.173 A 
ATOM     86  C   UNL A   1      46.878  26.858  27.915  1.00  0.00     0.173 A 
ATOM     87  F   UNL A   1      47.462  26.408  24.369  1.00  0.00    -0.203 F 
ATOM     88  C   UNL A   1      48.836  25.921  26.215  1.00  0.00     0.198 A 
ATOM     89  C   UNL A   1      48.085  26.381  28.432  1.00  0.00     0.198 A 
ATOM     90  F   UNL A   1      45.993  27.324  28.795  1.00  0.00    -0.203 F 
ATOM     91  F   UNL A   1      49.784  25.471  25.381  1.00  0.00    -0.200 F 
ATOM     92  C   UNL A   1      49.060  25.900  27.581  1.00  0.00     0.200 A 
ATOM     93  F   UNL A   1      48.297  26.393  29.758  1.00  0.00    -0.200 F 
ATOM     94  F   UNL A   1      50.217  25.437  28.074  1.00  0.00    -0.200 F 
ENDBRANCH  61  84
ENDBRANCH  35  36
ENDBRANCH  28  30
ENDBRANCH  27  28
ENDBRANCH  26  27
ENDBRANCH  25  26
ENDBRANCH  24  25
ENDBRANCH  23  24
ENDBRANCH  22  23
ENDBRANCH  21  22
ENDBRANCH   1  21
TORSDOF 24
ENDMDL
MODEL 3
REMARK VINA RESULT:      -8.7      8.519     13.732
REMARK SMILES CCN(CCOC)C(=O)c1cccn1CC(=O)OCCOCCOCCOC(=O)c1ccc(-c2c3nc(c(-c4c(F)c(F)c(F)c(F)c4F)c4ccc([nH]4)c(-c4c(F)c(F)c(F)c(F)c4F)c4nc(c(-c5c(F)c(F)c(F)c(F)c5F)c5ccc2[nH]5)C=C4)C=C3)cc1
REMARK SMILES IDX 20 1 19 2 18 3 16 4 17 5 15 6 14 7 10 8 11 9 12 10 13 11
REMARK SMILES IDX 8 12 9 13 3 14 2 15 1 16 4 17 5 18 6 19 7 20 21 21 22 22
REMARK SMILES IDX 23 23 24 24 25 25 26 26 27 27 28 28 29 29 30 30 31 31 92 32
REMARK SMILES IDX 32 33 91 34 33 35 34 36 35 37 85 38 36 39 90 40 84 41 86 42
REMARK SMILES IDX 37 43 89 44 83 45 82 46 38 48 70 49 50 50 69 51 51 52 54 53
REMARK SMILES IDX 68 54 87 55 52 56 53 57 67 59 88 60 55 61 39 62 40 63 48 64
REMARK SMILES IDX 41 65 42 66 46 67 49 68 43 69 44 70 47 71 45 72 71 73 72 74
REMARK SMILES IDX 80 75 73 76 74 77 78 78 81 79 75 80 76 81 79 82 77 83 56 84
REMARK SMILES IDX 57 85 65 86 58 87 59 88 63 89 66 90 60 91 61 92 64 93 62 94
REMARK H PARENT 86 47 54 58
REMARK Flexibility Score: inf
ROOT
ATOM      1  C   UNL A   1      44.709  42.970  25.409  1.00  0.00     0.202 C 
ENDROOT
BRANCH   1   2
ATOM      2  C   UNL A   1      43.484  42.561  24.579  1.00  0.00     0.261 C 
BRANCH   2   3
ATOM      3  O   UNL A   1      43.498  43.093  23.237  1.00  0.00    -0.462 OA
BRANCH   3   4
ATOM      4  C   UNL A   1      42.425  42.830  22.449  1.00  0.00     0.326 C 
ATOM      5  O   UNL A   1      41.260  42.948  22.824  1.00  0.00    -0.250 OA
BRANCH   4   6
ATOM      6  C   UNL A   1      42.757  42.479  21.014  1.00  0.00     0.244 C 
BRANCH   6   7
ATOM      7  N   UNL A   1      42.346  43.410  19.955  1.00  0.00    -0.332 N 
ATOM      8  C   UNL A   1      43.108  44.419  19.351  1.00  0.00     0.107 A 
ATOM      9  C   UNL A   1      42.203  45.087  18.532  1.00  0.00     0.033 A 
ATOM     10  C   UNL A   1      41.008  44.340  18.441  1.00  0.00     0.020 A 
ATOM     11  C   UNL A   1      41.142  43.278  19.292  1.00  0.00     0.087 A 
BRANCH   8  12
ATOM     12  C   UNL A   1      44.553  44.554  19.571  1.00  0.00     0.270 C 
ATOM     13  O   UNL A   1      45.297  43.689  19.100  1.00  0.00    -0.267 OA
BRANCH  12  14
ATOM     14  N   UNL A   1      45.150  45.649  20.224  1.00  0.00    -0.335 N 
BRANCH  14  15
ATOM     15  C   UNL A   1      45.303  45.560  21.685  1.00  0.00     0.116 C 
ATOM     16  C   UNL A   1      46.469  44.708  22.168  1.00  0.00     0.027 C 
ENDBRANCH  14  15
BRANCH  14  17
ATOM     17  C   UNL A   1      45.762  46.830  19.603  1.00  0.00     0.148 C 
BRANCH  17  18
ATOM     18  C   UNL A   1      44.898  48.109  19.687  1.00  0.00     0.181 C 
BRANCH  18  19
ATOM     19  O   UNL A   1      44.980  48.920  18.517  1.00  0.00    -0.383 OA
ATOM     20  C   UNL A   1      43.951  49.897  18.423  1.00  0.00     0.194 C 
ENDBRANCH  18  19
ENDBRANCH  17  18
ENDBRANCH  14  17
ENDBRANCH  12  14
ENDBRANCH   8  12
ENDBRANCH   6   7
ENDBRANCH   4   6
ENDBRANCH   3   4
ENDBRANCH   2   3
ENDBRANCH   1   2
BRANCH   1  21
ATOM     21  O   UNL A   1      44.641  42.557  26.764  1.00  0.00    -0.376 OA
BRANCH  21  22
ATOM     22  C   UNL A   1      45.597  41.604  27.233  1.00  0.00     0.188 C 
BRANCH  22  23
ATOM     23  C   UNL A   1      45.583  40.148  26.739  1.00  0.00     0.188 C 
BRANCH  23  24
ATOM     24  O   UNL A   1      46.143  39.253  27.695  1.00  0.00    -0.376 OA
BRANCH  24  25
ATOM     25  C   UNL A   1      47.346  38.623  27.275  1.00  0.00     0.202 C 
BRANCH  25  26
ATOM     26  C   UNL A   1      47.599  37.443  28.208  1.00  0.00     0.261 C 
BRANCH  26  27
ATOM     27  O   UNL A   1      46.429  37.070  28.941  1.00  0.00    -0.460 OA
BRANCH  27  28
ATOM     28  C   UNL A   1      46.177  35.747  28.910  1.00  0.00     0.338 C 
ATOM     29  O   UNL A   1      46.956  34.836  28.693  1.00  0.00    -0.246 OA
BRANCH  28  30
ATOM     30  C   UNL A   1      44.753  35.513  29.100  1.00  0.00     0.060 A 
ATOM     31  C   UNL A   1      44.235  35.787  30.370  1.00  0.00     0.016 A 
ATOM     32  C   UNL A   1      44.137  34.652  28.193  1.00  0.00     0.016 A 
ATOM     33  C   UNL A   1      43.192  35.015  30.829  1.00  0.00     0.010 A 
ATOM     34  C   UNL A   1      43.134  33.845  28.668  1.00  0.00     0.010 A 
ATOM     35  C   UNL A   1      42.720  33.993  30.002  1.00  0.00    -0.014 A 
BRANCH  35  36
ATOM     36  C   UNL A   1      41.717  33.060  30.514  1.00  0.00     0.031 A 
ATOM     37  C   UNL A   1      42.367  31.805  31.080  1.00  0.00     0.074 A 
ATOM     38  C   UNL A   1      40.429  33.516  30.470  1.00  0.00     0.049 A 
ATOM     39  N   UNL A   1      41.815  30.761  31.603  1.00  0.00    -0.248 NA
ATOM     40  C   UNL A   1      43.855  31.697  31.096  1.00  0.00     0.031 C 
ATOM     41  C   UNL A   1      40.012  34.806  29.870  1.00  0.00     0.029 A 
ATOM     42  N   UNL A   1      39.222  33.017  30.909  1.00  0.00    -0.354 N 
ATOM     43  C   UNL A   1      42.842  30.020  32.215  1.00  0.00     0.074 A 
ATOM     44  C   UNL A   1      44.084  30.592  31.802  1.00  0.00     0.031 C 
ATOM     45  C   UNL A   1      38.672  34.945  29.909  1.00  0.00     0.029 A 
ATOM     46  C   UNL A   1      38.085  33.803  30.578  1.00  0.00     0.049 A 
ATOM     47  H   UNL A   1      39.151  32.177  31.417  1.00  0.00     0.167 HD
ATOM     48  C   UNL A   1      42.594  29.055  33.141  1.00  0.00     0.037 A 
ATOM     49  C   UNL A   1      36.764  33.547  30.825  1.00  0.00     0.037 A 
ATOM     50  C   UNL A   1      41.196  28.820  33.253  1.00  0.00     0.049 A 
ATOM     51  C   UNL A   1      36.770  32.443  31.796  1.00  0.00     0.074 A 
ATOM     52  C   UNL A   1      40.318  28.198  32.406  1.00  0.00     0.029 A 
ATOM     53  N   UNL A   1      40.491  29.566  34.166  1.00  0.00    -0.354 N 
ATOM     54  N   UNL A   1      37.118  32.581  33.041  1.00  0.00    -0.248 NA
ATOM     55  C   UNL A   1      36.440  31.087  31.355  1.00  0.00     0.031 C 
ATOM     56  C   UNL A   1      39.114  28.906  32.580  1.00  0.00     0.029 A 
ATOM     57  C   UNL A   1      39.255  29.826  33.624  1.00  0.00     0.049 A 
ATOM     58  H   UNL A   1      40.814  29.861  35.048  1.00  0.00     0.167 HD
ATOM     59  C   UNL A   1      37.378  31.286  33.418  1.00  0.00     0.074 A 
ATOM     60  C   UNL A   1      36.653  30.439  32.498  1.00  0.00     0.031 C 
ATOM     61  C   UNL A   1      38.543  31.007  34.060  1.00  0.00     0.037 A 
BRANCH  48  62
ATOM     62  C   UNL A   1      43.500  28.384  34.118  1.00  0.00     0.064 A 
ATOM     63  C   UNL A   1      43.762  27.006  33.944  1.00  0.00     0.173 A 
ATOM     64  C   UNL A   1      43.819  28.935  35.366  1.00  0.00     0.173 A 
ATOM     65  F   UNL A   1      43.526  26.408  32.766  1.00  0.00    -0.203 F 
ATOM     66  C   UNL A   1      44.188  26.204  34.997  1.00  0.00     0.198 A 
ATOM     67  C   UNL A   1      44.291  28.132  36.407  1.00  0.00     0.198 A 
ATOM     68  F   UNL A   1      43.584  30.226  35.633  1.00  0.00    -0.203 F 
ATOM     69  F   UNL A   1      44.292  24.878  34.824  1.00  0.00    -0.200 F 
ATOM     70  C   UNL A   1      44.435  26.764  36.234  1.00  0.00     0.200 A 
ATOM     71  F   UNL A   1      44.535  28.678  37.607  1.00  0.00    -0.200 F 
ATOM     72  F   UNL A   1      44.778  25.985  37.269  1.00  0.00    -0.200 F 
ENDBRANCH  48  62
BRANCH  49  73
ATOM     73  C   UNL A   1      35.404  34.068  30.412  1.00  0.00     0.064 A 
ATOM     74  C   UNL A   1      34.574  34.906  31.169  1.00  0.00     0.173 A 
ATOM     75  C   UNL A   1      34.922  33.816  29.093  1.00  0.00     0.173 A 
ATOM     76  F   UNL A   1      34.837  35.173  32.451  1.00  0.00    -0.203 F 
ATOM     77  C   UNL A   1      33.427  35.514  30.624  1.00  0.00     0.198 A 
ATOM     78  C   UNL A   1      33.814  34.458  28.538  1.00  0.00     0.198 A 
ATOM     79  F   UNL A   1      35.525  32.943  28.276  1.00  0.00    -0.203 F 
ATOM     80  F   UNL A   1      32.676  36.317  31.391  1.00  0.00    -0.200 F 
ATOM     81  C   UNL A   1      33.071  35.322  29.302  1.00  0.00     0.200 A 
ATOM     82  F   UNL A   1      33.501  34.245  27.252  1.00  0.00    -0.200 F 
ATOM     83  F   UNL A   1      32.022  35.962  28.769  1.00  0.00    -0.200 F 
ENDBRANCH  49  73
BRANCH  61  84
ATOM     84  C   UNL A   1      39.121  32.206  34.797  1.00  0.00     0.064 A 
ATOM     85  C   UNL A   1      38.446  32.733  35.914  1.00  0.00     0.173 A 
ATOM     86  C   UNL A   1      40.227  32.945  34.347  1.00  0.00     0.173 A 
ATOM     87  F   UNL A   1      37.398  32.075  36.434  1.00  0.00    -0.203 F 
ATOM     88  C   UNL A   1      38.825  33.944  36.501  1.00  0.00     0.198 A 
ATOM     89  C   UNL A   1      40.612  34.153  34.935  1.00  0.00     0.198 A 
ATOM     90  F   UNL A   1      40.971  32.511  33.331  1.00  0.00    -0.203 F 
ATOM     91  F   UNL A   1      38.140  34.420  37.550  1.00  0.00    -0.200 F 
ATOM     92  C   UNL A   1      39.901  34.659  36.005  1.00  0.00     0.200 A 
ATOM     93  F   UNL A   1      41.675  34.821  34.458  1.00  0.00    -0.200 F 
ATOM     94  F   UNL A   1      40.265  35.820  36.568  1.00  0.00    -0.200 F 
ENDBRANCH  61  84
ENDBRANCH  35  36
ENDBRANCH  28  30
ENDBRANCH  27  28
ENDBRANCH  26  27
ENDBRANCH  25  26
ENDBRANCH  24  25
ENDBRANCH  23  24
ENDBRANCH  22  23
ENDBRANCH  21  22
ENDBRANCH   1  21
TORSDOF 24
ENDMDL
