MODEL 1
REMARK VINA RESULT:      -9.5      0.000      0.000
REMARK SMILES C[NH+]1CCN(c2nc3c(cc2F)c(=O)c(C(=O)OCCOCCOCCOC(=O)c2ccc(-c4c5nc(c(-c6c(F)c(F)c(F)c(F)c6F)c6ccc([nH]6)c(-c6c(F)c(F)c(F)c(F)c6F)c6nc(c(-c7c(F)c(F)c(F)c(F)c7F)c7ccc4[nH]7)C=C6)C=C5)cc2)cn3-c2ccc(F)cc2F)CC1
REMARK SMILES IDX 23 1 22 2 21 3 20 4 19 5 18 6 16 7 17 8 15 9 6 10 7 11 11 12
REMARK SMILES IDX 8 13 10 14 12 15 9 16 94 17 13 18 93 19 14 20 5 21 1 22 2 23
REMARK SMILES IDX 3 24 104 25 4 27 103 28 95 29 96 30 101 31 97 32 100 33
REMARK SMILES IDX 102 34 98 35 99 36 24 37 25 38 26 39 27 40 28 41 29 42 30 43
REMARK SMILES IDX 31 44 92 45 32 46 91 47 33 48 34 49 35 50 85 51 36 52 90 53
REMARK SMILES IDX 84 54 86 55 37 56 89 57 83 58 82 59 38 61 70 62 50 63 69 64
REMARK SMILES IDX 51 65 54 66 68 67 87 68 52 69 53 70 67 72 88 73 55 74 39 75
REMARK SMILES IDX 40 76 48 77 41 78 42 79 46 80 49 81 43 82 44 83 47 84 45 85
REMARK SMILES IDX 71 86 72 87 80 88 73 89 74 90 78 91 81 92 75 93 76 94 79 95
REMARK SMILES IDX 77 96 56 97 57 98 65 99 58 100 59 101 63 102 66 103 60 104
REMARK SMILES IDX 61 105 64 106 62 107
REMARK H PARENT 2 26 86 60 54 71
REMARK Flexibility Score: inf
ROOT
ATOM      1  C   UNL A   1      37.595  33.471  29.117  1.00  0.00     0.188 C 
ENDROOT
BRANCH   1   2
ATOM      2  C   UNL A   1      38.445  34.689  29.544  1.00  0.00     0.188 C 
BRANCH   2   3
ATOM      3  O   UNL A   1      39.070  34.744  30.812  1.00  0.00    -0.376 OA
BRANCH   3   4
ATOM      4  C   UNL A   1      38.331  34.429  31.983  1.00  0.00     0.202 C 
BRANCH   4   5
ATOM      5  C   UNL A   1      36.861  34.831  32.067  1.00  0.00     0.261 C 
BRANCH   5   6
ATOM      6  O   UNL A   1      36.401  34.924  33.420  1.00  0.00    -0.459 OA
BRANCH   6   7
ATOM      7  C   UNL A   1      35.774  33.832  33.915  1.00  0.00     0.343 C 
ATOM      8  O   UNL A   1      34.566  33.673  34.010  1.00  0.00    -0.246 OA
BRANCH   7   9
ATOM      9  C   UNL A   1      36.741  32.756  34.183  1.00  0.00     0.124 A 
ATOM     10  C   UNL A   1      40.242  29.122  34.156  1.00  0.00     0.167 A 
ATOM     11  N   UNL A   1      39.927  30.101  35.036  1.00  0.00    -0.209 NA
ATOM     12  C   UNL A   1      39.411  28.826  33.068  1.00  0.00     0.166 A 
ATOM     13  C   UNL A   1      38.837  30.879  34.787  1.00  0.00     0.151 A 
ATOM     14  C   UNL A   1      38.266  29.562  32.841  1.00  0.00     0.059 A 
ATOM     15  F   UNL A   1      39.719  27.835  32.217  1.00  0.00    -0.203 F 
ATOM     16  C   UNL A   1      37.997  30.627  33.691  1.00  0.00     0.069 A 
ATOM     17  N   UNL A   1      38.560  32.014  35.620  1.00  0.00    -0.297 N 
ATOM     18  C   UNL A   1      36.874  31.532  33.372  1.00  0.00     0.205 A 
ATOM     19  C   UNL A   1      37.557  32.894  35.237  1.00  0.00     0.113 A 
ATOM     20  O   UNL A   1      36.137  31.283  32.426  1.00  0.00    -0.288 OA
BRANCH  10  21
ATOM     21  N   UNL A   1      41.424  28.439  34.304  1.00  0.00    -0.343 N 
ATOM     22  C   UNL A   1      44.290  25.404  33.827  1.00  0.00     0.332 C 
ATOM     23  N   UNL A   1      43.704  26.678  34.241  1.00  0.00    -0.334 N 
ATOM     24  C   UNL A   1      42.550  26.452  35.153  1.00  0.00     0.283 C 
ATOM     25  C   UNL A   1      43.266  27.436  33.045  1.00  0.00     0.283 C 
ATOM     26  H   UNL A   1      44.409  27.216  34.744  1.00  0.00     0.347 HD
ATOM     27  C   UNL A   1      41.789  27.755  35.535  1.00  0.00     0.179 C 
ATOM     28  C   UNL A   1      42.535  28.744  33.404  1.00  0.00     0.179 C 
ENDBRANCH  10  21
BRANCH  17  29
ATOM     29  C   UNL A   1      39.393  32.354  36.723  1.00  0.00     0.083 A 
ATOM     30  C   UNL A   1      40.781  32.470  36.550  1.00  0.00     0.033 A 
ATOM     31  C   UNL A   1      38.852  32.603  37.995  1.00  0.00     0.150 A 
ATOM     32  C   UNL A   1      41.598  32.834  37.622  1.00  0.00     0.041 A 
ATOM     33  C   UNL A   1      39.661  32.958  39.070  1.00  0.00     0.080 A 
ATOM     34  F   UNL A   1      37.528  32.504  38.189  1.00  0.00    -0.205 F 
ATOM     35  C   UNL A   1      41.030  33.072  38.870  1.00  0.00     0.126 A 
ATOM     36  F   UNL A   1      41.820  33.418  39.893  1.00  0.00    -0.207 F 
ENDBRANCH  17  29
ENDBRANCH   7   9
ENDBRANCH   6   7
ENDBRANCH   5   6
ENDBRANCH   4   5
ENDBRANCH   3   4
ENDBRANCH   2   3
ENDBRANCH   1   2
BRANCH   1  37
ATOM     37  O   UNL A   1      36.563  33.588  28.162  1.00  0.00    -0.376 OA
BRANCH  37  38
ATOM     38  C   UNL A   1      35.290  34.088  28.535  1.00  0.00     0.202 C 
BRANCH  38  39
ATOM     39  C   UNL A   1      34.099  33.148  28.729  1.00  0.00     0.261 C 
BRANCH  39  40
ATOM     40  O   UNL A   1      34.448  31.841  29.203  1.00  0.00    -0.460 OA
BRANCH  40  41
ATOM     41  C   UNL A   1      34.526  30.887  28.250  1.00  0.00     0.338 C 
ATOM     42  O   UNL A   1      33.722  30.649  27.356  1.00  0.00    -0.246 OA
BRANCH  41  43
ATOM     43  C   UNL A   1      35.826  30.215  28.342  1.00  0.00     0.060 A 
ATOM     44  C   UNL A   1      36.192  29.617  29.555  1.00  0.00     0.016 A 
ATOM     45  C   UNL A   1      36.711  30.251  27.264  1.00  0.00     0.016 A 
ATOM     46  C   UNL A   1      37.460  29.061  29.698  1.00  0.00     0.010 A 
ATOM     47  C   UNL A   1      37.995  29.727  27.422  1.00  0.00     0.010 A 
ATOM     48  C   UNL A   1      38.381  29.158  28.647  1.00  0.00    -0.014 A 
BRANCH  48  49
ATOM     49  C   UNL A   1      39.807  28.868  28.905  1.00  0.00     0.031 A 
ATOM     50  C   UNL A   1      40.626  29.911  29.608  1.00  0.00     0.074 A 
ATOM     51  C   UNL A   1      40.357  27.697  28.541  1.00  0.00     0.049 A 
ATOM     52  N   UNL A   1      41.907  29.926  29.869  1.00  0.00    -0.248 NA
ATOM     53  C   UNL A   1      39.898  31.097  30.092  1.00  0.00     0.031 C 
ATOM     54  C   UNL A   1      39.642  26.579  27.932  1.00  0.00     0.029 A 
ATOM     55  N   UNL A   1      41.655  27.263  28.633  1.00  0.00    -0.354 N 
ATOM     56  C   UNL A   1      42.136  31.112  30.554  1.00  0.00     0.074 A 
ATOM     57  C   UNL A   1      40.870  31.804  30.648  1.00  0.00     0.031 C 
ATOM     58  C   UNL A   1      40.517  25.586  27.690  1.00  0.00     0.029 A 
ATOM     59  C   UNL A   1      41.855  26.018  28.091  1.00  0.00     0.049 A 
ATOM     60  H   UNL A   1      42.373  27.792  29.047  1.00  0.00     0.167 HD
ATOM     61  C   UNL A   1      43.298  31.577  31.064  1.00  0.00     0.037 A 
ATOM     62  C   UNL A   1      42.997  25.324  27.919  1.00  0.00     0.037 A 
ATOM     63  C   UNL A   1      44.562  30.903  30.938  1.00  0.00     0.049 A 
ATOM     64  C   UNL A   1      44.303  25.930  28.371  1.00  0.00     0.074 A 
ATOM     65  C   UNL A   1      45.807  31.313  31.379  1.00  0.00     0.029 A 
ATOM     66  N   UNL A   1      44.739  29.675  30.319  1.00  0.00    -0.354 N 
ATOM     67  N   UNL A   1      44.521  27.062  28.995  1.00  0.00    -0.248 NA
ATOM     68  C   UNL A   1      45.524  25.161  28.086  1.00  0.00     0.031 C 
ATOM     69  C   UNL A   1      46.745  30.353  30.988  1.00  0.00     0.029 A 
ATOM     70  C   UNL A   1      46.077  29.320  30.350  1.00  0.00     0.049 A 
ATOM     71  H   UNL A   1      44.020  29.135  29.916  1.00  0.00     0.167 HD
ATOM     72  C   UNL A   1      45.892  27.127  29.206  1.00  0.00     0.074 A 
ATOM     73  C   UNL A   1      46.457  25.915  28.651  1.00  0.00     0.031 C 
ATOM     74  C   UNL A   1      46.619  28.101  29.806  1.00  0.00     0.037 A 
BRANCH  61  75
ATOM     75  C   UNL A   1      43.262  32.890  31.787  1.00  0.00     0.064 A 
ATOM     76  C   UNL A   1      43.223  32.949  33.187  1.00  0.00     0.173 A 
ATOM     77  C   UNL A   1      43.317  34.097  31.076  1.00  0.00     0.173 A 
ATOM     78  F   UNL A   1      43.148  31.821  33.910  1.00  0.00    -0.203 F 
ATOM     79  C   UNL A   1      43.230  34.172  33.851  1.00  0.00     0.198 A 
ATOM     80  C   UNL A   1      43.351  35.318  31.744  1.00  0.00     0.198 A 
ATOM     81  F   UNL A   1      43.353  34.093  29.735  1.00  0.00    -0.203 F 
ATOM     82  F   UNL A   1      43.160  34.208  35.188  1.00  0.00    -0.200 F 
ATOM     83  C   UNL A   1      43.305  35.355  33.129  1.00  0.00     0.200 A 
ATOM     84  F   UNL A   1      43.432  36.459  31.046  1.00  0.00    -0.200 F 
ATOM     85  F   UNL A   1      43.329  36.531  33.770  1.00  0.00    -0.200 F 
ENDBRANCH  61  75
BRANCH  62  86
ATOM     86  C   UNL A   1      42.968  23.983  27.280  1.00  0.00     0.064 A 
ATOM     87  C   UNL A   1      43.293  23.826  25.926  1.00  0.00     0.173 A 
ATOM     88  C   UNL A   1      42.592  22.837  27.997  1.00  0.00     0.173 A 
ATOM     89  F   UNL A   1      43.627  24.896  25.190  1.00  0.00    -0.203 F 
ATOM     90  C   UNL A   1      43.231  22.578  25.310  1.00  0.00     0.198 A 
ATOM     91  C   UNL A   1      42.558  21.585  27.387  1.00  0.00     0.198 A 
ATOM     92  F   UNL A   1      42.263  22.934  29.294  1.00  0.00    -0.203 F 
ATOM     93  F   UNL A   1      43.503  22.464  24.003  1.00  0.00    -0.200 F 
ATOM     94  C   UNL A   1      42.870  21.457  26.042  1.00  0.00     0.200 A 
ATOM     95  F   UNL A   1      42.215  20.504  28.100  1.00  0.00    -0.200 F 
ATOM     96  F   UNL A   1      42.813  20.257  25.450  1.00  0.00    -0.200 F 
ENDBRANCH  62  86
BRANCH  74  97
ATOM     97  C   UNL A   1      48.100  27.889  29.934  1.00  0.00     0.064 A 
ATOM     98  C   UNL A   1      48.653  27.199  31.022  1.00  0.00     0.173 A 
ATOM     99  C   UNL A   1      48.968  28.321  28.919  1.00  0.00     0.173 A 
ATOM    100  F   UNL A   1      47.867  26.775  32.023  1.00  0.00    -0.203 F 
ATOM    101  C   UNL A   1      50.024  26.966  31.099  1.00  0.00     0.198 A 
ATOM    102  C   UNL A   1      50.333  28.061  28.985  1.00  0.00     0.198 A 
ATOM    103  F   UNL A   1      48.488  28.977  27.853  1.00  0.00    -0.203 F 
ATOM    104  F   UNL A   1      50.536  26.338  32.166  1.00  0.00    -0.200 F 
ATOM    105  C   UNL A   1      50.861  27.389  30.077  1.00  0.00     0.200 A 
ATOM    106  F   UNL A   1      51.139  28.454  27.987  1.00  0.00    -0.200 F 
ATOM    107  F   UNL A   1      52.177  27.150  30.145  1.00  0.00    -0.200 F 
ENDBRANCH  74  97
ENDBRANCH  48  49
ENDBRANCH  41  43
ENDBRANCH  40  41
ENDBRANCH  39  40
ENDBRANCH  38  39
ENDBRANCH  37  38
ENDBRANCH   1  37
TORSDOF 19
ENDMDL
MODEL 2
REMARK VINA RESULT:      -9.1      4.578     10.002
REMARK SMILES C[NH+]1CCN(c2nc3c(cc2F)c(=O)c(C(=O)OCCOCCOCCOC(=O)c2ccc(-c4c5nc(c(-c6c(F)c(F)c(F)c(F)c6F)c6ccc([nH]6)c(-c6c(F)c(F)c(F)c(F)c6F)c6nc(c(-c7c(F)c(F)c(F)c(F)c7F)c7ccc4[nH]7)C=C6)C=C5)cc2)cn3-c2ccc(F)cc2F)CC1
REMARK SMILES IDX 23 1 22 2 21 3 20 4 19 5 18 6 16 7 17 8 15 9 6 10 7 11 11 12
REMARK SMILES IDX 8 13 10 14 12 15 9 16 94 17 13 18 93 19 14 20 5 21 1 22 2 23
REMARK SMILES IDX 3 24 104 25 4 27 103 28 95 29 96 30 101 31 97 32 100 33
REMARK SMILES IDX 102 34 98 35 99 36 24 37 25 38 26 39 27 40 28 41 29 42 30 43
REMARK SMILES IDX 31 44 92 45 32 46 91 47 33 48 34 49 35 50 85 51 36 52 90 53
REMARK SMILES IDX 84 54 86 55 37 56 89 57 83 58 82 59 38 61 70 62 50 63 69 64
REMARK SMILES IDX 51 65 54 66 68 67 87 68 52 69 53 70 67 72 88 73 55 74 39 75
REMARK SMILES IDX 40 76 48 77 41 78 42 79 46 80 49 81 43 82 44 83 47 84 45 85
REMARK SMILES IDX 71 86 72 87 80 88 73 89 74 90 78 91 81 92 75 93 76 94 79 95
REMARK SMILES IDX 77 96 56 97 57 98 65 99 58 100 59 101 63 102 66 103 60 104
REMARK SMILES IDX 61 105 64 106 62 107
REMARK H PARENT 2 26 86 60 54 71
REMARK Flexibility Score: inf
ROOT
ATOM      1  C   UNL A   1      35.964  32.281  33.110  1.00  0.00     0.188 C 
ENDROOT
BRANCH   1   2
ATOM      2  C   UNL A   1      36.545  33.182  34.222  1.00  0.00     0.188 C 
BRANCH   2   3
ATOM      3  O   UNL A   1      36.989  34.497  33.949  1.00  0.00    -0.376 OA
BRANCH   3   4
ATOM      4  C   UNL A   1      37.431  34.842  32.645  1.00  0.00     0.202 C 
BRANCH   4   5
ATOM      5  C   UNL A   1      38.875  34.548  32.246  1.00  0.00     0.261 C 
BRANCH   5   6
ATOM      6  O   UNL A   1      38.961  33.540  31.231  1.00  0.00    -0.459 OA
BRANCH   6   7
ATOM      7  C   UNL A   1      38.459  33.869  30.018  1.00  0.00     0.343 C 
ATOM      8  O   UNL A   1      38.741  34.863  29.365  1.00  0.00    -0.246 OA
BRANCH   7   9
ATOM      9  C   UNL A   1      37.631  32.776  29.485  1.00  0.00     0.124 A 
ATOM     10  C   UNL A   1      34.429  29.710  27.075  1.00  0.00     0.167 A 
ATOM     11  N   UNL A   1      35.689  29.553  27.544  1.00  0.00    -0.209 NA
ATOM     12  C   UNL A   1      33.667  30.840  27.398  1.00  0.00     0.166 A 
ATOM     13  C   UNL A   1      36.255  30.571  28.251  1.00  0.00     0.151 A 
ATOM     14  C   UNL A   1      34.205  31.849  28.171  1.00  0.00     0.059 A 
ATOM     15  F   UNL A   1      32.409  30.973  26.950  1.00  0.00    -0.203 F 
ATOM     16  C   UNL A   1      35.529  31.729  28.570  1.00  0.00     0.069 A 
ATOM     17  N   UNL A   1      37.635  30.495  28.637  1.00  0.00    -0.297 N 
ATOM     18  C   UNL A   1      36.178  32.867  29.252  1.00  0.00     0.205 A 
ATOM     19  C   UNL A   1      38.236  31.617  29.191  1.00  0.00     0.113 A 
ATOM     20  O   UNL A   1      35.522  33.860  29.545  1.00  0.00    -0.288 OA
BRANCH  10  21
ATOM     21  N   UNL A   1      33.906  28.767  26.225  1.00  0.00    -0.343 N 
ATOM     22  C   UNL A   1      33.705  25.320  23.830  1.00  0.00     0.332 C 
ATOM     23  N   UNL A   1      33.265  26.525  24.532  1.00  0.00    -0.334 N 
ATOM     24  C   UNL A   1      33.989  27.721  24.025  1.00  0.00     0.283 C 
ATOM     25  C   UNL A   1      33.500  26.367  25.987  1.00  0.00     0.283 C 
ATOM     26  H   UNL A   1      32.268  26.658  24.363  1.00  0.00     0.347 HD
ATOM     27  C   UNL A   1      33.671  29.026  24.812  1.00  0.00     0.179 C 
ATOM     28  C   UNL A   1      33.163  27.640  26.786  1.00  0.00     0.179 C 
ENDBRANCH  10  21
BRANCH  17  29
ATOM     29  C   UNL A   1      38.443  29.369  28.311  1.00  0.00     0.083 A 
ATOM     30  C   UNL A   1      39.271  29.399  27.177  1.00  0.00     0.033 A 
ATOM     31  C   UNL A   1      38.454  28.220  29.119  1.00  0.00     0.150 A 
ATOM     32  C   UNL A   1      40.089  28.310  26.871  1.00  0.00     0.041 A 
ATOM     33  C   UNL A   1      39.259  27.127  28.815  1.00  0.00     0.080 A 
ATOM     34  F   UNL A   1      37.676  28.165  30.211  1.00  0.00    -0.205 F 
ATOM     35  C   UNL A   1      40.073  27.186  27.691  1.00  0.00     0.126 A 
ATOM     36  F   UNL A   1      40.858  26.145  27.390  1.00  0.00    -0.207 F 
ENDBRANCH  17  29
ENDBRANCH   7   9
ENDBRANCH   6   7
ENDBRANCH   5   6
ENDBRANCH   4   5
ENDBRANCH   3   4
ENDBRANCH   2   3
ENDBRANCH   1   2
BRANCH   1  37
ATOM     37  O   UNL A   1      36.776  31.389  32.379  1.00  0.00    -0.376 OA
BRANCH  37  38
ATOM     38  C   UNL A   1      37.011  30.074  32.857  1.00  0.00     0.202 C 
BRANCH  38  39
ATOM     39  C   UNL A   1      38.320  29.711  33.559  1.00  0.00     0.261 C 
BRANCH  39  40
ATOM     40  O   UNL A   1      38.955  28.530  33.051  1.00  0.00    -0.460 OA
BRANCH  40  41
ATOM     41  C   UNL A   1      40.276  28.430  33.316  1.00  0.00     0.338 C 
ATOM     42  O   UNL A   1      40.850  27.569  33.972  1.00  0.00    -0.246 OA
BRANCH  41  43
ATOM     43  C   UNL A   1      40.999  29.468  32.573  1.00  0.00     0.060 A 
ATOM     44  C   UNL A   1      40.963  29.445  31.172  1.00  0.00     0.016 A 
ATOM     45  C   UNL A   1      41.777  30.403  33.255  1.00  0.00     0.016 A 
ATOM     46  C   UNL A   1      41.722  30.357  30.446  1.00  0.00     0.010 A 
ATOM     47  C   UNL A   1      42.567  31.292  32.524  1.00  0.00     0.010 A 
ATOM     48  C   UNL A   1      42.562  31.251  31.119  1.00  0.00    -0.014 A 
BRANCH  48  49
ATOM     49  C   UNL A   1      43.597  31.985  30.361  1.00  0.00     0.031 A 
ATOM     50  C   UNL A   1      44.913  31.304  30.116  1.00  0.00     0.074 A 
ATOM     51  C   UNL A   1      43.366  33.218  29.881  1.00  0.00     0.049 A 
ATOM     52  N   UNL A   1      45.998  31.769  29.557  1.00  0.00    -0.248 NA
ATOM     53  C   UNL A   1      45.014  29.901  30.557  1.00  0.00     0.031 C 
ATOM     54  C   UNL A   1      42.102  33.943  29.981  1.00  0.00     0.029 A 
ATOM     55  N   UNL A   1      44.201  34.080  29.215  1.00  0.00    -0.354 N 
ATOM     56  C   UNL A   1      46.905  30.718  29.568  1.00  0.00     0.074 A 
ATOM     57  C   UNL A   1      46.256  29.598  30.211  1.00  0.00     0.031 C 
ATOM     58  C   UNL A   1      42.249  35.151  29.407  1.00  0.00     0.029 A 
ATOM     59  C   UNL A   1      43.626  35.295  28.938  1.00  0.00     0.049 A 
ATOM     60  H   UNL A   1      45.123  33.850  28.961  1.00  0.00     0.167 HD
ATOM     61  C   UNL A   1      48.165  30.690  29.078  1.00  0.00     0.037 A 
ATOM     62  C   UNL A   1      44.166  36.401  28.391  1.00  0.00     0.037 A 
ATOM     63  C   UNL A   1      48.820  31.816  28.470  1.00  0.00     0.049 A 
ATOM     64  C   UNL A   1      45.618  36.388  27.982  1.00  0.00     0.074 A 
ATOM     65  C   UNL A   1      50.112  31.905  27.984  1.00  0.00     0.029 A 
ATOM     66  N   UNL A   1      48.229  33.055  28.270  1.00  0.00    -0.354 N 
ATOM     67  N   UNL A   1      46.481  35.402  28.017  1.00  0.00    -0.248 NA
ATOM     68  C   UNL A   1      46.172  37.647  27.464  1.00  0.00     0.031 C 
ATOM     69  C   UNL A   1      50.317  33.211  27.529  1.00  0.00     0.029 A 
ATOM     70  C   UNL A   1      49.137  33.921  27.683  1.00  0.00     0.049 A 
ATOM     71  H   UNL A   1      47.302  33.285  28.510  1.00  0.00     0.167 HD
ATOM     72  C   UNL A   1      47.665  35.909  27.498  1.00  0.00     0.074 A 
ATOM     73  C   UNL A   1      47.409  37.290  27.146  1.00  0.00     0.031 C 
ATOM     74  C   UNL A   1      48.859  35.288  27.326  1.00  0.00     0.037 A 
BRANCH  61  75
ATOM     75  C   UNL A   1      48.927  29.406  29.200  1.00  0.00     0.064 A 
ATOM     76  C   UNL A   1      49.644  29.091  30.364  1.00  0.00     0.173 A 
ATOM     77  C   UNL A   1      48.901  28.459  28.166  1.00  0.00     0.173 A 
ATOM     78  F   UNL A   1      49.716  29.974  31.372  1.00  0.00    -0.203 F 
ATOM     79  C   UNL A   1      50.315  27.878  30.485  1.00  0.00     0.198 A 
ATOM     80  C   UNL A   1      49.552  27.236  28.300  1.00  0.00     0.198 A 
ATOM     81  F   UNL A   1      48.232  28.714  27.032  1.00  0.00    -0.203 F 
ATOM     82  F   UNL A   1      51.020  27.611  31.592  1.00  0.00    -0.200 F 
ATOM     83  C   UNL A   1      50.260  26.947  29.456  1.00  0.00     0.200 A 
ATOM     84  F   UNL A   1      49.490  26.335  27.310  1.00  0.00    -0.200 F 
ATOM     85  F   UNL A   1      50.893  25.773  29.580  1.00  0.00    -0.200 F 
ENDBRANCH  61  75
BRANCH  62  86
ATOM     86  C   UNL A   1      43.340  37.622  28.205  1.00  0.00     0.064 A 
ATOM     87  C   UNL A   1      43.334  38.638  29.170  1.00  0.00     0.173 A 
ATOM     88  C   UNL A   1      42.523  37.791  27.077  1.00  0.00     0.173 A 
ATOM     89  F   UNL A   1      44.074  38.510  30.282  1.00  0.00    -0.203 F 
ATOM     90  C   UNL A   1      42.534  39.769  29.022  1.00  0.00     0.198 A 
ATOM     91  C   UNL A   1      41.744  38.934  26.916  1.00  0.00     0.198 A 
ATOM     92  F   UNL A   1      42.485  36.843  26.128  1.00  0.00    -0.203 F 
ATOM     93  F   UNL A   1      42.513  40.704  29.982  1.00  0.00    -0.200 F 
ATOM     94  C   UNL A   1      41.744  39.919  27.892  1.00  0.00     0.200 A 
ATOM     95  F   UNL A   1      40.988  39.079  25.819  1.00  0.00    -0.200 F 
ATOM     96  F   UNL A   1      40.976  41.008  27.748  1.00  0.00    -0.200 F 
ENDBRANCH  62  86
BRANCH  74  97
ATOM     97  C   UNL A   1      49.972  36.076  26.697  1.00  0.00     0.064 A 
ATOM     98  C   UNL A   1      50.866  36.831  27.468  1.00  0.00     0.173 A 
ATOM     99  C   UNL A   1      50.186  36.017  25.311  1.00  0.00     0.173 A 
ATOM    100  F   UNL A   1      50.698  36.929  28.796  1.00  0.00    -0.203 F 
ATOM    101  C   UNL A   1      51.923  37.515  26.872  1.00  0.00     0.198 A 
ATOM    102  C   UNL A   1      51.261  36.676  24.723  1.00  0.00     0.198 A 
ATOM    103  F   UNL A   1      49.365  35.299  24.530  1.00  0.00    -0.203 F 
ATOM    104  F   UNL A   1      52.743  38.261  27.624  1.00  0.00    -0.200 F 
ATOM    105  C   UNL A   1      52.126  37.428  25.503  1.00  0.00     0.200 A 
ATOM    106  F   UNL A   1      51.465  36.577  23.401  1.00  0.00    -0.200 F 
ATOM    107  F   UNL A   1      53.152  38.074  24.934  1.00  0.00    -0.200 F 
ENDBRANCH  74  97
ENDBRANCH  48  49
ENDBRANCH  41  43
ENDBRANCH  40  41
ENDBRANCH  39  40
ENDBRANCH  38  39
ENDBRANCH  37  38
ENDBRANCH   1  37
TORSDOF 19
ENDMDL
MODEL 3
REMARK VINA RESULT:      -8.7      4.884     12.295
REMARK SMILES C[NH+]1CCN(c2nc3c(cc2F)c(=O)c(C(=O)OCCOCCOCCOC(=O)c2ccc(-c4c5nc(c(-c6c(F)c(F)c(F)c(F)c6F)c6ccc([nH]6)c(-c6c(F)c(F)c(F)c(F)c6F)c6nc(c(-c7c(F)c(F)c(F)c(F)c7F)c7ccc4[nH]7)C=C6)C=C5)cc2)cn3-c2ccc(F)cc2F)CC1
REMARK SMILES IDX 23 1 22 2 21 3 20 4 19 5 18 6 16 7 17 8 15 9 6 10 7 11 11 12
REMARK SMILES IDX 8 13 10 14 12 15 9 16 94 17 13 18 93 19 14 20 5 21 1 22 2 23
REMARK SMILES IDX 3 24 104 25 4 27 103 28 95 29 96 30 101 31 97 32 100 33
REMARK SMILES IDX 102 34 98 35 99 36 24 37 25 38 26 39 27 40 28 41 29 42 30 43
REMARK SMILES IDX 31 44 92 45 32 46 91 47 33 48 34 49 35 50 85 51 36 52 90 53
REMARK SMILES IDX 84 54 86 55 37 56 89 57 83 58 82 59 38 61 70 62 50 63 69 64
REMARK SMILES IDX 51 65 54 66 68 67 87 68 52 69 53 70 67 72 88 73 55 74 39 75
REMARK SMILES IDX 40 76 48 77 41 78 42 79 46 80 49 81 43 82 44 83 47 84 45 85
REMARK SMILES IDX 71 86 72 87 80 88 73 89 74 90 78 91 81 92 75 93 76 94 79 95
REMARK SMILES IDX 77 96 56 97 57 98 65 99 58 100 59 101 63 102 66 103 60 104
REMARK SMILES IDX 61 105 64 106 62 107
REMARK H PARENT 2 26 86 60 54 71
REMARK Flexibility Score: inf
ROOT
ATOM      1  C   UNL A   1      54.618  26.832  24.238  1.00  0.00     0.188 C 
ENDROOT
BRANCH   1   2
ATOM      2  C   UNL A   1      53.387  27.385  23.486  1.00  0.00     0.188 C 
BRANCH   2   3
ATOM      3  O   UNL A   1      52.178  26.655  23.411  1.00  0.00    -0.376 OA
BRANCH   3   4
ATOM      4  C   UNL A   1      51.034  27.099  24.125  1.00  0.00     0.202 C 
BRANCH   4   5
ATOM      5  C   UNL A   1      49.781  27.498  23.351  1.00  0.00     0.261 C 
BRANCH   5   6
ATOM      6  O   UNL A   1      48.579  27.094  24.019  1.00  0.00    -0.459 OA
BRANCH   6   7
ATOM      7  C   UNL A   1      47.447  27.738  23.652  1.00  0.00     0.343 C 
ATOM      8  O   UNL A   1      47.208  28.207  22.549  1.00  0.00    -0.246 OA
BRANCH   7   9
ATOM      9  C   UNL A   1      46.438  27.663  24.720  1.00  0.00     0.124 A 
ATOM     10  C   UNL A   1      42.584  28.168  27.939  1.00  0.00     0.167 A 
ATOM     11  N   UNL A   1      43.220  27.095  27.412  1.00  0.00    -0.209 NA
ATOM     12  C   UNL A   1      43.094  29.464  27.784  1.00  0.00     0.166 A 
ATOM     13  C   UNL A   1      44.314  27.302  26.627  1.00  0.00     0.151 A 
ATOM     14  C   UNL A   1      44.240  29.682  27.047  1.00  0.00     0.059 A 
ATOM     15  F   UNL A   1      42.471  30.518  28.333  1.00  0.00    -0.203 F 
ATOM     16  C   UNL A   1      44.836  28.590  26.430  1.00  0.00     0.069 A 
ATOM     17  N   UNL A   1      44.922  26.200  25.939  1.00  0.00    -0.297 N 
ATOM     18  C   UNL A   1      45.962  28.818  25.501  1.00  0.00     0.205 A 
ATOM     19  C   UNL A   1      45.915  26.462  25.004  1.00  0.00     0.113 A 
ATOM     20  O   UNL A   1      46.420  29.946  25.360  1.00  0.00    -0.288 OA
BRANCH  10  21
ATOM     21  N   UNL A   1      41.391  27.989  28.593  1.00  0.00    -0.343 N 
ATOM     22  C   UNL A   1      37.626  28.914  30.213  1.00  0.00     0.332 C 
ATOM     23  N   UNL A   1      38.777  28.113  29.800  1.00  0.00    -0.334 N 
ATOM     24  C   UNL A   1      40.005  28.550  30.517  1.00  0.00     0.283 C 
ATOM     25  C   UNL A   1      38.971  28.239  28.336  1.00  0.00     0.283 C 
ATOM     26  H   UNL A   1      38.599  27.136  30.035  1.00  0.00     0.347 HD
ATOM     27  C   UNL A   1      41.300  27.833  30.037  1.00  0.00     0.179 C 
ATOM     28  C   UNL A   1      40.234  27.511  27.837  1.00  0.00     0.179 C 
ENDBRANCH  10  21
BRANCH  17  29
ATOM     29  C   UNL A   1      44.421  24.873  26.060  1.00  0.00     0.083 A 
ATOM     30  C   UNL A   1      43.489  24.383  25.130  1.00  0.00     0.033 A 
ATOM     31  C   UNL A   1      44.858  24.019  27.086  1.00  0.00     0.150 A 
ATOM     32  C   UNL A   1      43.019  23.073  25.226  1.00  0.00     0.041 A 
ATOM     33  C   UNL A   1      44.386  22.714  27.193  1.00  0.00     0.080 A 
ATOM     34  F   UNL A   1      45.751  24.458  27.985  1.00  0.00    -0.205 F 
ATOM     35  C   UNL A   1      43.470  22.253  26.257  1.00  0.00     0.126 A 
ATOM     36  F   UNL A   1      43.013  20.998  26.343  1.00  0.00    -0.207 F 
ENDBRANCH  17  29
ENDBRANCH   7   9
ENDBRANCH   6   7
ENDBRANCH   5   6
ENDBRANCH   4   5
ENDBRANCH   3   4
ENDBRANCH   2   3
ENDBRANCH   1   2
BRANCH   1  37
ATOM     37  O   UNL A   1      54.484  25.917  25.304  1.00  0.00    -0.376 OA
BRANCH  37  38
ATOM     38  C   UNL A   1      54.408  26.379  26.643  1.00  0.00     0.202 C 
BRANCH  38  39
ATOM     39  C   UNL A   1      53.152  27.076  27.168  1.00  0.00     0.261 C 
BRANCH  39  40
ATOM     40  O   UNL A   1      52.421  26.320  28.143  1.00  0.00    -0.460 OA
BRANCH  40  41
ATOM     41  C   UNL A   1      51.211  25.877  27.736  1.00  0.00     0.338 C 
ATOM     42  O   UNL A   1      50.947  24.827  27.162  1.00  0.00    -0.246 OA
BRANCH  41  43
ATOM     43  C   UNL A   1      50.174  26.802  28.203  1.00  0.00     0.060 A 
ATOM     44  C   UNL A   1      50.465  27.658  29.274  1.00  0.00     0.016 A 
ATOM     45  C   UNL A   1      48.896  26.762  27.644  1.00  0.00     0.016 A 
ATOM     46  C   UNL A   1      49.467  28.472  29.800  1.00  0.00     0.010 A 
ATOM     47  C   UNL A   1      47.887  27.551  28.198  1.00  0.00     0.010 A 
ATOM     48  C   UNL A   1      48.164  28.386  29.294  1.00  0.00    -0.014 A 
BRANCH  48  49
ATOM     49  C   UNL A   1      47.050  28.995  30.052  1.00  0.00     0.031 A 
ATOM     50  C   UNL A   1      46.477  28.227  31.209  1.00  0.00     0.074 A 
ATOM     51  C   UNL A   1      46.573  30.209  29.734  1.00  0.00     0.049 A 
ATOM     52  N   UNL A   1      45.450  28.509  31.966  1.00  0.00    -0.248 NA
ATOM     53  C   UNL A   1      47.163  26.972  31.564  1.00  0.00     0.031 C 
ATOM     54  C   UNL A   1      47.105  31.082  28.690  1.00  0.00     0.029 A 
ATOM     55  N   UNL A   1      45.523  30.915  30.264  1.00  0.00    -0.354 N 
ATOM     56  C   UNL A   1      45.372  27.478  32.892  1.00  0.00     0.074 A 
ATOM     57  C   UNL A   1      46.438  26.549  32.588  1.00  0.00     0.031 C 
ATOM     58  C   UNL A   1      46.367  32.205  28.646  1.00  0.00     0.029 A 
ATOM     59  C   UNL A   1      45.290  32.109  29.630  1.00  0.00     0.049 A 
ATOM     60  H   UNL A   1      44.987  30.595  31.025  1.00  0.00     0.167 HD
ATOM     61  C   UNL A   1      44.494  27.324  33.907  1.00  0.00     0.037 A 
ATOM     62  C   UNL A   1      44.300  33.005  29.813  1.00  0.00     0.037 A 
ATOM     63  C   UNL A   1      43.414  28.232  34.185  1.00  0.00     0.049 A 
ATOM     64  C   UNL A   1      43.249  32.739  30.861  1.00  0.00     0.074 A 
ATOM     65  C   UNL A   1      42.440  28.142  35.162  1.00  0.00     0.029 A 
ATOM     66  N   UNL A   1      43.166  29.397  33.476  1.00  0.00    -0.354 N 
ATOM     67  N   UNL A   1      43.163  31.751  31.719  1.00  0.00    -0.248 NA
ATOM     68  C   UNL A   1      42.152  33.713  30.962  1.00  0.00     0.031 C 
ATOM     69  C   UNL A   1      41.575  29.231  35.017  1.00  0.00     0.029 A 
ATOM     70  C   UNL A   1      42.042  30.027  33.983  1.00  0.00     0.049 A 
ATOM     71  H   UNL A   1      43.707  29.728  32.722  1.00  0.00     0.167 HD
ATOM     72  C   UNL A   1      42.026  31.999  32.478  1.00  0.00     0.074 A 
ATOM     73  C   UNL A   1      41.458  33.237  31.987  1.00  0.00     0.031 C 
ATOM     74  C   UNL A   1      41.500  31.268  33.491  1.00  0.00     0.037 A 
BRANCH  61  75
ATOM     75  C   UNL A   1      44.650  26.117  34.782  1.00  0.00     0.064 A 
ATOM     76  C   UNL A   1      44.122  24.873  34.408  1.00  0.00     0.173 A 
ATOM     77  C   UNL A   1      45.377  26.193  35.980  1.00  0.00     0.173 A 
ATOM     78  F   UNL A   1      43.401  24.756  33.282  1.00  0.00    -0.203 F 
ATOM     79  C   UNL A   1      44.307  23.748  35.207  1.00  0.00     0.198 A 
ATOM     80  C   UNL A   1      45.582  25.060  36.762  1.00  0.00     0.198 A 
ATOM     81  F   UNL A   1      45.900  27.361  36.381  1.00  0.00    -0.203 F 
ATOM     82  F   UNL A   1      43.767  22.577  34.848  1.00  0.00    -0.200 F 
ATOM     83  C   UNL A   1      45.046  23.841  36.378  1.00  0.00     0.200 A 
ATOM     84  F   UNL A   1      46.303  25.150  37.889  1.00  0.00    -0.200 F 
ATOM     85  F   UNL A   1      45.237  22.755  37.138  1.00  0.00    -0.200 F 
ENDBRANCH  61  75
BRANCH  62  86
ATOM     86  C   UNL A   1      44.243  34.235  28.981  1.00  0.00     0.064 A 
ATOM     87  C   UNL A   1      44.623  35.477  29.509  1.00  0.00     0.173 A 
ATOM     88  C   UNL A   1      43.786  34.204  27.655  1.00  0.00     0.173 A 
ATOM     89  F   UNL A   1      45.037  35.564  30.782  1.00  0.00    -0.203 F 
ATOM     90  C   UNL A   1      44.537  36.641  28.749  1.00  0.00     0.198 A 
ATOM     91  C   UNL A   1      43.726  35.364  26.886  1.00  0.00     0.198 A 
ATOM     92  F   UNL A   1      43.401  33.042  27.105  1.00  0.00    -0.203 F 
ATOM     93  F   UNL A   1      44.864  37.821  29.293  1.00  0.00    -0.200 F 
ATOM     94  C   UNL A   1      44.094  36.582  27.435  1.00  0.00     0.200 A 
ATOM     95  F   UNL A   1      43.304  35.302  25.616  1.00  0.00    -0.200 F 
ATOM     96  F   UNL A   1      44.013  37.702  26.703  1.00  0.00    -0.200 F 
ENDBRANCH  62  86
BRANCH  74  97
ATOM     97  C   UNL A   1      40.270  31.800  34.170  1.00  0.00     0.064 A 
ATOM     98  C   UNL A   1      38.983  31.493  33.705  1.00  0.00     0.173 A 
ATOM     99  C   UNL A   1      40.382  32.567  35.339  1.00  0.00     0.173 A 
ATOM    100  F   UNL A   1      38.823  30.772  32.586  1.00  0.00    -0.203 F 
ATOM    101  C   UNL A   1      37.852  31.953  34.377  1.00  0.00     0.198 A 
ATOM    102  C   UNL A   1      39.251  32.999  36.024  1.00  0.00     0.198 A 
ATOM    103  F   UNL A   1      41.591  32.879  35.830  1.00  0.00    -0.203 F 
ATOM    104  F   UNL A   1      36.633  31.680  33.895  1.00  0.00    -0.200 F 
ATOM    105  C   UNL A   1      37.987  32.696  35.541  1.00  0.00     0.200 A 
ATOM    106  F   UNL A   1      39.383  33.703  37.158  1.00  0.00    -0.200 F 
ATOM    107  F   UNL A   1      36.899  33.124  36.193  1.00  0.00    -0.200 F 
ENDBRANCH  74  97
ENDBRANCH  48  49
ENDBRANCH  41  43
ENDBRANCH  40  41
ENDBRANCH  39  40
ENDBRANCH  38  39
ENDBRANCH  37  38
ENDBRANCH   1  37
TORSDOF 19
ENDMDL
