MODEL 1
REMARK VINA RESULT:     -10.3      0.000      0.000
REMARK SMILES COc1ccc(OC)c([C@@](C)(O)[C@H](F)C(=O)OCCOCCOCCOC(=O)c2ccc(-c3c4nc(c(-c5c(F)c(F)c(F)c(F)c5F)c5ccc([nH]5)c(-c5c(F)c(F)c(F)c(F)c5F)c5nc(c(-c6c(F)c(F)c(F)c(F)c6F)c6ccc3[nH]6)C=C5)C=C4)cc2)c1
REMARK SMILES IDX 21 1 20 2 19 3 18 4 17 5 15 6 16 7 13 8 14 9 10 10 11 11
REMARK SMILES IDX 9 12 3 13 4 14 92 15 5 16 6 17 2 18 1 19 7 20 8 21 12 22
REMARK SMILES IDX 22 24 23 25 24 26 25 27 26 28 27 29 28 30 29 31 30 32 91 33
REMARK SMILES IDX 31 34 90 35 32 36 33 37 34 38 84 39 35 40 89 41 83 42 85 43
REMARK SMILES IDX 36 44 88 45 82 46 81 47 37 49 69 50 49 51 68 52 50 53 53 54
REMARK SMILES IDX 67 55 86 56 51 57 52 58 66 60 87 61 54 62 38 63 39 64 47 65
REMARK SMILES IDX 40 66 41 67 45 68 48 69 42 70 43 71 46 72 44 73 70 74 71 75
REMARK SMILES IDX 79 76 72 77 73 78 77 79 80 80 74 81 75 82 78 83 76 84 55 85
REMARK SMILES IDX 56 86 64 87 57 88 58 89 62 90 65 91 59 92 60 93 63 94 61 95
REMARK H PARENT 12 23 85 48 53 59
REMARK Flexibility Score: inf
ROOT
ATOM      1  C   UNL A   1      35.599  22.358  26.106  1.00  0.00     0.188 C 
ENDROOT
BRANCH   1   2
ATOM      2  O   UNL A   1      34.733  21.468  26.791  1.00  0.00    -0.376 OA
BRANCH   2   3
ATOM      3  C   UNL A   1      33.473  22.010  27.147  1.00  0.00     0.202 C 
BRANCH   3   4
ATOM      4  C   UNL A   1      33.054  23.249  26.342  1.00  0.00     0.261 C 
BRANCH   4   5
ATOM      5  O   UNL A   1      32.081  23.143  25.278  1.00  0.00    -0.461 OA
BRANCH   5   6
ATOM      6  C   UNL A   1      32.447  23.145  23.978  1.00  0.00     0.344 C 
ATOM      7  O   UNL A   1      33.336  22.456  23.487  1.00  0.00    -0.249 OA
BRANCH   6   8
ATOM      8  C   UNL A   1      31.631  24.087  23.129  1.00  0.00     0.311 C 
ATOM      9  F   UNL A   1      30.359  24.222  23.628  1.00  0.00    -0.231 F 
BRANCH   8  10
ATOM     10  C   UNL A   1      32.266  25.492  22.866  1.00  0.00     0.133 C 
ATOM     11  C   UNL A   1      32.658  25.495  21.365  1.00  0.00     0.051 C 
BRANCH  10  12
ATOM     12  C   UNL A   1      31.461  26.755  23.267  1.00  0.00     0.033 A 
ATOM     13  C   UNL A   1      30.303  28.804  22.531  1.00  0.00     0.119 A 
ATOM     14  C   UNL A   1      30.565  29.396  23.756  1.00  0.00     0.050 A 
ATOM     15  C   UNL A   1      30.655  27.463  22.341  1.00  0.00     0.057 A 
ATOM     16  C   UNL A   1      31.130  28.644  24.779  1.00  0.00     0.050 A 
ATOM     17  C   UNL A   1      31.541  27.325  24.552  1.00  0.00     0.125 A 
BRANCH  13  18
ATOM     18  O   UNL A   1      29.705  29.627  21.619  1.00  0.00    -0.497 OA
ATOM     19  C   UNL A   1      28.353  30.012  21.837  1.00  0.00     0.278 C 
ENDBRANCH  13  18
BRANCH  17  20
ATOM     20  O   UNL A   1      32.051  26.709  25.663  1.00  0.00    -0.496 OA
ATOM     21  C   UNL A   1      31.741  27.375  26.890  1.00  0.00     0.278 C 
ENDBRANCH  17  20
ENDBRANCH  10  12
BRANCH  10  22
ATOM     22  O   UNL A   1      33.486  25.507  23.638  1.00  0.00    -0.382 OA
ATOM     23  H   UNL A   1      33.300  25.211  24.544  1.00  0.00     0.212 HD
ENDBRANCH  10  22
ENDBRANCH   8  10
ENDBRANCH   6   8
ENDBRANCH   5   6
ENDBRANCH   4   5
ENDBRANCH   3   4
ENDBRANCH   2   3
ENDBRANCH   1   2
BRANCH   1  24
ATOM     24  C   UNL A   1      36.839  21.670  25.514  1.00  0.00     0.188 C 
BRANCH  24  25
ATOM     25  O   UNL A   1      36.801  20.301  25.163  1.00  0.00    -0.376 OA
BRANCH  25  26
ATOM     26  C   UNL A   1      37.986  19.672  24.717  1.00  0.00     0.202 C 
BRANCH  26  27
ATOM     27  C   UNL A   1      39.147  19.394  25.695  1.00  0.00     0.261 C 
BRANCH  27  28
ATOM     28  O   UNL A   1      40.176  20.393  25.815  1.00  0.00    -0.460 OA
BRANCH  28  29
ATOM     29  C   UNL A   1      40.884  20.422  26.970  1.00  0.00     0.338 C 
ATOM     30  O   UNL A   1      41.464  19.487  27.497  1.00  0.00    -0.246 OA
BRANCH  29  31
ATOM     31  C   UNL A   1      41.042  21.840  27.406  1.00  0.00     0.060 A 
ATOM     32  C   UNL A   1      40.228  22.821  26.814  1.00  0.00     0.016 A 
ATOM     33  C   UNL A   1      41.962  22.209  28.389  1.00  0.00     0.016 A 
ATOM     34  C   UNL A   1      40.344  24.165  27.180  1.00  0.00     0.010 A 
ATOM     35  C   UNL A   1      42.112  23.564  28.723  1.00  0.00     0.010 A 
ATOM     36  C   UNL A   1      41.330  24.553  28.093  1.00  0.00    -0.014 A 
BRANCH  36  37
ATOM     37  C   UNL A   1      41.730  25.984  28.174  1.00  0.00     0.031 A 
ATOM     38  C   UNL A   1      43.075  26.365  27.613  1.00  0.00     0.074 A 
ATOM     39  C   UNL A   1      40.939  26.934  28.701  1.00  0.00     0.049 A 
ATOM     40  N   UNL A   1      43.696  27.517  27.630  1.00  0.00    -0.248 NA
ATOM     41  C   UNL A   1      43.822  25.288  26.945  1.00  0.00     0.031 C 
ATOM     42  C   UNL A   1      39.596  26.722  29.231  1.00  0.00     0.029 A 
ATOM     43  N   UNL A   1      41.172  28.275  28.893  1.00  0.00    -0.354 N 
ATOM     44  C   UNL A   1      44.907  27.300  26.987  1.00  0.00     0.074 A 
ATOM     45  C   UNL A   1      44.950  25.899  26.625  1.00  0.00     0.031 C 
ATOM     46  C   UNL A   1      39.134  27.888  29.718  1.00  0.00     0.029 A 
ATOM     47  C   UNL A   1      40.161  28.920  29.562  1.00  0.00     0.049 A 
ATOM     48  H   UNL A   1      41.986  28.731  28.579  1.00  0.00     0.167 HD
ATOM     49  C   UNL A   1      45.895  28.184  26.712  1.00  0.00     0.037 A 
ATOM     50  C   UNL A   1      40.088  30.185  30.025  1.00  0.00     0.037 A 
ATOM     51  C   UNL A   1      45.864  29.575  27.080  1.00  0.00     0.049 A 
ATOM     52  C   UNL A   1      41.233  31.140  29.784  1.00  0.00     0.074 A 
ATOM     53  C   UNL A   1      46.813  30.552  26.840  1.00  0.00     0.029 A 
ATOM     54  N   UNL A   1      44.832  30.182  27.779  1.00  0.00    -0.354 N 
ATOM     55  N   UNL A   1      42.369  30.933  29.163  1.00  0.00    -0.248 NA
ATOM     56  C   UNL A   1      41.081  32.507  30.306  1.00  0.00     0.031 C 
ATOM     57  C   UNL A   1      46.382  31.738  27.445  1.00  0.00     0.029 A 
ATOM     58  C   UNL A   1      45.134  31.516  28.005  1.00  0.00     0.049 A 
ATOM     59  H   UNL A   1      44.006  29.733  28.071  1.00  0.00     0.167 HD
ATOM     60  C   UNL A   1      43.053  32.143  29.197  1.00  0.00     0.074 A 
ATOM     61  C   UNL A   1      42.199  33.085  29.890  1.00  0.00     0.031 C 
ATOM     62  C   UNL A   1      44.277  32.448  28.697  1.00  0.00     0.037 A 
BRANCH  49  63
ATOM     63  C   UNL A   1      47.111  27.652  26.010  1.00  0.00     0.064 A 
ATOM     64  C   UNL A   1      48.215  27.149  26.717  1.00  0.00     0.173 A 
ATOM     65  C   UNL A   1      47.180  27.656  24.608  1.00  0.00     0.173 A 
ATOM     66  F   UNL A   1      48.208  27.139  28.060  1.00  0.00    -0.203 F 
ATOM     67  C   UNL A   1      49.356  26.713  26.050  1.00  0.00     0.198 A 
ATOM     68  C   UNL A   1      48.308  27.184  23.943  1.00  0.00     0.198 A 
ATOM     69  F   UNL A   1      46.153  28.122  23.882  1.00  0.00    -0.203 F 
ATOM     70  F   UNL A   1      50.423  26.303  26.750  1.00  0.00    -0.200 F 
ATOM     71  C   UNL A   1      49.400  26.725  24.665  1.00  0.00     0.200 A 
ATOM     72  F   UNL A   1      48.343  27.185  22.604  1.00  0.00    -0.200 F 
ATOM     73  F   UNL A   1      50.500  26.307  24.024  1.00  0.00    -0.200 F 
ENDBRANCH  49  63
BRANCH  50  74
ATOM     74  C   UNL A   1      38.890  30.619  30.793  1.00  0.00     0.064 A 
ATOM     75  C   UNL A   1      37.772  31.170  30.152  1.00  0.00     0.173 A 
ATOM     76  C   UNL A   1      38.845  30.497  32.190  1.00  0.00     0.173 A 
ATOM     77  F   UNL A   1      37.779  31.339  28.821  1.00  0.00    -0.203 F 
ATOM     78  C   UNL A   1      36.659  31.588  30.880  1.00  0.00     0.198 A 
ATOM     79  C   UNL A   1      37.720  30.888  32.913  1.00  0.00     0.198 A 
ATOM     80  F   UNL A   1      39.893  29.984  32.853  1.00  0.00    -0.203 F 
ATOM     81  F   UNL A   1      35.619  32.147  30.246  1.00  0.00    -0.200 F 
ATOM     82  C   UNL A   1      36.629  31.438  32.258  1.00  0.00     0.200 A 
ATOM     83  F   UNL A   1      37.693  30.730  34.243  1.00  0.00    -0.200 F 
ATOM     84  F   UNL A   1      35.553  31.828  32.954  1.00  0.00    -0.200 F 
ENDBRANCH  50  74
BRANCH  62  85
ATOM     85  C   UNL A   1      44.762  33.863  28.844  1.00  0.00     0.064 A 
ATOM     86  C   UNL A   1      45.593  34.254  29.905  1.00  0.00     0.173 A 
ATOM     87  C   UNL A   1      44.432  34.831  27.882  1.00  0.00     0.173 A 
ATOM     88  F   UNL A   1      45.930  33.373  30.859  1.00  0.00    -0.203 F 
ATOM     89  C   UNL A   1      46.054  35.565  30.009  1.00  0.00     0.198 A 
ATOM     90  C   UNL A   1      44.921  36.131  27.972  1.00  0.00     0.198 A 
ATOM     91  F   UNL A   1      43.648  34.510  26.841  1.00  0.00    -0.203 F 
ATOM     92  F   UNL A   1      46.809  35.927  31.057  1.00  0.00    -0.200 F 
ATOM     93  C   UNL A   1      45.724  36.500  29.039  1.00  0.00     0.200 A 
ATOM     94  F   UNL A   1      44.614  37.028  27.024  1.00  0.00    -0.200 F 
ATOM     95  F   UNL A   1      46.177  37.757  29.136  1.00  0.00    -0.200 F 
ENDBRANCH  62  85
ENDBRANCH  36  37
ENDBRANCH  29  31
ENDBRANCH  28  29
ENDBRANCH  27  28
ENDBRANCH  26  27
ENDBRANCH  25  26
ENDBRANCH  24  25
ENDBRANCH   1  24
TORSDOF 22
ENDMDL
MODEL 2
REMARK VINA RESULT:     -10.2      0.978      2.227
REMARK SMILES COc1ccc(OC)c([C@@](C)(O)[C@H](F)C(=O)OCCOCCOCCOC(=O)c2ccc(-c3c4nc(c(-c5c(F)c(F)c(F)c(F)c5F)c5ccc([nH]5)c(-c5c(F)c(F)c(F)c(F)c5F)c5nc(c(-c6c(F)c(F)c(F)c(F)c6F)c6ccc3[nH]6)C=C5)C=C4)cc2)c1
REMARK SMILES IDX 21 1 20 2 19 3 18 4 17 5 15 6 16 7 13 8 14 9 10 10 11 11
REMARK SMILES IDX 9 12 3 13 4 14 92 15 5 16 6 17 2 18 1 19 7 20 8 21 12 22
REMARK SMILES IDX 22 24 23 25 24 26 25 27 26 28 27 29 28 30 29 31 30 32 91 33
REMARK SMILES IDX 31 34 90 35 32 36 33 37 34 38 84 39 35 40 89 41 83 42 85 43
REMARK SMILES IDX 36 44 88 45 82 46 81 47 37 49 69 50 49 51 68 52 50 53 53 54
REMARK SMILES IDX 67 55 86 56 51 57 52 58 66 60 87 61 54 62 38 63 39 64 47 65
REMARK SMILES IDX 40 66 41 67 45 68 48 69 42 70 43 71 46 72 44 73 70 74 71 75
REMARK SMILES IDX 79 76 72 77 73 78 77 79 80 80 74 81 75 82 78 83 76 84 55 85
REMARK SMILES IDX 56 86 64 87 57 88 58 89 62 90 65 91 59 92 60 93 63 94 61 95
REMARK H PARENT 12 23 85 48 53 59
REMARK Flexibility Score: inf
ROOT
ATOM      1  C   UNL A   1      35.883  22.522  25.540  1.00  0.00     0.188 C 
ENDROOT
BRANCH   1   2
ATOM      2  O   UNL A   1      34.740  22.084  24.823  1.00  0.00    -0.376 OA
BRANCH   2   3
ATOM      3  C   UNL A   1      33.526  22.718  25.183  1.00  0.00     0.202 C 
BRANCH   3   4
ATOM      4  C   UNL A   1      33.613  23.625  26.419  1.00  0.00     0.261 C 
BRANCH   4   5
ATOM      5  O   UNL A   1      33.031  24.949  26.405  1.00  0.00    -0.461 OA
BRANCH   5   6
ATOM      6  C   UNL A   1      33.519  25.931  25.616  1.00  0.00     0.344 C 
ATOM      7  O   UNL A   1      34.088  25.765  24.541  1.00  0.00    -0.249 OA
BRANCH   6   8
ATOM      8  C   UNL A   1      33.287  27.314  26.172  1.00  0.00     0.311 C 
ATOM      9  F   UNL A   1      34.027  28.248  25.491  1.00  0.00    -0.231 F 
BRANCH   8  10
ATOM     10  C   UNL A   1      31.794  27.768  26.270  1.00  0.00     0.133 C 
ATOM     11  C   UNL A   1      31.813  29.080  27.097  1.00  0.00     0.051 C 
BRANCH  10  12
ATOM     12  C   UNL A   1      30.975  27.908  24.961  1.00  0.00     0.033 A 
ATOM     13  C   UNL A   1      29.840  29.410  23.369  1.00  0.00     0.119 A 
ATOM     14  C   UNL A   1      28.974  28.388  23.015  1.00  0.00     0.050 A 
ATOM     15  C   UNL A   1      30.891  29.131  24.250  1.00  0.00     0.057 A 
ATOM     16  C   UNL A   1      29.187  27.104  23.505  1.00  0.00     0.050 A 
ATOM     17  C   UNL A   1      30.198  26.855  24.439  1.00  0.00     0.125 A 
BRANCH  13  18
ATOM     18  O   UNL A   1      29.560  30.617  22.791  1.00  0.00    -0.497 OA
ATOM     19  C   UNL A   1      28.811  30.631  21.582  1.00  0.00     0.278 C 
ENDBRANCH  13  18
BRANCH  17  20
ATOM     20  O   UNL A   1      30.299  25.539  24.803  1.00  0.00    -0.496 OA
ATOM     21  C   UNL A   1      30.647  24.665  23.726  1.00  0.00     0.278 C 
ENDBRANCH  17  20
ENDBRANCH  10  12
BRANCH  10  22
ATOM     22  O   UNL A   1      31.142  26.756  27.069  1.00  0.00    -0.382 OA
ATOM     23  H   UNL A   1      31.777  26.385  27.702  1.00  0.00     0.212 HD
ENDBRANCH  10  22
ENDBRANCH   8  10
ENDBRANCH   6   8
ENDBRANCH   5   6
ENDBRANCH   4   5
ENDBRANCH   3   4
ENDBRANCH   2   3
ENDBRANCH   1   2
BRANCH   1  24
ATOM     24  C   UNL A   1      37.134  21.670  25.275  1.00  0.00     0.188 C 
BRANCH  24  25
ATOM     25  O   UNL A   1      37.021  20.280  25.042  1.00  0.00    -0.376 OA
BRANCH  25  26
ATOM     26  C   UNL A   1      38.179  19.542  24.709  1.00  0.00     0.202 C 
BRANCH  26  27
ATOM     27  C   UNL A   1      39.298  19.320  25.749  1.00  0.00     0.261 C 
BRANCH  27  28
ATOM     28  O   UNL A   1      40.331  20.317  25.843  1.00  0.00    -0.460 OA
BRANCH  28  29
ATOM     29  C   UNL A   1      41.036  20.376  26.999  1.00  0.00     0.338 C 
ATOM     30  O   UNL A   1      41.633  19.459  27.540  1.00  0.00    -0.246 OA
BRANCH  29  31
ATOM     31  C   UNL A   1      41.166  21.802  27.416  1.00  0.00     0.060 A 
ATOM     32  C   UNL A   1      40.392  22.770  26.752  1.00  0.00     0.016 A 
ATOM     33  C   UNL A   1      42.020  22.192  28.449  1.00  0.00     0.016 A 
ATOM     34  C   UNL A   1      40.486  24.121  27.097  1.00  0.00     0.010 A 
ATOM     35  C   UNL A   1      42.148  23.553  28.764  1.00  0.00     0.010 A 
ATOM     36  C   UNL A   1      41.410  24.529  28.064  1.00  0.00    -0.014 A 
BRANCH  36  37
ATOM     37  C   UNL A   1      41.804  25.961  28.142  1.00  0.00     0.031 A 
ATOM     38  C   UNL A   1      43.141  26.349  27.567  1.00  0.00     0.074 A 
ATOM     39  C   UNL A   1      41.014  26.907  28.679  1.00  0.00     0.049 A 
ATOM     40  N   UNL A   1      43.757  27.504  27.579  1.00  0.00    -0.248 NA
ATOM     41  C   UNL A   1      43.886  25.275  26.891  1.00  0.00     0.031 C 
ATOM     42  C   UNL A   1      39.679  26.690  29.222  1.00  0.00     0.029 A 
ATOM     43  N   UNL A   1      41.244  28.250  28.868  1.00  0.00    -0.354 N 
ATOM     44  C   UNL A   1      44.962  27.292  26.922  1.00  0.00     0.074 A 
ATOM     45  C   UNL A   1      45.008  25.892  26.559  1.00  0.00     0.031 C 
ATOM     46  C   UNL A   1      39.216  27.853  29.714  1.00  0.00     0.029 A 
ATOM     47  C   UNL A   1      40.237  28.889  29.549  1.00  0.00     0.049 A 
ATOM     48  H   UNL A   1      42.052  28.710  28.546  1.00  0.00     0.167 HD
ATOM     49  C   UNL A   1      45.943  28.181  26.637  1.00  0.00     0.037 A 
ATOM     50  C   UNL A   1      40.163  30.154  30.013  1.00  0.00     0.037 A 
ATOM     51  C   UNL A   1      45.910  29.571  27.007  1.00  0.00     0.049 A 
ATOM     52  C   UNL A   1      41.301  31.114  29.760  1.00  0.00     0.074 A 
ATOM     53  C   UNL A   1      46.852  30.553  26.758  1.00  0.00     0.029 A 
ATOM     54  N   UNL A   1      44.883  30.174  27.717  1.00  0.00    -0.354 N 
ATOM     55  N   UNL A   1      42.431  30.913  29.127  1.00  0.00    -0.248 NA
ATOM     56  C   UNL A   1      41.149  32.480  30.285  1.00  0.00     0.031 C 
ATOM     57  C   UNL A   1      46.422  31.736  27.368  1.00  0.00     0.029 A 
ATOM     58  C   UNL A   1      45.181  31.508  27.941  1.00  0.00     0.049 A 
ATOM     59  H   UNL A   1      44.062  29.721  28.018  1.00  0.00     0.167 HD
ATOM     60  C   UNL A   1      43.110  32.126  29.155  1.00  0.00     0.074 A 
ATOM     61  C   UNL A   1      42.260  33.064  29.858  1.00  0.00     0.031 C 
ATOM     62  C   UNL A   1      44.328  32.436  28.642  1.00  0.00     0.037 A 
BRANCH  49  63
ATOM     63  C   UNL A   1      47.154  27.655  25.922  1.00  0.00     0.064 A 
ATOM     64  C   UNL A   1      48.248  27.113  26.617  1.00  0.00     0.173 A 
ATOM     65  C   UNL A   1      47.229  27.704  24.522  1.00  0.00     0.173 A 
ATOM     66  F   UNL A   1      48.236  27.058  27.958  1.00  0.00    -0.203 F 
ATOM     67  C   UNL A   1      49.385  26.682  25.939  1.00  0.00     0.198 A 
ATOM     68  C   UNL A   1      48.353  27.239  23.846  1.00  0.00     0.198 A 
ATOM     69  F   UNL A   1      46.212  28.210  23.808  1.00  0.00    -0.203 F 
ATOM     70  F   UNL A   1      50.443  26.233  26.629  1.00  0.00    -0.200 F 
ATOM     71  C   UNL A   1      49.435  26.740  24.556  1.00  0.00     0.200 A 
ATOM     72  F   UNL A   1      48.394  27.284  22.507  1.00  0.00    -0.200 F 
ATOM     73  F   UNL A   1      50.531  26.327  23.904  1.00  0.00    -0.200 F 
ENDBRANCH  49  63
BRANCH  50  74
ATOM     74  C   UNL A   1      38.972  30.582  30.794  1.00  0.00     0.064 A 
ATOM     75  C   UNL A   1      38.930  30.454  32.190  1.00  0.00     0.173 A 
ATOM     76  C   UNL A   1      37.845  31.122  30.156  1.00  0.00     0.173 A 
ATOM     77  F   UNL A   1      39.969  29.913  32.844  1.00  0.00    -0.203 F 
ATOM     78  C   UNL A   1      37.805  30.845  32.915  1.00  0.00     0.198 A 
ATOM     79  C   UNL A   1      36.733  31.538  30.885  1.00  0.00     0.198 A 
ATOM     80  F   UNL A   1      37.830  31.258  28.822  1.00  0.00    -0.203 F 
ATOM     81  F   UNL A   1      37.775  30.676  34.244  1.00  0.00    -0.200 F 
ATOM     82  C   UNL A   1      36.712  31.394  32.263  1.00  0.00     0.200 A 
ATOM     83  F   UNL A   1      35.684  32.081  30.251  1.00  0.00    -0.200 F 
ATOM     84  F   UNL A   1      35.636  31.781  32.963  1.00  0.00    -0.200 F 
ENDBRANCH  50  74
BRANCH  62  85
ATOM     85  C   UNL A   1      44.808  33.853  28.785  1.00  0.00     0.064 A 
ATOM     86  C   UNL A   1      44.490  34.843  27.842  1.00  0.00     0.173 A 
ATOM     87  C   UNL A   1      45.556  34.239  29.910  1.00  0.00     0.173 A 
ATOM     88  F   UNL A   1      43.788  34.527  26.744  1.00  0.00    -0.203 F 
ATOM     89  C   UNL A   1      44.923  36.157  28.008  1.00  0.00     0.198 A 
ATOM     90  C   UNL A   1      45.959  35.560  30.088  1.00  0.00     0.198 A 
ATOM     91  F   UNL A   1      45.882  33.337  30.848  1.00  0.00    -0.203 F 
ATOM     92  F   UNL A   1      44.646  37.074  27.070  1.00  0.00    -0.200 F 
ATOM     93  C   UNL A   1      45.650  36.516  29.133  1.00  0.00     0.200 A 
ATOM     94  F   UNL A   1      46.647  35.908  31.184  1.00  0.00    -0.200 F 
ATOM     95  F   UNL A   1      46.056  37.783  29.294  1.00  0.00    -0.200 F 
ENDBRANCH  62  85
ENDBRANCH  36  37
ENDBRANCH  29  31
ENDBRANCH  28  29
ENDBRANCH  27  28
ENDBRANCH  26  27
ENDBRANCH  25  26
ENDBRANCH  24  25
ENDBRANCH   1  24
TORSDOF 22
ENDMDL
MODEL 3
REMARK VINA RESULT:     -10.1      4.167     10.274
REMARK SMILES COc1ccc(OC)c([C@@](C)(O)[C@H](F)C(=O)OCCOCCOCCOC(=O)c2ccc(-c3c4nc(c(-c5c(F)c(F)c(F)c(F)c5F)c5ccc([nH]5)c(-c5c(F)c(F)c(F)c(F)c5F)c5nc(c(-c6c(F)c(F)c(F)c(F)c6F)c6ccc3[nH]6)C=C5)C=C4)cc2)c1
REMARK SMILES IDX 21 1 20 2 19 3 18 4 17 5 15 6 16 7 13 8 14 9 10 10 11 11
REMARK SMILES IDX 9 12 3 13 4 14 92 15 5 16 6 17 2 18 1 19 7 20 8 21 12 22
REMARK SMILES IDX 22 24 23 25 24 26 25 27 26 28 27 29 28 30 29 31 30 32 91 33
REMARK SMILES IDX 31 34 90 35 32 36 33 37 34 38 84 39 35 40 89 41 83 42 85 43
REMARK SMILES IDX 36 44 88 45 82 46 81 47 37 49 69 50 49 51 68 52 50 53 53 54
REMARK SMILES IDX 67 55 86 56 51 57 52 58 66 60 87 61 54 62 38 63 39 64 47 65
REMARK SMILES IDX 40 66 41 67 45 68 48 69 42 70 43 71 46 72 44 73 70 74 71 75
REMARK SMILES IDX 79 76 72 77 73 78 77 79 80 80 74 81 75 82 78 83 76 84 55 85
REMARK SMILES IDX 56 86 64 87 57 88 58 89 62 90 65 91 59 92 60 93 63 94 61 95
REMARK H PARENT 12 23 85 48 53 59
REMARK Flexibility Score: inf
ROOT
ATOM      1  C   UNL A   1      30.830  29.277  23.683  1.00  0.00     0.188 C 
ENDROOT
BRANCH   1   2
ATOM      2  O   UNL A   1      29.427  29.102  23.799  1.00  0.00    -0.376 OA
BRANCH   2   3
ATOM      3  C   UNL A   1      28.902  27.976  23.120  1.00  0.00     0.202 C 
BRANCH   3   4
ATOM      4  C   UNL A   1      28.973  26.658  23.907  1.00  0.00     0.261 C 
BRANCH   4   5
ATOM      5  O   UNL A   1      29.914  26.498  24.993  1.00  0.00    -0.461 OA
BRANCH   5   6
ATOM      6  C   UNL A   1      30.719  25.417  25.082  1.00  0.00     0.344 C 
ATOM      7  O   UNL A   1      30.527  24.339  24.528  1.00  0.00    -0.249 OA
BRANCH   6   8
ATOM      8  C   UNL A   1      31.939  25.650  25.937  1.00  0.00     0.311 C 
ATOM      9  F   UNL A   1      32.122  24.617  26.823  1.00  0.00    -0.231 F 
BRANCH   8  10
ATOM     10  C   UNL A   1      33.266  25.951  25.167  1.00  0.00     0.133 C 
ATOM     11  C   UNL A   1      33.931  27.126  25.931  1.00  0.00     0.051 C 
BRANCH  10  12
ATOM     12  C   UNL A   1      34.252  24.783  24.908  1.00  0.00     0.033 A 
ATOM     13  C   UNL A   1      36.449  23.772  25.388  1.00  0.00     0.119 A 
ATOM     14  C   UNL A   1      36.446  23.163  24.143  1.00  0.00     0.050 A 
ATOM     15  C   UNL A   1      35.314  24.480  25.797  1.00  0.00     0.057 A 
ATOM     16  C   UNL A   1      35.309  23.231  23.346  1.00  0.00     0.050 A 
ATOM     17  C   UNL A   1      34.208  24.001  23.738  1.00  0.00     0.125 A 
BRANCH  13  18
ATOM     18  O   UNL A   1      37.603  23.599  26.100  1.00  0.00    -0.497 OA
ATOM     19  C   UNL A   1      38.402  22.455  25.828  1.00  0.00     0.278 C 
ENDBRANCH  13  18
BRANCH  17  20
ATOM     20  O   UNL A   1      33.157  23.944  22.861  1.00  0.00    -0.496 OA
ATOM     21  C   UNL A   1      32.896  22.634  22.353  1.00  0.00     0.278 C 
ENDBRANCH  17  20
ENDBRANCH  10  12
BRANCH  10  22
ATOM     22  O   UNL A   1      32.851  26.445  23.875  1.00  0.00    -0.382 OA
ATOM     23  H   UNL A   1      33.591  26.910  23.453  1.00  0.00     0.212 HD
ENDBRANCH  10  22
ENDBRANCH   8  10
ENDBRANCH   6   8
ENDBRANCH   5   6
ENDBRANCH   4   5
ENDBRANCH   3   4
ENDBRANCH   2   3
ENDBRANCH   1   2
BRANCH   1  24
ATOM     24  C   UNL A   1      31.491  29.783  24.974  1.00  0.00     0.188 C 
BRANCH  24  25
ATOM     25  O   UNL A   1      31.061  30.987  25.577  1.00  0.00    -0.376 OA
BRANCH  25  26
ATOM     26  C   UNL A   1      31.694  31.427  26.762  1.00  0.00     0.202 C 
BRANCH  26  27
ATOM     27  C   UNL A   1      31.909  32.933  27.027  1.00  0.00     0.261 C 
BRANCH  27  28
ATOM     28  O   UNL A   1      33.261  33.424  27.042  1.00  0.00    -0.460 OA
BRANCH  28  29
ATOM     29  C   UNL A   1      33.766  33.820  28.235  1.00  0.00     0.338 C 
ATOM     30  O   UNL A   1      33.241  34.573  29.039  1.00  0.00    -0.246 OA
BRANCH  29  31
ATOM     31  C   UNL A   1      34.987  33.016  28.536  1.00  0.00     0.060 A 
ATOM     32  C   UNL A   1      34.843  31.640  28.779  1.00  0.00     0.016 A 
ATOM     33  C   UNL A   1      36.257  33.593  28.568  1.00  0.00     0.016 A 
ATOM     34  C   UNL A   1      35.954  30.845  29.075  1.00  0.00     0.010 A 
ATOM     35  C   UNL A   1      37.367  32.805  28.911  1.00  0.00     0.010 A 
ATOM     36  C   UNL A   1      37.215  31.435  29.204  1.00  0.00    -0.014 A 
BRANCH  36  37
ATOM     37  C   UNL A   1      38.300  30.697  29.907  1.00  0.00     0.031 A 
ATOM     38  C   UNL A   1      38.555  31.042  31.351  1.00  0.00     0.074 A 
ATOM     39  C   UNL A   1      39.031  29.737  29.315  1.00  0.00     0.049 A 
ATOM     40  N   UNL A   1      39.487  30.613  32.164  1.00  0.00    -0.248 NA
ATOM     41  C   UNL A   1      37.630  32.014  31.953  1.00  0.00     0.031 C 
ATOM     42  C   UNL A   1      38.861  29.262  27.947  1.00  0.00     0.029 A 
ATOM     43  N   UNL A   1      40.087  29.001  29.802  1.00  0.00    -0.354 N 
ATOM     44  C   UNL A   1      39.264  31.269  33.368  1.00  0.00     0.074 A 
ATOM     45  C   UNL A   1      38.136  32.152  33.168  1.00  0.00     0.031 C 
ATOM     46  C   UNL A   1      39.801  28.335  27.690  1.00  0.00     0.029 A 
ATOM     47  C   UNL A   1      40.659  28.175  28.866  1.00  0.00     0.049 A 
ATOM     48  H   UNL A   1      40.402  29.061  30.732  1.00  0.00     0.167 HD
ATOM     49  C   UNL A   1      39.931  31.145  34.540  1.00  0.00     0.037 A 
ATOM     50  C   UNL A   1      41.765  27.405  28.941  1.00  0.00     0.037 A 
ATOM     51  C   UNL A   1      41.062  30.278  34.742  1.00  0.00     0.049 A 
ATOM     52  C   UNL A   1      42.548  27.340  30.229  1.00  0.00     0.074 A 
ATOM     53  C   UNL A   1      41.801  30.079  35.894  1.00  0.00     0.029 A 
ATOM     54  N   UNL A   1      41.625  29.476  33.761  1.00  0.00    -0.354 N 
ATOM     55  N   UNL A   1      42.325  27.951  31.368  1.00  0.00    -0.248 NA
ATOM     56  C   UNL A   1      43.737  26.473  30.243  1.00  0.00     0.031 C 
ATOM     57  C   UNL A   1      42.847  29.200  35.595  1.00  0.00     0.029 A 
ATOM     58  C   UNL A   1      42.721  28.801  34.274  1.00  0.00     0.049 A 
ATOM     59  H   UNL A   1      41.295  29.397  32.837  1.00  0.00     0.167 HD
ATOM     60  C   UNL A   1      43.325  27.525  32.236  1.00  0.00     0.074 A 
ATOM     61  C   UNL A   1      44.150  26.593  31.497  1.00  0.00     0.031 C 
ATOM     62  C   UNL A   1      43.538  27.873  33.530  1.00  0.00     0.037 A 
BRANCH  49  63
ATOM     63  C   UNL A   1      39.470  32.005  35.681  1.00  0.00     0.064 A 
ATOM     64  C   UNL A   1      38.496  31.568  36.593  1.00  0.00     0.173 A 
ATOM     65  C   UNL A   1      40.001  33.292  35.859  1.00  0.00     0.173 A 
ATOM     66  F   UNL A   1      37.943  30.352  36.458  1.00  0.00    -0.203 F 
ATOM     67  C   UNL A   1      38.040  32.401  37.611  1.00  0.00     0.198 A 
ATOM     68  C   UNL A   1      39.569  34.109  36.900  1.00  0.00     0.198 A 
ATOM     69  F   UNL A   1      40.937  33.760  35.019  1.00  0.00    -0.203 F 
ATOM     70  F   UNL A   1      37.060  31.987  38.425  1.00  0.00    -0.200 F 
ATOM     71  C   UNL A   1      38.580  33.668  37.767  1.00  0.00     0.200 A 
ATOM     72  F   UNL A   1      40.102  35.329  37.057  1.00  0.00    -0.200 F 
ATOM     73  F   UNL A   1      38.140  34.471  38.745  1.00  0.00    -0.200 F 
ENDBRANCH  49  63
BRANCH  50  74
ATOM     74  C   UNL A   1      42.217  26.650  27.741  1.00  0.00     0.064 A 
ATOM     75  C   UNL A   1      43.170  27.181  26.861  1.00  0.00     0.173 A 
ATOM     76  C   UNL A   1      41.695  25.381  27.448  1.00  0.00     0.173 A 
ATOM     77  F   UNL A   1      43.675  28.405  27.080  1.00  0.00    -0.203 F 
ATOM     78  C   UNL A   1      43.579  26.474  25.731  1.00  0.00     0.198 A 
ATOM     79  C   UNL A   1      42.126  24.664  26.334  1.00  0.00     0.198 A 
ATOM     80  F   UNL A   1      40.774  24.831  28.253  1.00  0.00    -0.203 F 
ATOM     81  F   UNL A   1      44.463  27.021  24.885  1.00  0.00    -0.200 F 
ATOM     82  C   UNL A   1      43.064  25.213  25.474  1.00  0.00     0.200 A 
ATOM     83  F   UNL A   1      41.635  23.440  26.097  1.00  0.00    -0.200 F 
ATOM     84  F   UNL A   1      43.468  24.529  24.394  1.00  0.00    -0.200 F 
ENDBRANCH  50  74
BRANCH  62  85
ATOM     85  C   UNL A   1      44.686  27.223  34.251  1.00  0.00     0.064 A 
ATOM     86  C   UNL A   1      45.966  27.798  34.277  1.00  0.00     0.173 A 
ATOM     87  C   UNL A   1      44.491  26.032  34.968  1.00  0.00     0.173 A 
ATOM     88  F   UNL A   1      46.211  28.929  33.598  1.00  0.00    -0.203 F 
ATOM     89  C   UNL A   1      47.011  27.193  34.972  1.00  0.00     0.198 A 
ATOM     90  C   UNL A   1      45.529  25.448  35.689  1.00  0.00     0.198 A 
ATOM     91  F   UNL A   1      43.286  25.442  34.986  1.00  0.00    -0.203 F 
ATOM     92  F   UNL A   1      48.235  27.737  34.944  1.00  0.00    -0.200 F 
ATOM     93  C   UNL A   1      46.790  26.023  35.684  1.00  0.00     0.200 A 
ATOM     94  F   UNL A   1      45.309  24.326  36.390  1.00  0.00    -0.200 F 
ATOM     95  F   UNL A   1      47.793  25.449  36.361  1.00  0.00    -0.200 F 
ENDBRANCH  62  85
ENDBRANCH  36  37
ENDBRANCH  29  31
ENDBRANCH  28  29
ENDBRANCH  27  28
ENDBRANCH  26  27
ENDBRANCH  25  26
ENDBRANCH  24  25
ENDBRANCH   1  24
TORSDOF 22
ENDMDL
