MODEL 1
REMARK VINA RESULT:     -11.8      0.000      0.000
REMARK SMILES O=C(Cc1ccccc1-c1ccn(C(F)F)c(=O)c1)OCCOCCOCCOC(=O)c1ccc(-c2c3nc(c(-c4c(F)c(F)c(F)c(F)c4F)c4ccc([nH]4)c(-c4c(F)c(F)c(F)c(F)c4F)c4nc(c(-c5c(F)c(F)c(F)c(F)c5F)c5ccc2[nH]5)C=C4)C=C3)cc1
REMARK SMILES IDX 24 1 23 2 22 3 21 4 20 5 2 6 1 7 3 8 4 9 5 10 9 11 6 12 8 13
REMARK SMILES IDX 7 14 10 15 11 16 19 17 12 18 17 19 13 20 18 21 14 22 15 23
REMARK SMILES IDX 16 24 25 25 26 26 27 27 28 28 29 29 30 30 31 31 32 32 33 33
REMARK SMILES IDX 94 34 34 35 93 36 35 37 36 38 37 39 87 40 38 41 92 42 86 43
REMARK SMILES IDX 88 44 39 45 91 46 85 47 84 48 40 50 72 51 52 52 71 53 53 54
REMARK SMILES IDX 56 55 70 56 89 57 54 58 55 59 69 61 90 62 57 63 41 64 42 65
REMARK SMILES IDX 50 66 43 67 44 68 48 69 51 70 45 71 46 72 49 73 47 74 73 75
REMARK SMILES IDX 74 76 82 77 75 78 76 79 80 80 83 81 77 82 78 83 81 84 79 85
REMARK SMILES IDX 58 86 59 87 67 88 60 89 61 90 65 91 68 92 62 93 63 94 66 95
REMARK SMILES IDX 64 96
REMARK H PARENT 88 49 56 60
REMARK Flexibility Score: inf
ROOT
ATOM      1  C   UNL A   1      40.575  20.919  26.863  1.00  0.00     0.188 C 
ENDROOT
BRANCH   1   2
ATOM      2  O   UNL A   1      39.990  21.818  25.949  1.00  0.00    -0.376 OA
BRANCH   2   3
ATOM      3  C   UNL A   1      38.626  22.130  26.076  1.00  0.00     0.202 C 
BRANCH   3   4
ATOM      4  C   UNL A   1      37.679  21.567  25.018  1.00  0.00     0.261 C 
BRANCH   4   5
ATOM      5  O   UNL A   1      37.131  22.468  24.028  1.00  0.00    -0.463 OA
BRANCH   5   6
ATOM      6  C   UNL A   1      35.979  23.162  23.976  1.00  0.00     0.310 C 
ATOM      7  O   UNL A   1      35.291  23.071  22.957  1.00  0.00    -0.252 OA
BRANCH   6   8
ATOM      8  C   UNL A   1      35.592  24.143  25.067  1.00  0.00     0.158 C 
BRANCH   8   9
ATOM      9  C   UNL A   1      34.504  23.681  25.997  1.00  0.00    -0.029 A 
ATOM     10  C   UNL A   1      34.748  22.572  26.821  1.00  0.00     0.005 A 
ATOM     11  C   UNL A   1      33.255  24.335  26.058  1.00  0.00    -0.014 A 
ATOM     12  C   UNL A   1      33.723  22.003  27.560  1.00  0.00     0.000 A 
ATOM     13  C   UNL A   1      32.233  23.763  26.817  1.00  0.00     0.009 A 
ATOM     14  C   UNL A   1      32.460  22.583  27.536  1.00  0.00     0.001 A 
BRANCH  11  15
ATOM     15  C   UNL A   1      33.098  25.652  25.400  1.00  0.00    -0.011 A 
ATOM     16  C   UNL A   1      33.357  26.916  26.060  1.00  0.00     0.027 A 
ATOM     17  C   UNL A   1      32.417  25.649  24.238  1.00  0.00     0.080 A 
ATOM     18  C   UNL A   1      32.738  28.028  25.642  1.00  0.00     0.095 A 
ATOM     19  C   UNL A   1      31.807  26.902  23.707  1.00  0.00     0.255 A 
ATOM     20  N   UNL A   1      31.927  28.015  24.521  1.00  0.00    -0.258 N 
ATOM     21  O   UNL A   1      31.185  26.843  22.652  1.00  0.00    -0.269 OA
BRANCH  20  22
ATOM     22  C   UNL A   1      31.179  29.190  24.149  1.00  0.00     0.451 C 
ATOM     23  F   UNL A   1      29.921  28.861  23.771  1.00  0.00    -0.185 F 
ATOM     24  F   UNL A   1      31.087  30.063  25.186  1.00  0.00    -0.185 F 
ENDBRANCH  20  22
ENDBRANCH  11  15
ENDBRANCH   8   9
ENDBRANCH   6   8
ENDBRANCH   5   6
ENDBRANCH   4   5
ENDBRANCH   3   4
ENDBRANCH   2   3
ENDBRANCH   1   2
BRANCH   1  25
ATOM     25  C   UNL A   1      41.117  19.655  26.188  1.00  0.00     0.188 C 
BRANCH  25  26
ATOM     26  O   UNL A   1      42.287  19.740  25.385  1.00  0.00    -0.376 OA
BRANCH  26  27
ATOM     27  C   UNL A   1      43.398  20.490  25.846  1.00  0.00     0.202 C 
BRANCH  27  28
ATOM     28  C   UNL A   1      43.980  21.590  24.936  1.00  0.00     0.261 C 
BRANCH  28  29
ATOM     29  O   UNL A   1      43.189  22.783  24.737  1.00  0.00    -0.460 OA
BRANCH  29  30
ATOM     30  C   UNL A   1      43.829  23.974  24.848  1.00  0.00     0.338 C 
ATOM     31  O   UNL A   1      44.843  24.312  24.251  1.00  0.00    -0.246 OA
BRANCH  30  32
ATOM     32  C   UNL A   1      43.060  24.927  25.696  1.00  0.00     0.060 A 
ATOM     33  C   UNL A   1      43.442  26.278  25.723  1.00  0.00     0.016 A 
ATOM     34  C   UNL A   1      42.024  24.495  26.528  1.00  0.00     0.016 A 
ATOM     35  C   UNL A   1      42.834  27.181  26.609  1.00  0.00     0.010 A 
ATOM     36  C   UNL A   1      41.430  25.396  27.429  1.00  0.00     0.010 A 
ATOM     37  C   UNL A   1      41.858  26.736  27.509  1.00  0.00    -0.014 A 
BRANCH  37  38
ATOM     38  C   UNL A   1      41.432  27.595  28.656  1.00  0.00     0.031 A 
ATOM     39  C   UNL A   1      42.201  27.504  29.952  1.00  0.00     0.074 A 
ATOM     40  C   UNL A   1      40.396  28.453  28.574  1.00  0.00     0.049 A 
ATOM     41  N   UNL A   1      41.972  28.080  31.107  1.00  0.00    -0.248 NA
ATOM     42  C   UNL A   1      43.389  26.636  29.941  1.00  0.00     0.031 C 
ATOM     43  C   UNL A   1      39.593  28.700  27.382  1.00  0.00     0.029 A 
ATOM     44  N   UNL A   1      39.835  29.269  29.532  1.00  0.00    -0.354 N 
ATOM     45  C   UNL A   1      42.977  27.637  31.959  1.00  0.00     0.074 A 
ATOM     46  C   UNL A   1      43.797  26.718  31.199  1.00  0.00     0.031 C 
ATOM     47  C   UNL A   1      38.633  29.594  27.679  1.00  0.00     0.029 A 
ATOM     48  C   UNL A   1      38.728  29.956  29.094  1.00  0.00     0.049 A 
ATOM     49  H   UNL A   1      40.195  29.353  30.445  1.00  0.00     0.167 HD
ATOM     50  C   UNL A   1      43.207  27.969  33.253  1.00  0.00     0.037 A 
ATOM     51  C   UNL A   1      37.874  30.762  29.761  1.00  0.00     0.037 A 
ATOM     52  C   UNL A   1      42.401  28.885  34.020  1.00  0.00     0.049 A 
ATOM     53  C   UNL A   1      38.096  31.045  31.229  1.00  0.00     0.074 A 
ATOM     54  C   UNL A   1      42.571  29.293  35.332  1.00  0.00     0.029 A 
ATOM     55  N   UNL A   1      41.266  29.525  33.549  1.00  0.00    -0.354 N 
ATOM     56  N   UNL A   1      39.057  30.637  32.020  1.00  0.00    -0.248 NA
ATOM     57  C   UNL A   1      37.107  31.908  31.897  1.00  0.00     0.031 C 
ATOM     58  C   UNL A   1      41.505  30.129  35.675  1.00  0.00     0.029 A 
ATOM     59  C   UNL A   1      40.707  30.300  34.556  1.00  0.00     0.049 A 
ATOM     60  H   UNL A   1      40.908  29.444  32.635  1.00  0.00     0.167 HD
ATOM     61  C   UNL A   1      38.813  31.220  33.259  1.00  0.00     0.074 A 
ATOM     62  C   UNL A   1      37.617  32.020  33.116  1.00  0.00     0.031 C 
ATOM     63  C   UNL A   1      39.522  31.106  34.410  1.00  0.00     0.037 A 
BRANCH  50  64
ATOM     64  C   UNL A   1      44.369  27.310  33.943  1.00  0.00     0.064 A 
ATOM     65  C   UNL A   1      44.240  26.077  34.600  1.00  0.00     0.173 A 
ATOM     66  C   UNL A   1      45.640  27.905  33.912  1.00  0.00     0.173 A 
ATOM     67  F   UNL A   1      43.046  25.471  34.669  1.00  0.00    -0.203 F 
ATOM     68  C   UNL A   1      45.332  25.481  35.226  1.00  0.00     0.198 A 
ATOM     69  C   UNL A   1      46.737  27.289  34.508  1.00  0.00     0.198 A 
ATOM     70  F   UNL A   1      45.823  29.080  33.290  1.00  0.00    -0.203 F 
ATOM     71  F   UNL A   1      45.172  24.329  35.893  1.00  0.00    -0.200 F 
ATOM     72  C   UNL A   1      46.580  26.082  35.173  1.00  0.00     0.200 A 
ATOM     73  F   UNL A   1      47.946  27.864  34.440  1.00  0.00    -0.200 F 
ATOM     74  F   UNL A   1      47.631  25.502  35.769  1.00  0.00    -0.200 F 
ENDBRANCH  50  64
BRANCH  51  75
ATOM     75  C   UNL A   1      36.701  31.355  29.057  1.00  0.00     0.064 A 
ATOM     76  C   UNL A   1      36.654  32.722  28.746  1.00  0.00     0.173 A 
ATOM     77  C   UNL A   1      35.583  30.575  28.726  1.00  0.00     0.173 A 
ATOM     78  F   UNL A   1      37.678  33.520  29.081  1.00  0.00    -0.203 F 
ATOM     79  C   UNL A   1      35.527  33.287  28.150  1.00  0.00     0.198 A 
ATOM     80  C   UNL A   1      34.471  31.134  28.099  1.00  0.00     0.198 A 
ATOM     81  F   UNL A   1      35.567  29.264  29.014  1.00  0.00    -0.203 F 
ATOM     82  F   UNL A   1      35.482  34.607  27.925  1.00  0.00    -0.200 F 
ATOM     83  C   UNL A   1      34.440  32.492  27.820  1.00  0.00     0.200 A 
ATOM     84  F   UNL A   1      33.425  30.360  27.779  1.00  0.00    -0.200 F 
ATOM     85  F   UNL A   1      33.355  33.037  27.252  1.00  0.00    -0.200 F 
ENDBRANCH  51  75
BRANCH  63  86
ATOM     86  C   UNL A   1      39.061  31.900  35.602  1.00  0.00     0.064 A 
ATOM     87  C   UNL A   1      38.231  31.347  36.588  1.00  0.00     0.173 A 
ATOM     88  C   UNL A   1      39.498  33.222  35.784  1.00  0.00     0.173 A 
ATOM     89  F   UNL A   1      37.775  30.092  36.461  1.00  0.00    -0.203 F 
ATOM     90  C   UNL A   1      37.832  32.095  37.694  1.00  0.00     0.198 A 
ATOM     91  C   UNL A   1      39.126  33.956  36.909  1.00  0.00     0.198 A 
ATOM     92  F   UNL A   1      40.303  33.800  34.880  1.00  0.00    -0.203 F 
ATOM     93  F   UNL A   1      36.999  31.561  38.597  1.00  0.00    -0.200 F 
ATOM     94  C   UNL A   1      38.287  33.395  37.858  1.00  0.00     0.200 A 
ATOM     95  F   UNL A   1      39.583  35.205  37.074  1.00  0.00    -0.200 F 
ATOM     96  F   UNL A   1      37.912  34.109  38.929  1.00  0.00    -0.200 F 
ENDBRANCH  63  86
ENDBRANCH  37  38
ENDBRANCH  30  32
ENDBRANCH  29  30
ENDBRANCH  28  29
ENDBRANCH  27  28
ENDBRANCH  26  27
ENDBRANCH  25  26
ENDBRANCH   1  25
TORSDOF 20
ENDMDL
MODEL 2
REMARK VINA RESULT:     -11.5      3.038      4.025
REMARK SMILES O=C(Cc1ccccc1-c1ccn(C(F)F)c(=O)c1)OCCOCCOCCOC(=O)c1ccc(-c2c3nc(c(-c4c(F)c(F)c(F)c(F)c4F)c4ccc([nH]4)c(-c4c(F)c(F)c(F)c(F)c4F)c4nc(c(-c5c(F)c(F)c(F)c(F)c5F)c5ccc2[nH]5)C=C4)C=C3)cc1
REMARK SMILES IDX 24 1 23 2 22 3 21 4 20 5 2 6 1 7 3 8 4 9 5 10 9 11 6 12 8 13
REMARK SMILES IDX 7 14 10 15 11 16 19 17 12 18 17 19 13 20 18 21 14 22 15 23
REMARK SMILES IDX 16 24 25 25 26 26 27 27 28 28 29 29 30 30 31 31 32 32 33 33
REMARK SMILES IDX 94 34 34 35 93 36 35 37 36 38 37 39 87 40 38 41 92 42 86 43
REMARK SMILES IDX 88 44 39 45 91 46 85 47 84 48 40 50 72 51 52 52 71 53 53 54
REMARK SMILES IDX 56 55 70 56 89 57 54 58 55 59 69 61 90 62 57 63 41 64 42 65
REMARK SMILES IDX 50 66 43 67 44 68 48 69 51 70 45 71 46 72 49 73 47 74 73 75
REMARK SMILES IDX 74 76 82 77 75 78 76 79 80 80 83 81 77 82 78 83 81 84 79 85
REMARK SMILES IDX 58 86 59 87 67 88 60 89 61 90 65 91 68 92 62 93 63 94 66 95
REMARK SMILES IDX 64 96
REMARK H PARENT 88 49 56 60
REMARK Flexibility Score: inf
ROOT
ATOM      1  C   UNL A   1      40.483  21.003  26.862  1.00  0.00     0.188 C 
ENDROOT
BRANCH   1   2
ATOM      2  O   UNL A   1      39.876  21.737  25.824  1.00  0.00    -0.376 OA
BRANCH   2   3
ATOM      3  C   UNL A   1      38.529  21.489  25.509  1.00  0.00     0.202 C 
BRANCH   3   4
ATOM      4  C   UNL A   1      37.551  22.652  25.666  1.00  0.00     0.261 C 
BRANCH   4   5
ATOM      5  O   UNL A   1      36.410  22.485  26.540  1.00  0.00    -0.463 OA
BRANCH   5   6
ATOM      6  C   UNL A   1      35.104  22.275  26.292  1.00  0.00     0.310 C 
ATOM      7  O   UNL A   1      34.279  22.943  26.920  1.00  0.00    -0.252 OA
BRANCH   6   8
ATOM      8  C   UNL A   1      34.637  21.158  25.378  1.00  0.00     0.158 C 
BRANCH   8   9
ATOM      9  C   UNL A   1      33.908  21.597  24.138  1.00  0.00    -0.029 A 
ATOM     10  C   UNL A   1      34.253  22.825  23.553  1.00  0.00     0.005 A 
ATOM     11  C   UNL A   1      32.894  20.807  23.557  1.00  0.00    -0.014 A 
ATOM     12  C   UNL A   1      33.494  23.352  22.521  1.00  0.00     0.000 A 
ATOM     13  C   UNL A   1      32.144  21.340  22.508  1.00  0.00     0.009 A 
ATOM     14  C   UNL A   1      32.424  22.622  22.018  1.00  0.00     0.001 A 
BRANCH  11  15
ATOM     15  C   UNL A   1      32.723  19.406  24.008  1.00  0.00    -0.011 A 
ATOM     16  C   UNL A   1      32.370  19.035  25.363  1.00  0.00     0.027 A 
ATOM     17  C   UNL A   1      33.196  18.461  23.173  1.00  0.00     0.080 A 
ATOM     18  C   UNL A   1      32.722  17.834  25.840  1.00  0.00     0.095 A 
ATOM     19  C   UNL A   1      33.497  17.087  23.668  1.00  0.00     0.255 A 
ATOM     20  N   UNL A   1      33.330  16.893  25.028  1.00  0.00    -0.258 N 
ATOM     21  O   UNL A   1      33.941  16.267  22.871  1.00  0.00    -0.269 OA
BRANCH  20  22
ATOM     22  C   UNL A   1      33.804  15.650  25.582  1.00  0.00     0.451 C 
ATOM     23  F   UNL A   1      33.035  14.614  25.171  1.00  0.00    -0.185 F 
ATOM     24  F   UNL A   1      35.083  15.396  25.200  1.00  0.00    -0.185 F 
ENDBRANCH  20  22
ENDBRANCH  11  15
ENDBRANCH   8   9
ENDBRANCH   6   8
ENDBRANCH   5   6
ENDBRANCH   4   5
ENDBRANCH   3   4
ENDBRANCH   2   3
ENDBRANCH   1   2
BRANCH   1  25
ATOM     25  C   UNL A   1      41.169  19.726  26.364  1.00  0.00     0.188 C 
BRANCH  25  26
ATOM     26  O   UNL A   1      42.258  19.828  25.455  1.00  0.00    -0.376 OA
BRANCH  26  27
ATOM     27  C   UNL A   1      43.385  20.616  25.802  1.00  0.00     0.202 C 
BRANCH  27  28
ATOM     28  C   UNL A   1      43.866  21.697  24.814  1.00  0.00     0.261 C 
BRANCH  28  29
ATOM     29  O   UNL A   1      43.116  22.932  24.753  1.00  0.00    -0.460 OA
BRANCH  29  30
ATOM     30  C   UNL A   1      43.805  24.084  24.945  1.00  0.00     0.338 C 
ATOM     31  O   UNL A   1      44.866  24.392  24.416  1.00  0.00    -0.246 OA
BRANCH  30  32
ATOM     32  C   UNL A   1      43.038  25.042  25.788  1.00  0.00     0.060 A 
ATOM     33  C   UNL A   1      43.430  26.390  25.819  1.00  0.00     0.016 A 
ATOM     34  C   UNL A   1      41.993  24.617  26.612  1.00  0.00     0.016 A 
ATOM     35  C   UNL A   1      42.823  27.297  26.701  1.00  0.00     0.010 A 
ATOM     36  C   UNL A   1      41.399  25.522  27.510  1.00  0.00     0.010 A 
ATOM     37  C   UNL A   1      41.837  26.859  27.594  1.00  0.00    -0.014 A 
BRANCH  37  38
ATOM     38  C   UNL A   1      41.410  27.720  28.739  1.00  0.00     0.031 A 
ATOM     39  C   UNL A   1      42.182  27.637  30.034  1.00  0.00     0.074 A 
ATOM     40  C   UNL A   1      40.370  28.573  28.656  1.00  0.00     0.049 A 
ATOM     41  N   UNL A   1      41.954  28.217  31.187  1.00  0.00    -0.248 NA
ATOM     42  C   UNL A   1      43.374  26.775  30.024  1.00  0.00     0.031 C 
ATOM     43  C   UNL A   1      39.564  28.812  27.465  1.00  0.00     0.029 A 
ATOM     44  N   UNL A   1      39.808  29.391  29.612  1.00  0.00    -0.354 N 
ATOM     45  C   UNL A   1      42.963  27.782  32.038  1.00  0.00     0.074 A 
ATOM     46  C   UNL A   1      43.784  26.864  31.280  1.00  0.00     0.031 C 
ATOM     47  C   UNL A   1      38.600  29.703  27.761  1.00  0.00     0.029 A 
ATOM     48  C   UNL A   1      38.696  30.071  29.174  1.00  0.00     0.049 A 
ATOM     49  H   UNL A   1      40.169  29.480  30.524  1.00  0.00     0.167 HD
ATOM     50  C   UNL A   1      43.193  28.120  33.331  1.00  0.00     0.037 A 
ATOM     51  C   UNL A   1      37.840  30.875  29.840  1.00  0.00     0.037 A 
ATOM     52  C   UNL A   1      42.385  29.035  34.096  1.00  0.00     0.049 A 
ATOM     53  C   UNL A   1      38.064  31.165  31.306  1.00  0.00     0.074 A 
ATOM     54  C   UNL A   1      42.557  29.449  35.406  1.00  0.00     0.029 A 
ATOM     55  N   UNL A   1      41.246  29.668  33.625  1.00  0.00    -0.354 N 
ATOM     56  N   UNL A   1      39.029  30.764  32.097  1.00  0.00    -0.248 NA
ATOM     57  C   UNL A   1      37.073  32.026  31.974  1.00  0.00     0.031 C 
ATOM     58  C   UNL A   1      41.487  30.281  35.748  1.00  0.00     0.029 A 
ATOM     59  C   UNL A   1      40.687  30.444  34.630  1.00  0.00     0.049 A 
ATOM     60  H   UNL A   1      40.887  29.582  32.712  1.00  0.00     0.167 HD
ATOM     61  C   UNL A   1      38.785  31.351  33.334  1.00  0.00     0.074 A 
ATOM     62  C   UNL A   1      37.586  32.145  33.191  1.00  0.00     0.031 C 
ATOM     63  C   UNL A   1      39.497  31.245  34.484  1.00  0.00     0.037 A 
BRANCH  50  64
ATOM     64  C   UNL A   1      44.360  27.469  34.021  1.00  0.00     0.064 A 
ATOM     65  C   UNL A   1      45.632  28.061  34.046  1.00  0.00     0.173 A 
ATOM     66  C   UNL A   1      44.191  26.252  34.701  1.00  0.00     0.173 A 
ATOM     67  F   UNL A   1      45.850  29.218  33.403  1.00  0.00    -0.203 F 
ATOM     68  C   UNL A   1      46.697  27.445  34.698  1.00  0.00     0.198 A 
ATOM     69  C   UNL A   1      45.249  25.657  35.382  1.00  0.00     0.198 A 
ATOM     70  F   UNL A   1      42.994  25.646  34.718  1.00  0.00    -0.203 F 
ATOM     71  F   UNL A   1      47.915  28.002  34.663  1.00  0.00    -0.200 F 
ATOM     72  C   UNL A   1      46.503  26.248  35.372  1.00  0.00     0.200 A 
ATOM     73  F   UNL A   1      45.055  24.509  36.047  1.00  0.00    -0.200 F 
ATOM     74  F   UNL A   1      47.528  25.661  36.006  1.00  0.00    -0.200 F 
ENDBRANCH  50  64
BRANCH  51  75
ATOM     75  C   UNL A   1      36.663  31.460  29.137  1.00  0.00     0.064 A 
ATOM     76  C   UNL A   1      36.606  32.827  28.826  1.00  0.00     0.173 A 
ATOM     77  C   UNL A   1      35.551  30.673  28.805  1.00  0.00     0.173 A 
ATOM     78  F   UNL A   1      37.625  33.632  29.161  1.00  0.00    -0.203 F 
ATOM     79  C   UNL A   1      35.476  33.385  28.231  1.00  0.00     0.198 A 
ATOM     80  C   UNL A   1      34.435  31.225  28.179  1.00  0.00     0.198 A 
ATOM     81  F   UNL A   1      35.544  29.362  29.092  1.00  0.00    -0.203 F 
ATOM     82  F   UNL A   1      35.421  34.705  28.006  1.00  0.00    -0.200 F 
ATOM     83  C   UNL A   1      34.394  32.583  27.900  1.00  0.00     0.200 A 
ATOM     84  F   UNL A   1      33.394  30.444  27.858  1.00  0.00    -0.200 F 
ATOM     85  F   UNL A   1      33.306  33.120  27.332  1.00  0.00    -0.200 F 
ENDBRANCH  51  75
BRANCH  63  86
ATOM     86  C   UNL A   1      39.035  32.041  35.674  1.00  0.00     0.064 A 
ATOM     87  C   UNL A   1      38.244  31.476  36.685  1.00  0.00     0.173 A 
ATOM     88  C   UNL A   1      39.432  33.379  35.828  1.00  0.00     0.173 A 
ATOM     89  F   UNL A   1      37.827  30.205  36.586  1.00  0.00    -0.203 F 
ATOM     90  C   UNL A   1      37.844  32.228  37.789  1.00  0.00     0.198 A 
ATOM     91  C   UNL A   1      39.060  34.117  36.950  1.00  0.00     0.198 A 
ATOM     92  F   UNL A   1      40.199  33.969  34.899  1.00  0.00    -0.203 F 
ATOM     93  F   UNL A   1      37.048  31.680  38.717  1.00  0.00    -0.200 F 
ATOM     94  C   UNL A   1      38.260  33.544  37.925  1.00  0.00     0.200 A 
ATOM     95  F   UNL A   1      39.480  35.383  37.088  1.00  0.00    -0.200 F 
ATOM     96  F   UNL A   1      37.884  34.261  38.993  1.00  0.00    -0.200 F 
ENDBRANCH  63  86
ENDBRANCH  37  38
ENDBRANCH  30  32
ENDBRANCH  29  30
ENDBRANCH  28  29
ENDBRANCH  27  28
ENDBRANCH  26  27
ENDBRANCH  25  26
ENDBRANCH   1  25
TORSDOF 20
ENDMDL
MODEL 3
REMARK VINA RESULT:     -10.7      1.614      2.224
REMARK SMILES O=C(Cc1ccccc1-c1ccn(C(F)F)c(=O)c1)OCCOCCOCCOC(=O)c1ccc(-c2c3nc(c(-c4c(F)c(F)c(F)c(F)c4F)c4ccc([nH]4)c(-c4c(F)c(F)c(F)c(F)c4F)c4nc(c(-c5c(F)c(F)c(F)c(F)c5F)c5ccc2[nH]5)C=C4)C=C3)cc1
REMARK SMILES IDX 24 1 23 2 22 3 21 4 20 5 2 6 1 7 3 8 4 9 5 10 9 11 6 12 8 13
REMARK SMILES IDX 7 14 10 15 11 16 19 17 12 18 17 19 13 20 18 21 14 22 15 23
REMARK SMILES IDX 16 24 25 25 26 26 27 27 28 28 29 29 30 30 31 31 32 32 33 33
REMARK SMILES IDX 94 34 34 35 93 36 35 37 36 38 37 39 87 40 38 41 92 42 86 43
REMARK SMILES IDX 88 44 39 45 91 46 85 47 84 48 40 50 72 51 52 52 71 53 53 54
REMARK SMILES IDX 56 55 70 56 89 57 54 58 55 59 69 61 90 62 57 63 41 64 42 65
REMARK SMILES IDX 50 66 43 67 44 68 48 69 51 70 45 71 46 72 49 73 47 74 73 75
REMARK SMILES IDX 74 76 82 77 75 78 76 79 80 80 83 81 77 82 78 83 81 84 79 85
REMARK SMILES IDX 58 86 59 87 67 88 60 89 61 90 65 91 68 92 62 93 63 94 66 95
REMARK SMILES IDX 64 96
REMARK H PARENT 88 49 56 60
REMARK Flexibility Score: inf
ROOT
ATOM      1  C   UNL A   1      40.664  21.565  27.166  1.00  0.00     0.188 C 
ENDROOT
BRANCH   1   2
ATOM      2  O   UNL A   1      39.654  21.720  26.196  1.00  0.00    -0.376 OA
BRANCH   2   3
ATOM      3  C   UNL A   1      38.935  20.589  25.772  1.00  0.00     0.202 C 
BRANCH   3   4
ATOM      4  C   UNL A   1      37.866  20.803  24.702  1.00  0.00     0.261 C 
BRANCH   4   5
ATOM      5  O   UNL A   1      37.114  22.039  24.710  1.00  0.00    -0.463 OA
BRANCH   5   6
ATOM      6  C   UNL A   1      35.856  22.335  24.334  1.00  0.00     0.310 C 
ATOM      7  O   UNL A   1      35.699  23.060  23.349  1.00  0.00    -0.252 OA
BRANCH   6   8
ATOM      8  C   UNL A   1      34.659  21.917  25.166  1.00  0.00     0.158 C 
BRANCH   8   9
ATOM      9  C   UNL A   1      34.001  20.628  24.754  1.00  0.00    -0.029 A 
ATOM     10  C   UNL A   1      34.736  19.438  24.845  1.00  0.00     0.005 A 
ATOM     11  C   UNL A   1      32.671  20.595  24.282  1.00  0.00    -0.014 A 
ATOM     12  C   UNL A   1      34.239  18.259  24.313  1.00  0.00     0.000 A 
ATOM     13  C   UNL A   1      32.173  19.399  23.762  1.00  0.00     0.009 A 
ATOM     14  C   UNL A   1      32.969  18.247  23.748  1.00  0.00     0.001 A 
BRANCH  11  15
ATOM     15  C   UNL A   1      31.817  21.793  24.445  1.00  0.00    -0.011 A 
ATOM     16  C   UNL A   1      31.706  22.842  23.452  1.00  0.00     0.027 A 
ATOM     17  C   UNL A   1      31.361  22.022  25.691  1.00  0.00     0.080 A 
ATOM     18  C   UNL A   1      31.368  24.083  23.825  1.00  0.00     0.095 A 
ATOM     19  C   UNL A   1      30.885  23.377  26.093  1.00  0.00     0.255 A 
ATOM     20  N   UNL A   1      31.021  24.366  25.135  1.00  0.00    -0.258 N 
ATOM     21  O   UNL A   1      30.493  23.537  27.244  1.00  0.00    -0.269 OA
BRANCH  20  22
ATOM     22  C   UNL A   1      30.770  25.725  25.545  1.00  0.00     0.451 C 
ATOM     23  F   UNL A   1      31.511  26.593  24.815  1.00  0.00    -0.185 F 
ATOM     24  F   UNL A   1      29.462  26.054  25.382  1.00  0.00    -0.185 F 
ENDBRANCH  20  22
ENDBRANCH  11  15
ENDBRANCH   8   9
ENDBRANCH   6   8
ENDBRANCH   5   6
ENDBRANCH   4   5
ENDBRANCH   3   4
ENDBRANCH   2   3
ENDBRANCH   1   2
BRANCH   1  25
ATOM     25  C   UNL A   1      41.622  20.412  26.847  1.00  0.00     0.188 C 
BRANCH  25  26
ATOM     26  O   UNL A   1      42.262  20.368  25.578  1.00  0.00    -0.376 OA
BRANCH  26  27
ATOM     27  C   UNL A   1      43.678  20.319  25.512  1.00  0.00     0.202 C 
BRANCH  27  28
ATOM     28  C   UNL A   1      44.456  21.634  25.310  1.00  0.00     0.261 C 
BRANCH  28  29
ATOM     29  O   UNL A   1      44.071  22.772  26.115  1.00  0.00    -0.460 OA
BRANCH  29  30
ATOM     30  C   UNL A   1      44.039  23.981  25.500  1.00  0.00     0.338 C 
ATOM     31  O   UNL A   1      44.458  24.236  24.378  1.00  0.00    -0.246 OA
BRANCH  30  32
ATOM     32  C   UNL A   1      43.279  24.978  26.304  1.00  0.00     0.060 A 
ATOM     33  C   UNL A   1      43.765  26.294  26.395  1.00  0.00     0.016 A 
ATOM     34  C   UNL A   1      42.146  24.619  27.036  1.00  0.00     0.016 A 
ATOM     35  C   UNL A   1      43.158  27.228  27.248  1.00  0.00     0.010 A 
ATOM     36  C   UNL A   1      41.551  25.550  27.906  1.00  0.00     0.010 A 
ATOM     37  C   UNL A   1      42.077  26.849  28.053  1.00  0.00    -0.014 A 
BRANCH  37  38
ATOM     38  C   UNL A   1      41.625  27.721  29.180  1.00  0.00     0.031 A 
ATOM     39  C   UNL A   1      42.371  27.651  30.491  1.00  0.00     0.074 A 
ATOM     40  C   UNL A   1      40.586  28.571  29.069  1.00  0.00     0.049 A 
ATOM     41  N   UNL A   1      42.118  28.241  31.634  1.00  0.00    -0.248 NA
ATOM     42  C   UNL A   1      43.563  26.790  30.514  1.00  0.00     0.031 C 
ATOM     43  C   UNL A   1      39.804  28.798  27.858  1.00  0.00     0.029 A 
ATOM     44  N   UNL A   1      40.004  29.397  30.005  1.00  0.00    -0.354 N 
ATOM     45  C   UNL A   1      43.110  27.815  32.510  1.00  0.00     0.074 A 
ATOM     46  C   UNL A   1      43.948  26.891  31.777  1.00  0.00     0.031 C 
ATOM     47  C   UNL A   1      38.834  29.690  28.126  1.00  0.00     0.029 A 
ATOM     48  C   UNL A   1      38.900  30.071  29.538  1.00  0.00     0.049 A 
ATOM     49  H   UNL A   1      40.346  29.495  30.923  1.00  0.00     0.167 HD
ATOM     50  C   UNL A   1      43.314  28.165  33.804  1.00  0.00     0.037 A 
ATOM     51  C   UNL A   1      38.030  30.881  30.179  1.00  0.00     0.037 A 
ATOM     52  C   UNL A   1      42.489  29.086  34.543  1.00  0.00     0.049 A 
ATOM     53  C   UNL A   1      38.223  31.185  31.646  1.00  0.00     0.074 A 
ATOM     54  C   UNL A   1      42.633  29.513  35.853  1.00  0.00     0.029 A 
ATOM     55  N   UNL A   1      41.359  29.714  34.043  1.00  0.00    -0.354 N 
ATOM     56  N   UNL A   1      39.173  30.792  32.460  1.00  0.00    -0.248 NA
ATOM     57  C   UNL A   1      37.218  32.051  32.285  1.00  0.00     0.031 C 
ATOM     58  C   UNL A   1      41.556  30.347  36.165  1.00  0.00     0.029 A 
ATOM     59  C   UNL A   1      40.778  30.499  35.030  1.00  0.00     0.049 A 
ATOM     60  H   UNL A   1      41.019  29.619  33.125  1.00  0.00     0.167 HD
ATOM     61  C   UNL A   1      38.902  31.391  33.687  1.00  0.00     0.074 A 
ATOM     62  C   UNL A   1      37.705  32.182  33.511  1.00  0.00     0.031 C 
ATOM     63  C   UNL A   1      39.591  31.296  34.851  1.00  0.00     0.037 A 
BRANCH  50  64
ATOM     64  C   UNL A   1      44.467  27.523  34.524  1.00  0.00     0.064 A 
ATOM     65  C   UNL A   1      44.333  26.297  35.193  1.00  0.00     0.173 A 
ATOM     66  C   UNL A   1      45.735  28.125  34.508  1.00  0.00     0.173 A 
ATOM     67  F   UNL A   1      43.141  25.685  35.248  1.00  0.00    -0.203 F 
ATOM     68  C   UNL A   1      45.417  25.715  35.847  1.00  0.00     0.198 A 
ATOM     69  C   UNL A   1      46.824  27.523  35.132  1.00  0.00     0.198 A 
ATOM     70  F   UNL A   1      45.923  29.293  33.875  1.00  0.00    -0.203 F 
ATOM     71  F   UNL A   1      45.252  24.572  36.526  1.00  0.00    -0.200 F 
ATOM     72  C   UNL A   1      46.662  26.324  35.809  1.00  0.00     0.200 A 
ATOM     73  F   UNL A   1      48.031  28.104  35.079  1.00  0.00    -0.200 F 
ATOM     74  F   UNL A   1      47.705  25.758  36.432  1.00  0.00    -0.200 F 
ENDBRANCH  50  64
BRANCH  51  75
ATOM     75  C   UNL A   1      36.867  31.458  29.446  1.00  0.00     0.064 A 
ATOM     76  C   UNL A   1      35.791  30.655  29.041  1.00  0.00     0.173 A 
ATOM     77  C   UNL A   1      36.832  32.816  29.093  1.00  0.00     0.173 A 
ATOM     78  F   UNL A   1      35.796  29.342  29.315  1.00  0.00    -0.203 F 
ATOM     79  C   UNL A   1      34.737  31.182  28.296  1.00  0.00     0.198 A 
ATOM     80  C   UNL A   1      35.763  33.349  28.377  1.00  0.00     0.198 A 
ATOM     81  F   UNL A   1      37.842  33.628  29.440  1.00  0.00    -0.203 F 
ATOM     82  F   UNL A   1      33.756  30.379  27.865  1.00  0.00    -0.200 F 
ATOM     83  C   UNL A   1      34.719  32.530  27.971  1.00  0.00     0.200 A 
ATOM     84  F   UNL A   1      35.748  34.653  28.070  1.00  0.00    -0.200 F 
ATOM     85  F   UNL A   1      33.709  33.036  27.251  1.00  0.00    -0.200 F 
ENDBRANCH  51  75
BRANCH  63  86
ATOM     86  C   UNL A   1      39.104  32.103  36.025  1.00  0.00     0.064 A 
ATOM     87  C   UNL A   1      38.231  31.568  36.984  1.00  0.00     0.173 A 
ATOM     88  C   UNL A   1      39.558  33.418  36.217  1.00  0.00     0.173 A 
ATOM     89  F   UNL A   1      37.758  30.321  36.846  1.00  0.00    -0.203 F 
ATOM     90  C   UNL A   1      37.808  32.328  38.073  1.00  0.00     0.198 A 
ATOM     91  C   UNL A   1      39.161  34.162  37.325  1.00  0.00     0.198 A 
ATOM     92  F   UNL A   1      40.402  33.978  35.338  1.00  0.00    -0.203 F 
ATOM     93  F   UNL A   1      36.936  31.812  38.949  1.00  0.00    -0.200 F 
ATOM     94  C   UNL A   1      38.280  33.621  38.248  1.00  0.00     0.200 A 
ATOM     95  F   UNL A   1      39.634  35.405  37.502  1.00  0.00    -0.200 F 
ATOM     96  F   UNL A   1      37.882  34.345  39.303  1.00  0.00    -0.200 F 
ENDBRANCH  63  86
ENDBRANCH  37  38
ENDBRANCH  30  32
ENDBRANCH  29  30
ENDBRANCH  28  29
ENDBRANCH  27  28
ENDBRANCH  26  27
ENDBRANCH  25  26
ENDBRANCH   1  25
TORSDOF 20
ENDMDL
