MODEL 1
REMARK VINA RESULT:     -12.3      0.000      0.000
REMARK SMILES O=C(OCCOCCOCCOC(=O)[C@H](NC(=O)[C@H]1CC[C@@H](CNC(=O)[C@@H]2Cc3ccccc3C[NH2+]2)CC1)c1ccccc1)c1ccc(-c2c3nc(c(-c4c(F)c(F)c(F)c(F)c4F)c4ccc([nH]4)c(-c4c(F)c(F)c(F)c(F)c4F)c4nc(c(-c5c(F)c(F)c(F)c(F)c5F)c5ccc2[nH]5)C=C4)C=C3)cc1
REMARK SMILES IDX 9 1 8 2 7 3 6 4 5 5 4 6 3 7 2 8 1 9 45 10 46 11 107 12 47 13
REMARK SMILES IDX 106 14 48 15 49 16 50 17 100 18 51 19 105 20 99 21 101 22
REMARK SMILES IDX 52 23 104 24 98 25 97 26 53 28 85 29 65 30 84 31 66 32 69 33
REMARK SMILES IDX 83 34 102 35 67 36 68 37 82 39 103 40 70 41 54 42 55 43
REMARK SMILES IDX 63 44 56 45 57 46 61 47 64 48 58 49 59 50 62 51 60 52 86 53
REMARK SMILES IDX 87 54 95 55 88 56 89 57 93 58 96 59 90 60 91 61 94 62 92 63
REMARK SMILES IDX 71 64 72 65 80 66 73 67 74 68 78 69 81 70 75 71 76 72 79 73
REMARK SMILES IDX 77 74 10 75 11 76 12 77 13 78 14 79 15 80 39 81 40 82 44 83
REMARK SMILES IDX 41 84 43 85 42 86 16 87 17 88 18 90 19 91 38 92 20 93 37 94
REMARK SMILES IDX 21 95 22 96 23 97 24 98 25 99 26 101 27 102 28 103 36 104
REMARK SMILES IDX 29 105 35 106 30 109 34 110 31 111 33 112 32 113
REMARK H PARENT 101 27 69 38 16 89 24 100 36 107 36 108
REMARK Flexibility Score: inf
ROOT
ATOM      1  O   UNL A   1      31.566  27.877  26.241  1.00  0.00    -0.376 OA
ENDROOT
BRANCH   1   2
ATOM      2  C   UNL A   1      32.122  28.866  25.382  1.00  0.00     0.188 C 
BRANCH   2   3
ATOM      3  C   UNL A   1      31.431  30.224  25.364  1.00  0.00     0.188 C 
BRANCH   3   4
ATOM      4  O   UNL A   1      31.413  30.855  26.650  1.00  0.00    -0.376 OA
BRANCH   4   5
ATOM      5  C   UNL A   1      31.398  32.287  26.565  1.00  0.00     0.202 C 
BRANCH   5   6
ATOM      6  C   UNL A   1      32.583  32.992  27.250  1.00  0.00     0.261 C 
BRANCH   6   7
ATOM      7  O   UNL A   1      32.243  34.259  27.846  1.00  0.00    -0.460 OA
BRANCH   7   8
ATOM      8  C   UNL A   1      32.936  34.984  28.761  1.00  0.00     0.338 C 
ATOM      9  O   UNL A   1      32.536  36.105  29.064  1.00  0.00    -0.246 OA
BRANCH   8  10
ATOM     10  C   UNL A   1      34.133  34.446  29.471  1.00  0.00     0.060 A 
ATOM     11  C   UNL A   1      35.437  34.542  28.998  1.00  0.00     0.016 A 
ATOM     12  C   UNL A   1      33.940  33.828  30.711  1.00  0.00     0.016 A 
ATOM     13  C   UNL A   1      36.490  33.856  29.595  1.00  0.00     0.010 A 
ATOM     14  C   UNL A   1      35.022  33.246  31.387  1.00  0.00     0.010 A 
ATOM     15  C   UNL A   1      36.302  33.191  30.797  1.00  0.00    -0.014 A 
BRANCH  15  16
ATOM     16  C   UNL A   1      37.392  32.371  31.396  1.00  0.00     0.031 A 
ATOM     17  C   UNL A   1      38.022  32.839  32.668  1.00  0.00     0.074 A 
ATOM     18  C   UNL A   1      37.817  31.206  30.865  1.00  0.00     0.049 A 
ATOM     19  N   UNL A   1      39.035  32.323  33.309  1.00  0.00    -0.248 NA
ATOM     20  C   UNL A   1      37.399  33.991  33.342  1.00  0.00     0.031 C 
ATOM     21  C   UNL A   1      37.172  30.494  29.776  1.00  0.00     0.029 A 
ATOM     22  N   UNL A   1      38.956  30.457  31.097  1.00  0.00    -0.354 N 
ATOM     23  C   UNL A   1      39.125  33.042  34.486  1.00  0.00     0.074 A 
ATOM     24  C   UNL A   1      38.157  34.113  34.418  1.00  0.00     0.031 C 
ATOM     25  C   UNL A   1      38.014  29.556  29.324  1.00  0.00     0.029 A 
ATOM     26  C   UNL A   1      39.228  29.547  30.090  1.00  0.00     0.049 A 
ATOM     27  H   UNL A   1      39.518  30.561  31.898  1.00  0.00     0.167 HD
ATOM     28  C   UNL A   1      39.891  32.769  35.564  1.00  0.00     0.037 A 
ATOM     29  C   UNL A   1      40.322  28.804  29.809  1.00  0.00     0.037 A 
ATOM     30  C   UNL A   1      40.841  31.692  35.623  1.00  0.00     0.049 A 
ATOM     31  C   UNL A   1      41.296  28.676  30.925  1.00  0.00     0.074 A 
ATOM     32  C   UNL A   1      41.674  31.329  36.664  1.00  0.00     0.029 A 
ATOM     33  N   UNL A   1      41.088  30.805  34.585  1.00  0.00    -0.354 N 
ATOM     34  N   UNL A   1      41.286  29.284  32.081  1.00  0.00    -0.248 NA
ATOM     35  C   UNL A   1      42.321  27.642  30.772  1.00  0.00     0.031 C 
ATOM     36  C   UNL A   1      42.463  30.254  36.238  1.00  0.00     0.029 A 
ATOM     37  C   UNL A   1      42.097  29.926  34.946  1.00  0.00     0.049 A 
ATOM     38  H   UNL A   1      40.618  30.802  33.720  1.00  0.00     0.167 HD
ATOM     39  C   UNL A   1      42.237  28.635  32.835  1.00  0.00     0.074 A 
ATOM     40  C   UNL A   1      42.775  27.570  32.010  1.00  0.00     0.031 C 
ATOM     41  C   UNL A   1      42.625  28.889  34.105  1.00  0.00     0.037 A 
BRANCH  28  42
ATOM     42  C   UNL A   1      39.702  33.652  36.753  1.00  0.00     0.064 A 
ATOM     43  C   UNL A   1      38.836  33.294  37.799  1.00  0.00     0.173 A 
ATOM     44  C   UNL A   1      40.371  34.879  36.836  1.00  0.00     0.173 A 
ATOM     45  F   UNL A   1      38.144  32.145  37.742  1.00  0.00    -0.203 F 
ATOM     46  C   UNL A   1      38.632  34.147  38.878  1.00  0.00     0.198 A 
ATOM     47  C   UNL A   1      40.184  35.718  37.930  1.00  0.00     0.198 A 
ATOM     48  F   UNL A   1      41.191  35.270  35.849  1.00  0.00    -0.203 F 
ATOM     49  F   UNL A   1      37.760  33.812  39.840  1.00  0.00    -0.200 F 
ATOM     50  C   UNL A   1      39.311  35.354  38.947  1.00  0.00     0.200 A 
ATOM     51  F   UNL A   1      40.836  36.886  37.995  1.00  0.00    -0.200 F 
ATOM     52  F   UNL A   1      39.113  36.176  39.986  1.00  0.00    -0.200 F 
ENDBRANCH  28  42
BRANCH  29  53
ATOM     53  C   UNL A   1      40.538  28.003  28.561  1.00  0.00     0.064 A 
ATOM     54  C   UNL A   1      39.983  26.724  28.385  1.00  0.00     0.173 A 
ATOM     55  C   UNL A   1      41.409  28.444  27.556  1.00  0.00     0.173 A 
ATOM     56  F   UNL A   1      39.234  26.192  29.362  1.00  0.00    -0.203 F 
ATOM     57  C   UNL A   1      40.185  25.982  27.217  1.00  0.00     0.198 A 
ATOM     58  C   UNL A   1      41.590  27.721  26.371  1.00  0.00     0.198 A 
ATOM     59  F   UNL A   1      42.136  29.553  27.749  1.00  0.00    -0.203 F 
ATOM     60  F   UNL A   1      39.625  24.771  27.092  1.00  0.00    -0.200 F 
ATOM     61  C   UNL A   1      40.965  26.497  26.195  1.00  0.00     0.200 A 
ATOM     62  F   UNL A   1      42.386  28.209  25.409  1.00  0.00    -0.200 F 
ATOM     63  F   UNL A   1      41.148  25.799  25.066  1.00  0.00    -0.200 F 
ENDBRANCH  29  53
BRANCH  41  64
ATOM     64  C   UNL A   1      43.679  27.973  34.629  1.00  0.00     0.064 A 
ATOM     65  C   UNL A   1      43.333  26.786  35.295  1.00  0.00     0.173 A 
ATOM     66  C   UNL A   1      45.027  28.347  34.586  1.00  0.00     0.173 A 
ATOM     67  F   UNL A   1      42.045  26.421  35.400  1.00  0.00    -0.203 F 
ATOM     68  C   UNL A   1      44.296  26.045  35.966  1.00  0.00     0.198 A 
ATOM     69  C   UNL A   1      45.994  27.575  35.218  1.00  0.00     0.198 A 
ATOM     70  F   UNL A   1      45.396  29.482  33.973  1.00  0.00    -0.203 F 
ATOM     71  F   UNL A   1      43.928  24.989  36.702  1.00  0.00    -0.200 F 
ATOM     72  C   UNL A   1      45.626  26.439  35.924  1.00  0.00     0.200 A 
ATOM     73  F   UNL A   1      47.278  27.953  35.178  1.00  0.00    -0.200 F 
ATOM     74  F   UNL A   1      46.550  25.737  36.593  1.00  0.00    -0.200 F 
ENDBRANCH  41  64
ENDBRANCH  15  16
ENDBRANCH   8  10
ENDBRANCH   7   8
ENDBRANCH   6   7
ENDBRANCH   5   6
ENDBRANCH   4   5
ENDBRANCH   3   4
ENDBRANCH   2   3
ENDBRANCH   1   2
BRANCH   1  75
ATOM     75  C   UNL A   1      32.408  26.818  26.677  1.00  0.00     0.202 C 
BRANCH  75  76
ATOM     76  C   UNL A   1      31.804  25.410  26.767  1.00  0.00     0.261 C 
BRANCH  76  77
ATOM     77  O   UNL A   1      32.100  24.501  25.692  1.00  0.00    -0.461 OA
BRANCH  77  78
ATOM     78  C   UNL A   1      31.159  23.532  25.476  1.00  0.00     0.333 C 
ATOM     79  O   UNL A   1      30.294  23.200  26.285  1.00  0.00    -0.249 OA
BRANCH  78  80
ATOM     80  C   UNL A   1      31.352  22.847  24.104  1.00  0.00     0.223 C 
BRANCH  80  81
ATOM     81  C   UNL A   1      31.771  23.936  23.123  1.00  0.00    -0.014 A 
ATOM     82  C   UNL A   1      31.143  25.195  23.192  1.00  0.00     0.006 A 
ATOM     83  C   UNL A   1      32.702  23.718  22.099  1.00  0.00     0.006 A 
ATOM     84  C   UNL A   1      31.377  26.161  22.215  1.00  0.00     0.000 A 
ATOM     85  C   UNL A   1      32.883  24.659  21.086  1.00  0.00     0.000 A 
ATOM     86  C   UNL A   1      32.208  25.873  21.136  1.00  0.00     0.000 A 
ENDBRANCH  80  81
BRANCH  80  87
ATOM     87  N   UNL A   1      32.323  21.750  24.220  1.00  0.00    -0.339 N 
ATOM     88  C   UNL A   1      33.646  21.634  24.482  1.00  0.00     0.224 C 
ATOM     89  H   UNL A   1      31.903  20.872  24.068  1.00  0.00     0.164 HD
ATOM     90  O   UNL A   1      34.061  20.468  24.539  1.00  0.00    -0.275 OA
BRANCH  88  91
ATOM     91  C   UNL A   1      34.646  22.766  24.768  1.00  0.00     0.078 C 
ATOM     92  C   UNL A   1      35.347  22.747  26.115  1.00  0.00     0.014 C 
ATOM     93  C   UNL A   1      35.499  23.217  23.556  1.00  0.00     0.014 C 
ATOM     94  C   UNL A   1      36.576  23.634  26.073  1.00  0.00     0.006 C 
ATOM     95  C   UNL A   1      37.033  23.341  23.691  1.00  0.00     0.006 C 
ATOM     96  C   UNL A   1      37.613  23.091  25.088  1.00  0.00     0.008 C 
BRANCH  96  97
ATOM     97  C   UNL A   1      38.050  21.612  25.287  1.00  0.00     0.119 C 
BRANCH  97  98
ATOM     98  N   UNL A   1      38.869  21.368  26.483  1.00  0.00    -0.351 N 
ATOM     99  C   UNL A   1      40.193  21.556  26.793  1.00  0.00     0.278 C 
ATOM    100  H   UNL A   1      38.351  20.985  27.228  1.00  0.00     0.163 HD
ATOM    101  O   UNL A   1      40.408  21.790  27.993  1.00  0.00    -0.268 OA
BRANCH  99 102
ATOM    102  C   UNL A   1      41.422  21.245  25.861  1.00  0.00     0.277 C 
ATOM    103  C   UNL A   1      42.298  20.037  26.198  1.00  0.00     0.111 C 
ATOM    104  N   UNL A   1      42.094  22.534  25.680  1.00  0.00    -0.332 N 
ATOM    105  C   UNL A   1      43.668  20.077  25.556  1.00  0.00    -0.033 A 
ATOM    106  C   UNL A   1      43.446  22.570  25.156  1.00  0.00     0.298 C 
ATOM    107  H   UNL A   1      42.119  22.986  26.594  1.00  0.00     0.347 HD
ATOM    108  H   UNL A   1      41.544  22.988  24.952  1.00  0.00     0.347 HD
ATOM    109  C   UNL A   1      44.427  18.908  25.397  1.00  0.00     0.004 A 
ATOM    110  C   UNL A   1      44.234  21.299  25.179  1.00  0.00     0.010 A 
ATOM    111  C   UNL A   1      45.742  18.967  24.921  1.00  0.00     0.000 A 
ATOM    112  C   UNL A   1      45.574  21.355  24.753  1.00  0.00     0.010 A 
ATOM    113  C   UNL A   1      46.328  20.193  24.630  1.00  0.00     0.001 A 
ENDBRANCH  99 102
ENDBRANCH  97  98
ENDBRANCH  96  97
ENDBRANCH  88  91
ENDBRANCH  80  87
ENDBRANCH  78  80
ENDBRANCH  77  78
ENDBRANCH  76  77
ENDBRANCH  75  76
ENDBRANCH   1  75
TORSDOF 23
ENDMDL
MODEL 2
REMARK VINA RESULT:     -12.2      0.732      6.701
REMARK SMILES O=C(OCCOCCOCCOC(=O)[C@H](NC(=O)[C@H]1CC[C@@H](CNC(=O)[C@@H]2Cc3ccccc3C[NH2+]2)CC1)c1ccccc1)c1ccc(-c2c3nc(c(-c4c(F)c(F)c(F)c(F)c4F)c4ccc([nH]4)c(-c4c(F)c(F)c(F)c(F)c4F)c4nc(c(-c5c(F)c(F)c(F)c(F)c5F)c5ccc2[nH]5)C=C4)C=C3)cc1
REMARK SMILES IDX 9 1 8 2 7 3 6 4 5 5 4 6 3 7 2 8 1 9 45 10 46 11 107 12 47 13
REMARK SMILES IDX 106 14 48 15 49 16 50 17 100 18 51 19 105 20 99 21 101 22
REMARK SMILES IDX 52 23 104 24 98 25 97 26 53 28 85 29 65 30 84 31 66 32 69 33
REMARK SMILES IDX 83 34 102 35 67 36 68 37 82 39 103 40 70 41 54 42 55 43
REMARK SMILES IDX 63 44 56 45 57 46 61 47 64 48 58 49 59 50 62 51 60 52 86 53
REMARK SMILES IDX 87 54 95 55 88 56 89 57 93 58 96 59 90 60 91 61 94 62 92 63
REMARK SMILES IDX 71 64 72 65 80 66 73 67 74 68 78 69 81 70 75 71 76 72 79 73
REMARK SMILES IDX 77 74 10 75 11 76 12 77 13 78 14 79 15 80 39 81 40 82 44 83
REMARK SMILES IDX 41 84 43 85 42 86 16 87 17 88 18 90 19 91 38 92 20 93 37 94
REMARK SMILES IDX 21 95 22 96 23 97 24 98 25 99 26 101 27 102 28 103 36 104
REMARK SMILES IDX 29 105 35 106 30 109 34 110 31 111 33 112 32 113
REMARK H PARENT 101 27 69 38 16 89 24 100 36 107 36 108
REMARK Flexibility Score: inf
ROOT
ATOM      1  O   UNL A   1      31.531  27.232  26.448  1.00  0.00    -0.376 OA
ENDROOT
BRANCH   1   2
ATOM      2  C   UNL A   1      32.204  28.193  25.643  1.00  0.00     0.188 C 
BRANCH   2   3
ATOM      3  C   UNL A   1      31.610  29.595  25.607  1.00  0.00     0.188 C 
BRANCH   3   4
ATOM      4  O   UNL A   1      31.763  30.295  26.847  1.00  0.00    -0.376 OA
BRANCH   4   5
ATOM      5  C   UNL A   1      31.626  31.715  26.703  1.00  0.00     0.202 C 
BRANCH   5   6
ATOM      6  C   UNL A   1      32.751  32.546  27.348  1.00  0.00     0.261 C 
BRANCH   6   7
ATOM      7  O   UNL A   1      32.318  33.829  27.843  1.00  0.00    -0.460 OA
BRANCH   7   8
ATOM      8  C   UNL A   1      32.986  34.706  28.635  1.00  0.00     0.338 C 
ATOM      9  O   UNL A   1      32.511  35.823  28.825  1.00  0.00    -0.246 OA
BRANCH   8  10
ATOM     10  C   UNL A   1      34.248  34.346  29.345  1.00  0.00     0.060 A 
ATOM     11  C   UNL A   1      35.520  34.454  28.793  1.00  0.00     0.016 A 
ATOM     12  C   UNL A   1      34.154  33.895  30.666  1.00  0.00     0.016 A 
ATOM     13  C   UNL A   1      36.642  33.923  29.419  1.00  0.00     0.010 A 
ATOM     14  C   UNL A   1      35.303  33.481  31.355  1.00  0.00     0.010 A 
ATOM     15  C   UNL A   1      36.555  33.421  30.710  1.00  0.00    -0.014 A 
BRANCH  15  16
ATOM     16  C   UNL A   1      37.725  32.761  31.354  1.00  0.00     0.031 A 
ATOM     17  C   UNL A   1      38.189  31.447  30.816  1.00  0.00     0.074 A 
ATOM     18  C   UNL A   1      38.410  33.309  32.379  1.00  0.00     0.049 A 
ATOM     19  N   UNL A   1      39.130  30.668  31.277  1.00  0.00    -0.248 NA
ATOM     20  C   UNL A   1      37.567  30.974  29.567  1.00  0.00     0.031 C 
ATOM     21  C   UNL A   1      38.244  34.665  32.871  1.00  0.00     0.029 A 
ATOM     22  N   UNL A   1      39.317  32.762  33.268  1.00  0.00    -0.354 N 
ATOM     23  C   UNL A   1      39.257  29.657  30.343  1.00  0.00     0.074 A 
ATOM     24  C   UNL A   1      38.214  29.840  29.359  1.00  0.00     0.031 C 
ATOM     25  C   UNL A   1      38.859  34.764  34.057  1.00  0.00     0.029 A 
ATOM     26  C   UNL A   1      39.498  33.527  34.407  1.00  0.00     0.049 A 
ATOM     27  H   UNL A   1      39.787  31.912  33.107  1.00  0.00     0.167 HD
ATOM     28  C   UNL A   1      40.220  28.714  30.273  1.00  0.00     0.037 A 
ATOM     29  C   UNL A   1      40.094  33.265  35.591  1.00  0.00     0.037 A 
ATOM     30  C   UNL A   1      41.259  28.551  31.252  1.00  0.00     0.049 A 
ATOM     31  C   UNL A   1      40.997  32.084  35.591  1.00  0.00     0.074 A 
ATOM     32  C   UNL A   1      42.283  27.624  31.281  1.00  0.00     0.029 A 
ATOM     33  N   UNL A   1      41.399  29.338  32.386  1.00  0.00    -0.354 N 
ATOM     34  N   UNL A   1      41.183  31.210  34.639  1.00  0.00    -0.248 NA
ATOM     35  C   UNL A   1      41.889  31.953  36.744  1.00  0.00     0.031 C 
ATOM     36  C   UNL A   1      43.014  27.817  32.460  1.00  0.00     0.029 A 
ATOM     37  C   UNL A   1      42.466  28.885  33.146  1.00  0.00     0.049 A 
ATOM     38  H   UNL A   1      40.826  30.104  32.617  1.00  0.00     0.167 HD
ATOM     39  C   UNL A   1      42.287  30.485  35.030  1.00  0.00     0.074 A 
ATOM     40  C   UNL A   1      42.737  31.049  36.288  1.00  0.00     0.031 C 
ATOM     41  C   UNL A   1      42.883  29.450  34.398  1.00  0.00     0.037 A 
BRANCH  28  42
ATOM     42  C   UNL A   1      40.180  27.812  29.083  1.00  0.00     0.064 A 
ATOM     43  C   UNL A   1      39.444  26.616  29.098  1.00  0.00     0.173 A 
ATOM     44  C   UNL A   1      40.903  28.131  27.928  1.00  0.00     0.173 A 
ATOM     45  F   UNL A   1      38.768  26.250  30.198  1.00  0.00    -0.203 F 
ATOM     46  C   UNL A   1      39.453  25.761  28.001  1.00  0.00     0.198 A 
ATOM     47  C   UNL A   1      40.888  27.286  26.823  1.00  0.00     0.198 A 
ATOM     48  F   UNL A   1      41.636  29.253  27.879  1.00  0.00    -0.203 F 
ATOM     49  F   UNL A   1      38.789  24.597  28.055  1.00  0.00    -0.200 F 
ATOM     50  C   UNL A   1      40.168  26.099  26.863  1.00  0.00     0.200 A 
ATOM     51  F   UNL A   1      41.582  27.611  25.725  1.00  0.00    -0.200 F 
ATOM     52  F   UNL A   1      40.177  25.275  25.807  1.00  0.00    -0.200 F 
ENDBRANCH  28  42
BRANCH  29  53
ATOM     53  C   UNL A   1      40.039  34.136  36.810  1.00  0.00     0.064 A 
ATOM     54  C   UNL A   1      39.121  33.912  37.851  1.00  0.00     0.173 A 
ATOM     55  C   UNL A   1      40.822  35.293  36.913  1.00  0.00     0.173 A 
ATOM     56  F   UNL A   1      38.259  32.888  37.760  1.00  0.00    -0.203 F 
ATOM     57  C   UNL A   1      39.075  34.727  38.987  1.00  0.00     0.198 A 
ATOM     58  C   UNL A   1      40.804  36.094  38.061  1.00  0.00     0.198 A 
ATOM     59  F   UNL A   1      41.565  35.684  35.869  1.00  0.00    -0.203 F 
ATOM     60  F   UNL A   1      38.189  34.466  39.958  1.00  0.00    -0.200 F 
ATOM     61  C   UNL A   1      39.942  35.800  39.105  1.00  0.00     0.200 A 
ATOM     62  F   UNL A   1      41.614  37.158  38.143  1.00  0.00    -0.200 F 
ATOM     63  F   UNL A   1      39.915  36.574  40.200  1.00  0.00    -0.200 F 
ENDBRANCH  29  53
BRANCH  41  64
ATOM     64  C   UNL A   1      44.082  28.901  35.097  1.00  0.00     0.064 A 
ATOM     65  C   UNL A   1      45.377  29.233  34.670  1.00  0.00     0.173 A 
ATOM     66  C   UNL A   1      43.934  27.940  36.104  1.00  0.00     0.173 A 
ATOM     67  F   UNL A   1      45.555  30.113  33.672  1.00  0.00    -0.203 F 
ATOM     68  C   UNL A   1      46.482  28.562  35.177  1.00  0.00     0.198 A 
ATOM     69  C   UNL A   1      45.048  27.307  36.642  1.00  0.00     0.198 A 
ATOM     70  F   UNL A   1      42.713  27.583  36.528  1.00  0.00    -0.203 F 
ATOM     71  F   UNL A   1      47.697  28.801  34.665  1.00  0.00    -0.200 F 
ATOM     72  C   UNL A   1      46.317  27.603  36.164  1.00  0.00     0.200 A 
ATOM     73  F   UNL A   1      44.890  26.380  37.597  1.00  0.00    -0.200 F 
ATOM     74  F   UNL A   1      47.381  26.938  36.634  1.00  0.00    -0.200 F 
ENDBRANCH  41  64
ENDBRANCH  15  16
ENDBRANCH   8  10
ENDBRANCH   7   8
ENDBRANCH   6   7
ENDBRANCH   5   6
ENDBRANCH   4   5
ENDBRANCH   3   4
ENDBRANCH   2   3
ENDBRANCH   1   2
BRANCH   1  75
ATOM     75  C   UNL A   1      32.243  26.065  26.837  1.00  0.00     0.202 C 
BRANCH  75  76
ATOM     76  C   UNL A   1      31.537  24.711  26.694  1.00  0.00     0.261 C 
BRANCH  76  77
ATOM     77  O   UNL A   1      31.869  23.917  25.540  1.00  0.00    -0.461 OA
BRANCH  77  78
ATOM     78  C   UNL A   1      31.116  22.786  25.377  1.00  0.00     0.333 C 
ATOM     79  O   UNL A   1      30.320  22.348  26.206  1.00  0.00    -0.249 OA
BRANCH  78  80
ATOM     80  C   UNL A   1      31.438  22.076  24.043  1.00  0.00     0.223 C 
BRANCH  80  81
ATOM     81  C   UNL A   1      31.738  23.169  23.024  1.00  0.00    -0.014 A 
ATOM     82  C   UNL A   1      32.678  22.916  22.006  1.00  0.00     0.006 A 
ATOM     83  C   UNL A   1      31.175  24.450  23.097  1.00  0.00     0.006 A 
ATOM     84  C   UNL A   1      33.101  23.937  21.158  1.00  0.00     0.000 A 
ATOM     85  C   UNL A   1      31.649  25.486  22.291  1.00  0.00     0.000 A 
ATOM     86  C   UNL A   1      32.623  25.232  21.334  1.00  0.00     0.000 A 
ENDBRANCH  80  81
BRANCH  80  87
ATOM     87  N   UNL A   1      32.541  21.124  24.230  1.00  0.00    -0.339 N 
ATOM     88  C   UNL A   1      33.857  21.194  24.540  1.00  0.00     0.224 C 
ATOM     89  H   UNL A   1      32.248  20.194  24.095  1.00  0.00     0.164 HD
ATOM     90  O   UNL A   1      34.420  20.097  24.653  1.00  0.00    -0.275 OA
BRANCH  88  91
ATOM     91  C   UNL A   1      34.685  22.459  24.819  1.00  0.00     0.078 C 
ATOM     92  C   UNL A   1      35.357  22.561  26.177  1.00  0.00     0.014 C 
ATOM     93  C   UNL A   1      35.490  23.001  23.612  1.00  0.00     0.014 C 
ATOM     94  C   UNL A   1      36.453  23.608  26.137  1.00  0.00     0.006 C 
ATOM     95  C   UNL A   1      36.990  23.338  23.768  1.00  0.00     0.006 C 
ATOM     96  C   UNL A   1      37.573  23.196  25.179  1.00  0.00     0.008 C 
BRANCH  96  97
ATOM     97  C   UNL A   1      38.206  21.796  25.415  1.00  0.00     0.119 C 
BRANCH  97  98
ATOM     98  N   UNL A   1      39.086  21.708  26.589  1.00  0.00    -0.351 N 
ATOM     99  C   UNL A   1      40.422  21.940  26.805  1.00  0.00     0.278 C 
ATOM    100  H   UNL A   1      38.612  21.419  27.401  1.00  0.00     0.163 HD
ATOM    101  O   UNL A   1      40.695  22.324  27.953  1.00  0.00    -0.268 OA
BRANCH  99 102
ATOM    102  C   UNL A   1      41.606  21.522  25.857  1.00  0.00     0.277 C 
ATOM    103  C   UNL A   1      42.439  20.296  26.238  1.00  0.00     0.111 C 
ATOM    104  N   UNL A   1      42.328  22.766  25.583  1.00  0.00    -0.332 N 
ATOM    105  C   UNL A   1      43.788  20.237  25.555  1.00  0.00    -0.033 A 
ATOM    106  C   UNL A   1      43.664  22.711  25.018  1.00  0.00     0.298 C 
ATOM    107  H   UNL A   1      42.402  23.268  26.467  1.00  0.00     0.347 HD
ATOM    108  H   UNL A   1      41.776  23.203  24.845  1.00  0.00     0.347 HD
ATOM    109  C   UNL A   1      44.490  19.028  25.441  1.00  0.00     0.004 A 
ATOM    110  C   UNL A   1      44.395  21.409  25.092  1.00  0.00     0.010 A 
ATOM    111  C   UNL A   1      45.791  18.999  24.925  1.00  0.00     0.000 A 
ATOM    112  C   UNL A   1      45.723  21.379  24.624  1.00  0.00     0.010 A 
ATOM    113  C   UNL A   1      46.421  20.180  24.547  1.00  0.00     0.001 A 
ENDBRANCH  99 102
ENDBRANCH  97  98
ENDBRANCH  96  97
ENDBRANCH  88  91
ENDBRANCH  80  87
ENDBRANCH  78  80
ENDBRANCH  77  78
ENDBRANCH  76  77
ENDBRANCH  75  76
ENDBRANCH   1  75
TORSDOF 23
ENDMDL
MODEL 3
REMARK VINA RESULT:     -12.1      5.291     11.760
REMARK SMILES O=C(OCCOCCOCCOC(=O)[C@H](NC(=O)[C@H]1CC[C@@H](CNC(=O)[C@@H]2Cc3ccccc3C[NH2+]2)CC1)c1ccccc1)c1ccc(-c2c3nc(c(-c4c(F)c(F)c(F)c(F)c4F)c4ccc([nH]4)c(-c4c(F)c(F)c(F)c(F)c4F)c4nc(c(-c5c(F)c(F)c(F)c(F)c5F)c5ccc2[nH]5)C=C4)C=C3)cc1
REMARK SMILES IDX 9 1 8 2 7 3 6 4 5 5 4 6 3 7 2 8 1 9 45 10 46 11 107 12 47 13
REMARK SMILES IDX 106 14 48 15 49 16 50 17 100 18 51 19 105 20 99 21 101 22
REMARK SMILES IDX 52 23 104 24 98 25 97 26 53 28 85 29 65 30 84 31 66 32 69 33
REMARK SMILES IDX 83 34 102 35 67 36 68 37 82 39 103 40 70 41 54 42 55 43
REMARK SMILES IDX 63 44 56 45 57 46 61 47 64 48 58 49 59 50 62 51 60 52 86 53
REMARK SMILES IDX 87 54 95 55 88 56 89 57 93 58 96 59 90 60 91 61 94 62 92 63
REMARK SMILES IDX 71 64 72 65 80 66 73 67 74 68 78 69 81 70 75 71 76 72 79 73
REMARK SMILES IDX 77 74 10 75 11 76 12 77 13 78 14 79 15 80 39 81 40 82 44 83
REMARK SMILES IDX 41 84 43 85 42 86 16 87 17 88 18 90 19 91 38 92 20 93 37 94
REMARK SMILES IDX 21 95 22 96 23 97 24 98 25 99 26 101 27 102 28 103 36 104
REMARK SMILES IDX 29 105 35 106 30 109 34 110 31 111 33 112 32 113
REMARK H PARENT 101 27 69 38 16 89 24 100 36 107 36 108
REMARK Flexibility Score: inf
ROOT
ATOM      1  O   UNL A   1      37.715  22.078  25.121  1.00  0.00    -0.376 OA
ENDROOT
BRANCH   1   2
ATOM      2  C   UNL A   1      38.957  22.348  25.760  1.00  0.00     0.188 C 
BRANCH   2   3
ATOM      3  C   UNL A   1      39.604  21.196  26.518  1.00  0.00     0.188 C 
BRANCH   3   4
ATOM      4  O   UNL A   1      40.786  20.703  25.877  1.00  0.00    -0.376 OA
BRANCH   4   5
ATOM      5  C   UNL A   1      41.032  19.318  26.157  1.00  0.00     0.202 C 
BRANCH   5   6
ATOM      6  C   UNL A   1      42.507  18.886  26.059  1.00  0.00     0.261 C 
BRANCH   6   7
ATOM      7  O   UNL A   1      43.108  19.149  24.776  1.00  0.00    -0.460 OA
BRANCH   7   8
ATOM      8  C   UNL A   1      44.342  19.642  24.498  1.00  0.00     0.338 C 
ATOM      9  O   UNL A   1      45.126  18.961  23.844  1.00  0.00    -0.246 OA
BRANCH   8  10
ATOM     10  C   UNL A   1      44.765  21.017  24.896  1.00  0.00     0.060 A 
ATOM     11  C   UNL A   1      45.163  21.377  26.180  1.00  0.00     0.016 A 
ATOM     12  C   UNL A   1      44.792  22.009  23.911  1.00  0.00     0.016 A 
ATOM     13  C   UNL A   1      45.357  22.704  26.546  1.00  0.00     0.010 A 
ATOM     14  C   UNL A   1      45.117  23.331  24.247  1.00  0.00     0.010 A 
ATOM     15  C   UNL A   1      45.332  23.707  25.589  1.00  0.00    -0.014 A 
BRANCH  15  16
ATOM     16  C   UNL A   1      45.440  25.141  25.981  1.00  0.00     0.031 A 
ATOM     17  C   UNL A   1      46.800  25.739  26.135  1.00  0.00     0.074 A 
ATOM     18  C   UNL A   1      44.367  25.937  26.169  1.00  0.00     0.049 A 
ATOM     19  N   UNL A   1      47.118  26.937  26.545  1.00  0.00    -0.248 NA
ATOM     20  C   UNL A   1      47.948  24.917  25.715  1.00  0.00     0.031 C 
ATOM     21  C   UNL A   1      42.995  25.591  25.843  1.00  0.00     0.029 A 
ATOM     22  N   UNL A   1      44.242  27.172  26.780  1.00  0.00    -0.354 N 
ATOM     23  C   UNL A   1      48.485  27.032  26.369  1.00  0.00     0.074 A 
ATOM     24  C   UNL A   1      48.961  25.735  25.943  1.00  0.00     0.031 C 
ATOM     25  C   UNL A   1      42.182  26.481  26.427  1.00  0.00     0.029 A 
ATOM     26  C   UNL A   1      42.938  27.482  27.125  1.00  0.00     0.049 A 
ATOM     27  H   UNL A   1      45.004  27.770  26.952  1.00  0.00     0.167 HD
ATOM     28  C   UNL A   1      49.257  28.136  26.470  1.00  0.00     0.037 A 
ATOM     29  C   UNL A   1      42.413  28.445  27.915  1.00  0.00     0.037 A 
ATOM     30  C   UNL A   1      48.768  29.423  26.883  1.00  0.00     0.049 A 
ATOM     31  C   UNL A   1      43.332  29.573  28.223  1.00  0.00     0.074 A 
ATOM     32  C   UNL A   1      49.465  30.607  27.026  1.00  0.00     0.029 A 
ATOM     33  N   UNL A   1      47.451  29.688  27.229  1.00  0.00    -0.354 N 
ATOM     34  N   UNL A   1      44.600  29.683  27.935  1.00  0.00    -0.248 NA
ATOM     35  C   UNL A   1      42.715  30.767  28.804  1.00  0.00     0.031 C 
ATOM     36  C   UNL A   1      48.579  31.579  27.508  1.00  0.00     0.029 A 
ATOM     37  C   UNL A   1      47.326  31.008  27.631  1.00  0.00     0.049 A 
ATOM     38  H   UNL A   1      46.715  29.036  27.195  1.00  0.00     0.167 HD
ATOM     39  C   UNL A   1      44.914  30.997  28.201  1.00  0.00     0.074 A 
ATOM     40  C   UNL A   1      43.692  31.641  28.642  1.00  0.00     0.031 C 
ATOM     41  C   UNL A   1      46.107  31.620  28.080  1.00  0.00     0.037 A 
BRANCH  28  42
ATOM     42  C   UNL A   1      50.697  27.974  26.109  1.00  0.00     0.064 A 
ATOM     43  C   UNL A   1      51.124  28.019  24.772  1.00  0.00     0.173 A 
ATOM     44  C   UNL A   1      51.654  27.745  27.104  1.00  0.00     0.173 A 
ATOM     45  F   UNL A   1      50.235  28.195  23.783  1.00  0.00    -0.203 F 
ATOM     46  C   UNL A   1      52.461  27.819  24.445  1.00  0.00     0.198 A 
ATOM     47  C   UNL A   1      52.994  27.572  26.775  1.00  0.00     0.198 A 
ATOM     48  F   UNL A   1      51.286  27.674  28.392  1.00  0.00    -0.203 F 
ATOM     49  F   UNL A   1      52.841  27.811  23.159  1.00  0.00    -0.200 F 
ATOM     50  C   UNL A   1      53.396  27.603  25.446  1.00  0.00     0.200 A 
ATOM     51  F   UNL A   1      53.897  27.360  27.741  1.00  0.00    -0.200 F 
ATOM     52  F   UNL A   1      54.683  27.410  25.130  1.00  0.00    -0.200 F 
ENDBRANCH  28  42
BRANCH  29  53
ATOM     53  C   UNL A   1      40.981  28.534  28.352  1.00  0.00     0.064 A 
ATOM     54  C   UNL A   1      40.537  28.007  29.576  1.00  0.00     0.173 A 
ATOM     55  C   UNL A   1      39.992  29.042  27.500  1.00  0.00     0.173 A 
ATOM     56  F   UNL A   1      41.414  27.400  30.389  1.00  0.00    -0.203 F 
ATOM     57  C   UNL A   1      39.201  28.095  29.980  1.00  0.00     0.198 A 
ATOM     58  C   UNL A   1      38.659  29.163  27.910  1.00  0.00     0.198 A 
ATOM     59  F   UNL A   1      40.307  29.368  26.239  1.00  0.00    -0.203 F 
ATOM     60  F   UNL A   1      38.827  27.587  31.162  1.00  0.00    -0.200 F 
ATOM     61  C   UNL A   1      38.267  28.704  29.158  1.00  0.00     0.200 A 
ATOM     62  F   UNL A   1      37.756  29.711  27.086  1.00  0.00    -0.200 F 
ATOM     63  F   UNL A   1      36.988  28.808  29.546  1.00  0.00    -0.200 F 
ENDBRANCH  29  53
BRANCH  41  64
ATOM     64  C   UNL A   1      46.093  33.068  28.440  1.00  0.00     0.064 A 
ATOM     65  C   UNL A   1      46.253  33.479  29.773  1.00  0.00     0.173 A 
ATOM     66  C   UNL A   1      45.786  34.034  27.474  1.00  0.00     0.173 A 
ATOM     67  F   UNL A   1      46.498  32.574  30.734  1.00  0.00    -0.203 F 
ATOM     68  C   UNL A   1      46.028  34.799  30.138  1.00  0.00     0.198 A 
ATOM     69  C   UNL A   1      45.610  35.363  27.838  1.00  0.00     0.198 A 
ATOM     70  F   UNL A   1      45.610  33.679  26.193  1.00  0.00    -0.203 F 
ATOM     71  F   UNL A   1      46.058  35.146  31.431  1.00  0.00    -0.200 F 
ATOM     72  C   UNL A   1      45.710  35.740  29.169  1.00  0.00     0.200 A 
ATOM     73  F   UNL A   1      45.304  36.274  26.904  1.00  0.00    -0.200 F 
ATOM     74  F   UNL A   1      45.469  37.009  29.526  1.00  0.00    -0.200 F 
ENDBRANCH  41  64
ENDBRANCH  15  16
ENDBRANCH   8  10
ENDBRANCH   7   8
ENDBRANCH   6   7
ENDBRANCH   5   6
ENDBRANCH   4   5
ENDBRANCH   3   4
ENDBRANCH   2   3
ENDBRANCH   1   2
BRANCH   1  75
ATOM     75  C   UNL A   1      37.099  23.124  24.382  1.00  0.00     0.202 C 
BRANCH  75  76
ATOM     76  C   UNL A   1      35.675  22.892  23.860  1.00  0.00     0.261 C 
BRANCH  76  77
ATOM     77  O   UNL A   1      35.029  21.664  24.240  1.00  0.00    -0.461 OA
BRANCH  77  78
ATOM     78  C   UNL A   1      33.739  21.528  23.806  1.00  0.00     0.333 C 
ATOM     79  O   UNL A   1      33.265  22.098  22.825  1.00  0.00    -0.249 OA
BRANCH  78  80
ATOM     80  C   UNL A   1      32.917  20.613  24.742  1.00  0.00     0.223 C 
BRANCH  80  81
ATOM     81  C   UNL A   1      33.197  19.178  24.313  1.00  0.00    -0.014 A 
ATOM     82  C   UNL A   1      34.243  18.469  24.938  1.00  0.00     0.006 A 
ATOM     83  C   UNL A   1      32.510  18.550  23.265  1.00  0.00     0.006 A 
ATOM     84  C   UNL A   1      34.638  17.219  24.464  1.00  0.00     0.000 A 
ATOM     85  C   UNL A   1      32.950  17.331  22.751  1.00  0.00     0.000 A 
ATOM     86  C   UNL A   1      34.023  16.674  23.341  1.00  0.00     0.000 A 
ENDBRANCH  80  81
BRANCH  80  87
ATOM     87  N   UNL A   1      33.259  20.888  26.144  1.00  0.00    -0.339 N 
ATOM     88  C   UNL A   1      32.998  21.864  27.046  1.00  0.00     0.224 C 
ATOM     89  H   UNL A   1      33.824  20.178  26.529  1.00  0.00     0.164 HD
ATOM     90  O   UNL A   1      33.458  21.658  28.177  1.00  0.00    -0.275 OA
BRANCH  88  91
ATOM     91  C   UNL A   1      32.161  23.135  26.831  1.00  0.00     0.078 C 
ATOM     92  C   UNL A   1      32.914  24.412  26.500  1.00  0.00     0.014 C 
ATOM     93  C   UNL A   1      30.813  22.923  26.097  1.00  0.00     0.014 C 
ATOM     94  C   UNL A   1      31.966  25.434  25.903  1.00  0.00     0.006 C 
ATOM     95  C   UNL A   1      30.435  23.818  24.896  1.00  0.00     0.006 C 
ATOM     96  C   UNL A   1      31.411  24.951  24.561  1.00  0.00     0.008 C 
BRANCH  96  97
ATOM     97  C   UNL A   1      32.457  24.530  23.491  1.00  0.00     0.119 C 
BRANCH  97  98
ATOM     98  N   UNL A   1      32.496  25.388  22.298  1.00  0.00    -0.351 N 
ATOM     99  C   UNL A   1      33.078  26.596  22.003  1.00  0.00     0.278 C 
ATOM    100  H   UNL A   1      31.991  25.011  21.540  1.00  0.00     0.163 HD
ATOM    101  O   UNL A   1      33.393  26.734  20.811  1.00  0.00    -0.268 OA
BRANCH  99 102
ATOM    102  C   UNL A   1      33.130  27.858  22.940  1.00  0.00     0.277 C 
ATOM    103  C   UNL A   1      33.946  27.767  24.231  1.00  0.00     0.111 C 
ATOM    104  N   UNL A   1      31.740  28.303  23.053  1.00  0.00    -0.332 N 
ATOM    105  C   UNL A   1      33.583  28.817  25.259  1.00  0.00    -0.033 A 
ATOM    106  C   UNL A   1      31.368  29.235  24.102  1.00  0.00     0.298 C 
ATOM    107  H   UNL A   1      31.171  27.467  23.186  1.00  0.00     0.347 HD
ATOM    108  H   UNL A   1      31.591  28.836  22.197  1.00  0.00     0.347 HD
ATOM    109  C   UNL A   1      34.472  29.160  26.290  1.00  0.00     0.004 A 
ATOM    110  C   UNL A   1      32.317  29.409  25.244  1.00  0.00     0.010 A 
ATOM    111  C   UNL A   1      34.083  30.035  27.310  1.00  0.00     0.000 A 
ATOM    112  C   UNL A   1      31.915  30.246  26.303  1.00  0.00     0.010 A 
ATOM    113  C   UNL A   1      32.793  30.553  27.336  1.00  0.00     0.001 A 
ENDBRANCH  99 102
ENDBRANCH  97  98
ENDBRANCH  96  97
ENDBRANCH  88  91
ENDBRANCH  80  87
ENDBRANCH  78  80
ENDBRANCH  77  78
ENDBRANCH  76  77
ENDBRANCH  75  76
ENDBRANCH   1  75
TORSDOF 23
ENDMDL
