MODEL 1
REMARK VINA RESULT:     -12.0      0.000      0.000
REMARK SMILES O=C(OCCOCCOCCOC(=O)c1nccnc1C(=O)Nc1ccc(-n2cncn2)c(Cl)c1)c1ccc(-c2c3nc(c(-c4c(F)c(F)c(F)c(F)c4F)c4ccc([nH]4)c(-c4c(F)c(F)c(F)c(F)c4F)c4nc(c(-c5c(F)c(F)c(F)c(F)c5F)c5ccc2[nH]5)C=C4)C=C3)cc1
REMARK SMILES IDX 8 1 7 2 6 3 5 4 4 5 3 6 2 7 1 8 36 9 37 10 98 11 38 12 97 13
REMARK SMILES IDX 39 14 40 15 41 16 91 17 42 18 96 19 90 20 92 21 43 22 95 23
REMARK SMILES IDX 89 24 88 25 44 27 76 28 56 29 75 30 57 31 60 32 74 33 93 34
REMARK SMILES IDX 58 35 59 36 73 38 94 39 61 40 45 41 46 42 54 43 47 44 48 45
REMARK SMILES IDX 52 46 55 47 49 48 50 49 53 50 51 51 77 52 78 53 86 54 79 55
REMARK SMILES IDX 80 56 84 57 87 58 81 59 82 60 85 61 83 62 62 63 63 64 71 65
REMARK SMILES IDX 64 66 65 67 69 68 72 69 66 70 67 71 70 72 68 73 9 74 10 75
REMARK SMILES IDX 11 76 12 77 13 78 14 79 15 80 16 81 20 82 17 83 19 84 18 85
REMARK SMILES IDX 21 86 22 87 23 88 24 90 25 91 35 92 26 93 33 94 27 95 34 96
REMARK SMILES IDX 28 97 29 98 32 99 30 100 31 101
REMARK H PARENT 92 26 60 37 23 89
REMARK Flexibility Score: inf
ROOT
ATOM      1  C   UNL A   1      40.014  21.576  26.625  1.00  0.00     0.188 C 
ENDROOT
BRANCH   1   2
ATOM      2  C   UNL A   1      39.645  20.210  26.039  1.00  0.00     0.188 C 
BRANCH   2   3
ATOM      3  O   UNL A   1      40.707  19.311  25.716  1.00  0.00    -0.376 OA
BRANCH   3   4
ATOM      4  C   UNL A   1      41.815  19.187  26.606  1.00  0.00     0.202 C 
BRANCH   4   5
ATOM      5  C   UNL A   1      43.170  18.794  26.017  1.00  0.00     0.261 C 
BRANCH   5   6
ATOM      6  O   UNL A   1      43.332  19.259  24.667  1.00  0.00    -0.460 OA
BRANCH   6   7
ATOM      7  C   UNL A   1      44.292  20.043  24.134  1.00  0.00     0.338 C 
ATOM      8  O   UNL A   1      44.892  19.643  23.139  1.00  0.00    -0.246 OA
BRANCH   7   9
ATOM      9  C   UNL A   1      44.636  21.390  24.673  1.00  0.00     0.060 A 
ATOM     10  C   UNL A   1      45.626  21.668  25.619  1.00  0.00     0.016 A 
ATOM     11  C   UNL A   1      43.889  22.456  24.148  1.00  0.00     0.016 A 
ATOM     12  C   UNL A   1      45.617  22.864  26.290  1.00  0.00     0.010 A 
ATOM     13  C   UNL A   1      43.911  23.682  24.767  1.00  0.00     0.010 A 
ATOM     14  C   UNL A   1      44.680  23.814  25.914  1.00  0.00    -0.014 A 
BRANCH  14  15
ATOM     15  C   UNL A   1      44.591  25.003  26.722  1.00  0.00     0.031 A 
ATOM     16  C   UNL A   1      45.750  25.896  26.517  1.00  0.00     0.074 A 
ATOM     17  C   UNL A   1      43.526  25.172  27.527  1.00  0.00     0.049 A 
ATOM     18  N   UNL A   1      46.678  26.169  27.371  1.00  0.00    -0.248 NA
ATOM     19  C   UNL A   1      46.050  26.342  25.146  1.00  0.00     0.031 C 
ATOM     20  C   UNL A   1      42.317  24.342  27.590  1.00  0.00     0.029 A 
ATOM     21  N   UNL A   1      43.244  26.187  28.390  1.00  0.00    -0.354 N 
ATOM     22  C   UNL A   1      47.528  27.054  26.714  1.00  0.00     0.074 A 
ATOM     23  C   UNL A   1      47.238  26.924  25.314  1.00  0.00     0.031 C 
ATOM     24  C   UNL A   1      41.343  25.015  28.239  1.00  0.00     0.029 A 
ATOM     25  C   UNL A   1      41.892  26.255  28.744  1.00  0.00     0.049 A 
ATOM     26  H   UNL A   1      43.925  26.810  28.732  1.00  0.00     0.167 HD
ATOM     27  C   UNL A   1      48.083  28.074  27.424  1.00  0.00     0.037 A 
ATOM     28  C   UNL A   1      41.291  27.335  29.310  1.00  0.00     0.037 A 
ATOM     29  C   UNL A   1      48.149  27.720  28.828  1.00  0.00     0.049 A 
ATOM     30  C   UNL A   1      42.372  28.159  29.919  1.00  0.00     0.074 A 
ATOM     31  C   UNL A   1      48.725  26.690  29.549  1.00  0.00     0.029 A 
ATOM     32  N   UNL A   1      47.207  28.273  29.660  1.00  0.00    -0.354 N 
ATOM     33  N   UNL A   1      43.075  27.767  30.947  1.00  0.00    -0.248 NA
ATOM     34  C   UNL A   1      43.009  29.152  29.067  1.00  0.00     0.031 C 
ATOM     35  C   UNL A   1      47.795  26.394  30.592  1.00  0.00     0.029 A 
ATOM     36  C   UNL A   1      46.747  27.310  30.514  1.00  0.00     0.049 A 
ATOM     37  H   UNL A   1      46.911  29.212  29.643  1.00  0.00     0.167 HD
ATOM     38  C   UNL A   1      44.384  28.092  30.615  1.00  0.00     0.074 A 
ATOM     39  C   UNL A   1      44.272  29.000  29.474  1.00  0.00     0.031 C 
ATOM     40  C   UNL A   1      45.427  27.354  31.097  1.00  0.00     0.037 A 
BRANCH  27  41
ATOM     41  C   UNL A   1      48.007  29.523  26.961  1.00  0.00     0.064 A 
ATOM     42  C   UNL A   1      49.146  30.332  27.155  1.00  0.00     0.173 A 
ATOM     43  C   UNL A   1      46.813  30.231  26.689  1.00  0.00     0.173 A 
ATOM     44  F   UNL A   1      50.343  29.778  27.395  1.00  0.00    -0.203 F 
ATOM     45  C   UNL A   1      49.059  31.724  27.237  1.00  0.00     0.198 A 
ATOM     46  C   UNL A   1      46.739  31.620  26.733  1.00  0.00     0.198 A 
ATOM     47  F   UNL A   1      45.643  29.632  26.452  1.00  0.00    -0.203 F 
ATOM     48  F   UNL A   1      50.140  32.435  27.587  1.00  0.00    -0.200 F 
ATOM     49  C   UNL A   1      47.851  32.366  27.050  1.00  0.00     0.200 A 
ATOM     50  F   UNL A   1      45.554  32.220  26.551  1.00  0.00    -0.200 F 
ATOM     51  F   UNL A   1      47.747  33.690  27.211  1.00  0.00    -0.200 F 
ENDBRANCH  27  41
BRANCH  28  52
ATOM     52  C   UNL A   1      39.936  27.875  29.033  1.00  0.00     0.064 A 
ATOM     53  C   UNL A   1      38.980  27.986  30.057  1.00  0.00     0.173 A 
ATOM     54  C   UNL A   1      39.639  28.549  27.831  1.00  0.00     0.173 A 
ATOM     55  F   UNL A   1      39.203  27.419  31.251  1.00  0.00    -0.203 F 
ATOM     56  C   UNL A   1      37.814  28.744  29.896  1.00  0.00     0.198 A 
ATOM     57  C   UNL A   1      38.472  29.297  27.669  1.00  0.00     0.198 A 
ATOM     58  F   UNL A   1      40.518  28.579  26.819  1.00  0.00    -0.203 F 
ATOM     59  F   UNL A   1      36.957  28.879  30.920  1.00  0.00    -0.200 F 
ATOM     60  C   UNL A   1      37.565  29.407  28.706  1.00  0.00     0.200 A 
ATOM     61  F   UNL A   1      38.264  29.963  26.524  1.00  0.00    -0.200 F 
ATOM     62  F   UNL A   1      36.481  30.182  28.572  1.00  0.00    -0.200 F 
ENDBRANCH  28  52
BRANCH  40  63
ATOM     63  C   UNL A   1      45.140  26.382  32.205  1.00  0.00     0.064 A 
ATOM     64  C   UNL A   1      45.121  26.714  33.572  1.00  0.00     0.173 A 
ATOM     65  C   UNL A   1      44.753  25.083  31.852  1.00  0.00     0.173 A 
ATOM     66  F   UNL A   1      45.373  27.965  33.980  1.00  0.00    -0.203 F 
ATOM     67  C   UNL A   1      44.788  25.766  34.538  1.00  0.00     0.198 A 
ATOM     68  C   UNL A   1      44.381  24.152  32.815  1.00  0.00     0.198 A 
ATOM     69  F   UNL A   1      44.694  24.729  30.558  1.00  0.00    -0.203 F 
ATOM     70  F   UNL A   1      44.796  26.098  35.838  1.00  0.00    -0.200 F 
ATOM     71  C   UNL A   1      44.415  24.487  34.159  1.00  0.00     0.200 A 
ATOM     72  F   UNL A   1      43.970  22.934  32.437  1.00  0.00    -0.200 F 
ATOM     73  F   UNL A   1      44.060  23.585  35.084  1.00  0.00    -0.200 F 
ENDBRANCH  40  63
ENDBRANCH  14  15
ENDBRANCH   7   9
ENDBRANCH   6   7
ENDBRANCH   5   6
ENDBRANCH   4   5
ENDBRANCH   3   4
ENDBRANCH   2   3
ENDBRANCH   1   2
BRANCH   1  74
ATOM     74  O   UNL A   1      39.265  22.691  26.166  1.00  0.00    -0.376 OA
BRANCH  74  75
ATOM     75  C   UNL A   1      37.908  22.471  25.830  1.00  0.00     0.202 C 
BRANCH  75  76
ATOM     76  C   UNL A   1      37.043  23.715  26.026  1.00  0.00     0.261 C 
BRANCH  76  77
ATOM     77  O   UNL A   1      35.718  23.346  26.462  1.00  0.00    -0.458 OA
BRANCH  77  78
ATOM     78  C   UNL A   1      34.695  23.919  25.807  1.00  0.00     0.359 C 
ATOM     79  O   UNL A   1      34.576  25.109  25.604  1.00  0.00    -0.244 OA
BRANCH  78  80
ATOM     80  C   UNL A   1      33.678  22.917  25.366  1.00  0.00     0.179 A 
ATOM     81  N   UNL A   1      34.242  22.030  24.475  1.00  0.00    -0.245 NA
ATOM     82  C   UNL A   1      32.362  22.758  25.797  1.00  0.00     0.161 A 
ATOM     83  C   UNL A   1      33.465  21.040  23.998  1.00  0.00     0.132 A 
ATOM     84  N   UNL A   1      31.595  21.725  25.296  1.00  0.00    -0.247 NA
ATOM     85  C   UNL A   1      32.159  20.894  24.395  1.00  0.00     0.132 A 
BRANCH  82  86
ATOM     86  C   UNL A   1      31.498  23.640  26.634  1.00  0.00     0.276 C 
ATOM     87  O   UNL A   1      30.995  23.106  27.634  1.00  0.00    -0.267 OA
ATOM     88  N   UNL A   1      31.306  25.007  26.525  1.00  0.00    -0.321 N 
ATOM     89  H   UNL A   1      31.163  25.453  27.391  1.00  0.00     0.170 HD
BRANCH  88  90
ATOM     90  C   UNL A   1      31.272  25.883  25.430  1.00  0.00     0.043 A 
ATOM     91  C   UNL A   1      30.525  25.649  24.293  1.00  0.00     0.028 A 
ATOM     92  C   UNL A   1      31.856  27.152  25.615  1.00  0.00     0.049 A 
ATOM     93  C   UNL A   1      30.100  26.722  23.515  1.00  0.00     0.032 A 
ATOM     94  C   UNL A   1      31.444  28.241  24.833  1.00  0.00     0.068 A 
ATOM     95  C   UNL A   1      30.510  28.027  23.822  1.00  0.00     0.085 A 
ATOM     96  Cl  UNL A   1      32.124  29.793  25.158  1.00  0.00    -0.082 Cl
BRANCH  95  97
ATOM     97  N   UNL A   1      29.821  29.076  23.179  1.00  0.00    -0.220 N 
ATOM     98  C   UNL A   1      30.188  29.658  21.988  1.00  0.00     0.226 A 
ATOM     99  N   UNL A   1      28.480  29.224  23.340  1.00  0.00    -0.155 NA
ATOM    100  N   UNL A   1      29.135  30.070  21.326  1.00  0.00    -0.223 NA
ATOM    101  C   UNL A   1      28.114  29.749  22.168  1.00  0.00     0.246 A 
ENDBRANCH  95  97
ENDBRANCH  88  90
ENDBRANCH  82  86
ENDBRANCH  78  80
ENDBRANCH  77  78
ENDBRANCH  76  77
ENDBRANCH  75  76
ENDBRANCH  74  75
ENDBRANCH   1  74
TORSDOF 20
ENDMDL
MODEL 2
REMARK VINA RESULT:     -11.6      1.942      4.164
REMARK SMILES O=C(OCCOCCOCCOC(=O)c1nccnc1C(=O)Nc1ccc(-n2cncn2)c(Cl)c1)c1ccc(-c2c3nc(c(-c4c(F)c(F)c(F)c(F)c4F)c4ccc([nH]4)c(-c4c(F)c(F)c(F)c(F)c4F)c4nc(c(-c5c(F)c(F)c(F)c(F)c5F)c5ccc2[nH]5)C=C4)C=C3)cc1
REMARK SMILES IDX 8 1 7 2 6 3 5 4 4 5 3 6 2 7 1 8 36 9 37 10 98 11 38 12 97 13
REMARK SMILES IDX 39 14 40 15 41 16 91 17 42 18 96 19 90 20 92 21 43 22 95 23
REMARK SMILES IDX 89 24 88 25 44 27 76 28 56 29 75 30 57 31 60 32 74 33 93 34
REMARK SMILES IDX 58 35 59 36 73 38 94 39 61 40 45 41 46 42 54 43 47 44 48 45
REMARK SMILES IDX 52 46 55 47 49 48 50 49 53 50 51 51 77 52 78 53 86 54 79 55
REMARK SMILES IDX 80 56 84 57 87 58 81 59 82 60 85 61 83 62 62 63 63 64 71 65
REMARK SMILES IDX 64 66 65 67 69 68 72 69 66 70 67 71 70 72 68 73 9 74 10 75
REMARK SMILES IDX 11 76 12 77 13 78 14 79 15 80 16 81 20 82 17 83 19 84 18 85
REMARK SMILES IDX 21 86 22 87 23 88 24 90 25 91 35 92 26 93 33 94 27 95 34 96
REMARK SMILES IDX 28 97 29 98 32 99 30 100 31 101
REMARK H PARENT 92 26 60 37 23 89
REMARK Flexibility Score: inf
ROOT
ATOM      1  C   UNL A   1      39.020  21.838  25.950  1.00  0.00     0.188 C 
ENDROOT
BRANCH   1   2
ATOM      2  C   UNL A   1      40.363  21.405  26.543  1.00  0.00     0.188 C 
BRANCH   2   3
ATOM      3  O   UNL A   1      40.707  20.019  26.481  1.00  0.00    -0.376 OA
BRANCH   3   4
ATOM      4  C   UNL A   1      41.880  19.558  27.150  1.00  0.00     0.202 C 
BRANCH   4   5
ATOM      5  C   UNL A   1      42.898  18.752  26.343  1.00  0.00     0.261 C 
BRANCH   5   6
ATOM      6  O   UNL A   1      43.060  19.260  25.009  1.00  0.00    -0.460 OA
BRANCH   6   7
ATOM      7  C   UNL A   1      44.057  20.004  24.485  1.00  0.00     0.338 C 
ATOM      8  O   UNL A   1      44.714  19.536  23.558  1.00  0.00    -0.246 OA
BRANCH   7   9
ATOM      9  C   UNL A   1      44.376  21.383  24.953  1.00  0.00     0.060 A 
ATOM     10  C   UNL A   1      45.431  21.740  25.797  1.00  0.00     0.016 A 
ATOM     11  C   UNL A   1      43.530  22.393  24.468  1.00  0.00     0.016 A 
ATOM     12  C   UNL A   1      45.419  22.956  26.432  1.00  0.00     0.010 A 
ATOM     13  C   UNL A   1      43.544  23.639  25.048  1.00  0.00     0.010 A 
ATOM     14  C   UNL A   1      44.404  23.845  26.117  1.00  0.00    -0.014 A 
BRANCH  14  15
ATOM     15  C   UNL A   1      44.325  25.054  26.895  1.00  0.00     0.031 A 
ATOM     16  C   UNL A   1      45.476  25.946  26.646  1.00  0.00     0.074 A 
ATOM     17  C   UNL A   1      43.274  25.239  27.717  1.00  0.00     0.049 A 
ATOM     18  N   UNL A   1      46.419  26.245  27.475  1.00  0.00    -0.248 NA
ATOM     19  C   UNL A   1      45.747  26.359  25.259  1.00  0.00     0.031 C 
ATOM     20  C   UNL A   1      42.071  24.407  27.824  1.00  0.00     0.029 A 
ATOM     21  N   UNL A   1      43.005  26.275  28.559  1.00  0.00    -0.354 N 
ATOM     22  C   UNL A   1      47.252  27.116  26.779  1.00  0.00     0.074 A 
ATOM     23  C   UNL A   1      46.936  26.949  25.388  1.00  0.00     0.031 C 
ATOM     24  C   UNL A   1      41.106  25.092  28.474  1.00  0.00     0.029 A 
ATOM     25  C   UNL A   1      41.660  26.347  28.937  1.00  0.00     0.049 A 
ATOM     26  H   UNL A   1      43.689  26.909  28.872  1.00  0.00     0.167 HD
ATOM     27  C   UNL A   1      47.816  28.156  27.453  1.00  0.00     0.037 A 
ATOM     28  C   UNL A   1      41.065  27.438  29.487  1.00  0.00     0.037 A 
ATOM     29  C   UNL A   1      47.911  27.838  28.864  1.00  0.00     0.049 A 
ATOM     30  C   UNL A   1      42.153  28.281  30.054  1.00  0.00     0.074 A 
ATOM     31  C   UNL A   1      48.505  26.829  29.598  1.00  0.00     0.029 A 
ATOM     32  N   UNL A   1      46.982  28.408  29.699  1.00  0.00    -0.354 N 
ATOM     33  N   UNL A   1      42.879  27.919  31.078  1.00  0.00    -0.248 NA
ATOM     34  C   UNL A   1      42.770  29.255  29.165  1.00  0.00     0.031 C 
ATOM     35  C   UNL A   1      47.596  26.556  30.667  1.00  0.00     0.029 A 
ATOM     36  C   UNL A   1      46.543  27.465  30.586  1.00  0.00     0.049 A 
ATOM     37  H   UNL A   1      46.682  29.345  29.664  1.00  0.00     0.167 HD
ATOM     38  C   UNL A   1      44.179  28.240  30.713  1.00  0.00     0.074 A 
ATOM     39  C   UNL A   1      44.041  29.118  29.551  1.00  0.00     0.031 C 
ATOM     40  C   UNL A   1      45.235  27.519  31.193  1.00  0.00     0.037 A 
BRANCH  27  41
ATOM     41  C   UNL A   1      47.725  29.592  26.955  1.00  0.00     0.064 A 
ATOM     42  C   UNL A   1      48.858  30.416  27.123  1.00  0.00     0.173 A 
ATOM     43  C   UNL A   1      46.523  30.283  26.671  1.00  0.00     0.173 A 
ATOM     44  F   UNL A   1      50.061  29.878  27.370  1.00  0.00    -0.203 F 
ATOM     45  C   UNL A   1      48.759  31.809  27.171  1.00  0.00     0.198 A 
ATOM     46  C   UNL A   1      46.436  31.672  26.682  1.00  0.00     0.198 A 
ATOM     47  F   UNL A   1      45.357  29.668  26.456  1.00  0.00    -0.203 F 
ATOM     48  F   UNL A   1      49.835  32.537  27.498  1.00  0.00    -0.200 F 
ATOM     49  C   UNL A   1      47.544  32.435  26.974  1.00  0.00     0.200 A 
ATOM     50  F   UNL A   1      45.246  32.257  26.492  1.00  0.00    -0.200 F 
ATOM     51  F   UNL A   1      47.429  33.762  27.103  1.00  0.00    -0.200 F 
ENDBRANCH  27  41
BRANCH  28  52
ATOM     52  C   UNL A   1      39.702  27.966  29.223  1.00  0.00     0.064 A 
ATOM     53  C   UNL A   1      38.765  28.095  30.261  1.00  0.00     0.173 A 
ATOM     54  C   UNL A   1      39.380  28.611  28.012  1.00  0.00     0.173 A 
ATOM     55  F   UNL A   1      39.012  27.556  31.464  1.00  0.00    -0.203 F 
ATOM     56  C   UNL A   1      37.592  28.844  30.105  1.00  0.00     0.198 A 
ATOM     57  C   UNL A   1      38.207  29.350  27.854  1.00  0.00     0.198 A 
ATOM     58  F   UNL A   1      40.240  28.622  26.984  1.00  0.00    -0.203 F 
ATOM     59  F   UNL A   1      36.753  28.998  31.141  1.00  0.00    -0.200 F 
ATOM     60  C   UNL A   1      37.319  29.478  28.905  1.00  0.00     0.200 A 
ATOM     61  F   UNL A   1      37.975  29.989  26.699  1.00  0.00    -0.200 F 
ATOM     62  F   UNL A   1      36.228  30.245  28.773  1.00  0.00    -0.200 F 
ENDBRANCH  28  52
BRANCH  40  63
ATOM     63  C   UNL A   1      44.973  26.574  32.331  1.00  0.00     0.064 A 
ATOM     64  C   UNL A   1      44.909  26.954  33.684  1.00  0.00     0.173 A 
ATOM     65  C   UNL A   1      44.660  25.245  32.018  1.00  0.00     0.173 A 
ATOM     66  F   UNL A   1      45.089  28.229  34.050  1.00  0.00    -0.203 F 
ATOM     67  C   UNL A   1      44.603  26.025  34.678  1.00  0.00     0.198 A 
ATOM     68  C   UNL A   1      44.314  24.332  33.008  1.00  0.00     0.198 A 
ATOM     69  F   UNL A   1      44.645  24.842  30.738  1.00  0.00    -0.203 F 
ATOM     70  F   UNL A   1      44.567  26.404  35.965  1.00  0.00    -0.200 F 
ATOM     71  C   UNL A   1      44.303  24.717  34.339  1.00  0.00     0.200 A 
ATOM     72  F   UNL A   1      43.972  23.081  32.668  1.00  0.00    -0.200 F 
ATOM     73  F   UNL A   1      43.974  23.831  35.290  1.00  0.00    -0.200 F 
ENDBRANCH  40  63
ENDBRANCH  14  15
ENDBRANCH   7   9
ENDBRANCH   6   7
ENDBRANCH   5   6
ENDBRANCH   4   5
ENDBRANCH   3   4
ENDBRANCH   2   3
ENDBRANCH   1   2
BRANCH   1  74
ATOM     74  O   UNL A   1      38.642  23.192  26.149  1.00  0.00    -0.376 OA
BRANCH  74  75
ATOM     75  C   UNL A   1      37.392  23.603  25.627  1.00  0.00     0.202 C 
BRANCH  75  76
ATOM     76  C   UNL A   1      36.776  22.566  24.689  1.00  0.00     0.261 C 
BRANCH  76  77
ATOM     77  O   UNL A   1      35.337  22.656  24.711  1.00  0.00    -0.458 OA
BRANCH  77  78
ATOM     78  C   UNL A   1      34.797  23.325  25.744  1.00  0.00     0.359 C 
ATOM     79  O   UNL A   1      35.053  23.126  26.912  1.00  0.00    -0.244 OA
BRANCH  78  80
ATOM     80  C   UNL A   1      33.804  24.348  25.294  1.00  0.00     0.179 A 
ATOM     81  N   UNL A   1      34.453  25.409  24.702  1.00  0.00    -0.245 NA
ATOM     82  C   UNL A   1      32.412  24.293  25.337  1.00  0.00     0.161 A 
ATOM     83  C   UNL A   1      33.698  26.412  24.215  1.00  0.00     0.132 A 
ATOM     84  N   UNL A   1      31.668  25.333  24.817  1.00  0.00    -0.247 NA
ATOM     85  C   UNL A   1      32.328  26.379  24.279  1.00  0.00     0.132 A 
BRANCH  82  86
ATOM     86  C   UNL A   1      31.495  23.338  26.025  1.00  0.00     0.276 C 
ATOM     87  O   UNL A   1      30.680  23.847  26.810  1.00  0.00    -0.267 OA
ATOM     88  N   UNL A   1      31.336  21.983  25.792  1.00  0.00    -0.321 N 
ATOM     89  H   UNL A   1      30.414  21.667  25.930  1.00  0.00     0.170 HD
BRANCH  88  90
ATOM     90  C   UNL A   1      32.223  20.969  25.400  1.00  0.00     0.043 A 
ATOM     91  C   UNL A   1      33.052  20.303  26.280  1.00  0.00     0.028 A 
ATOM     92  C   UNL A   1      32.082  20.477  24.087  1.00  0.00     0.049 A 
ATOM     93  C   UNL A   1      33.483  19.014  25.979  1.00  0.00     0.032 A 
ATOM     94  C   UNL A   1      32.519  19.182  23.767  1.00  0.00     0.068 A 
ATOM     95  C   UNL A   1      33.164  18.429  24.745  1.00  0.00     0.085 A 
ATOM     96  Cl  UNL A   1      32.244  18.592  22.169  1.00  0.00    -0.082 Cl
BRANCH  95  97
ATOM     97  N   UNL A   1      33.381  17.041  24.627  1.00  0.00    -0.220 N 
ATOM     98  C   UNL A   1      34.604  16.417  24.710  1.00  0.00     0.226 A 
ATOM     99  N   UNL A   1      32.416  16.156  24.988  1.00  0.00    -0.155 NA
ATOM    100  N   UNL A   1      34.479  15.213  25.214  1.00  0.00    -0.223 NA
ATOM    101  C   UNL A   1      33.135  15.112  25.406  1.00  0.00     0.246 A 
ENDBRANCH  95  97
ENDBRANCH  88  90
ENDBRANCH  82  86
ENDBRANCH  78  80
ENDBRANCH  77  78
ENDBRANCH  76  77
ENDBRANCH  75  76
ENDBRANCH  74  75
ENDBRANCH   1  74
TORSDOF 20
ENDMDL
MODEL 3
REMARK VINA RESULT:     -11.6      1.544      2.192
REMARK SMILES O=C(OCCOCCOCCOC(=O)c1nccnc1C(=O)Nc1ccc(-n2cncn2)c(Cl)c1)c1ccc(-c2c3nc(c(-c4c(F)c(F)c(F)c(F)c4F)c4ccc([nH]4)c(-c4c(F)c(F)c(F)c(F)c4F)c4nc(c(-c5c(F)c(F)c(F)c(F)c5F)c5ccc2[nH]5)C=C4)C=C3)cc1
REMARK SMILES IDX 8 1 7 2 6 3 5 4 4 5 3 6 2 7 1 8 36 9 37 10 98 11 38 12 97 13
REMARK SMILES IDX 39 14 40 15 41 16 91 17 42 18 96 19 90 20 92 21 43 22 95 23
REMARK SMILES IDX 89 24 88 25 44 27 76 28 56 29 75 30 57 31 60 32 74 33 93 34
REMARK SMILES IDX 58 35 59 36 73 38 94 39 61 40 45 41 46 42 54 43 47 44 48 45
REMARK SMILES IDX 52 46 55 47 49 48 50 49 53 50 51 51 77 52 78 53 86 54 79 55
REMARK SMILES IDX 80 56 84 57 87 58 81 59 82 60 85 61 83 62 62 63 63 64 71 65
REMARK SMILES IDX 64 66 65 67 69 68 72 69 66 70 67 71 70 72 68 73 9 74 10 75
REMARK SMILES IDX 11 76 12 77 13 78 14 79 15 80 16 81 20 82 17 83 19 84 18 85
REMARK SMILES IDX 21 86 22 87 23 88 24 90 25 91 35 92 26 93 33 94 27 95 34 96
REMARK SMILES IDX 28 97 29 98 32 99 30 100 31 101
REMARK H PARENT 92 26 60 37 23 89
REMARK Flexibility Score: inf
ROOT
ATOM      1  C   UNL A   1      39.346  22.083  26.273  1.00  0.00     0.188 C 
ENDROOT
BRANCH   1   2
ATOM      2  C   UNL A   1      40.646  21.510  26.841  1.00  0.00     0.188 C 
BRANCH   2   3
ATOM      3  O   UNL A   1      41.351  20.543  26.058  1.00  0.00    -0.376 OA
BRANCH   3   4
ATOM      4  C   UNL A   1      42.189  19.591  26.710  1.00  0.00     0.202 C 
BRANCH   4   5
ATOM      5  C   UNL A   1      43.014  18.643  25.839  1.00  0.00     0.261 C 
BRANCH   5   6
ATOM      6  O   UNL A   1      44.259  19.230  25.426  1.00  0.00    -0.460 OA
BRANCH   6   7
ATOM      7  C   UNL A   1      44.492  20.246  24.570  1.00  0.00     0.338 C 
ATOM      8  O   UNL A   1      44.471  20.013  23.363  1.00  0.00    -0.246 OA
BRANCH   7   9
ATOM      9  C   UNL A   1      44.736  21.648  25.016  1.00  0.00     0.060 A 
ATOM     10  C   UNL A   1      45.779  22.076  25.841  1.00  0.00     0.016 A 
ATOM     11  C   UNL A   1      43.827  22.600  24.529  1.00  0.00     0.016 A 
ATOM     12  C   UNL A   1      45.703  23.298  26.461  1.00  0.00     0.010 A 
ATOM     13  C   UNL A   1      43.775  23.852  25.093  1.00  0.00     0.010 A 
ATOM     14  C   UNL A   1      44.635  24.122  26.148  1.00  0.00    -0.014 A 
BRANCH  14  15
ATOM     15  C   UNL A   1      44.495  25.334  26.912  1.00  0.00     0.031 A 
ATOM     16  C   UNL A   1      45.608  26.274  26.664  1.00  0.00     0.074 A 
ATOM     17  C   UNL A   1      43.429  25.482  27.722  1.00  0.00     0.049 A 
ATOM     18  N   UNL A   1      46.529  26.622  27.499  1.00  0.00    -0.248 NA
ATOM     19  C   UNL A   1      45.875  26.683  25.275  1.00  0.00     0.031 C 
ATOM     20  C   UNL A   1      42.262  24.599  27.827  1.00  0.00     0.029 A 
ATOM     21  N   UNL A   1      43.106  26.514  28.550  1.00  0.00    -0.354 N 
ATOM     22  C   UNL A   1      47.330  27.522  26.802  1.00  0.00     0.074 A 
ATOM     23  C   UNL A   1      47.036  27.326  25.410  1.00  0.00     0.031 C 
ATOM     24  C   UNL A   1      41.262  25.248  28.460  1.00  0.00     0.029 A 
ATOM     25  C   UNL A   1      41.756  26.531  28.914  1.00  0.00     0.049 A 
ATOM     26  H   UNL A   1      43.759  27.181  28.862  1.00  0.00     0.167 HD
ATOM     27  C   UNL A   1      47.841  28.592  27.469  1.00  0.00     0.037 A 
ATOM     28  C   UNL A   1      41.108  27.601  29.446  1.00  0.00     0.037 A 
ATOM     29  C   UNL A   1      47.936  28.294  28.884  1.00  0.00     0.049 A 
ATOM     30  C   UNL A   1      42.153  28.497  30.015  1.00  0.00     0.074 A 
ATOM     31  C   UNL A   1      48.566  27.320  29.635  1.00  0.00     0.029 A 
ATOM     32  N   UNL A   1      46.975  28.832  29.704  1.00  0.00    -0.354 N 
ATOM     33  N   UNL A   1      42.883  28.178  31.049  1.00  0.00    -0.248 NA
ATOM     34  C   UNL A   1      42.735  29.487  29.120  1.00  0.00     0.031 C 
ATOM     35  C   UNL A   1      47.660  27.019  30.698  1.00  0.00     0.029 A 
ATOM     36  C   UNL A   1      46.569  27.880  30.597  1.00  0.00     0.049 A 
ATOM     37  H   UNL A   1      46.634  29.755  29.656  1.00  0.00     0.167 HD
ATOM     38  C   UNL A   1      44.172  28.552  30.693  1.00  0.00     0.074 A 
ATOM     39  C   UNL A   1      44.007  29.411  29.520  1.00  0.00     0.031 C 
ATOM     40  C   UNL A   1      45.253  27.883  31.191  1.00  0.00     0.037 A 
BRANCH  27  41
ATOM     41  C   UNL A   1      47.693  30.018  26.954  1.00  0.00     0.064 A 
ATOM     42  C   UNL A   1      48.789  30.891  27.117  1.00  0.00     0.173 A 
ATOM     43  C   UNL A   1      46.464  30.654  26.657  1.00  0.00     0.173 A 
ATOM     44  F   UNL A   1      50.012  30.407  27.376  1.00  0.00    -0.203 F 
ATOM     45  C   UNL A   1      48.631  32.279  27.149  1.00  0.00     0.198 A 
ATOM     46  C   UNL A   1      46.319  32.039  26.652  1.00  0.00     0.198 A 
ATOM     47  F   UNL A   1      45.326  29.989  26.444  1.00  0.00    -0.203 F 
ATOM     48  F   UNL A   1      49.675  33.055  27.472  1.00  0.00    -0.200 F 
ATOM     49  C   UNL A   1      47.392  32.851  26.940  1.00  0.00     0.200 A 
ATOM     50  F   UNL A   1      45.106  32.571  26.450  1.00  0.00    -0.200 F 
ATOM     51  F   UNL A   1      47.221  34.173  27.053  1.00  0.00    -0.200 F 
ENDBRANCH  27  41
BRANCH  28  52
ATOM     52  C   UNL A   1      39.726  28.065  29.163  1.00  0.00     0.064 A 
ATOM     53  C   UNL A   1      38.764  28.132  30.185  1.00  0.00     0.173 A 
ATOM     54  C   UNL A   1      39.396  28.714  27.956  1.00  0.00     0.173 A 
ATOM     55  F   UNL A   1      39.015  27.586  31.384  1.00  0.00    -0.203 F 
ATOM     56  C   UNL A   1      37.559  28.825  30.017  1.00  0.00     0.198 A 
ATOM     57  C   UNL A   1      38.191  29.397  27.787  1.00  0.00     0.198 A 
ATOM     58  F   UNL A   1      40.274  28.784  26.946  1.00  0.00    -0.203 F 
ATOM     59  F   UNL A   1      36.694  28.921  31.038  1.00  0.00    -0.200 F 
ATOM     60  C   UNL A   1      37.278  29.464  28.821  1.00  0.00     0.200 A 
ATOM     61  F   UNL A   1      37.950  30.042  26.637  1.00  0.00    -0.200 F 
ATOM     62  F   UNL A   1      36.153  30.179  28.680  1.00  0.00    -0.200 F 
ENDBRANCH  28  52
BRANCH  40  63
ATOM     63  C   UNL A   1      45.021  26.940  32.337  1.00  0.00     0.064 A 
ATOM     64  C   UNL A   1      44.658  25.589  32.196  1.00  0.00     0.173 A 
ATOM     65  C   UNL A   1      45.294  27.403  33.630  1.00  0.00     0.173 A 
ATOM     66  F   UNL A   1      44.487  25.044  30.984  1.00  0.00    -0.203 F 
ATOM     67  C   UNL A   1      44.518  24.761  33.309  1.00  0.00     0.198 A 
ATOM     68  C   UNL A   1      45.193  26.564  34.735  1.00  0.00     0.198 A 
ATOM     69  F   UNL A   1      45.703  28.668  33.818  1.00  0.00    -0.203 F 
ATOM     70  F   UNL A   1      44.150  23.480  33.154  1.00  0.00    -0.200 F 
ATOM     71  C   UNL A   1      44.788  25.249  34.577  1.00  0.00     0.200 A 
ATOM     72  F   UNL A   1      45.509  27.029  35.952  1.00  0.00    -0.200 F 
ATOM     73  F   UNL A   1      44.689  24.446  35.645  1.00  0.00    -0.200 F 
ENDBRANCH  40  63
ENDBRANCH  14  15
ENDBRANCH   7   9
ENDBRANCH   6   7
ENDBRANCH   5   6
ENDBRANCH   4   5
ENDBRANCH   3   4
ENDBRANCH   2   3
ENDBRANCH   1   2
BRANCH   1  74
ATOM     74  O   UNL A   1      38.898  23.314  26.821  1.00  0.00    -0.376 OA
BRANCH  74  75
ATOM     75  C   UNL A   1      38.029  24.102  26.028  1.00  0.00     0.202 C 
BRANCH  75  76
ATOM     76  C   UNL A   1      36.606  23.548  25.984  1.00  0.00     0.261 C 
BRANCH  76  77
ATOM     77  O   UNL A   1      35.921  24.007  24.802  1.00  0.00    -0.458 OA
BRANCH  77  78
ATOM     78  C   UNL A   1      35.879  23.150  23.768  1.00  0.00     0.359 C 
ATOM     79  O   UNL A   1      36.710  23.079  22.888  1.00  0.00    -0.244 OA
BRANCH  78  80
ATOM     80  C   UNL A   1      34.658  22.289  23.800  1.00  0.00     0.179 A 
ATOM     81  N   UNL A   1      34.883  21.176  24.582  1.00  0.00    -0.245 NA
ATOM     82  C   UNL A   1      33.404  22.526  23.238  1.00  0.00     0.161 A 
ATOM     83  C   UNL A   1      33.869  20.305  24.740  1.00  0.00     0.132 A 
ATOM     84  N   UNL A   1      32.383  21.617  23.429  1.00  0.00    -0.247 NA
ATOM     85  C   UNL A   1      32.641  20.517  24.165  1.00  0.00     0.132 A 
BRANCH  82  86
ATOM     86  C   UNL A   1      32.954  23.564  22.266  1.00  0.00     0.276 C 
ATOM     87  O   UNL A   1      33.310  23.389  21.090  1.00  0.00    -0.267 OA
ATOM     88  N   UNL A   1      32.072  24.610  22.474  1.00  0.00    -0.321 N 
ATOM     89  H   UNL A   1      31.529  24.830  21.683  1.00  0.00     0.170 HD
BRANCH  88  90
ATOM     90  C   UNL A   1      31.795  25.420  23.586  1.00  0.00     0.043 A 
ATOM     91  C   UNL A   1      32.205  25.115  24.868  1.00  0.00     0.028 A 
ATOM     92  C   UNL A   1      31.271  26.701  23.322  1.00  0.00     0.049 A 
ATOM     93  C   UNL A   1      32.390  26.139  25.794  1.00  0.00     0.032 A 
ATOM     94  C   UNL A   1      31.442  27.741  24.249  1.00  0.00     0.068 A 
ATOM     95  C   UNL A   1      32.066  27.463  25.463  1.00  0.00     0.085 A 
ATOM     96  Cl  UNL A   1      30.861  29.313  23.840  1.00  0.00    -0.082 Cl
BRANCH  95  97
ATOM     97  N   UNL A   1      32.542  28.467  26.329  1.00  0.00    -0.220 N 
ATOM     98  C   UNL A   1      33.694  29.197  26.147  1.00  0.00     0.226 A 
ATOM     99  N   UNL A   1      31.679  29.200  27.081  1.00  0.00    -0.155 NA
ATOM    100  N   UNL A   1      33.567  30.402  26.647  1.00  0.00    -0.223 NA
ATOM    101  C   UNL A   1      32.310  30.373  27.169  1.00  0.00     0.246 A 
ENDBRANCH  95  97
ENDBRANCH  88  90
ENDBRANCH  82  86
ENDBRANCH  78  80
ENDBRANCH  77  78
ENDBRANCH  76  77
ENDBRANCH  75  76
ENDBRANCH  74  75
ENDBRANCH   1  74
TORSDOF 20
ENDMDL
