MODEL 1
REMARK VINA RESULT:     -10.4      0.000      0.000
REMARK SMILES O=C(OCCOCCOCCOC(=O)[C@@H]1C[C@@H]2CC(=O)[C@H]1C2)c1ccc(-c2c3nc(c(-c4c(F)c(F)c(F)c(F)c4F)c4ccc([nH]4)c(-c4c(F)c(F)c(F)c(F)c4F)c4nc(c(-c5c(F)c(F)c(F)c(F)c5F)c5ccc2[nH]5)C=C4)C=C3)cc1
REMARK SMILES IDX 7 1 6 2 5 3 4 4 3 5 2 6 1 7 23 8 24 9 85 10 25 11 84 12
REMARK SMILES IDX 26 13 27 14 28 15 78 16 29 17 83 18 77 19 79 20 30 21 82 22
REMARK SMILES IDX 76 23 75 24 31 26 63 27 43 28 62 29 44 30 47 31 61 32 80 33
REMARK SMILES IDX 45 34 46 35 60 37 81 38 48 39 32 40 33 41 41 42 34 43 35 44
REMARK SMILES IDX 39 45 42 46 36 47 37 48 40 49 38 50 64 51 65 52 73 53 66 54
REMARK SMILES IDX 67 55 71 56 74 57 68 58 69 59 72 60 70 61 49 62 50 63 58 64
REMARK SMILES IDX 51 65 52 66 56 67 59 68 53 69 54 70 57 71 55 72 8 73 9 74
REMARK SMILES IDX 10 75 11 76 12 77 13 78 14 79 15 80 16 81 21 82 17 83 19 84
REMARK SMILES IDX 22 85 18 86 20 87
REMARK H PARENT 79 25 47 36
REMARK Flexibility Score: inf
ROOT
ATOM      1  C   UNL A   1      43.856  19.121  25.411  1.00  0.00     0.188 C 
ENDROOT
BRANCH   1   2
ATOM      2  O   UNL A   1      43.974  19.994  24.282  1.00  0.00    -0.376 OA
BRANCH   2   3
ATOM      3  C   UNL A   1      44.797  21.137  24.554  1.00  0.00     0.202 C 
BRANCH   3   4
ATOM      4  C   UNL A   1      44.556  22.357  23.636  1.00  0.00     0.261 C 
BRANCH   4   5
ATOM      5  O   UNL A   1      43.913  23.475  24.282  1.00  0.00    -0.460 OA
BRANCH   5   6
ATOM      6  C   UNL A   1      44.450  24.515  24.969  1.00  0.00     0.338 C 
ATOM      7  O   UNL A   1      45.611  24.842  24.729  1.00  0.00    -0.246 OA
BRANCH   6   8
ATOM      8  C   UNL A   1      43.726  25.283  26.031  1.00  0.00     0.060 A 
ATOM      9  C   UNL A   1      43.980  26.611  26.352  1.00  0.00     0.016 A 
ATOM     10  C   UNL A   1      42.686  24.634  26.727  1.00  0.00     0.016 A 
ATOM     11  C   UNL A   1      43.305  27.262  27.364  1.00  0.00     0.010 A 
ATOM     12  C   UNL A   1      41.960  25.297  27.728  1.00  0.00     0.010 A 
ATOM     13  C   UNL A   1      42.295  26.612  28.063  1.00  0.00    -0.014 A 
BRANCH  13  14
ATOM     14  C   UNL A   1      41.755  27.339  29.224  1.00  0.00     0.031 A 
ATOM     15  C   UNL A   1      42.541  27.306  30.493  1.00  0.00     0.074 A 
ATOM     16  C   UNL A   1      40.741  28.206  29.049  1.00  0.00     0.049 A 
ATOM     17  N   UNL A   1      42.347  27.974  31.597  1.00  0.00    -0.248 NA
ATOM     18  C   UNL A   1      43.747  26.459  30.500  1.00  0.00     0.031 C 
ATOM     19  C   UNL A   1      40.076  28.456  27.774  1.00  0.00     0.029 A 
ATOM     20  N   UNL A   1      40.121  29.069  29.909  1.00  0.00    -0.354 N 
ATOM     21  C   UNL A   1      43.418  27.652  32.415  1.00  0.00     0.074 A 
ATOM     22  C   UNL A   1      44.239  26.700  31.705  1.00  0.00     0.031 C 
ATOM     23  C   UNL A   1      39.100  29.359  27.937  1.00  0.00     0.029 A 
ATOM     24  C   UNL A   1      39.077  29.755  29.335  1.00  0.00     0.049 A 
ATOM     25  H   UNL A   1      40.395  29.187  30.847  1.00  0.00     0.167 HD
ATOM     26  C   UNL A   1      43.692  28.136  33.646  1.00  0.00     0.037 A 
ATOM     27  C   UNL A   1      38.197  30.605  29.891  1.00  0.00     0.037 A 
ATOM     28  C   UNL A   1      42.837  29.062  34.335  1.00  0.00     0.049 A 
ATOM     29  C   UNL A   1      38.422  30.979  31.328  1.00  0.00     0.074 A 
ATOM     30  C   UNL A   1      42.941  29.543  35.625  1.00  0.00     0.029 A 
ATOM     31  N   UNL A   1      41.702  29.641  33.778  1.00  0.00    -0.354 N 
ATOM     32  N   UNL A   1      39.401  30.622  32.126  1.00  0.00    -0.248 NA
ATOM     33  C   UNL A   1      37.445  31.885  31.938  1.00  0.00     0.031 C 
ATOM     34  C   UNL A   1      41.840  30.370  35.867  1.00  0.00     0.029 A 
ATOM     35  C   UNL A   1      41.082  30.457  34.709  1.00  0.00     0.049 A 
ATOM     36  H   UNL A   1      41.387  29.494  32.857  1.00  0.00     0.167 HD
ATOM     37  C   UNL A   1      39.177  31.281  33.323  1.00  0.00     0.074 A 
ATOM     38  C   UNL A   1      37.981  32.081  33.132  1.00  0.00     0.031 C 
ATOM     39  C   UNL A   1      39.887  31.231  34.477  1.00  0.00     0.037 A 
BRANCH  26  40
ATOM     40  C   UNL A   1      44.921  27.611  34.326  1.00  0.00     0.064 A 
ATOM     41  C   UNL A   1      44.895  26.447  35.109  1.00  0.00     0.173 A 
ATOM     42  C   UNL A   1      46.135  28.302  34.216  1.00  0.00     0.173 A 
ATOM     43  F   UNL A   1      43.749  25.771  35.278  1.00  0.00    -0.203 F 
ATOM     44  C   UNL A   1      46.038  26.005  35.772  1.00  0.00     0.198 A 
ATOM     45  C   UNL A   1      47.282  27.843  34.858  1.00  0.00     0.198 A 
ATOM     46  F   UNL A   1      46.208  29.430  33.494  1.00  0.00    -0.203 F 
ATOM     47  F   UNL A   1      45.978  24.921  36.559  1.00  0.00    -0.200 F 
ATOM     48  C   UNL A   1      47.231  26.700  35.640  1.00  0.00     0.200 A 
ATOM     49  F   UNL A   1      48.434  28.516  34.730  1.00  0.00    -0.200 F 
ATOM     50  F   UNL A   1      48.329  26.276  36.281  1.00  0.00    -0.200 F 
ENDBRANCH  26  40
BRANCH  27  51
ATOM     51  C   UNL A   1      37.030  31.107  29.117  1.00  0.00     0.064 A 
ATOM     52  C   UNL A   1      36.956  32.427  28.654  1.00  0.00     0.173 A 
ATOM     53  C   UNL A   1      35.927  30.272  28.866  1.00  0.00     0.173 A 
ATOM     54  F   UNL A   1      37.977  33.271  28.870  1.00  0.00    -0.203 F 
ATOM     55  C   UNL A   1      35.812  32.905  28.014  1.00  0.00     0.198 A 
ATOM     56  C   UNL A   1      34.798  30.741  28.197  1.00  0.00     0.198 A 
ATOM     57  F   UNL A   1      35.944  28.994  29.275  1.00  0.00    -0.203 F 
ATOM     58  F   UNL A   1      35.743  34.191  27.643  1.00  0.00    -0.200 F 
ATOM     59  C   UNL A   1      34.734  32.062  27.786  1.00  0.00     0.200 A 
ATOM     60  F   UNL A   1      33.769  29.914  27.965  1.00  0.00    -0.200 F 
ATOM     61  F   UNL A   1      33.632  32.526  27.183  1.00  0.00    -0.200 F 
ENDBRANCH  27  51
BRANCH  39  62
ATOM     62  C   UNL A   1      39.388  32.086  35.602  1.00  0.00     0.064 A 
ATOM     63  C   UNL A   1      38.491  31.590  36.560  1.00  0.00     0.173 A 
ATOM     64  C   UNL A   1      39.825  33.414  35.728  1.00  0.00     0.173 A 
ATOM     65  F   UNL A   1      38.033  30.332  36.469  1.00  0.00    -0.203 F 
ATOM     66  C   UNL A   1      38.016  32.406  37.580  1.00  0.00     0.198 A 
ATOM     67  C   UNL A   1      39.379  34.214  36.775  1.00  0.00     0.198 A 
ATOM     68  F   UNL A   1      40.688  33.931  34.842  1.00  0.00    -0.203 F 
ATOM     69  F   UNL A   1      37.105  31.935  38.441  1.00  0.00    -0.200 F 
ATOM     70  C   UNL A   1      38.466  33.714  37.692  1.00  0.00     0.200 A 
ATOM     71  F   UNL A   1      39.829  35.470  36.892  1.00  0.00    -0.200 F 
ATOM     72  F   UNL A   1      38.011  34.498  38.678  1.00  0.00    -0.200 F 
ENDBRANCH  39  62
ENDBRANCH  13  14
ENDBRANCH   6   8
ENDBRANCH   5   6
ENDBRANCH   4   5
ENDBRANCH   3   4
ENDBRANCH   2   3
ENDBRANCH   1   2
BRANCH   1  73
ATOM     73  C   UNL A   1      42.811  19.531  26.447  1.00  0.00     0.188 C 
BRANCH  73  74
ATOM     74  O   UNL A   1      42.485  20.909  26.534  1.00  0.00    -0.376 OA
BRANCH  74  75
ATOM     75  C   UNL A   1      41.310  21.340  25.859  1.00  0.00     0.202 C 
BRANCH  75  76
ATOM     76  C   UNL A   1      39.999  21.495  26.654  1.00  0.00     0.261 C 
BRANCH  76  77
ATOM     77  O   UNL A   1      39.021  22.427  26.136  1.00  0.00    -0.463 OA
BRANCH  77  78
ATOM     78  C   UNL A   1      37.860  21.862  25.700  1.00  0.00     0.309 C 
ATOM     79  O   UNL A   1      37.792  20.828  25.047  1.00  0.00    -0.252 OA
BRANCH  78  80
ATOM     80  C   UNL A   1      36.618  22.681  25.997  1.00  0.00     0.110 C 
ATOM     81  C   UNL A   1      35.227  22.038  26.145  1.00  0.00     0.020 C 
ATOM     82  C   UNL A   1      36.353  23.772  24.949  1.00  0.00     0.070 C 
ATOM     83  C   UNL A   1      34.297  22.950  25.307  1.00  0.00    -0.002 C 
ATOM     84  C   UNL A   1      35.890  23.108  23.658  1.00  0.00     0.137 C 
ATOM     85  C   UNL A   1      34.998  24.309  25.417  1.00  0.00     0.016 C 
ATOM     86  C   UNL A   1      34.466  22.621  23.819  1.00  0.00     0.079 C 
ATOM     87  O   UNL A   1      36.563  22.956  22.658  1.00  0.00    -0.299 OA
ENDBRANCH  78  80
ENDBRANCH  77  78
ENDBRANCH  76  77
ENDBRANCH  75  76
ENDBRANCH  74  75
ENDBRANCH  73  74
ENDBRANCH   1  73
TORSDOF 17
ENDMDL
MODEL 2
REMARK VINA RESULT:     -10.4      3.902      9.091
REMARK SMILES O=C(OCCOCCOCCOC(=O)[C@@H]1C[C@@H]2CC(=O)[C@H]1C2)c1ccc(-c2c3nc(c(-c4c(F)c(F)c(F)c(F)c4F)c4ccc([nH]4)c(-c4c(F)c(F)c(F)c(F)c4F)c4nc(c(-c5c(F)c(F)c(F)c(F)c5F)c5ccc2[nH]5)C=C4)C=C3)cc1
REMARK SMILES IDX 7 1 6 2 5 3 4 4 3 5 2 6 1 7 23 8 24 9 85 10 25 11 84 12
REMARK SMILES IDX 26 13 27 14 28 15 78 16 29 17 83 18 77 19 79 20 30 21 82 22
REMARK SMILES IDX 76 23 75 24 31 26 63 27 43 28 62 29 44 30 47 31 61 32 80 33
REMARK SMILES IDX 45 34 46 35 60 37 81 38 48 39 32 40 33 41 41 42 34 43 35 44
REMARK SMILES IDX 39 45 42 46 36 47 37 48 40 49 38 50 64 51 65 52 73 53 66 54
REMARK SMILES IDX 67 55 71 56 74 57 68 58 69 59 72 60 70 61 49 62 50 63 58 64
REMARK SMILES IDX 51 65 52 66 56 67 59 68 53 69 54 70 57 71 55 72 8 73 9 74
REMARK SMILES IDX 10 75 11 76 12 77 13 78 14 79 15 80 16 81 21 82 17 83 19 84
REMARK SMILES IDX 22 85 18 86 20 87
REMARK H PARENT 79 25 47 36
REMARK Flexibility Score: inf
ROOT
ATOM      1  C   UNL A   1      32.987  30.088  27.102  1.00  0.00     0.188 C 
ENDROOT
BRANCH   1   2
ATOM      2  O   UNL A   1      31.640  30.370  26.709  1.00  0.00    -0.376 OA
BRANCH   2   3
ATOM      3  C   UNL A   1      31.382  31.776  26.598  1.00  0.00     0.202 C 
BRANCH   3   4
ATOM      4  C   UNL A   1      32.577  32.695  26.938  1.00  0.00     0.261 C 
BRANCH   4   5
ATOM      5  O   UNL A   1      32.229  33.884  27.677  1.00  0.00    -0.460 OA
BRANCH   5   6
ATOM      6  C   UNL A   1      32.954  34.602  28.571  1.00  0.00     0.338 C 
ATOM      7  O   UNL A   1      32.583  35.741  28.850  1.00  0.00    -0.246 OA
BRANCH   6   8
ATOM      8  C   UNL A   1      34.203  34.106  29.230  1.00  0.00     0.060 A 
ATOM      9  C   UNL A   1      35.491  34.438  28.826  1.00  0.00     0.016 A 
ATOM     10  C   UNL A   1      34.072  33.279  30.365  1.00  0.00     0.016 A 
ATOM     11  C   UNL A   1      36.610  33.925  29.450  1.00  0.00     0.010 A 
ATOM     12  C   UNL A   1      35.200  32.786  31.037  1.00  0.00     0.010 A 
ATOM     13  C   UNL A   1      36.476  33.093  30.554  1.00  0.00    -0.014 A 
BRANCH  13  14
ATOM     14  C   UNL A   1      37.721  32.474  31.039  1.00  0.00     0.031 A 
ATOM     15  C   UNL A   1      38.214  32.869  32.392  1.00  0.00     0.074 A 
ATOM     16  C   UNL A   1      38.224  31.406  30.392  1.00  0.00     0.049 A 
ATOM     17  N   UNL A   1      39.197  32.364  33.087  1.00  0.00    -0.248 NA
ATOM     18  C   UNL A   1      37.460  33.927  33.086  1.00  0.00     0.031 C 
ATOM     19  C   UNL A   1      37.650  30.824  29.183  1.00  0.00     0.029 A 
ATOM     20  N   UNL A   1      39.284  30.590  30.670  1.00  0.00    -0.354 N 
ATOM     21  C   UNL A   1      39.159  33.021  34.307  1.00  0.00     0.074 A 
ATOM     22  C   UNL A   1      38.088  33.989  34.249  1.00  0.00     0.031 C 
ATOM     23  C   UNL A   1      38.393  29.785  28.779  1.00  0.00     0.029 A 
ATOM     24  C   UNL A   1      39.496  29.626  29.712  1.00  0.00     0.049 A 
ATOM     25  H   UNL A   1      39.843  30.683  31.475  1.00  0.00     0.167 HD
ATOM     26  C   UNL A   1      39.946  32.809  35.384  1.00  0.00     0.037 A 
ATOM     27  C   UNL A   1      40.484  28.721  29.605  1.00  0.00     0.037 A 
ATOM     28  C   UNL A   1      41.022  31.857  35.396  1.00  0.00     0.049 A 
ATOM     29  C   UNL A   1      41.461  28.639  30.742  1.00  0.00     0.074 A 
ATOM     30  C   UNL A   1      41.961  31.623  36.381  1.00  0.00     0.029 A 
ATOM     31  N   UNL A   1      41.303  30.981  34.353  1.00  0.00    -0.354 N 
ATOM     32  N   UNL A   1      41.466  29.307  31.871  1.00  0.00    -0.248 NA
ATOM     33  C   UNL A   1      42.551  27.669  30.610  1.00  0.00     0.031 C 
ATOM     34  C   UNL A   1      42.844  30.645  35.911  1.00  0.00     0.029 A 
ATOM     35  C   UNL A   1      42.419  30.221  34.661  1.00  0.00     0.049 A 
ATOM     36  H   UNL A   1      40.784  30.911  33.519  1.00  0.00     0.167 HD
ATOM     37  C   UNL A   1      42.540  28.822  32.598  1.00  0.00     0.074 A 
ATOM     38  C   UNL A   1      43.145  27.780  31.788  1.00  0.00     0.031 C 
ATOM     39  C   UNL A   1      42.991  29.198  33.820  1.00  0.00     0.037 A 
BRANCH  26  40
ATOM     40  C   UNL A   1      39.702  33.670  36.586  1.00  0.00     0.064 A 
ATOM     41  C   UNL A   1      38.891  33.245  37.650  1.00  0.00     0.173 A 
ATOM     42  C   UNL A   1      40.263  34.953  36.659  1.00  0.00     0.173 A 
ATOM     43  F   UNL A   1      38.299  32.043  37.610  1.00  0.00    -0.203 F 
ATOM     44  C   UNL A   1      38.638  34.083  38.735  1.00  0.00     0.198 A 
ATOM     45  C   UNL A   1      40.030  35.776  37.757  1.00  0.00     0.198 A 
ATOM     46  F   UNL A   1      41.031  35.412  35.660  1.00  0.00    -0.203 F 
ATOM     47  F   UNL A   1      37.816  33.678  39.714  1.00  0.00    -0.200 F 
ATOM     48  C   UNL A   1      39.212  35.344  38.789  1.00  0.00     0.200 A 
ATOM     49  F   UNL A   1      40.585  36.994  37.808  1.00  0.00    -0.200 F 
ATOM     50  F   UNL A   1      38.965  36.149  39.832  1.00  0.00    -0.200 F 
ENDBRANCH  26  40
BRANCH  27  51
ATOM     51  C   UNL A   1      40.616  27.878  28.387  1.00  0.00     0.064 A 
ATOM     52  C   UNL A   1      40.055  26.598  28.303  1.00  0.00     0.173 A 
ATOM     53  C   UNL A   1      41.362  28.329  27.284  1.00  0.00     0.173 A 
ATOM     54  F   UNL A   1      39.337  26.112  29.327  1.00  0.00    -0.203 F 
ATOM     55  C   UNL A   1      40.271  25.785  27.189  1.00  0.00     0.198 A 
ATOM     56  C   UNL A   1      41.550  27.531  26.157  1.00  0.00     0.198 A 
ATOM     57  F   UNL A   1      41.914  29.552  27.300  1.00  0.00    -0.203 F 
ATOM     58  F   UNL A   1      39.779  24.539  27.166  1.00  0.00    -0.200 F 
ATOM     59  C   UNL A   1      41.018  26.252  26.118  1.00  0.00     0.200 A 
ATOM     60  F   UNL A   1      42.258  27.997  25.120  1.00  0.00    -0.200 F 
ATOM     61  F   UNL A   1      41.236  25.467  25.055  1.00  0.00    -0.200 F 
ENDBRANCH  27  51
BRANCH  39  62
ATOM     62  C   UNL A   1      44.182  28.457  34.347  1.00  0.00     0.064 A 
ATOM     63  C   UNL A   1      45.489  28.923  34.139  1.00  0.00     0.173 A 
ATOM     64  C   UNL A   1      44.010  27.273  35.079  1.00  0.00     0.173 A 
ATOM     65  F   UNL A   1      45.702  30.042  33.429  1.00  0.00    -0.203 F 
ATOM     66  C   UNL A   1      46.583  28.207  34.610  1.00  0.00     0.198 A 
ATOM     67  C   UNL A   1      45.105  26.581  35.584  1.00  0.00     0.198 A 
ATOM     68  F   UNL A   1      42.780  26.791  35.311  1.00  0.00    -0.203 F 
ATOM     69  F   UNL A   1      47.824  28.631  34.338  1.00  0.00    -0.200 F 
ATOM     70  C   UNL A   1      46.391  27.041  35.338  1.00  0.00     0.200 A 
ATOM     71  F   UNL A   1      44.917  25.467  36.303  1.00  0.00    -0.200 F 
ATOM     72  F   UNL A   1      47.446  26.355  35.795  1.00  0.00    -0.200 F 
ENDBRANCH  39  62
ENDBRANCH  13  14
ENDBRANCH   6   8
ENDBRANCH   5   6
ENDBRANCH   4   5
ENDBRANCH   3   4
ENDBRANCH   2   3
ENDBRANCH   1   2
BRANCH   1  73
ATOM     73  C   UNL A   1      33.380  28.612  27.078  1.00  0.00     0.188 C 
BRANCH  73  74
ATOM     74  O   UNL A   1      33.994  28.121  25.896  1.00  0.00    -0.376 OA
BRANCH  74  75
ATOM     75  C   UNL A   1      33.212  27.275  25.064  1.00  0.00     0.202 C 
BRANCH  75  76
ATOM     76  C   UNL A   1      31.979  26.566  25.656  1.00  0.00     0.261 C 
BRANCH  76  77
ATOM     77  O   UNL A   1      31.820  25.160  25.355  1.00  0.00    -0.463 OA
BRANCH  77  78
ATOM     78  C   UNL A   1      32.027  24.318  26.405  1.00  0.00     0.309 C 
ATOM     79  O   UNL A   1      31.226  24.126  27.313  1.00  0.00    -0.252 OA
BRANCH  78  80
ATOM     80  C   UNL A   1      33.406  23.686  26.436  1.00  0.00     0.110 C 
ATOM     81  C   UNL A   1      34.366  23.749  25.235  1.00  0.00     0.020 C 
ATOM     82  C   UNL A   1      33.371  22.180  26.735  1.00  0.00     0.070 C 
ATOM     83  C   UNL A   1      34.907  22.303  25.105  1.00  0.00    -0.002 C 
ATOM     84  C   UNL A   1      32.812  21.453  25.518  1.00  0.00     0.137 C 
ATOM     85  C   UNL A   1      34.845  21.808  26.554  1.00  0.00     0.016 C 
ATOM     86  C   UNL A   1      33.853  21.426  24.420  1.00  0.00     0.079 C 
ATOM     87  O   UNL A   1      31.691  20.992  25.420  1.00  0.00    -0.299 OA
ENDBRANCH  78  80
ENDBRANCH  77  78
ENDBRANCH  76  77
ENDBRANCH  75  76
ENDBRANCH  74  75
ENDBRANCH  73  74
ENDBRANCH   1  73
TORSDOF 17
ENDMDL
MODEL 3
REMARK VINA RESULT:     -10.3      3.078      5.282
REMARK SMILES O=C(OCCOCCOCCOC(=O)[C@@H]1C[C@@H]2CC(=O)[C@H]1C2)c1ccc(-c2c3nc(c(-c4c(F)c(F)c(F)c(F)c4F)c4ccc([nH]4)c(-c4c(F)c(F)c(F)c(F)c4F)c4nc(c(-c5c(F)c(F)c(F)c(F)c5F)c5ccc2[nH]5)C=C4)C=C3)cc1
REMARK SMILES IDX 7 1 6 2 5 3 4 4 3 5 2 6 1 7 23 8 24 9 85 10 25 11 84 12
REMARK SMILES IDX 26 13 27 14 28 15 78 16 29 17 83 18 77 19 79 20 30 21 82 22
REMARK SMILES IDX 76 23 75 24 31 26 63 27 43 28 62 29 44 30 47 31 61 32 80 33
REMARK SMILES IDX 45 34 46 35 60 37 81 38 48 39 32 40 33 41 41 42 34 43 35 44
REMARK SMILES IDX 39 45 42 46 36 47 37 48 40 49 38 50 64 51 65 52 73 53 66 54
REMARK SMILES IDX 67 55 71 56 74 57 68 58 69 59 72 60 70 61 49 62 50 63 58 64
REMARK SMILES IDX 51 65 52 66 56 67 59 68 53 69 54 70 57 71 55 72 8 73 9 74
REMARK SMILES IDX 10 75 11 76 12 77 13 78 14 79 15 80 16 81 21 82 17 83 19 84
REMARK SMILES IDX 22 85 18 86 20 87
REMARK H PARENT 79 25 47 36
REMARK Flexibility Score: inf
ROOT
ATOM      1  C   UNL A   1      42.262  18.821  25.866  1.00  0.00     0.188 C 
ENDROOT
BRANCH   1   2
ATOM      2  O   UNL A   1      41.779  19.910  26.659  1.00  0.00    -0.376 OA
BRANCH   2   3
ATOM      3  C   UNL A   1      40.429  20.271  26.336  1.00  0.00     0.202 C 
BRANCH   3   4
ATOM      4  C   UNL A   1      39.964  21.643  26.875  1.00  0.00     0.261 C 
BRANCH   4   5
ATOM      5  O   UNL A   1      39.106  22.380  25.981  1.00  0.00    -0.460 OA
BRANCH   5   6
ATOM      6  C   UNL A   1      38.554  23.612  26.116  1.00  0.00     0.338 C 
ATOM      7  O   UNL A   1      37.519  23.863  25.501  1.00  0.00    -0.246 OA
BRANCH   6   8
ATOM      8  C   UNL A   1      39.139  24.708  26.952  1.00  0.00     0.060 A 
ATOM      9  C   UNL A   1      38.958  24.833  28.324  1.00  0.00     0.016 A 
ATOM     10  C   UNL A   1      39.966  25.657  26.317  1.00  0.00     0.016 A 
ATOM     11  C   UNL A   1      39.493  25.884  29.041  1.00  0.00     0.010 A 
ATOM     12  C   UNL A   1      40.554  26.705  27.041  1.00  0.00     0.010 A 
ATOM     13  C   UNL A   1      40.289  26.829  28.409  1.00  0.00    -0.014 A 
BRANCH  13  14
ATOM     14  C   UNL A   1      40.672  27.991  29.228  1.00  0.00     0.031 A 
ATOM     15  C   UNL A   1      42.097  28.101  29.659  1.00  0.00     0.074 A 
ATOM     16  C   UNL A   1      39.822  29.029  29.342  1.00  0.00     0.049 A 
ATOM     17  N   UNL A   1      42.699  29.090  30.260  1.00  0.00    -0.248 NA
ATOM     18  C   UNL A   1      42.980  26.975  29.307  1.00  0.00     0.031 C 
ATOM     19  C   UNL A   1      38.490  29.078  28.745  1.00  0.00     0.029 A 
ATOM     20  N   UNL A   1      39.950  30.249  29.942  1.00  0.00    -0.354 N 
ATOM     21  C   UNL A   1      44.033  28.720  30.331  1.00  0.00     0.074 A 
ATOM     22  C   UNL A   1      44.152  27.402  29.752  1.00  0.00     0.031 C 
ATOM     23  C   UNL A   1      37.894  30.237  29.056  1.00  0.00     0.029 A 
ATOM     24  C   UNL A   1      38.809  31.015  29.873  1.00  0.00     0.049 A 
ATOM     25  H   UNL A   1      40.777  30.552  30.382  1.00  0.00     0.167 HD
ATOM     26  C   UNL A   1      45.065  29.440  30.821  1.00  0.00     0.037 A 
ATOM     27  C   UNL A   1      38.541  32.211  30.422  1.00  0.00     0.037 A 
ATOM     28  C   UNL A   1      44.906  30.739  31.416  1.00  0.00     0.049 A 
ATOM     29  C   UNL A   1      39.668  32.907  31.130  1.00  0.00     0.074 A 
ATOM     30  C   UNL A   1      45.849  31.524  32.048  1.00  0.00     0.029 A 
ATOM     31  N   UNL A   1      43.704  31.438  31.455  1.00  0.00    -0.354 N 
ATOM     32  N   UNL A   1      40.918  32.527  31.255  1.00  0.00    -0.248 NA
ATOM     33  C   UNL A   1      39.365  34.200  31.749  1.00  0.00     0.031 C 
ATOM     34  C   UNL A   1      45.207  32.674  32.519  1.00  0.00     0.029 A 
ATOM     35  C   UNL A   1      43.877  32.637  32.125  1.00  0.00     0.049 A 
ATOM     36  H   UNL A   1      42.856  31.127  31.064  1.00  0.00     0.167 HD
ATOM     37  C   UNL A   1      41.559  33.544  31.942  1.00  0.00     0.074 A 
ATOM     38  C   UNL A   1      40.560  34.571  32.180  1.00  0.00     0.031 C 
ATOM     39  C   UNL A   1      42.851  33.627  32.344  1.00  0.00     0.037 A 
BRANCH  26  40
ATOM     40  C   UNL A   1      46.419  28.799  30.788  1.00  0.00     0.064 A 
ATOM     41  C   UNL A   1      46.855  27.935  31.805  1.00  0.00     0.173 A 
ATOM     42  C   UNL A   1      47.305  29.078  29.738  1.00  0.00     0.173 A 
ATOM     43  F   UNL A   1      46.060  27.667  32.852  1.00  0.00    -0.203 F 
ATOM     44  C   UNL A   1      48.137  27.389  31.778  1.00  0.00     0.198 A 
ATOM     45  C   UNL A   1      48.574  28.509  29.701  1.00  0.00     0.198 A 
ATOM     46  F   UNL A   1      46.942  29.911  28.751  1.00  0.00    -0.203 F 
ATOM     47  F   UNL A   1      48.553  26.611  32.788  1.00  0.00    -0.200 F 
ATOM     48  C   UNL A   1      48.992  27.672  30.724  1.00  0.00     0.200 A 
ATOM     49  F   UNL A   1      49.400  28.784  28.682  1.00  0.00    -0.200 F 
ATOM     50  F   UNL A   1      50.226  27.148  30.702  1.00  0.00    -0.200 F 
ENDBRANCH  26  40
BRANCH  27  51
ATOM     51  C   UNL A   1      37.171  32.787  30.362  1.00  0.00     0.064 A 
ATOM     52  C   UNL A   1      36.231  32.579  31.380  1.00  0.00     0.173 A 
ATOM     53  C   UNL A   1      36.755  33.526  29.241  1.00  0.00     0.173 A 
ATOM     54  F   UNL A   1      36.570  31.876  32.472  1.00  0.00    -0.203 F 
ATOM     55  C   UNL A   1      34.922  33.046  31.261  1.00  0.00     0.198 A 
ATOM     56  C   UNL A   1      35.457  34.022  29.138  1.00  0.00     0.198 A 
ATOM     57  F   UNL A   1      37.614  33.768  28.239  1.00  0.00    -0.203 F 
ATOM     58  F   UNL A   1      34.026  32.774  32.220  1.00  0.00    -0.200 F 
ATOM     59  C   UNL A   1      34.536  33.767  30.140  1.00  0.00     0.200 A 
ATOM     60  F   UNL A   1      35.098  34.732  28.060  1.00  0.00    -0.200 F 
ATOM     61  F   UNL A   1      33.275  34.203  30.021  1.00  0.00    -0.200 F 
ENDBRANCH  27  51
BRANCH  39  62
ATOM     62  C   UNL A   1      43.245  34.884  33.062  1.00  0.00     0.064 A 
ATOM     63  C   UNL A   1      43.220  34.969  34.462  1.00  0.00     0.173 A 
ATOM     64  C   UNL A   1      43.663  36.009  32.336  1.00  0.00     0.173 A 
ATOM     65  F   UNL A   1      42.810  33.923  35.195  1.00  0.00    -0.203 F 
ATOM     66  C   UNL A   1      43.561  36.151  35.109  1.00  0.00     0.198 A 
ATOM     67  C   UNL A   1      44.042  37.177  32.990  1.00  0.00     0.198 A 
ATOM     68  F   UNL A   1      43.711  35.974  30.997  1.00  0.00    -0.203 F 
ATOM     69  F   UNL A   1      43.461  36.234  36.442  1.00  0.00    -0.200 F 
ATOM     70  C   UNL A   1      43.979  37.251  34.374  1.00  0.00     0.200 A 
ATOM     71  F   UNL A   1      44.464  38.231  32.280  1.00  0.00    -0.200 F 
ATOM     72  F   UNL A   1      44.310  38.388  34.999  1.00  0.00    -0.200 F 
ENDBRANCH  39  62
ENDBRANCH  13  14
ENDBRANCH   6   8
ENDBRANCH   5   6
ENDBRANCH   4   5
ENDBRANCH   3   4
ENDBRANCH   2   3
ENDBRANCH   1   2
BRANCH   1  73
ATOM     73  C   UNL A   1      43.768  18.815  25.612  1.00  0.00     0.188 C 
BRANCH  73  74
ATOM     74  O   UNL A   1      44.210  19.181  24.313  1.00  0.00    -0.376 OA
BRANCH  74  75
ATOM     75  C   UNL A   1      45.613  19.282  24.112  1.00  0.00     0.202 C 
BRANCH  75  76
ATOM     76  C   UNL A   1      46.392  20.422  24.796  1.00  0.00     0.261 C 
BRANCH  76  77
ATOM     77  O   UNL A   1      46.283  21.739  24.210  1.00  0.00    -0.463 OA
BRANCH  77  78
ATOM     78  C   UNL A   1      45.028  22.268  24.208  1.00  0.00     0.309 C 
ATOM     79  O   UNL A   1      44.354  22.456  23.201  1.00  0.00    -0.252 OA
BRANCH  78  80
ATOM     80  C   UNL A   1      44.539  22.724  25.570  1.00  0.00     0.110 C 
ATOM     81  C   UNL A   1      43.144  23.338  25.779  1.00  0.00     0.020 C 
ATOM     82  C   UNL A   1      45.451  23.780  26.213  1.00  0.00     0.070 C 
ATOM     83  C   UNL A   1      43.405  24.577  26.672  1.00  0.00    -0.002 C 
ATOM     84  C   UNL A   1      45.286  25.093  25.457  1.00  0.00     0.137 C 
ATOM     85  C   UNL A   1      44.645  24.144  27.463  1.00  0.00     0.016 C 
ATOM     86  C   UNL A   1      43.954  25.719  25.811  1.00  0.00     0.079 C 
ATOM     87  O   UNL A   1      46.080  25.558  24.663  1.00  0.00    -0.299 OA
ENDBRANCH  78  80
ENDBRANCH  77  78
ENDBRANCH  76  77
ENDBRANCH  75  76
ENDBRANCH  74  75
ENDBRANCH  73  74
ENDBRANCH   1  73
TORSDOF 17
ENDMDL
