MODEL 1
REMARK VINA RESULT:     -11.8      0.000      0.000
REMARK SMILES NS(=O)(=O)c1ccc(-n2nc(C(=O)OCCOCCOCCOC(=O)c3ccc(-c4c5nc(c(-c6c(F)c(F)c(F)c(F)c6F)c6ccc([nH]6)c(-c6c(F)c(F)c(F)c(F)c6F)c6nc(c(-c7c(F)c(F)c(F)c(F)c7F)c7ccc4[nH]7)C=C6)C=C5)cc3)cc2-c2cc3ccccc3s2)cc1
REMARK SMILES IDX 18 1 17 2 16 3 15 4 14 5 12 6 13 7 11 8 9 9 10 10 90 11
REMARK SMILES IDX 89 12 8 13 5 14 6 15 101 16 7 17 100 18 2 19 3 20 4 21 1 22
REMARK SMILES IDX 91 25 92 26 99 27 93 28 98 29 94 30 97 31 95 32 96 33 19 34
REMARK SMILES IDX 20 35 21 36 22 37 23 38 24 39 25 40 26 41 27 42 88 43 28 44
REMARK SMILES IDX 87 45 29 46 30 47 31 48 81 49 32 50 86 51 80 52 82 53 33 54
REMARK SMILES IDX 85 55 79 56 78 57 34 59 66 60 46 61 65 62 47 63 50 64 64 65
REMARK SMILES IDX 83 66 48 67 49 68 63 70 84 71 51 72 35 73 36 74 44 75 37 76
REMARK SMILES IDX 38 77 42 78 45 79 39 80 40 81 43 82 41 83 67 84 68 85 76 86
REMARK SMILES IDX 69 87 70 88 74 89 77 90 71 91 72 92 75 93 73 94 52 95 53 96
REMARK SMILES IDX 61 97 54 98 55 99 59 100 62 101 56 102 57 103 60 104 58 105
REMARK H PARENT 1 23 1 24 82 58 50 69
REMARK Flexibility Score: inf
ROOT
ATOM      1  C   UNL A   1      33.171  36.179  29.434  1.00  0.00     0.188 C 
ENDROOT
BRANCH   1   2
ATOM      2  O   UNL A   1      32.838  34.986  28.742  1.00  0.00    -0.376 OA
BRANCH   2   3
ATOM      3  C   UNL A   1      33.823  34.241  28.039  1.00  0.00     0.202 C 
BRANCH   3   4
ATOM      4  C   UNL A   1      34.404  32.913  28.562  1.00  0.00     0.261 C 
BRANCH   4   5
ATOM      5  O   UNL A   1      33.783  31.725  28.071  1.00  0.00    -0.458 OA
BRANCH   5   6
ATOM      6  C   UNL A   1      34.611  30.737  27.619  1.00  0.00     0.358 C 
ATOM      7  O   UNL A   1      35.811  30.681  27.856  1.00  0.00    -0.244 OA
BRANCH   6   8
ATOM      8  C   UNL A   1      33.865  29.727  26.857  1.00  0.00     0.171 A 
ATOM      9  N   UNL A   1      33.318  27.837  26.015  1.00  0.00    -0.231 N 
ATOM     10  N   UNL A   1      33.881  28.408  27.117  1.00  0.00    -0.160 NA
ATOM     11  C   UNL A   1      32.914  28.788  25.104  1.00  0.00     0.085 A 
ATOM     12  C   UNL A   1      32.995  29.988  25.784  1.00  0.00     0.068 A 
BRANCH   9  13
ATOM     13  C   UNL A   1      33.279  26.433  25.924  1.00  0.00     0.065 A 
ATOM     14  C   UNL A   1      33.236  23.663  25.930  1.00  0.00     0.082 A 
ATOM     15  C   UNL A   1      34.342  24.341  25.404  1.00  0.00     0.024 A 
ATOM     16  C   UNL A   1      32.139  24.362  26.441  1.00  0.00     0.024 A 
ATOM     17  C   UNL A   1      34.355  25.734  25.377  1.00  0.00     0.030 A 
ATOM     18  C   UNL A   1      32.177  25.756  26.471  1.00  0.00     0.030 A 
BRANCH  14  19
ATOM     19  S   UNL A   1      33.204  21.896  25.940  1.00  0.00     0.238 S 
ATOM     20  O   UNL A   1      31.944  21.440  25.436  1.00  0.00    -0.207 OA
ATOM     21  O   UNL A   1      33.764  21.441  27.203  1.00  0.00    -0.207 OA
BRANCH  19  22
ATOM     22  N   UNL A   1      34.332  21.483  24.764  1.00  0.00    -0.225 NA
ATOM     23  H   UNL A   1      33.960  20.731  24.184  1.00  0.00     0.137 HD
ATOM     24  H   UNL A   1      35.194  21.173  25.213  1.00  0.00     0.137 HD
ENDBRANCH  19  22
ENDBRANCH  14  19
ENDBRANCH   9  13
BRANCH  11  25
ATOM     25  C   UNL A   1      32.638  28.692  23.693  1.00  0.00     0.054 A 
ATOM     26  C   UNL A   1      32.965  27.630  22.851  1.00  0.00     0.031 A 
ATOM     27  S   UNL A   1      30.980  29.071  23.252  1.00  0.00    -0.134 S 
ATOM     28  C   UNL A   1      31.840  26.700  22.909  1.00  0.00    -0.007 A 
ATOM     29  C   UNL A   1      30.683  27.359  23.351  1.00  0.00     0.035 A 
ATOM     30  C   UNL A   1      31.791  25.295  22.771  1.00  0.00     0.009 A 
ATOM     31  C   UNL A   1      29.557  26.673  23.827  1.00  0.00     0.019 A 
ATOM     32  C   UNL A   1      30.680  24.599  23.265  1.00  0.00     0.001 A 
ATOM     33  C   UNL A   1      29.603  25.277  23.830  1.00  0.00     0.001 A 
ENDBRANCH  11  25
ENDBRANCH   6   8
ENDBRANCH   5   6
ENDBRANCH   4   5
ENDBRANCH   3   4
ENDBRANCH   2   3
ENDBRANCH   1   2
BRANCH   1  34
ATOM     34  C   UNL A   1      32.724  36.393  30.896  1.00  0.00     0.188 C 
BRANCH  34  35
ATOM     35  O   UNL A   1      32.837  35.266  31.736  1.00  0.00    -0.376 OA
BRANCH  35  36
ATOM     36  C   UNL A   1      34.071  34.595  31.941  1.00  0.00     0.202 C 
BRANCH  36  37
ATOM     37  C   UNL A   1      34.210  33.233  32.623  1.00  0.00     0.261 C 
BRANCH  37  38
ATOM     38  O   UNL A   1      34.865  32.241  31.869  1.00  0.00    -0.460 OA
BRANCH  38  39
ATOM     39  C   UNL A   1      36.010  31.793  32.414  1.00  0.00     0.338 C 
ATOM     40  O   UNL A   1      36.376  31.900  33.571  1.00  0.00    -0.246 OA
BRANCH  39  41
ATOM     41  C   UNL A   1      36.783  31.148  31.355  1.00  0.00     0.060 A 
ATOM     42  C   UNL A   1      36.719  29.754  31.294  1.00  0.00     0.016 A 
ATOM     43  C   UNL A   1      37.803  31.896  30.756  1.00  0.00     0.016 A 
ATOM     44  C   UNL A   1      37.855  29.090  30.908  1.00  0.00     0.010 A 
ATOM     45  C   UNL A   1      38.948  31.237  30.419  1.00  0.00     0.010 A 
ATOM     46  C   UNL A   1      38.983  29.856  30.610  1.00  0.00    -0.014 A 
BRANCH  46  47
ATOM     47  C   UNL A   1      40.255  29.188  30.518  1.00  0.00     0.031 A 
ATOM     48  C   UNL A   1      40.918  29.071  31.827  1.00  0.00     0.074 A 
ATOM     49  C   UNL A   1      40.649  28.640  29.352  1.00  0.00     0.049 A 
ATOM     50  N   UNL A   1      42.002  29.650  32.217  1.00  0.00    -0.248 NA
ATOM     51  C   UNL A   1      40.175  28.392  32.902  1.00  0.00     0.031 C 
ATOM     52  C   UNL A   1      39.852  28.497  28.126  1.00  0.00     0.029 A 
ATOM     53  N   UNL A   1      41.799  27.982  29.050  1.00  0.00    -0.354 N 
ATOM     54  C   UNL A   1      42.188  29.212  33.523  1.00  0.00     0.074 A 
ATOM     55  C   UNL A   1      40.931  28.679  33.960  1.00  0.00     0.031 C 
ATOM     56  C   UNL A   1      40.451  27.601  27.311  1.00  0.00     0.029 A 
ATOM     57  C   UNL A   1      41.717  27.206  27.901  1.00  0.00     0.049 A 
ATOM     58  H   UNL A   1      42.615  28.049  29.595  1.00  0.00     0.167 HD
ATOM     59  C   UNL A   1      43.445  28.976  33.985  1.00  0.00     0.037 A 
ATOM     60  C   UNL A   1      42.596  26.243  27.534  1.00  0.00     0.037 A 
ATOM     61  C   UNL A   1      44.418  29.630  33.145  1.00  0.00     0.049 A 
ATOM     62  C   UNL A   1      43.848  26.472  28.295  1.00  0.00     0.074 A 
ATOM     63  C   UNL A   1      44.800  30.927  32.887  1.00  0.00     0.029 A 
ATOM     64  N   UNL A   1      44.891  28.854  32.119  1.00  0.00    -0.354 N 
ATOM     65  N   UNL A   1      44.632  27.499  28.109  1.00  0.00    -0.248 NA
ATOM     66  C   UNL A   1      44.059  25.751  29.547  1.00  0.00     0.031 C 
ATOM     67  C   UNL A   1      45.332  30.926  31.563  1.00  0.00     0.029 A 
ATOM     68  C   UNL A   1      45.285  29.625  31.061  1.00  0.00     0.049 A 
ATOM     69  H   UNL A   1      44.942  27.870  32.140  1.00  0.00     0.167 HD
ATOM     70  C   UNL A   1      45.120  27.798  29.370  1.00  0.00     0.074 A 
ATOM     71  C   UNL A   1      44.881  26.602  30.166  1.00  0.00     0.031 C 
ATOM     72  C   UNL A   1      45.371  29.093  29.720  1.00  0.00     0.037 A 
BRANCH  59  73
ATOM     73  C   UNL A   1      43.826  27.758  34.813  1.00  0.00     0.064 A 
ATOM     74  C   UNL A   1      44.425  27.981  36.071  1.00  0.00     0.173 A 
ATOM     75  C   UNL A   1      43.949  26.439  34.317  1.00  0.00     0.173 A 
ATOM     76  F   UNL A   1      44.369  29.191  36.648  1.00  0.00    -0.203 F 
ATOM     77  C   UNL A   1      45.183  26.999  36.715  1.00  0.00     0.198 A 
ATOM     78  C   UNL A   1      44.666  25.449  34.987  1.00  0.00     0.198 A 
ATOM     79  F   UNL A   1      43.484  26.061  33.123  1.00  0.00    -0.203 F 
ATOM     80  F   UNL A   1      45.849  27.305  37.836  1.00  0.00    -0.200 F 
ATOM     81  C   UNL A   1      45.315  25.740  36.164  1.00  0.00     0.200 A 
ATOM     82  F   UNL A   1      44.792  24.238  34.427  1.00  0.00    -0.200 F 
ATOM     83  F   UNL A   1      46.101  24.821  36.740  1.00  0.00    -0.200 F 
ENDBRANCH  59  73
BRANCH  60  84
ATOM     84  C   UNL A   1      42.328  24.981  26.805  1.00  0.00     0.064 A 
ATOM     85  C   UNL A   1      43.103  24.610  25.694  1.00  0.00     0.173 A 
ATOM     86  C   UNL A   1      41.485  23.988  27.341  1.00  0.00     0.173 A 
ATOM     87  F   UNL A   1      43.962  25.483  25.150  1.00  0.00    -0.203 F 
ATOM     88  C   UNL A   1      43.058  23.313  25.170  1.00  0.00     0.198 A 
ATOM     89  C   UNL A   1      41.434  22.699  26.812  1.00  0.00     0.198 A 
ATOM     90  F   UNL A   1      40.765  24.219  28.448  1.00  0.00    -0.203 F 
ATOM     91  F   UNL A   1      43.861  22.977  24.151  1.00  0.00    -0.200 F 
ATOM     92  C   UNL A   1      42.232  22.357  25.736  1.00  0.00     0.200 A 
ATOM     93  F   UNL A   1      40.657  21.773  27.392  1.00  0.00    -0.200 F 
ATOM     94  F   UNL A   1      42.235  21.099  25.275  1.00  0.00    -0.200 F 
ENDBRANCH  60  84
BRANCH  72  95
ATOM     95  C   UNL A   1      45.574  30.069  28.602  1.00  0.00     0.064 A 
ATOM     96  C   UNL A   1      44.540  30.785  27.978  1.00  0.00     0.173 A 
ATOM     97  C   UNL A   1      46.889  30.352  28.211  1.00  0.00     0.173 A 
ATOM     98  F   UNL A   1      43.266  30.629  28.361  1.00  0.00    -0.203 F 
ATOM     99  C   UNL A   1      44.813  31.711  26.973  1.00  0.00     0.198 A 
ATOM    100  C   UNL A   1      47.162  31.304  27.236  1.00  0.00     0.198 A 
ATOM    101  F   UNL A   1      47.916  29.728  28.809  1.00  0.00    -0.203 F 
ATOM    102  F   UNL A   1      43.810  32.369  26.374  1.00  0.00    -0.200 F 
ATOM    103  C   UNL A   1      46.125  31.975  26.609  1.00  0.00     0.200 A 
ATOM    104  F   UNL A   1      48.433  31.588  26.921  1.00  0.00    -0.200 F 
ATOM    105  F   UNL A   1      46.391  32.891  25.669  1.00  0.00    -0.200 F 
ENDBRANCH  72  95
ENDBRANCH  46  47
ENDBRANCH  39  41
ENDBRANCH  38  39
ENDBRANCH  37  38
ENDBRANCH  36  37
ENDBRANCH  35  36
ENDBRANCH  34  35
ENDBRANCH   1  34
TORSDOF 21
ENDMDL
MODEL 2
REMARK VINA RESULT:     -11.6      3.695      9.721
REMARK SMILES NS(=O)(=O)c1ccc(-n2nc(C(=O)OCCOCCOCCOC(=O)c3ccc(-c4c5nc(c(-c6c(F)c(F)c(F)c(F)c6F)c6ccc([nH]6)c(-c6c(F)c(F)c(F)c(F)c6F)c6nc(c(-c7c(F)c(F)c(F)c(F)c7F)c7ccc4[nH]7)C=C6)C=C5)cc3)cc2-c2cc3ccccc3s2)cc1
REMARK SMILES IDX 18 1 17 2 16 3 15 4 14 5 12 6 13 7 11 8 9 9 10 10 90 11
REMARK SMILES IDX 89 12 8 13 5 14 6 15 101 16 7 17 100 18 2 19 3 20 4 21 1 22
REMARK SMILES IDX 91 25 92 26 99 27 93 28 98 29 94 30 97 31 95 32 96 33 19 34
REMARK SMILES IDX 20 35 21 36 22 37 23 38 24 39 25 40 26 41 27 42 88 43 28 44
REMARK SMILES IDX 87 45 29 46 30 47 31 48 81 49 32 50 86 51 80 52 82 53 33 54
REMARK SMILES IDX 85 55 79 56 78 57 34 59 66 60 46 61 65 62 47 63 50 64 64 65
REMARK SMILES IDX 83 66 48 67 49 68 63 70 84 71 51 72 35 73 36 74 44 75 37 76
REMARK SMILES IDX 38 77 42 78 45 79 39 80 40 81 43 82 41 83 67 84 68 85 76 86
REMARK SMILES IDX 69 87 70 88 74 89 77 90 71 91 72 92 75 93 73 94 52 95 53 96
REMARK SMILES IDX 61 97 54 98 55 99 59 100 62 101 56 102 57 103 60 104 58 105
REMARK H PARENT 1 23 1 24 82 58 50 69
REMARK Flexibility Score: inf
ROOT
ATOM      1  C   UNL A   1      42.810  18.934  27.108  1.00  0.00     0.188 C 
ENDROOT
BRANCH   1   2
ATOM      2  O   UNL A   1      41.695  19.769  27.375  1.00  0.00    -0.376 OA
BRANCH   2   3
ATOM      3  C   UNL A   1      40.546  19.756  26.537  1.00  0.00     0.202 C 
BRANCH   3   4
ATOM      4  C   UNL A   1      40.093  20.976  25.713  1.00  0.00     0.261 C 
BRANCH   4   5
ATOM      5  O   UNL A   1      38.682  21.145  25.574  1.00  0.00    -0.458 OA
BRANCH   5   6
ATOM      6  C   UNL A   1      38.181  22.388  25.838  1.00  0.00     0.358 C 
ATOM      7  O   UNL A   1      38.777  23.254  26.465  1.00  0.00    -0.244 OA
BRANCH   6   8
ATOM      8  C   UNL A   1      36.857  22.566  25.227  1.00  0.00     0.171 A 
ATOM      9  N   UNL A   1      35.075  23.520  24.521  1.00  0.00    -0.231 N 
ATOM     10  N   UNL A   1      36.415  23.712  24.680  1.00  0.00    -0.160 NA
ATOM     11  C   UNL A   1      34.697  22.256  24.917  1.00  0.00     0.085 A 
ATOM     12  C   UNL A   1      35.882  21.564  25.078  1.00  0.00     0.068 A 
BRANCH   9  13
ATOM     13  C   UNL A   1      34.287  24.590  24.060  1.00  0.00     0.065 A 
ATOM     14  C   UNL A   1      32.604  26.647  23.276  1.00  0.00     0.082 A 
ATOM     15  C   UNL A   1      32.763  25.525  22.453  1.00  0.00     0.024 A 
ATOM     16  C   UNL A   1      33.294  26.756  24.486  1.00  0.00     0.024 A 
ATOM     17  C   UNL A   1      33.629  24.501  22.833  1.00  0.00     0.030 A 
ATOM     18  C   UNL A   1      34.113  25.705  24.897  1.00  0.00     0.030 A 
BRANCH  14  19
ATOM     19  S   UNL A   1      31.529  27.960  22.782  1.00  0.00     0.238 S 
ATOM     20  O   UNL A   1      30.613  27.477  21.794  1.00  0.00    -0.207 OA
ATOM     21  O   UNL A   1      32.333  29.159  22.601  1.00  0.00    -0.207 OA
BRANCH  19  22
ATOM     22  N   UNL A   1      30.600  28.235  24.157  1.00  0.00    -0.225 NA
ATOM     23  H   UNL A   1      31.134  27.977  24.986  1.00  0.00     0.137 HD
ATOM     24  H   UNL A   1      29.750  27.673  24.111  1.00  0.00     0.137 HD
ENDBRANCH  19  22
ENDBRANCH  14  19
ENDBRANCH   9  13
BRANCH  11  25
ATOM     25  C   UNL A   1      33.410  21.726  25.295  1.00  0.00     0.054 A 
ATOM     26  C   UNL A   1      32.365  21.390  24.436  1.00  0.00     0.031 A 
ATOM     27  S   UNL A   1      33.486  20.366  26.404  1.00  0.00    -0.134 S 
ATOM     28  C   UNL A   1      32.579  19.997  24.054  1.00  0.00    -0.007 A 
ATOM     29  C   UNL A   1      33.404  19.354  24.989  1.00  0.00     0.035 A 
ATOM     30  C   UNL A   1      32.252  19.300  22.869  1.00  0.00     0.009 A 
ATOM     31  C   UNL A   1      34.053  18.142  24.717  1.00  0.00     0.019 A 
ATOM     32  C   UNL A   1      32.913  18.101  22.578  1.00  0.00     0.001 A 
ATOM     33  C   UNL A   1      33.837  17.558  23.468  1.00  0.00     0.001 A 
ENDBRANCH  11  25
ENDBRANCH   6   8
ENDBRANCH   5   6
ENDBRANCH   4   5
ENDBRANCH   3   4
ENDBRANCH   2   3
ENDBRANCH   1   2
BRANCH   1  34
ATOM     34  C   UNL A   1      42.963  18.239  25.738  1.00  0.00     0.188 C 
BRANCH  34  35
ATOM     35  O   UNL A   1      43.896  18.828  24.859  1.00  0.00    -0.376 OA
BRANCH  35  36
ATOM     36  C   UNL A   1      45.221  19.142  25.262  1.00  0.00     0.202 C 
BRANCH  36  37
ATOM     37  C   UNL A   1      46.131  20.133  24.535  1.00  0.00     0.261 C 
BRANCH  37  38
ATOM     38  O   UNL A   1      45.934  21.489  24.859  1.00  0.00    -0.460 OA
BRANCH  38  39
ATOM     39  C   UNL A   1      44.845  22.042  24.298  1.00  0.00     0.338 C 
ATOM     40  O   UNL A   1      44.570  22.110  23.113  1.00  0.00    -0.246 OA
BRANCH  39  41
ATOM     41  C   UNL A   1      44.018  22.584  25.375  1.00  0.00     0.060 A 
ATOM     42  C   UNL A   1      42.928  23.368  24.993  1.00  0.00     0.016 A 
ATOM     43  C   UNL A   1      44.576  22.619  26.658  1.00  0.00     0.016 A 
ATOM     44  C   UNL A   1      42.600  24.426  25.801  1.00  0.00     0.010 A 
ATOM     45  C   UNL A   1      44.284  23.697  27.439  1.00  0.00     0.010 A 
ATOM     46  C   UNL A   1      43.382  24.636  26.939  1.00  0.00    -0.014 A 
BRANCH  46  47
ATOM     47  C   UNL A   1      43.268  25.900  27.619  1.00  0.00     0.031 A 
ATOM     48  C   UNL A   1      44.343  26.833  27.245  1.00  0.00     0.074 A 
ATOM     49  C   UNL A   1      42.191  26.163  28.384  1.00  0.00     0.049 A 
ATOM     50  N   UNL A   1      45.298  27.275  27.989  1.00  0.00    -0.248 NA
ATOM     51  C   UNL A   1      44.495  27.149  25.814  1.00  0.00     0.031 C 
ATOM     52  C   UNL A   1      40.976  25.346  28.514  1.00  0.00     0.029 A 
ATOM     53  N   UNL A   1      41.893  27.272  29.110  1.00  0.00    -0.354 N 
ATOM     54  C   UNL A   1      46.036  28.113  27.159  1.00  0.00     0.074 A 
ATOM     55  C   UNL A   1      45.663  27.787  25.813  1.00  0.00     0.031 C 
ATOM     56  C   UNL A   1      39.998  26.092  29.074  1.00  0.00     0.029 A 
ATOM     57  C   UNL A   1      40.550  27.382  29.445  1.00  0.00     0.049 A 
ATOM     58  H   UNL A   1      42.568  27.937  29.374  1.00  0.00     0.167 HD
ATOM     59  C   UNL A   1      46.590  29.247  27.662  1.00  0.00     0.037 A 
ATOM     60  C   UNL A   1      39.939  28.501  29.902  1.00  0.00     0.037 A 
ATOM     61  C   UNL A   1      46.661  29.174  29.101  1.00  0.00     0.049 A 
ATOM     62  C   UNL A   1      40.998  29.411  30.403  1.00  0.00     0.074 A 
ATOM     63  C   UNL A   1      47.385  28.458  30.027  1.00  0.00     0.029 A 
ATOM     64  N   UNL A   1      45.567  29.689  29.747  1.00  0.00    -0.354 N 
ATOM     65  N   UNL A   1      41.723  29.168  31.461  1.00  0.00    -0.248 NA
ATOM     66  C   UNL A   1      41.527  30.440  29.513  1.00  0.00     0.031 C 
ATOM     67  C   UNL A   1      46.570  28.388  31.197  1.00  0.00     0.029 A 
ATOM     68  C   UNL A   1      45.384  29.085  30.960  1.00  0.00     0.049 A 
ATOM     69  H   UNL A   1      44.989  30.400  29.387  1.00  0.00     0.167 HD
ATOM     70  C   UNL A   1      42.971  29.685  31.155  1.00  0.00     0.074 A 
ATOM     71  C   UNL A   1      42.744  30.598  30.043  1.00  0.00     0.031 C 
ATOM     72  C   UNL A   1      44.100  29.078  31.623  1.00  0.00     0.037 A 
BRANCH  59  73
ATOM     73  C   UNL A   1      46.551  30.592  26.953  1.00  0.00     0.064 A 
ATOM     74  C   UNL A   1      47.742  31.349  26.917  1.00  0.00     0.173 A 
ATOM     75  C   UNL A   1      45.377  31.308  26.622  1.00  0.00     0.173 A 
ATOM     76  F   UNL A   1      48.921  30.780  27.206  1.00  0.00    -0.203 F 
ATOM     77  C   UNL A   1      47.736  32.728  26.687  1.00  0.00     0.198 A 
ATOM     78  C   UNL A   1      45.383  32.674  26.346  1.00  0.00     0.198 A 
ATOM     79  F   UNL A   1      44.157  30.763  26.649  1.00  0.00    -0.203 F 
ATOM     80  F   UNL A   1      48.874  33.424  26.804  1.00  0.00    -0.200 F 
ATOM     81  C   UNL A   1      46.555  33.391  26.417  1.00  0.00     0.200 A 
ATOM     82  F   UNL A   1      44.223  33.298  26.099  1.00  0.00    -0.200 F 
ATOM     83  F   UNL A   1      46.536  34.722  26.270  1.00  0.00    -0.200 F 
ENDBRANCH  59  73
BRANCH  60  84
ATOM     84  C   UNL A   1      38.548  28.954  29.665  1.00  0.00     0.064 A 
ATOM     85  C   UNL A   1      37.714  29.317  30.734  1.00  0.00     0.173 A 
ATOM     86  C   UNL A   1      38.097  29.294  28.375  1.00  0.00     0.173 A 
ATOM     87  F   UNL A   1      38.089  29.067  31.997  1.00  0.00    -0.203 F 
ATOM     88  C   UNL A   1      36.514  30.006  30.526  1.00  0.00     0.198 A 
ATOM     89  C   UNL A   1      36.896  29.972  28.168  1.00  0.00     0.198 A 
ATOM     90  F   UNL A   1      38.857  29.062  27.295  1.00  0.00    -0.203 F 
ATOM     91  F   UNL A   1      35.776  30.394  31.576  1.00  0.00    -0.200 F 
ATOM     92  C   UNL A   1      36.112  30.342  29.244  1.00  0.00     0.200 A 
ATOM     93  F   UNL A   1      36.537  30.323  26.924  1.00  0.00    -0.200 F 
ATOM     94  F   UNL A   1      34.995  31.056  29.048  1.00  0.00    -0.200 F 
ENDBRANCH  60  84
BRANCH  72  95
ATOM     95  C   UNL A   1      43.945  28.190  32.819  1.00  0.00     0.064 A 
ATOM     96  C   UNL A   1      43.772  26.798  32.755  1.00  0.00     0.173 A 
ATOM     97  C   UNL A   1      44.067  28.773  34.087  1.00  0.00     0.173 A 
ATOM     98  F   UNL A   1      43.733  26.163  31.577  1.00  0.00    -0.203 F 
ATOM     99  C   UNL A   1      43.680  26.033  33.916  1.00  0.00     0.198 A 
ATOM    100  C   UNL A   1      44.015  28.003  35.242  1.00  0.00     0.198 A 
ATOM    101  F   UNL A   1      44.280  30.094  34.201  1.00  0.00    -0.203 F 
ATOM    102  F   UNL A   1      43.492  24.708  33.834  1.00  0.00    -0.200 F 
ATOM    103  C   UNL A   1      43.809  26.635  35.158  1.00  0.00     0.200 A 
ATOM    104  F   UNL A   1      44.187  28.583  36.438  1.00  0.00    -0.200 F 
ATOM    105  F   UNL A   1      43.758  25.895  36.273  1.00  0.00    -0.200 F 
ENDBRANCH  72  95
ENDBRANCH  46  47
ENDBRANCH  39  41
ENDBRANCH  38  39
ENDBRANCH  37  38
ENDBRANCH  36  37
ENDBRANCH  35  36
ENDBRANCH  34  35
ENDBRANCH   1  34
TORSDOF 21
ENDMDL
MODEL 3
REMARK VINA RESULT:     -11.4      2.703      4.076
REMARK SMILES NS(=O)(=O)c1ccc(-n2nc(C(=O)OCCOCCOCCOC(=O)c3ccc(-c4c5nc(c(-c6c(F)c(F)c(F)c(F)c6F)c6ccc([nH]6)c(-c6c(F)c(F)c(F)c(F)c6F)c6nc(c(-c7c(F)c(F)c(F)c(F)c7F)c7ccc4[nH]7)C=C6)C=C5)cc3)cc2-c2cc3ccccc3s2)cc1
REMARK SMILES IDX 18 1 17 2 16 3 15 4 14 5 12 6 13 7 11 8 9 9 10 10 90 11
REMARK SMILES IDX 89 12 8 13 5 14 6 15 101 16 7 17 100 18 2 19 3 20 4 21 1 22
REMARK SMILES IDX 91 25 92 26 99 27 93 28 98 29 94 30 97 31 95 32 96 33 19 34
REMARK SMILES IDX 20 35 21 36 22 37 23 38 24 39 25 40 26 41 27 42 88 43 28 44
REMARK SMILES IDX 87 45 29 46 30 47 31 48 81 49 32 50 86 51 80 52 82 53 33 54
REMARK SMILES IDX 85 55 79 56 78 57 34 59 66 60 46 61 65 62 47 63 50 64 64 65
REMARK SMILES IDX 83 66 48 67 49 68 63 70 84 71 51 72 35 73 36 74 44 75 37 76
REMARK SMILES IDX 38 77 42 78 45 79 39 80 40 81 43 82 41 83 67 84 68 85 76 86
REMARK SMILES IDX 69 87 70 88 74 89 77 90 71 91 72 92 75 93 73 94 52 95 53 96
REMARK SMILES IDX 61 97 54 98 55 99 59 100 62 101 56 102 57 103 60 104 58 105
REMARK H PARENT 1 23 1 24 82 58 50 69
REMARK Flexibility Score: inf
ROOT
ATOM      1  C   UNL A   1      34.785  33.192  28.462  1.00  0.00     0.188 C 
ENDROOT
BRANCH   1   2
ATOM      2  O   UNL A   1      35.017  32.239  27.437  1.00  0.00    -0.376 OA
BRANCH   2   3
ATOM      3  C   UNL A   1      35.677  31.010  27.709  1.00  0.00     0.202 C 
BRANCH   3   4
ATOM      4  C   UNL A   1      34.960  29.646  27.678  1.00  0.00     0.261 C 
BRANCH   4   5
ATOM      5  O   UNL A   1      34.282  29.326  26.464  1.00  0.00    -0.458 OA
BRANCH   5   6
ATOM      6  C   UNL A   1      32.932  29.539  26.436  1.00  0.00     0.358 C 
ATOM      7  O   UNL A   1      32.401  30.625  26.629  1.00  0.00    -0.244 OA
BRANCH   6   8
ATOM      8  C   UNL A   1      32.209  28.307  26.093  1.00  0.00     0.171 A 
ATOM      9  N   UNL A   1      31.841  26.251  25.627  1.00  0.00    -0.231 N 
ATOM     10  N   UNL A   1      32.642  27.065  26.371  1.00  0.00    -0.160 NA
ATOM     11  C   UNL A   1      30.894  26.971  24.934  1.00  0.00     0.085 A 
ATOM     12  C   UNL A   1      30.949  28.242  25.474  1.00  0.00     0.068 A 
BRANCH   9  13
ATOM     13  C   UNL A   1      32.106  24.868  25.612  1.00  0.00     0.065 A 
ATOM     14  C   UNL A   1      32.754  22.180  25.450  1.00  0.00     0.082 A 
ATOM     15  C   UNL A   1      31.546  22.639  24.910  1.00  0.00     0.024 A 
ATOM     16  C   UNL A   1      33.638  23.056  26.086  1.00  0.00     0.024 A 
ATOM     17  C   UNL A   1      31.206  23.986  25.014  1.00  0.00     0.030 A 
ATOM     18  C   UNL A   1      33.328  24.414  26.136  1.00  0.00     0.030 A 
BRANCH  14  19
ATOM     19  S   UNL A   1      33.175  20.466  25.345  1.00  0.00     0.238 S 
ATOM     20  O   UNL A   1      34.477  20.332  24.766  1.00  0.00    -0.207 OA
ATOM     21  O   UNL A   1      32.011  19.744  24.855  1.00  0.00    -0.207 OA
BRANCH  19  22
ATOM     22  N   UNL A   1      33.351  20.013  26.954  1.00  0.00    -0.225 NA
ATOM     23  H   UNL A   1      33.081  19.036  27.065  1.00  0.00     0.137 HD
ATOM     24  H   UNL A   1      32.757  20.600  27.540  1.00  0.00     0.137 HD
ENDBRANCH  19  22
ENDBRANCH  14  19
ENDBRANCH   9  13
BRANCH  11  25
ATOM     25  C   UNL A   1      30.111  26.636  23.771  1.00  0.00     0.054 A 
ATOM     26  C   UNL A   1      28.736  26.805  23.617  1.00  0.00     0.031 A 
ATOM     27  S   UNL A   1      30.771  27.234  22.257  1.00  0.00    -0.134 S 
ATOM     28  C   UNL A   1      28.545  28.152  23.083  1.00  0.00    -0.007 A 
ATOM     29  C   UNL A   1      29.724  28.608  22.474  1.00  0.00     0.035 A 
ATOM     30  C   UNL A   1      27.482  29.069  23.240  1.00  0.00     0.009 A 
ATOM     31  C   UNL A   1      29.951  29.960  22.185  1.00  0.00     0.019 A 
ATOM     32  C   UNL A   1      27.707  30.426  22.976  1.00  0.00     0.001 A 
ATOM     33  C   UNL A   1      28.940  30.869  22.504  1.00  0.00     0.001 A 
ENDBRANCH  11  25
ENDBRANCH   6   8
ENDBRANCH   5   6
ENDBRANCH   4   5
ENDBRANCH   3   4
ENDBRANCH   2   3
ENDBRANCH   1   2
BRANCH   1  34
ATOM     34  C   UNL A   1      34.221  34.589  28.125  1.00  0.00     0.188 C 
BRANCH  34  35
ATOM     35  O   UNL A   1      33.006  34.921  28.759  1.00  0.00    -0.376 OA
BRANCH  35  36
ATOM     36  C   UNL A   1      32.820  36.152  29.442  1.00  0.00     0.202 C 
BRANCH  36  37
ATOM     37  C   UNL A   1      33.251  36.413  30.886  1.00  0.00     0.261 C 
BRANCH  37  38
ATOM     38  O   UNL A   1      34.180  35.498  31.416  1.00  0.00    -0.460 OA
BRANCH  38  39
ATOM     39  C   UNL A   1      33.711  34.757  32.436  1.00  0.00     0.338 C 
ATOM     40  O   UNL A   1      32.548  34.541  32.728  1.00  0.00    -0.246 OA
BRANCH  39  41
ATOM     41  C   UNL A   1      34.862  34.245  33.178  1.00  0.00     0.060 A 
ATOM     42  C   UNL A   1      35.959  35.100  33.299  1.00  0.00     0.016 A 
ATOM     43  C   UNL A   1      34.946  32.860  33.359  1.00  0.00     0.016 A 
ATOM     44  C   UNL A   1      37.206  34.529  33.283  1.00  0.00     0.010 A 
ATOM     45  C   UNL A   1      36.184  32.293  33.294  1.00  0.00     0.010 A 
ATOM     46  C   UNL A   1      37.279  33.142  33.145  1.00  0.00    -0.014 A 
BRANCH  46  47
ATOM     47  C   UNL A   1      38.552  32.558  32.806  1.00  0.00     0.031 A 
ATOM     48  C   UNL A   1      39.424  32.404  33.982  1.00  0.00     0.074 A 
ATOM     49  C   UNL A   1      38.779  32.106  31.558  1.00  0.00     0.049 A 
ATOM     50  N   UNL A   1      40.526  33.023  34.234  1.00  0.00    -0.248 NA
ATOM     51  C   UNL A   1      38.900  31.618  35.112  1.00  0.00     0.031 C 
ATOM     52  C   UNL A   1      37.802  31.988  30.466  1.00  0.00     0.029 A 
ATOM     53  N   UNL A   1      39.896  31.538  31.032  1.00  0.00    -0.354 N 
ATOM     54  C   UNL A   1      40.943  32.520  35.461  1.00  0.00     0.074 A 
ATOM     55  C   UNL A   1      39.802  31.886  36.054  1.00  0.00     0.031 C 
ATOM     56  C   UNL A   1      38.305  31.180  29.507  1.00  0.00     0.029 A 
ATOM     57  C   UNL A   1      39.668  30.829  29.861  1.00  0.00     0.049 A 
ATOM     58  H   UNL A   1      40.785  31.622  31.445  1.00  0.00     0.167 HD
ATOM     59  C   UNL A   1      42.269  32.334  35.701  1.00  0.00     0.037 A 
ATOM     60  C   UNL A   1      40.523  29.945  29.293  1.00  0.00     0.037 A 
ATOM     61  C   UNL A   1      43.058  33.094  34.764  1.00  0.00     0.049 A 
ATOM     62  C   UNL A   1      41.869  30.204  29.860  1.00  0.00     0.074 A 
ATOM     63  C   UNL A   1      43.327  34.426  34.538  1.00  0.00     0.029 A 
ATOM     64  N   UNL A   1      43.397  32.411  33.625  1.00  0.00    -0.354 N 
ATOM     65  N   UNL A   1      42.560  31.285  29.623  1.00  0.00    -0.248 NA
ATOM     66  C   UNL A   1      42.316  29.423  31.010  1.00  0.00     0.031 C 
ATOM     67  C   UNL A   1      43.638  34.536  33.150  1.00  0.00     0.029 A 
ATOM     68  C   UNL A   1      43.575  33.267  32.574  1.00  0.00     0.049 A 
ATOM     69  H   UNL A   1      43.500  31.433  33.570  1.00  0.00     0.167 HD
ATOM     70  C   UNL A   1      43.230  31.538  30.809  1.00  0.00     0.074 A 
ATOM     71  C   UNL A   1      43.184  30.284  31.548  1.00  0.00     0.031 C 
ATOM     72  C   UNL A   1      43.469  32.822  31.202  1.00  0.00     0.037 A 
BRANCH  59  73
ATOM     73  C   UNL A   1      42.839  31.094  36.372  1.00  0.00     0.064 A 
ATOM     74  C   UNL A   1      43.693  31.282  37.480  1.00  0.00     0.173 A 
ATOM     75  C   UNL A   1      42.874  29.799  35.803  1.00  0.00     0.173 A 
ATOM     76  F   UNL A   1      43.743  32.465  38.109  1.00  0.00    -0.203 F 
ATOM     77  C   UNL A   1      44.588  30.295  37.901  1.00  0.00     0.198 A 
ATOM     78  C   UNL A   1      43.735  28.802  36.258  1.00  0.00     0.198 A 
ATOM     79  F   UNL A   1      42.169  29.457  34.722  1.00  0.00    -0.203 F 
ATOM     80  F   UNL A   1      45.475  30.572  38.866  1.00  0.00    -0.200 F 
ATOM     81  C   UNL A   1      44.619  29.062  37.280  1.00  0.00     0.200 A 
ATOM     82  F   UNL A   1      43.757  27.618  35.631  1.00  0.00    -0.200 F 
ATOM     83  F   UNL A   1      45.526  28.141  37.631  1.00  0.00    -0.200 F 
ENDBRANCH  59  73
BRANCH  60  84
ATOM     84  C   UNL A   1      40.204  28.715  28.531  1.00  0.00     0.064 A 
ATOM     85  C   UNL A   1      40.758  28.488  27.261  1.00  0.00     0.173 A 
ATOM     86  C   UNL A   1      39.566  27.617  29.141  1.00  0.00     0.173 A 
ATOM     87  F   UNL A   1      41.420  29.468  26.629  1.00  0.00    -0.203 F 
ATOM     88  C   UNL A   1      40.702  27.230  26.651  1.00  0.00     0.198 A 
ATOM     89  C   UNL A   1      39.502  26.366  28.528  1.00  0.00     0.198 A 
ATOM     90  F   UNL A   1      39.076  27.710  30.386  1.00  0.00    -0.203 F 
ATOM     91  F   UNL A   1      41.300  27.034  25.467  1.00  0.00    -0.200 F 
ATOM     92  C   UNL A   1      40.083  26.168  27.290  1.00  0.00     0.200 A 
ATOM     93  F   UNL A   1      38.932  25.338  29.174  1.00  0.00    -0.200 F 
ATOM     94  F   UNL A   1      40.084  24.949  26.735  1.00  0.00    -0.200 F 
ENDBRANCH  60  84
BRANCH  72  95
ATOM     95  C   UNL A   1      43.439  33.874  30.136  1.00  0.00     0.064 A 
ATOM     96  C   UNL A   1      42.299  34.617  29.789  1.00  0.00     0.173 A 
ATOM     97  C   UNL A   1      44.646  34.199  29.503  1.00  0.00     0.173 A 
ATOM     98  F   UNL A   1      41.132  34.419  30.414  1.00  0.00    -0.203 F 
ATOM     99  C   UNL A   1      42.361  35.612  28.815  1.00  0.00     0.198 A 
ATOM    100  C   UNL A   1      44.714  35.218  28.561  1.00  0.00     0.198 A 
ATOM    101  F   UNL A   1      45.773  33.549  29.834  1.00  0.00    -0.203 F 
ATOM    102  F   UNL A   1      41.257  36.295  28.481  1.00  0.00    -0.200 F 
ATOM    103  C   UNL A   1      43.570  35.916  28.208  1.00  0.00     0.200 A 
ATOM    104  F   UNL A   1      45.893  35.539  28.012  1.00  0.00    -0.200 F 
ATOM    105  F   UNL A   1      43.638  36.897  27.298  1.00  0.00    -0.200 F 
ENDBRANCH  72  95
ENDBRANCH  46  47
ENDBRANCH  39  41
ENDBRANCH  38  39
ENDBRANCH  37  38
ENDBRANCH  36  37
ENDBRANCH  35  36
ENDBRANCH  34  35
ENDBRANCH   1  34
TORSDOF 21
ENDMDL
