MODEL 1
REMARK VINA RESULT:     -11.2      0.000      0.000
REMARK SMILES Cc1cccc(C(=O)NCc2ccc(C(=O)OCCOCCOCCOC(=O)c3ccc(-c4c5nc(c(-c6c(F)c(F)c(F)c(F)c6F)c6ccc([nH]6)c(-c6c(F)c(F)c(F)c(F)c6F)c6nc(c(-c7c(F)c(F)c(F)c(F)c7F)c7ccc4[nH]7)C=C6)C=C5)cc3)o2)c1O
REMARK SMILES IDX 21 1 20 2 19 3 18 4 17 5 15 6 16 7 14 8 11 9 12 10 92 11
REMARK SMILES IDX 13 12 10 13 9 14 7 15 8 16 6 18 1 19 2 20 3 21 93 22 4 23
REMARK SMILES IDX 5 24 94 25 22 27 23 28 24 29 25 30 26 31 27 32 28 33 29 34
REMARK SMILES IDX 30 35 91 36 31 37 90 38 32 39 33 40 34 41 84 42 35 43 89 44
REMARK SMILES IDX 83 45 85 46 36 47 88 48 82 49 81 50 37 52 69 53 49 54 68 55
REMARK SMILES IDX 50 56 53 57 67 58 86 59 51 60 52 61 66 63 87 64 54 65 38 66
REMARK SMILES IDX 39 67 47 68 40 69 41 70 45 71 48 72 42 73 43 74 46 75 44 76
REMARK SMILES IDX 70 77 71 78 79 79 72 80 73 81 77 82 80 83 74 84 75 85 78 86
REMARK SMILES IDX 76 87 55 88 56 89 64 90 57 91 58 92 62 93 65 94 59 95 60 96
REMARK SMILES IDX 63 97 61 98
REMARK H PARENT 9 17 94 26 85 51 53 62
REMARK Flexibility Score: inf
ROOT
ATOM      1  C   UNL A   1      33.279  34.736  29.218  1.00  0.00     0.188 C 
ENDROOT
BRANCH   1   2
ATOM      2  O   UNL A   1      34.518  34.232  28.737  1.00  0.00    -0.376 OA
BRANCH   2   3
ATOM      3  C   UNL A   1      34.724  32.826  28.655  1.00  0.00     0.202 C 
BRANCH   3   4
ATOM      4  C   UNL A   1      33.589  31.998  28.051  1.00  0.00     0.261 C 
BRANCH   4   5
ATOM      5  O   UNL A   1      34.059  31.069  27.061  1.00  0.00    -0.457 OA
BRANCH   5   6
ATOM      6  C   UNL A   1      34.518  29.870  27.528  1.00  0.00     0.374 C 
ATOM      7  O   UNL A   1      35.462  29.736  28.298  1.00  0.00    -0.242 OA
BRANCH   6   8
ATOM      8  C   UNL A   1      33.637  28.812  27.087  1.00  0.00     0.211 A 
ATOM      9  C   UNL A   1      33.185  26.899  26.077  1.00  0.00     0.124 A 
ATOM     10  C   UNL A   1      32.020  27.295  26.702  1.00  0.00     0.048 A 
ATOM     11  O   UNL A   1      34.167  27.818  26.302  1.00  0.00    -0.452 OA
ATOM     12  C   UNL A   1      32.310  28.520  27.354  1.00  0.00     0.058 A 
BRANCH   9  13
ATOM     13  C   UNL A   1      33.534  25.726  25.232  1.00  0.00     0.191 C 
BRANCH  13  14
ATOM     14  N   UNL A   1      33.681  26.188  23.871  1.00  0.00    -0.345 N 
ATOM     15  C   UNL A   1      32.903  26.742  22.890  1.00  0.00     0.255 C 
ATOM     16  O   UNL A   1      33.506  26.864  21.820  1.00  0.00    -0.269 OA
ATOM     17  H   UNL A   1      34.607  26.070  23.559  1.00  0.00     0.164 HD
BRANCH  15  18
ATOM     18  C   UNL A   1      31.468  27.189  23.020  1.00  0.00     0.081 A 
ATOM     19  C   UNL A   1      29.366  30.334  22.216  1.00  0.00     0.048 C 
ATOM     20  C   UNL A   1      29.767  28.963  22.688  1.00  0.00    -0.008 A 
ATOM     21  C   UNL A   1      28.785  28.109  23.196  1.00  0.00     0.007 A 
ATOM     22  C   UNL A   1      31.100  28.501  22.622  1.00  0.00     0.131 A 
ATOM     23  C   UNL A   1      29.120  26.819  23.589  1.00  0.00     0.001 A 
ATOM     24  C   UNL A   1      30.436  26.357  23.471  1.00  0.00     0.018 A 
BRANCH  22  25
ATOM     25  O   UNL A   1      32.060  29.376  22.180  1.00  0.00    -0.507 OA
ATOM     26  H   UNL A   1      32.556  29.177  21.410  1.00  0.00     0.293 HD
ENDBRANCH  22  25
ENDBRANCH  15  18
ENDBRANCH  13  14
ENDBRANCH   9  13
ENDBRANCH   6   8
ENDBRANCH   5   6
ENDBRANCH   4   5
ENDBRANCH   3   4
ENDBRANCH   2   3
ENDBRANCH   1   2
BRANCH   1  27
ATOM     27  C   UNL A   1      33.244  35.596  30.495  1.00  0.00     0.188 C 
BRANCH  27  28
ATOM     28  O   UNL A   1      32.853  34.897  31.668  1.00  0.00    -0.376 OA
BRANCH  28  29
ATOM     29  C   UNL A   1      33.803  34.879  32.724  1.00  0.00     0.202 C 
BRANCH  29  30
ATOM     30  C   UNL A   1      35.137  34.261  32.296  1.00  0.00     0.261 C 
BRANCH  30  31
ATOM     31  O   UNL A   1      35.242  32.852  32.559  1.00  0.00    -0.460 OA
BRANCH  31  32
ATOM     32  C   UNL A   1      36.283  32.467  33.328  1.00  0.00     0.338 C 
ATOM     33  O   UNL A   1      36.408  32.614  34.531  1.00  0.00    -0.246 OA
BRANCH  32  34
ATOM     34  C   UNL A   1      37.213  31.682  32.497  1.00  0.00     0.060 A 
ATOM     35  C   UNL A   1      38.347  31.135  33.108  1.00  0.00     0.016 A 
ATOM     36  C   UNL A   1      36.994  31.524  31.126  1.00  0.00     0.016 A 
ATOM     37  C   UNL A   1      39.296  30.471  32.332  1.00  0.00     0.010 A 
ATOM     38  C   UNL A   1      37.951  30.868  30.348  1.00  0.00     0.010 A 
ATOM     39  C   UNL A   1      39.125  30.375  30.943  1.00  0.00    -0.014 A 
BRANCH  39  40
ATOM     40  C   UNL A   1      40.266  29.941  30.104  1.00  0.00     0.031 A 
ATOM     41  C   UNL A   1      41.375  30.923  29.840  1.00  0.00     0.074 A 
ATOM     42  C   UNL A   1      40.341  28.693  29.616  1.00  0.00     0.049 A 
ATOM     43  N   UNL A   1      42.503  30.752  29.201  1.00  0.00    -0.248 NA
ATOM     44  C   UNL A   1      41.183  32.283  30.370  1.00  0.00     0.031 C 
ATOM     45  C   UNL A   1      39.332  27.651  29.793  1.00  0.00     0.029 A 
ATOM     46  N   UNL A   1      41.320  28.091  28.865  1.00  0.00    -0.354 N 
ATOM     47  C   UNL A   1      43.159  31.974  29.260  1.00  0.00     0.074 A 
ATOM     48  C   UNL A   1      42.287  32.891  29.964  1.00  0.00     0.031 C 
ATOM     49  C   UNL A   1      39.744  26.536  29.165  1.00  0.00     0.029 A 
ATOM     50  C   UNL A   1      41.044  26.787  28.543  1.00  0.00     0.049 A 
ATOM     51  H   UNL A   1      42.143  28.553  28.585  1.00  0.00     0.167 HD
ATOM     52  C   UNL A   1      44.382  32.304  28.785  1.00  0.00     0.037 A 
ATOM     53  C   UNL A   1      41.763  25.900  27.828  1.00  0.00     0.037 A 
ATOM     54  C   UNL A   1      45.247  31.405  28.070  1.00  0.00     0.049 A 
ATOM     55  C   UNL A   1      43.112  26.298  27.285  1.00  0.00     0.074 A 
ATOM     56  C   UNL A   1      46.509  31.644  27.558  1.00  0.00     0.029 A 
ATOM     57  N   UNL A   1      44.930  30.092  27.760  1.00  0.00    -0.354 N 
ATOM     58  N   UNL A   1      43.748  27.439  27.396  1.00  0.00    -0.248 NA
ATOM     59  C   UNL A   1      43.847  25.275  26.528  1.00  0.00     0.031 C 
ATOM     60  C   UNL A   1      46.942  30.484  26.903  1.00  0.00     0.029 A 
ATOM     61  C   UNL A   1      45.967  29.511  27.048  1.00  0.00     0.049 A 
ATOM     62  H   UNL A   1      44.092  29.639  28.009  1.00  0.00     0.167 HD
ATOM     63  C   UNL A   1      44.964  27.264  26.748  1.00  0.00     0.074 A 
ATOM     64  C   UNL A   1      44.984  25.902  26.258  1.00  0.00     0.031 C 
ATOM     65  C   UNL A   1      45.975  28.152  26.574  1.00  0.00     0.037 A 
BRANCH  52  66
ATOM     66  C   UNL A   1      44.848  33.710  29.015  1.00  0.00     0.064 A 
ATOM     67  C   UNL A   1      45.590  34.057  30.155  1.00  0.00     0.173 A 
ATOM     68  C   UNL A   1      44.560  34.718  28.084  1.00  0.00     0.173 A 
ATOM     69  F   UNL A   1      45.873  33.131  31.083  1.00  0.00    -0.203 F 
ATOM     70  C   UNL A   1      46.006  35.369  30.365  1.00  0.00     0.198 A 
ATOM     71  C   UNL A   1      44.998  36.024  28.286  1.00  0.00     0.198 A 
ATOM     72  F   UNL A   1      43.853  34.436  26.980  1.00  0.00    -0.203 F 
ATOM     73  F   UNL A   1      46.674  35.687  31.482  1.00  0.00    -0.200 F 
ATOM     74  C   UNL A   1      45.714  36.349  29.429  1.00  0.00     0.200 A 
ATOM     75  F   UNL A   1      44.722  36.969  27.378  1.00  0.00    -0.200 F 
ATOM     76  F   UNL A   1      46.116  37.612  29.632  1.00  0.00    -0.200 F 
ENDBRANCH  52  66
BRANCH  53  77
ATOM     77  C   UNL A   1      41.237  24.530  27.601  1.00  0.00     0.064 A 
ATOM     78  C   UNL A   1      41.808  23.423  28.242  1.00  0.00     0.173 A 
ATOM     79  C   UNL A   1      40.171  24.300  26.721  1.00  0.00     0.173 A 
ATOM     80  F   UNL A   1      42.846  23.593  29.074  1.00  0.00    -0.203 F 
ATOM     81  C   UNL A   1      41.343  22.133  27.999  1.00  0.00     0.198 A 
ATOM     82  C   UNL A   1      39.691  23.012  26.496  1.00  0.00     0.198 A 
ATOM     83  F   UNL A   1      39.593  25.328  26.082  1.00  0.00    -0.203 F 
ATOM     84  F   UNL A   1      41.926  21.087  28.600  1.00  0.00    -0.200 F 
ATOM     85  C   UNL A   1      40.282  21.928  27.129  1.00  0.00     0.200 A 
ATOM     86  F   UNL A   1      38.661  22.819  25.661  1.00  0.00    -0.200 F 
ATOM     87  F   UNL A   1      39.833  20.688  26.899  1.00  0.00    -0.200 F 
ENDBRANCH  53  77
BRANCH  65  88
ATOM     88  C   UNL A   1      47.199  27.669  25.852  1.00  0.00     0.064 A 
ATOM     89  C   UNL A   1      47.303  27.735  24.456  1.00  0.00     0.173 A 
ATOM     90  C   UNL A   1      48.291  27.160  26.571  1.00  0.00     0.173 A 
ATOM     91  F   UNL A   1      46.281  28.201  23.723  1.00  0.00    -0.203 F 
ATOM     92  C   UNL A   1      48.448  27.283  23.802  1.00  0.00     0.198 A 
ATOM     93  C   UNL A   1      49.444  26.733  25.916  1.00  0.00     0.198 A 
ATOM     94  F   UNL A   1      48.243  27.083  27.909  1.00  0.00    -0.203 F 
ATOM     95  F   UNL A   1      48.508  27.312  22.464  1.00  0.00    -0.200 F 
ATOM     96  C   UNL A   1      49.518  26.788  24.533  1.00  0.00     0.200 A 
ATOM     97  F   UNL A   1      50.481  26.266  26.624  1.00  0.00    -0.200 F 
ATOM     98  F   UNL A   1      50.618  26.355  23.902  1.00  0.00    -0.200 F 
ENDBRANCH  65  88
ENDBRANCH  39  40
ENDBRANCH  32  34
ENDBRANCH  31  32
ENDBRANCH  30  31
ENDBRANCH  29  30
ENDBRANCH  28  29
ENDBRANCH  27  28
ENDBRANCH   1  27
TORSDOF 21
ENDMDL
MODEL 2
REMARK VINA RESULT:     -10.9      5.614     11.752
REMARK SMILES Cc1cccc(C(=O)NCc2ccc(C(=O)OCCOCCOCCOC(=O)c3ccc(-c4c5nc(c(-c6c(F)c(F)c(F)c(F)c6F)c6ccc([nH]6)c(-c6c(F)c(F)c(F)c(F)c6F)c6nc(c(-c7c(F)c(F)c(F)c(F)c7F)c7ccc4[nH]7)C=C6)C=C5)cc3)o2)c1O
REMARK SMILES IDX 21 1 20 2 19 3 18 4 17 5 15 6 16 7 14 8 11 9 12 10 92 11
REMARK SMILES IDX 13 12 10 13 9 14 7 15 8 16 6 18 1 19 2 20 3 21 93 22 4 23
REMARK SMILES IDX 5 24 94 25 22 27 23 28 24 29 25 30 26 31 27 32 28 33 29 34
REMARK SMILES IDX 30 35 91 36 31 37 90 38 32 39 33 40 34 41 84 42 35 43 89 44
REMARK SMILES IDX 83 45 85 46 36 47 88 48 82 49 81 50 37 52 69 53 49 54 68 55
REMARK SMILES IDX 50 56 53 57 67 58 86 59 51 60 52 61 66 63 87 64 54 65 38 66
REMARK SMILES IDX 39 67 47 68 40 69 41 70 45 71 48 72 42 73 43 74 46 75 44 76
REMARK SMILES IDX 70 77 71 78 79 79 72 80 73 81 77 82 80 83 74 84 75 85 78 86
REMARK SMILES IDX 76 87 55 88 56 89 64 90 57 91 58 92 62 93 65 94 59 95 60 96
REMARK SMILES IDX 63 97 61 98
REMARK H PARENT 9 17 94 26 85 51 53 62
REMARK Flexibility Score: inf
ROOT
ATOM      1  C   UNL A   1      44.066  18.393  25.746  1.00  0.00     0.188 C 
ENDROOT
BRANCH   1   2
ATOM      2  O   UNL A   1      44.440  18.568  24.384  1.00  0.00    -0.376 OA
BRANCH   2   3
ATOM      3  C   UNL A   1      45.528  19.425  24.056  1.00  0.00     0.202 C 
BRANCH   3   4
ATOM      4  C   UNL A   1      45.736  20.648  24.952  1.00  0.00     0.261 C 
BRANCH   4   5
ATOM      5  O   UNL A   1      44.583  21.505  24.979  1.00  0.00    -0.457 OA
BRANCH   5   6
ATOM      6  C   UNL A   1      44.501  22.437  23.984  1.00  0.00     0.374 C 
ATOM      7  O   UNL A   1      44.286  22.181  22.805  1.00  0.00    -0.242 OA
BRANCH   6   8
ATOM      8  C   UNL A   1      44.568  23.762  24.557  1.00  0.00     0.211 A 
ATOM      9  C   UNL A   1      45.626  25.588  25.213  1.00  0.00     0.124 A 
ATOM     10  C   UNL A   1      44.277  25.850  25.343  1.00  0.00     0.048 A 
ATOM     11  O   UNL A   1      45.808  24.321  24.743  1.00  0.00    -0.452 OA
ATOM     12  C   UNL A   1      43.598  24.682  24.918  1.00  0.00     0.058 A 
BRANCH   9  13
ATOM     13  C   UNL A   1      46.846  26.388  25.500  1.00  0.00     0.191 C 
BRANCH  13  14
ATOM     14  N   UNL A   1      47.785  25.534  26.190  1.00  0.00    -0.345 N 
ATOM     15  C   UNL A   1      47.926  24.956  27.423  1.00  0.00     0.255 C 
ATOM     16  O   UNL A   1      49.007  24.373  27.552  1.00  0.00    -0.269 OA
ATOM     17  H   UNL A   1      48.540  25.298  25.604  1.00  0.00     0.164 HD
BRANCH  15  18
ATOM     18  C   UNL A   1      46.924  24.977  28.550  1.00  0.00     0.081 A 
ATOM     19  C   UNL A   1      43.727  23.055  29.571  1.00  0.00     0.048 C 
ATOM     20  C   UNL A   1      44.867  24.036  29.569  1.00  0.00    -0.008 A 
ATOM     21  C   UNL A   1      45.003  24.919  30.643  1.00  0.00     0.007 A 
ATOM     22  C   UNL A   1      45.818  24.086  28.526  1.00  0.00     0.131 A 
ATOM     23  C   UNL A   1      46.077  25.799  30.691  1.00  0.00     0.001 A 
ATOM     24  C   UNL A   1      47.040  25.802  29.674  1.00  0.00     0.018 A 
BRANCH  22  25
ATOM     25  O   UNL A   1      45.633  23.255  27.450  1.00  0.00    -0.507 OA
ATOM     26  H   UNL A   1      45.421  22.352  27.587  1.00  0.00     0.293 HD
ENDBRANCH  22  25
ENDBRANCH  15  18
ENDBRANCH  13  14
ENDBRANCH   9  13
ENDBRANCH   6   8
ENDBRANCH   5   6
ENDBRANCH   4   5
ENDBRANCH   3   4
ENDBRANCH   2   3
ENDBRANCH   1   2
BRANCH   1  27
ATOM     27  C   UNL A   1      42.592  18.553  26.162  1.00  0.00     0.188 C 
BRANCH  27  28
ATOM     28  O   UNL A   1      42.175  19.897  26.357  1.00  0.00    -0.376 OA
BRANCH  28  29
ATOM     29  C   UNL A   1      40.905  20.069  26.969  1.00  0.00     0.202 C 
BRANCH  29  30
ATOM     30  C   UNL A   1      40.026  21.070  26.213  1.00  0.00     0.261 C 
BRANCH  30  31
ATOM     31  O   UNL A   1      40.524  22.418  26.232  1.00  0.00    -0.460 OA
BRANCH  31  32
ATOM     32  C   UNL A   1      39.599  23.390  26.388  1.00  0.00     0.338 C 
ATOM     33  O   UNL A   1      38.390  23.283  26.296  1.00  0.00    -0.246 OA
BRANCH  32  34
ATOM     34  C   UNL A   1      40.280  24.612  26.853  1.00  0.00     0.060 A 
ATOM     35  C   UNL A   1      40.764  24.642  28.166  1.00  0.00     0.016 A 
ATOM     36  C   UNL A   1      40.400  25.729  26.022  1.00  0.00     0.016 A 
ATOM     37  C   UNL A   1      41.325  25.816  28.668  1.00  0.00     0.010 A 
ATOM     38  C   UNL A   1      40.952  26.908  26.530  1.00  0.00     0.010 A 
ATOM     39  C   UNL A   1      41.378  26.966  27.868  1.00  0.00    -0.014 A 
BRANCH  39  40
ATOM     40  C   UNL A   1      41.693  28.269  28.499  1.00  0.00     0.031 A 
ATOM     41  C   UNL A   1      43.135  28.680  28.612  1.00  0.00     0.074 A 
ATOM     42  C   UNL A   1      40.722  29.091  28.929  1.00  0.00     0.049 A 
ATOM     43  N   UNL A   1      43.650  29.798  29.056  1.00  0.00    -0.248 NA
ATOM     44  C   UNL A   1      44.132  27.694  28.163  1.00  0.00     0.031 C 
ATOM     45  C   UNL A   1      39.290  28.808  28.883  1.00  0.00     0.029 A 
ATOM     46  N   UNL A   1      40.802  30.339  29.494  1.00  0.00    -0.354 N 
ATOM     47  C   UNL A   1      45.025  29.655  28.931  1.00  0.00     0.074 A 
ATOM     48  C   UNL A   1      45.269  28.329  28.405  1.00  0.00     0.031 C 
ATOM     49  C   UNL A   1      38.623  29.855  29.402  1.00  0.00     0.029 A 
ATOM     50  C   UNL A   1      39.583  30.878  29.815  1.00  0.00     0.049 A 
ATOM     51  H   UNL A   1      41.656  30.804  29.653  1.00  0.00     0.167 HD
ATOM     52  C   UNL A   1      46.000  30.550  29.215  1.00  0.00     0.037 A 
ATOM     53  C   UNL A   1      39.281  32.065  30.377  1.00  0.00     0.037 A 
ATOM     54  C   UNL A   1      45.767  31.863  29.752  1.00  0.00     0.049 A 
ATOM     55  C   UNL A   1      40.385  33.036  30.709  1.00  0.00     0.074 A 
ATOM     56  C   UNL A   1      46.689  32.846  30.063  1.00  0.00     0.029 A 
ATOM     57  N   UNL A   1      44.517  32.372  30.068  1.00  0.00    -0.354 N 
ATOM     58  N   UNL A   1      41.678  32.914  30.533  1.00  0.00    -0.248 NA
ATOM     59  C   UNL A   1      39.981  34.317  31.305  1.00  0.00     0.031 C 
ATOM     60  C   UNL A   1      45.999  33.938  30.603  1.00  0.00     0.029 A 
ATOM     61  C   UNL A   1      44.644  33.651  30.586  1.00  0.00     0.049 A 
ATOM     62  H   UNL A   1      43.664  31.895  29.943  1.00  0.00     0.167 HD
ATOM     63  C   UNL A   1      42.238  34.107  30.972  1.00  0.00     0.074 A 
ATOM     64  C   UNL A   1      41.143  34.947  31.409  1.00  0.00     0.031 C 
ATOM     65  C   UNL A   1      43.543  34.476  31.010  1.00  0.00     0.037 A 
BRANCH  52  66
ATOM     66  C   UNL A   1      47.414  30.125  28.957  1.00  0.00     0.064 A 
ATOM     67  C   UNL A   1      48.121  29.341  29.881  1.00  0.00     0.173 A 
ATOM     68  C   UNL A   1      48.064  30.494  27.771  1.00  0.00     0.173 A 
ATOM     69  F   UNL A   1      47.547  28.979  31.039  1.00  0.00    -0.203 F 
ATOM     70  C   UNL A   1      49.438  28.962  29.637  1.00  0.00     0.198 A 
ATOM     71  C   UNL A   1      49.373  30.093  27.520  1.00  0.00     0.198 A 
ATOM     72  F   UNL A   1      47.430  31.243  26.858  1.00  0.00    -0.203 F 
ATOM     73  F   UNL A   1      50.110  28.252  30.554  1.00  0.00    -0.200 F 
ATOM     74  C   UNL A   1      50.061  29.334  28.456  1.00  0.00     0.200 A 
ATOM     75  F   UNL A   1      49.972  30.448  26.375  1.00  0.00    -0.200 F 
ATOM     76  F   UNL A   1      51.330  28.969  28.222  1.00  0.00    -0.200 F 
ENDBRANCH  52  66
BRANCH  53  77
ATOM     77  C   UNL A   1      37.864  32.421  30.643  1.00  0.00     0.064 A 
ATOM     78  C   UNL A   1      37.087  33.062  29.669  1.00  0.00     0.173 A 
ATOM     79  C   UNL A   1      37.268  32.146  31.881  1.00  0.00     0.173 A 
ATOM     80  F   UNL A   1      37.623  33.366  28.478  1.00  0.00    -0.203 F 
ATOM     81  C   UNL A   1      35.770  33.433  29.931  1.00  0.00     0.198 A 
ATOM     82  C   UNL A   1      35.944  32.497  32.134  1.00  0.00     0.198 A 
ATOM     83  F   UNL A   1      37.972  31.534  32.845  1.00  0.00    -0.203 F 
ATOM     84  F   UNL A   1      35.057  34.076  28.995  1.00  0.00    -0.200 F 
ATOM     85  C   UNL A   1      35.198  33.147  31.161  1.00  0.00     0.200 A 
ATOM     86  F   UNL A   1      35.392  32.212  33.321  1.00  0.00    -0.200 F 
ATOM     87  F   UNL A   1      33.931  33.501  31.410  1.00  0.00    -0.200 F 
ENDBRANCH  53  77
BRANCH  65  88
ATOM     88  C   UNL A   1      43.855  35.856  31.510  1.00  0.00     0.064 A 
ATOM     89  C   UNL A   1      44.043  36.119  32.875  1.00  0.00     0.173 A 
ATOM     90  C   UNL A   1      43.995  36.922  30.609  1.00  0.00     0.173 A 
ATOM     91  F   UNL A   1      43.906  35.136  33.777  1.00  0.00    -0.203 F 
ATOM     92  C   UNL A   1      44.333  37.406  33.321  1.00  0.00     0.198 A 
ATOM     93  C   UNL A   1      44.311  38.203  31.057  1.00  0.00     0.198 A 
ATOM     94  F   UNL A   1      43.832  36.721  29.293  1.00  0.00    -0.203 F 
ATOM     95  F   UNL A   1      44.462  37.644  34.634  1.00  0.00    -0.200 F 
ATOM     96  C   UNL A   1      44.472  38.444  32.412  1.00  0.00     0.200 A 
ATOM     97  F   UNL A   1      44.455  39.202  30.177  1.00  0.00    -0.200 F 
ATOM     98  F   UNL A   1      44.751  39.682  32.845  1.00  0.00    -0.200 F 
ENDBRANCH  65  88
ENDBRANCH  39  40
ENDBRANCH  32  34
ENDBRANCH  31  32
ENDBRANCH  30  31
ENDBRANCH  29  30
ENDBRANCH  28  29
ENDBRANCH  27  28
ENDBRANCH   1  27
TORSDOF 21
ENDMDL
MODEL 3
REMARK VINA RESULT:     -10.8      5.123      8.014
REMARK SMILES Cc1cccc(C(=O)NCc2ccc(C(=O)OCCOCCOCCOC(=O)c3ccc(-c4c5nc(c(-c6c(F)c(F)c(F)c(F)c6F)c6ccc([nH]6)c(-c6c(F)c(F)c(F)c(F)c6F)c6nc(c(-c7c(F)c(F)c(F)c(F)c7F)c7ccc4[nH]7)C=C6)C=C5)cc3)o2)c1O
REMARK SMILES IDX 21 1 20 2 19 3 18 4 17 5 15 6 16 7 14 8 11 9 12 10 92 11
REMARK SMILES IDX 13 12 10 13 9 14 7 15 8 16 6 18 1 19 2 20 3 21 93 22 4 23
REMARK SMILES IDX 5 24 94 25 22 27 23 28 24 29 25 30 26 31 27 32 28 33 29 34
REMARK SMILES IDX 30 35 91 36 31 37 90 38 32 39 33 40 34 41 84 42 35 43 89 44
REMARK SMILES IDX 83 45 85 46 36 47 88 48 82 49 81 50 37 52 69 53 49 54 68 55
REMARK SMILES IDX 50 56 53 57 67 58 86 59 51 60 52 61 66 63 87 64 54 65 38 66
REMARK SMILES IDX 39 67 47 68 40 69 41 70 45 71 48 72 42 73 43 74 46 75 44 76
REMARK SMILES IDX 70 77 71 78 79 79 72 80 73 81 77 82 80 83 74 84 75 85 78 86
REMARK SMILES IDX 76 87 55 88 56 89 64 90 57 91 58 92 62 93 65 94 59 95 60 96
REMARK SMILES IDX 63 97 61 98
REMARK H PARENT 9 17 94 26 85 51 53 62
REMARK Flexibility Score: inf
ROOT
ATOM      1  C   UNL A   1      35.050  31.183  28.128  1.00  0.00     0.188 C 
ENDROOT
BRANCH   1   2
ATOM      2  O   UNL A   1      34.288  30.566  27.097  1.00  0.00    -0.376 OA
BRANCH   2   3
ATOM      3  C   UNL A   1      32.867  30.578  27.165  1.00  0.00     0.202 C 
BRANCH   3   4
ATOM      4  C   UNL A   1      32.166  29.218  27.161  1.00  0.00     0.261 C 
BRANCH   4   5
ATOM      5  O   UNL A   1      33.094  28.127  27.047  1.00  0.00    -0.457 OA
BRANCH   5   6
ATOM      6  C   UNL A   1      33.121  27.482  25.842  1.00  0.00     0.374 C 
ATOM      7  O   UNL A   1      33.856  27.780  24.908  1.00  0.00    -0.242 OA
BRANCH   6   8
ATOM      8  C   UNL A   1      32.258  26.325  25.896  1.00  0.00     0.211 A 
ATOM      9  C   UNL A   1      31.737  24.265  26.505  1.00  0.00     0.124 A 
ATOM     10  C   UNL A   1      30.613  24.789  25.901  1.00  0.00     0.048 A 
ATOM     11  O   UNL A   1      32.739  25.189  26.499  1.00  0.00    -0.452 OA
ATOM     12  C   UNL A   1      30.944  26.112  25.514  1.00  0.00     0.058 A 
BRANCH   9  13
ATOM     13  C   UNL A   1      32.039  22.939  27.107  1.00  0.00     0.191 C 
BRANCH  13  14
ATOM     14  N   UNL A   1      31.963  21.948  26.058  1.00  0.00    -0.345 N 
ATOM     15  C   UNL A   1      32.756  21.457  25.056  1.00  0.00     0.255 C 
ATOM     16  O   UNL A   1      32.162  20.650  24.335  1.00  0.00    -0.269 OA
ATOM     17  H   UNL A   1      31.089  21.496  26.066  1.00  0.00     0.164 HD
BRANCH  15  18
ATOM     18  C   UNL A   1      34.201  21.803  24.797  1.00  0.00     0.081 A 
ATOM     19  C   UNL A   1      37.617  19.991  24.769  1.00  0.00     0.048 C 
ATOM     20  C   UNL A   1      36.564  21.061  24.674  1.00  0.00    -0.008 A 
ATOM     21  C   UNL A   1      36.944  22.352  24.298  1.00  0.00     0.007 A 
ATOM     22  C   UNL A   1      35.201  20.805  24.937  1.00  0.00     0.131 A 
ATOM     23  C   UNL A   1      35.984  23.345  24.151  1.00  0.00     0.001 A 
ATOM     24  C   UNL A   1      34.629  23.064  24.366  1.00  0.00     0.018 A 
BRANCH  22  25
ATOM     25  O   UNL A   1      34.857  19.548  25.366  1.00  0.00    -0.507 OA
ATOM     26  H   UNL A   1      35.524  18.941  25.622  1.00  0.00     0.293 HD
ENDBRANCH  22  25
ENDBRANCH  15  18
ENDBRANCH  13  14
ENDBRANCH   9  13
ENDBRANCH   6   8
ENDBRANCH   5   6
ENDBRANCH   4   5
ENDBRANCH   3   4
ENDBRANCH   2   3
ENDBRANCH   1   2
BRANCH   1  27
ATOM     27  C   UNL A   1      35.268  32.707  28.112  1.00  0.00     0.188 C 
BRANCH  27  28
ATOM     28  O   UNL A   1      34.156  33.469  28.559  1.00  0.00    -0.376 OA
BRANCH  28  29
ATOM     29  C   UNL A   1      34.258  34.876  28.387  1.00  0.00     0.202 C 
BRANCH  29  30
ATOM     30  C   UNL A   1      33.151  35.633  29.126  1.00  0.00     0.261 C 
BRANCH  30  31
ATOM     31  O   UNL A   1      32.633  34.941  30.274  1.00  0.00    -0.460 OA
BRANCH  31  32
ATOM     32  C   UNL A   1      32.839  35.535  31.469  1.00  0.00     0.338 C 
ATOM     33  O   UNL A   1      32.141  36.376  32.007  1.00  0.00    -0.246 OA
BRANCH  32  34
ATOM     34  C   UNL A   1      33.991  34.887  32.121  1.00  0.00     0.060 A 
ATOM     35  C   UNL A   1      35.204  35.583  32.168  1.00  0.00     0.016 A 
ATOM     36  C   UNL A   1      33.890  33.593  32.639  1.00  0.00     0.016 A 
ATOM     37  C   UNL A   1      36.337  34.960  32.688  1.00  0.00     0.010 A 
ATOM     38  C   UNL A   1      35.028  32.966  33.150  1.00  0.00     0.010 A 
ATOM     39  C   UNL A   1      36.265  33.634  33.139  1.00  0.00    -0.014 A 
BRANCH  39  40
ATOM     40  C   UNL A   1      37.521  32.893  33.404  1.00  0.00     0.031 A 
ATOM     41  C   UNL A   1      38.248  33.156  34.694  1.00  0.00     0.074 A 
ATOM     42  C   UNL A   1      37.989  31.978  32.540  1.00  0.00     0.049 A 
ATOM     43  N   UNL A   1      39.319  32.582  35.178  1.00  0.00    -0.248 NA
ATOM     44  C   UNL A   1      37.690  34.213  35.555  1.00  0.00     0.031 C 
ATOM     45  C   UNL A   1      37.384  31.636  31.256  1.00  0.00     0.029 A 
ATOM     46  N   UNL A   1      39.094  31.167  32.621  1.00  0.00    -0.354 N 
ATOM     47  C   UNL A   1      39.557  33.197  36.400  1.00  0.00     0.074 A 
ATOM     48  C   UNL A   1      38.542  34.215  36.568  1.00  0.00     0.031 C 
ATOM     49  C   UNL A   1      38.128  30.684  30.665  1.00  0.00     0.029 A 
ATOM     50  C   UNL A   1      39.259  30.352  31.530  1.00  0.00     0.049 A 
ATOM     51  H   UNL A   1      39.709  31.171  33.389  1.00  0.00     0.167 HD
ATOM     52  C   UNL A   1      40.523  32.931  37.309  1.00  0.00     0.037 A 
ATOM     53  C   UNL A   1      40.216  29.441  31.266  1.00  0.00     0.037 A 
ATOM     54  C   UNL A   1      41.544  31.932  37.142  1.00  0.00     0.049 A 
ATOM     55  C   UNL A   1      41.299  29.181  32.282  1.00  0.00     0.074 A 
ATOM     56  C   UNL A   1      42.561  31.582  38.012  1.00  0.00     0.029 A 
ATOM     57  N   UNL A   1      41.681  31.128  36.021  1.00  0.00    -0.354 N 
ATOM     58  N   UNL A   1      41.482  29.728  33.459  1.00  0.00    -0.248 NA
ATOM     59  C   UNL A   1      42.301  28.163  31.933  1.00  0.00     0.031 C 
ATOM     60  C   UNL A   1      43.338  30.591  37.400  1.00  0.00     0.029 A 
ATOM     61  C   UNL A   1      42.776  30.293  36.169  1.00  0.00     0.049 A 
ATOM     62  H   UNL A   1      41.088  31.149  35.236  1.00  0.00     0.167 HD
ATOM     63  C   UNL A   1      42.599  29.105  34.001  1.00  0.00     0.074 A 
ATOM     64  C   UNL A   1      43.045  28.128  33.030  1.00  0.00     0.031 C 
ATOM     65  C   UNL A   1      43.203  29.322  35.196  1.00  0.00     0.037 A 
BRANCH  52  66
ATOM     66  C   UNL A   1      40.524  33.750  38.564  1.00  0.00     0.064 A 
ATOM     67  C   UNL A   1      41.337  34.887  38.694  1.00  0.00     0.173 A 
ATOM     68  C   UNL A   1      39.698  33.404  39.642  1.00  0.00     0.173 A 
ATOM     69  F   UNL A   1      42.159  35.247  37.697  1.00  0.00    -0.203 F 
ATOM     70  C   UNL A   1      41.340  35.633  39.870  1.00  0.00     0.198 A 
ATOM     71  C   UNL A   1      39.685  34.166  40.807  1.00  0.00     0.198 A 
ATOM     72  F   UNL A   1      38.904  32.326  39.565  1.00  0.00    -0.203 F 
ATOM     73  F   UNL A   1      42.157  36.688  39.990  1.00  0.00    -0.200 F 
ATOM     74  C   UNL A   1      40.511  35.275  40.922  1.00  0.00     0.200 A 
ATOM     75  F   UNL A   1      38.880  33.824  41.821  1.00  0.00    -0.200 F 
ATOM     76  F   UNL A   1      40.514  35.994  42.053  1.00  0.00    -0.200 F 
ENDBRANCH  52  66
BRANCH  53  77
ATOM     77  C   UNL A   1      40.186  28.683  29.990  1.00  0.00     0.064 A 
ATOM     78  C   UNL A   1      40.799  29.190  28.836  1.00  0.00     0.173 A 
ATOM     79  C   UNL A   1      39.527  27.451  29.894  1.00  0.00     0.173 A 
ATOM     80  F   UNL A   1      41.421  30.377  28.875  1.00  0.00    -0.203 F 
ATOM     81  C   UNL A   1      40.737  28.499  27.628  1.00  0.00     0.198 A 
ATOM     82  C   UNL A   1      39.485  26.750  28.691  1.00  0.00     0.198 A 
ATOM     83  F   UNL A   1      38.925  26.926  30.972  1.00  0.00    -0.203 F 
ATOM     84  F   UNL A   1      41.302  29.020  26.530  1.00  0.00    -0.200 F 
ATOM     85  C   UNL A   1      40.084  27.278  27.557  1.00  0.00     0.200 A 
ATOM     86  F   UNL A   1      38.860  25.567  28.628  1.00  0.00    -0.200 F 
ATOM     87  F   UNL A   1      40.029  26.614  26.395  1.00  0.00    -0.200 F 
ENDBRANCH  53  77
BRANCH  65  88
ATOM     88  C   UNL A   1      44.389  28.467  35.534  1.00  0.00     0.064 A 
ATOM     89  C   UNL A   1      45.695  28.858  35.204  1.00  0.00     0.173 A 
ATOM     90  C   UNL A   1      44.218  27.255  36.221  1.00  0.00     0.173 A 
ATOM     91  F   UNL A   1      45.910  30.001  34.535  1.00  0.00    -0.203 F 
ATOM     92  C   UNL A   1      46.785  28.052  35.527  1.00  0.00     0.198 A 
ATOM     93  C   UNL A   1      45.312  26.466  36.564  1.00  0.00     0.198 A 
ATOM     94  F   UNL A   1      42.990  26.841  36.565  1.00  0.00    -0.203 F 
ATOM     95  F   UNL A   1      48.020  28.422  35.161  1.00  0.00    -0.200 F 
ATOM     96  C   UNL A   1      46.593  26.861  36.211  1.00  0.00     0.200 A 
ATOM     97  F   UNL A   1      45.126  25.321  37.234  1.00  0.00    -0.200 F 
ATOM     98  F   UNL A   1      47.643  26.088  36.520  1.00  0.00    -0.200 F 
ENDBRANCH  65  88
ENDBRANCH  39  40
ENDBRANCH  32  34
ENDBRANCH  31  32
ENDBRANCH  30  31
ENDBRANCH  29  30
ENDBRANCH  28  29
ENDBRANCH  27  28
ENDBRANCH   1  27
TORSDOF 21
ENDMDL
