MODEL 1
REMARK VINA RESULT:     -11.3      0.000      0.000
REMARK SMILES CS(=O)(=O)c1cc(F)ccc1N1CCC[C@@H](C(=O)OCCOCCOCCOC(=O)c2ccc(-c3c4nc(c(-c5c(F)c(F)c(F)c(F)c5F)c5ccc([nH]5)c(-c5c(F)c(F)c(F)c(F)c5F)c5nc(c(-c6c(F)c(F)c(F)c(F)c6F)c6ccc3[nH]6)C=C5)C=C4)cc2)C1
REMARK SMILES IDX 23 1 22 2 21 3 20 4 19 5 17 6 18 7 16 8 12 9 13 10 94 11
REMARK SMILES IDX 14 12 15 13 11 14 5 15 6 16 7 17 10 18 8 19 9 20 2 21 1 22
REMARK SMILES IDX 3 23 4 24 24 25 25 26 26 27 27 28 28 29 29 30 30 31 31 32
REMARK SMILES IDX 32 33 93 34 33 35 92 36 34 37 35 38 36 39 86 40 37 41 91 42
REMARK SMILES IDX 85 43 87 44 38 45 90 46 84 47 83 48 39 50 71 51 51 52 70 53
REMARK SMILES IDX 52 54 55 55 69 56 88 57 53 58 54 59 68 61 89 62 56 63 40 64
REMARK SMILES IDX 41 65 49 66 42 67 43 68 47 69 50 70 44 71 45 72 48 73 46 74
REMARK SMILES IDX 72 75 73 76 81 77 74 78 75 79 79 80 82 81 76 82 77 83 80 84
REMARK SMILES IDX 78 85 57 86 58 87 66 88 59 89 60 90 64 91 67 92 61 93 62 94
REMARK SMILES IDX 65 95 63 96
REMARK H PARENT 87 49 55 60
REMARK Flexibility Score: inf
ROOT
ATOM      1  C   UNL A   1      40.080  20.937  26.071  1.00  0.00     0.188 C 
ENDROOT
BRANCH   1   2
ATOM      2  O   UNL A   1      38.788  20.822  25.519  1.00  0.00    -0.376 OA
BRANCH   2   3
ATOM      3  C   UNL A   1      37.908  21.925  25.446  1.00  0.00     0.202 C 
BRANCH   3   4
ATOM      4  C   UNL A   1      36.451  21.800  24.986  1.00  0.00     0.261 C 
BRANCH   4   5
ATOM      5  O   UNL A   1      35.592  22.893  25.321  1.00  0.00    -0.463 OA
BRANCH   5   6
ATOM      6  C   UNL A   1      34.933  23.451  24.273  1.00  0.00     0.310 C 
ATOM      7  O   UNL A   1      35.417  23.646  23.165  1.00  0.00    -0.252 OA
BRANCH   6   8
ATOM      8  C   UNL A   1      33.511  23.821  24.643  1.00  0.00     0.118 C 
ATOM      9  N   UNL A   1      31.751  25.193  23.630  1.00  0.00    -0.370 N 
ATOM     10  C   UNL A   1      30.768  24.113  23.576  1.00  0.00     0.116 C 
ATOM     11  C   UNL A   1      33.141  24.817  23.570  1.00  0.00     0.131 C 
ATOM     12  C   UNL A   1      31.083  23.082  24.665  1.00  0.00     0.022 C 
ATOM     13  C   UNL A   1      32.547  22.629  24.634  1.00  0.00     0.019 C 
BRANCH   9  14
ATOM     14  C   UNL A   1      31.408  26.527  23.654  1.00  0.00     0.056 A 
ATOM     15  C   UNL A   1      31.228  27.319  24.814  1.00  0.00     0.093 A 
ATOM     16  C   UNL A   1      30.708  28.623  24.699  1.00  0.00     0.061 A 
ATOM     17  C   UNL A   1      30.401  29.152  23.455  1.00  0.00     0.124 A 
ATOM     18  C   UNL A   1      31.103  27.122  22.407  1.00  0.00     0.030 A 
ATOM     19  F   UNL A   1      29.923  30.399  23.367  1.00  0.00    -0.207 F 
ATOM     20  C   UNL A   1      30.609  28.419  22.302  1.00  0.00     0.041 A 
BRANCH  15  21
ATOM     21  S   UNL A   1      31.927  26.917  26.430  1.00  0.00     0.177 S 
ATOM     22  C   UNL A   1      31.488  28.151  27.621  1.00  0.00     0.164 C 
ATOM     23  O   UNL A   1      33.370  27.038  26.289  1.00  0.00    -0.224 OA
ATOM     24  O   UNL A   1      31.358  25.651  26.851  1.00  0.00    -0.224 OA
ENDBRANCH  15  21
ENDBRANCH   9  14
ENDBRANCH   6   8
ENDBRANCH   5   6
ENDBRANCH   4   5
ENDBRANCH   3   4
ENDBRANCH   2   3
ENDBRANCH   1   2
BRANCH   1  25
ATOM     25  C   UNL A   1      41.012  19.713  26.220  1.00  0.00     0.188 C 
BRANCH  25  26
ATOM     26  O   UNL A   1      42.105  19.541  25.352  1.00  0.00    -0.376 OA
BRANCH  26  27
ATOM     27  C   UNL A   1      43.396  19.960  25.748  1.00  0.00     0.202 C 
BRANCH  27  28
ATOM     28  C   UNL A   1      43.990  21.338  25.405  1.00  0.00     0.261 C 
BRANCH  28  29
ATOM     29  O   UNL A   1      43.517  22.465  26.157  1.00  0.00    -0.460 OA
BRANCH  29  30
ATOM     30  C   UNL A   1      43.290  23.597  25.444  1.00  0.00     0.338 C 
ATOM     31  O   UNL A   1      43.385  23.738  24.230  1.00  0.00    -0.246 OA
BRANCH  30  32
ATOM     32  C   UNL A   1      42.714  24.637  26.318  1.00  0.00     0.060 A 
ATOM     33  C   UNL A   1      43.249  25.934  26.277  1.00  0.00     0.016 A 
ATOM     34  C   UNL A   1      41.684  24.329  27.205  1.00  0.00     0.016 A 
ATOM     35  C   UNL A   1      42.767  26.923  27.137  1.00  0.00     0.010 A 
ATOM     36  C   UNL A   1      41.220  25.314  28.085  1.00  0.00     0.010 A 
ATOM     37  C   UNL A   1      41.776  26.609  28.075  1.00  0.00    -0.014 A 
BRANCH  37  38
ATOM     38  C   UNL A   1      41.429  27.566  29.156  1.00  0.00     0.031 A 
ATOM     39  C   UNL A   1      42.231  27.538  30.427  1.00  0.00     0.074 A 
ATOM     40  C   UNL A   1      40.420  28.445  29.020  1.00  0.00     0.049 A 
ATOM     41  N   UNL A   1      42.040  28.188  31.547  1.00  0.00    -0.248 NA
ATOM     42  C   UNL A   1      43.408  26.655  30.437  1.00  0.00     0.031 C 
ATOM     43  C   UNL A   1      39.608  28.621  27.820  1.00  0.00     0.029 A 
ATOM     44  N   UNL A   1      39.899  29.349  29.917  1.00  0.00    -0.354 N 
ATOM     45  C   UNL A   1      43.062  27.784  32.395  1.00  0.00     0.074 A 
ATOM     46  C   UNL A   1      43.859  26.818  31.672  1.00  0.00     0.031 C 
ATOM     47  C   UNL A   1      38.679  29.563  28.058  1.00  0.00     0.029 A 
ATOM     48  C   UNL A   1      38.800  30.022  29.443  1.00  0.00     0.049 A 
ATOM     49  H   UNL A   1      40.277  29.497  30.814  1.00  0.00     0.167 HD
ATOM     50  C   UNL A   1      43.314  28.188  33.663  1.00  0.00     0.037 A 
ATOM     51  C   UNL A   1      37.969  30.884  30.063  1.00  0.00     0.037 A 
ATOM     52  C   UNL A   1      42.522  29.152  34.381  1.00  0.00     0.049 A 
ATOM     53  C   UNL A   1      38.211  31.248  31.508  1.00  0.00     0.074 A 
ATOM     54  C   UNL A   1      42.711  29.632  35.664  1.00  0.00     0.029 A 
ATOM     55  N   UNL A   1      41.392  29.779  33.879  1.00  0.00    -0.354 N 
ATOM     56  N   UNL A   1      39.178  30.862  32.306  1.00  0.00    -0.248 NA
ATOM     57  C   UNL A   1      37.247  32.159  32.141  1.00  0.00     0.031 C 
ATOM     58  C   UNL A   1      41.658  30.500  35.964  1.00  0.00     0.029 A 
ATOM     59  C   UNL A   1      40.854  30.617  34.842  1.00  0.00     0.049 A 
ATOM     60  H   UNL A   1      41.026  29.648  32.974  1.00  0.00     0.167 HD
ATOM     61  C   UNL A   1      38.955  31.503  33.519  1.00  0.00     0.074 A 
ATOM     62  C   UNL A   1      37.765  32.310  33.352  1.00  0.00     0.031 C 
ATOM     63  C   UNL A   1      39.675  31.429  34.665  1.00  0.00     0.037 A 
BRANCH  50  64
ATOM     64  C   UNL A   1      44.482  27.573  34.377  1.00  0.00     0.064 A 
ATOM     65  C   UNL A   1      44.314  26.402  35.132  1.00  0.00     0.173 A 
ATOM     66  C   UNL A   1      45.746  28.183  34.384  1.00  0.00     0.173 A 
ATOM     67  F   UNL A   1      43.124  25.783  35.164  1.00  0.00    -0.203 F 
ATOM     68  C   UNL A   1      45.362  25.875  35.882  1.00  0.00     0.198 A 
ATOM     69  C   UNL A   1      46.800  27.635  35.110  1.00  0.00     0.198 A 
ATOM     70  F   UNL A   1      45.962  29.296  33.667  1.00  0.00    -0.203 F 
ATOM     71  F   UNL A   1      45.165  24.779  36.627  1.00  0.00    -0.200 F 
ATOM     72  C   UNL A   1      46.604  26.490  35.868  1.00  0.00     0.200 A 
ATOM     73  F   UNL A   1      48.007  28.216  35.076  1.00  0.00    -0.200 F 
ATOM     74  F   UNL A   1      47.614  25.978  36.585  1.00  0.00    -0.200 F 
ENDBRANCH  50  64
BRANCH  51  75
ATOM     75  C   UNL A   1      36.813  31.457  29.321  1.00  0.00     0.064 A 
ATOM     76  C   UNL A   1      35.710  30.666  28.964  1.00  0.00     0.173 A 
ATOM     77  C   UNL A   1      36.792  32.807  28.945  1.00  0.00     0.173 A 
ATOM     78  F   UNL A   1      35.673  29.370  29.309  1.00  0.00    -0.203 F 
ATOM     79  C   UNL A   1      34.646  31.196  28.237  1.00  0.00     0.198 A 
ATOM     80  C   UNL A   1      35.713  33.344  28.244  1.00  0.00     0.198 A 
ATOM     81  F   UNL A   1      37.806  33.613  29.292  1.00  0.00    -0.203 F 
ATOM     82  F   UNL A   1      33.622  30.408  27.879  1.00  0.00    -0.200 F 
ATOM     83  C   UNL A   1      34.647  32.536  27.881  1.00  0.00     0.200 A 
ATOM     84  F   UNL A   1      35.703  34.647  27.931  1.00  0.00    -0.200 F 
ATOM     85  F   UNL A   1      33.617  33.049  27.194  1.00  0.00    -0.200 F 
ENDBRANCH  51  75
BRANCH  63  86
ATOM     86  C   UNL A   1      39.233  32.258  35.838  1.00  0.00     0.064 A 
ATOM     87  C   UNL A   1      39.749  33.552  36.026  1.00  0.00     0.173 A 
ATOM     88  C   UNL A   1      38.392  31.739  36.833  1.00  0.00     0.173 A 
ATOM     89  F   UNL A   1      40.568  34.091  35.110  1.00  0.00    -0.203 F 
ATOM     90  C   UNL A   1      39.460  34.281  37.175  1.00  0.00     0.198 A 
ATOM     91  C   UNL A   1      38.079  32.484  37.967  1.00  0.00     0.198 A 
ATOM     92  F   UNL A   1      37.865  30.512  36.698  1.00  0.00    -0.203 F 
ATOM     93  F   UNL A   1      40.005  35.492  37.353  1.00  0.00    -0.200 F 
ATOM     94  C   UNL A   1      38.624  33.748  38.144  1.00  0.00     0.200 A 
ATOM     95  F   UNL A   1      37.253  31.977  38.893  1.00  0.00    -0.200 F 
ATOM     96  F   UNL A   1      38.346  34.451  39.250  1.00  0.00    -0.200 F 
ENDBRANCH  63  86
ENDBRANCH  37  38
ENDBRANCH  30  32
ENDBRANCH  29  30
ENDBRANCH  28  29
ENDBRANCH  27  28
ENDBRANCH  26  27
ENDBRANCH  25  26
ENDBRANCH   1  25
TORSDOF 19
ENDMDL
MODEL 2
REMARK VINA RESULT:     -11.2      5.197     10.433
REMARK SMILES CS(=O)(=O)c1cc(F)ccc1N1CCC[C@@H](C(=O)OCCOCCOCCOC(=O)c2ccc(-c3c4nc(c(-c5c(F)c(F)c(F)c(F)c5F)c5ccc([nH]5)c(-c5c(F)c(F)c(F)c(F)c5F)c5nc(c(-c6c(F)c(F)c(F)c(F)c6F)c6ccc3[nH]6)C=C5)C=C4)cc2)C1
REMARK SMILES IDX 23 1 22 2 21 3 20 4 19 5 17 6 18 7 16 8 12 9 13 10 94 11
REMARK SMILES IDX 14 12 15 13 11 14 5 15 6 16 7 17 10 18 8 19 9 20 2 21 1 22
REMARK SMILES IDX 3 23 4 24 24 25 25 26 26 27 27 28 28 29 29 30 30 31 31 32
REMARK SMILES IDX 32 33 93 34 33 35 92 36 34 37 35 38 36 39 86 40 37 41 91 42
REMARK SMILES IDX 85 43 87 44 38 45 90 46 84 47 83 48 39 50 71 51 51 52 70 53
REMARK SMILES IDX 52 54 55 55 69 56 88 57 53 58 54 59 68 61 89 62 56 63 40 64
REMARK SMILES IDX 41 65 49 66 42 67 43 68 47 69 50 70 44 71 45 72 48 73 46 74
REMARK SMILES IDX 72 75 73 76 81 77 74 78 75 79 79 80 82 81 76 82 77 83 80 84
REMARK SMILES IDX 78 85 57 86 58 87 66 88 59 89 60 90 64 91 67 92 61 93 62 94
REMARK SMILES IDX 65 95 63 96
REMARK H PARENT 87 49 55 60
REMARK Flexibility Score: inf
ROOT
ATOM      1  C   UNL A   1      34.173  32.617  28.031  1.00  0.00     0.188 C 
ENDROOT
BRANCH   1   2
ATOM      2  O   UNL A   1      34.731  31.586  27.247  1.00  0.00    -0.376 OA
BRANCH   2   3
ATOM      3  C   UNL A   1      34.841  30.261  27.727  1.00  0.00     0.202 C 
BRANCH   3   4
ATOM      4  C   UNL A   1      33.855  29.152  27.342  1.00  0.00     0.261 C 
BRANCH   4   5
ATOM      5  O   UNL A   1      34.220  28.353  26.214  1.00  0.00    -0.463 OA
BRANCH   5   6
ATOM      6  C   UNL A   1      33.501  28.586  25.085  1.00  0.00     0.310 C 
ATOM      7  O   UNL A   1      32.679  29.484  24.952  1.00  0.00    -0.252 OA
BRANCH   6   8
ATOM      8  C   UNL A   1      33.830  27.582  23.999  1.00  0.00     0.118 C 
ATOM      9  N   UNL A   1      33.236  25.247  23.552  1.00  0.00    -0.370 N 
ATOM     10  C   UNL A   1      32.669  25.514  22.232  1.00  0.00     0.116 C 
ATOM     11  C   UNL A   1      33.187  26.317  24.515  1.00  0.00     0.131 C 
ATOM     12  C   UNL A   1      33.307  26.779  21.649  1.00  0.00     0.022 C 
ATOM     13  C   UNL A   1      33.262  27.959  22.625  1.00  0.00     0.019 C 
BRANCH   9  14
ATOM     14  C   UNL A   1      33.733  24.017  23.927  1.00  0.00     0.056 A 
ATOM     15  C   UNL A   1      33.077  23.071  24.750  1.00  0.00     0.093 A 
ATOM     16  C   UNL A   1      33.771  21.929  25.197  1.00  0.00     0.061 A 
ATOM     17  C   UNL A   1      35.083  21.706  24.809  1.00  0.00     0.124 A 
ATOM     18  C   UNL A   1      35.064  23.732  23.539  1.00  0.00     0.030 A 
ATOM     19  F   UNL A   1      35.720  20.607  25.231  1.00  0.00    -0.207 F 
ATOM     20  C   UNL A   1      35.734  22.589  23.969  1.00  0.00     0.041 A 
BRANCH  15  21
ATOM     21  S   UNL A   1      31.292  23.030  25.018  1.00  0.00     0.177 S 
ATOM     22  C   UNL A   1      30.806  24.290  26.162  1.00  0.00     0.164 C 
ATOM     23  O   UNL A   1      31.014  21.780  25.708  1.00  0.00    -0.224 OA
ATOM     24  O   UNL A   1      30.651  23.297  23.744  1.00  0.00    -0.224 OA
ENDBRANCH  15  21
ENDBRANCH   9  14
ENDBRANCH   6   8
ENDBRANCH   5   6
ENDBRANCH   4   5
ENDBRANCH   3   4
ENDBRANCH   2   3
ENDBRANCH   1   2
BRANCH   1  25
ATOM     25  C   UNL A   1      34.895  33.970  28.226  1.00  0.00     0.188 C 
BRANCH  25  26
ATOM     26  O   UNL A   1      34.298  34.991  28.987  1.00  0.00    -0.376 OA
BRANCH  26  27
ATOM     27  C   UNL A   1      33.699  34.689  30.231  1.00  0.00     0.202 C 
BRANCH  27  28
ATOM     28  C   UNL A   1      34.477  34.157  31.448  1.00  0.00     0.261 C 
BRANCH  28  29
ATOM     29  O   UNL A   1      34.706  32.742  31.518  1.00  0.00    -0.460 OA
BRANCH  29  30
ATOM     30  C   UNL A   1      35.616  32.336  32.438  1.00  0.00     0.338 C 
ATOM     31  O   UNL A   1      35.529  32.430  33.657  1.00  0.00    -0.246 OA
BRANCH  30  32
ATOM     32  C   UNL A   1      36.692  31.570  31.779  1.00  0.00     0.060 A 
ATOM     33  C   UNL A   1      37.542  30.776  32.564  1.00  0.00     0.016 A 
ATOM     34  C   UNL A   1      36.891  31.666  30.402  1.00  0.00     0.016 A 
ATOM     35  C   UNL A   1      38.607  30.090  31.976  1.00  0.00     0.010 A 
ATOM     36  C   UNL A   1      37.975  30.999  29.819  1.00  0.00     0.010 A 
ATOM     37  C   UNL A   1      38.854  30.228  30.604  1.00  0.00    -0.014 A 
BRANCH  37  38
ATOM     38  C   UNL A   1      40.114  29.715  30.009  1.00  0.00     0.031 A 
ATOM     39  C   UNL A   1      41.289  30.646  29.896  1.00  0.00     0.074 A 
ATOM     40  C   UNL A   1      40.220  28.447  29.571  1.00  0.00     0.049 A 
ATOM     41  N   UNL A   1      42.443  30.463  29.308  1.00  0.00    -0.248 NA
ATOM     42  C   UNL A   1      41.141  31.964  30.534  1.00  0.00     0.031 C 
ATOM     43  C   UNL A   1      39.182  27.427  29.679  1.00  0.00     0.029 A 
ATOM     44  N   UNL A   1      41.257  27.811  28.929  1.00  0.00    -0.354 N 
ATOM     45  C   UNL A   1      43.151  31.643  29.493  1.00  0.00     0.074 A 
ATOM     46  C   UNL A   1      42.292  32.544  30.229  1.00  0.00     0.031 C 
ATOM     47  C   UNL A   1      39.627  26.293  29.108  1.00  0.00     0.029 A 
ATOM     48  C   UNL A   1      40.962  26.523  28.553  1.00  0.00     0.049 A 
ATOM     49  H   UNL A   1      42.127  28.237  28.756  1.00  0.00     0.167 HD
ATOM     50  C   UNL A   1      44.407  31.944  29.088  1.00  0.00     0.037 A 
ATOM     51  C   UNL A   1      41.672  25.643  27.818  1.00  0.00     0.037 A 
ATOM     52  C   UNL A   1      45.263  31.046  28.358  1.00  0.00     0.049 A 
ATOM     53  C   UNL A   1      43.032  26.034  27.293  1.00  0.00     0.074 A 
ATOM     54  C   UNL A   1      46.557  31.260  27.918  1.00  0.00     0.029 A 
ATOM     55  N   UNL A   1      44.910  29.766  27.959  1.00  0.00    -0.354 N 
ATOM     56  N   UNL A   1      43.696  27.151  27.470  1.00  0.00    -0.248 NA
ATOM     57  C   UNL A   1      43.739  25.048  26.463  1.00  0.00     0.031 C 
ATOM     58  C   UNL A   1      46.963  30.136  27.196  1.00  0.00     0.029 A 
ATOM     59  C   UNL A   1      45.951  29.192  27.248  1.00  0.00     0.049 A 
ATOM     60  H   UNL A   1      44.048  29.330  28.152  1.00  0.00     0.167 HD
ATOM     61  C   UNL A   1      44.904  26.991  26.801  1.00  0.00     0.074 A 
ATOM     62  C   UNL A   1      44.887  25.666  26.220  1.00  0.00     0.031 C 
ATOM     63  C   UNL A   1      45.933  27.865  26.682  1.00  0.00     0.037 A 
BRANCH  50  64
ATOM     64  C   UNL A   1      44.937  33.314  29.399  1.00  0.00     0.064 A 
ATOM     65  C   UNL A   1      44.718  34.377  28.509  1.00  0.00     0.173 A 
ATOM     66  C   UNL A   1      45.728  33.558  30.532  1.00  0.00     0.173 A 
ATOM     67  F   UNL A   1      43.973  34.194  27.408  1.00  0.00    -0.203 F 
ATOM     68  C   UNL A   1      45.286  35.628  28.731  1.00  0.00     0.198 A 
ATOM     69  C   UNL A   1      46.268  34.820  30.767  1.00  0.00     0.198 A 
ATOM     70  F   UNL A   1      45.955  32.580  31.420  1.00  0.00    -0.203 F 
ATOM     71  F   UNL A   1      45.096  36.615  27.846  1.00  0.00    -0.200 F 
ATOM     72  C   UNL A   1      46.059  35.849  29.862  1.00  0.00     0.200 A 
ATOM     73  F   UNL A   1      46.994  35.039  31.872  1.00  0.00    -0.200 F 
ATOM     74  F   UNL A   1      46.600  37.056  30.078  1.00  0.00    -0.200 F 
ENDBRANCH  50  64
BRANCH  51  75
ATOM     75  C   UNL A   1      41.101  24.301  27.519  1.00  0.00     0.064 A 
ATOM     76  C   UNL A   1      41.633  23.137  28.095  1.00  0.00     0.173 A 
ATOM     77  C   UNL A   1      40.016  24.155  26.644  1.00  0.00     0.173 A 
ATOM     78  F   UNL A   1      42.665  23.221  28.948  1.00  0.00    -0.203 F 
ATOM     79  C   UNL A   1      41.120  21.879  27.785  1.00  0.00     0.198 A 
ATOM     80  C   UNL A   1      39.484  22.899  26.358  1.00  0.00     0.198 A 
ATOM     81  F   UNL A   1      39.451  25.240  26.094  1.00  0.00    -0.203 F 
ATOM     82  F   UNL A   1      41.672  20.782  28.322  1.00  0.00    -0.200 F 
ATOM     83  C   UNL A   1      40.044  21.762  26.920  1.00  0.00     0.200 A 
ATOM     84  F   UNL A   1      38.423  22.793  25.547  1.00  0.00    -0.200 F 
ATOM     85  F   UNL A   1      39.541  20.553  26.632  1.00  0.00    -0.200 F 
ENDBRANCH  51  75
BRANCH  63  86
ATOM     86  C   UNL A   1      47.155  27.429  25.923  1.00  0.00     0.064 A 
ATOM     87  C   UNL A   1      48.289  26.965  26.613  1.00  0.00     0.173 A 
ATOM     88  C   UNL A   1      47.248  27.571  24.532  1.00  0.00     0.173 A 
ATOM     89  F   UNL A   1      48.256  26.822  27.946  1.00  0.00    -0.203 F 
ATOM     90  C   UNL A   1      49.474  26.688  25.940  1.00  0.00     0.198 A 
ATOM     91  C   UNL A   1      48.427  27.262  23.858  1.00  0.00     0.198 A 
ATOM     92  F   UNL A   1      46.191  28.000  23.825  1.00  0.00    -0.203 F 
ATOM     93  F   UNL A   1      50.557  26.296  26.626  1.00  0.00    -0.200 F 
ATOM     94  C   UNL A   1      49.543  26.834  24.563  1.00  0.00     0.200 A 
ATOM     95  F   UNL A   1      48.485  27.382  22.524  1.00  0.00    -0.200 F 
ATOM     96  F   UNL A   1      50.685  26.565  23.915  1.00  0.00    -0.200 F 
ENDBRANCH  63  86
ENDBRANCH  37  38
ENDBRANCH  30  32
ENDBRANCH  29  30
ENDBRANCH  28  29
ENDBRANCH  27  28
ENDBRANCH  26  27
ENDBRANCH  25  26
ENDBRANCH   1  25
TORSDOF 19
ENDMDL
MODEL 3
REMARK VINA RESULT:     -10.6      5.447     10.963
REMARK SMILES CS(=O)(=O)c1cc(F)ccc1N1CCC[C@@H](C(=O)OCCOCCOCCOC(=O)c2ccc(-c3c4nc(c(-c5c(F)c(F)c(F)c(F)c5F)c5ccc([nH]5)c(-c5c(F)c(F)c(F)c(F)c5F)c5nc(c(-c6c(F)c(F)c(F)c(F)c6F)c6ccc3[nH]6)C=C5)C=C4)cc2)C1
REMARK SMILES IDX 23 1 22 2 21 3 20 4 19 5 17 6 18 7 16 8 12 9 13 10 94 11
REMARK SMILES IDX 14 12 15 13 11 14 5 15 6 16 7 17 10 18 8 19 9 20 2 21 1 22
REMARK SMILES IDX 3 23 4 24 24 25 25 26 26 27 27 28 28 29 29 30 30 31 31 32
REMARK SMILES IDX 32 33 93 34 33 35 92 36 34 37 35 38 36 39 86 40 37 41 91 42
REMARK SMILES IDX 85 43 87 44 38 45 90 46 84 47 83 48 39 50 71 51 51 52 70 53
REMARK SMILES IDX 52 54 55 55 69 56 88 57 53 58 54 59 68 61 89 62 56 63 40 64
REMARK SMILES IDX 41 65 49 66 42 67 43 68 47 69 50 70 44 71 45 72 48 73 46 74
REMARK SMILES IDX 72 75 73 76 81 77 74 78 75 79 79 80 82 81 76 82 77 83 80 84
REMARK SMILES IDX 78 85 57 86 58 87 66 88 59 89 60 90 64 91 67 92 61 93 62 94
REMARK SMILES IDX 65 95 63 96
REMARK H PARENT 87 49 55 60
REMARK Flexibility Score: inf
ROOT
ATOM      1  C   UNL A   1      34.108  34.387  29.014  1.00  0.00     0.188 C 
ENDROOT
BRANCH   1   2
ATOM      2  O   UNL A   1      34.625  33.661  27.921  1.00  0.00    -0.376 OA
BRANCH   2   3
ATOM      3  C   UNL A   1      34.817  32.262  27.980  1.00  0.00     0.202 C 
BRANCH   3   4
ATOM      4  C   UNL A   1      33.681  31.256  27.761  1.00  0.00     0.261 C 
BRANCH   4   5
ATOM      5  O   UNL A   1      33.598  30.680  26.454  1.00  0.00    -0.463 OA
BRANCH   5   6
ATOM      6  C   UNL A   1      32.885  29.527  26.376  1.00  0.00     0.310 C 
ATOM      7  O   UNL A   1      31.867  29.289  27.014  1.00  0.00    -0.252 OA
BRANCH   6   8
ATOM      8  C   UNL A   1      33.512  28.550  25.403  1.00  0.00     0.118 C 
ATOM      9  N   UNL A   1      33.104  26.216  24.776  1.00  0.00    -0.370 N 
ATOM     10  C   UNL A   1      32.907  26.502  23.357  1.00  0.00     0.116 C 
ATOM     11  C   UNL A   1      32.778  27.266  25.707  1.00  0.00     0.131 C 
ATOM     12  C   UNL A   1      33.654  27.787  22.986  1.00  0.00     0.022 C 
ATOM     13  C   UNL A   1      33.327  28.946  23.933  1.00  0.00     0.019 C 
BRANCH   9  14
ATOM     14  C   UNL A   1      33.505  24.986  25.252  1.00  0.00     0.056 A 
ATOM     15  C   UNL A   1      32.701  24.071  25.972  1.00  0.00     0.093 A 
ATOM     16  C   UNL A   1      33.285  22.926  26.549  1.00  0.00     0.061 A 
ATOM     17  C   UNL A   1      34.639  22.670  26.390  1.00  0.00     0.124 A 
ATOM     18  C   UNL A   1      34.875  24.667  25.097  1.00  0.00     0.030 A 
ATOM     19  F   UNL A   1      35.172  21.569  26.933  1.00  0.00    -0.207 F 
ATOM     20  C   UNL A   1      35.439  23.523  25.654  1.00  0.00     0.041 A 
BRANCH  15  21
ATOM     21  S   UNL A   1      30.895  24.068  25.939  1.00  0.00     0.177 S 
ATOM     22  C   UNL A   1      30.265  22.511  26.498  1.00  0.00     0.164 C 
ATOM     23  O   UNL A   1      30.515  24.137  24.536  1.00  0.00    -0.224 OA
ATOM     24  O   UNL A   1      30.439  25.100  26.850  1.00  0.00    -0.224 OA
ENDBRANCH  15  21
ENDBRANCH   9  14
ENDBRANCH   6   8
ENDBRANCH   5   6
ENDBRANCH   4   5
ENDBRANCH   3   4
ENDBRANCH   2   3
ENDBRANCH   1   2
BRANCH   1  25
ATOM     25  C   UNL A   1      34.371  33.954  30.474  1.00  0.00     0.188 C 
BRANCH  25  26
ATOM     26  O   UNL A   1      34.167  34.857  31.532  1.00  0.00    -0.376 OA
BRANCH  26  27
ATOM     27  C   UNL A   1      34.319  34.426  32.870  1.00  0.00     0.202 C 
BRANCH  27  28
ATOM     28  C   UNL A   1      35.668  34.394  33.611  1.00  0.00     0.261 C 
BRANCH  28  29
ATOM     29  O   UNL A   1      36.772  33.766  32.944  1.00  0.00    -0.460 OA
BRANCH  29  30
ATOM     30  C   UNL A   1      37.126  32.543  33.412  1.00  0.00     0.338 C 
ATOM     31  O   UNL A   1      36.654  31.956  34.378  1.00  0.00    -0.246 OA
BRANCH  30  32
ATOM     32  C   UNL A   1      38.063  31.896  32.473  1.00  0.00     0.060 A 
ATOM     33  C   UNL A   1      39.168  31.200  32.986  1.00  0.00     0.016 A 
ATOM     34  C   UNL A   1      37.881  32.009  31.096  1.00  0.00     0.016 A 
ATOM     35  C   UNL A   1      40.106  30.630  32.121  1.00  0.00     0.010 A 
ATOM     36  C   UNL A   1      38.835  31.461  30.231  1.00  0.00     0.010 A 
ATOM     37  C   UNL A   1      39.966  30.791  30.737  1.00  0.00    -0.014 A 
BRANCH  37  38
ATOM     38  C   UNL A   1      41.070  30.415  29.819  1.00  0.00     0.031 A 
ATOM     39  C   UNL A   1      41.092  29.022  29.251  1.00  0.00     0.074 A 
ATOM     40  C   UNL A   1      42.041  31.286  29.490  1.00  0.00     0.049 A 
ATOM     41  N   UNL A   1      42.010  28.431  28.530  1.00  0.00    -0.248 NA
ATOM     42  C   UNL A   1      39.918  28.182  29.537  1.00  0.00     0.031 C 
ATOM     43  C   UNL A   1      42.103  32.681  29.917  1.00  0.00     0.029 A 
ATOM     44  N   UNL A   1      43.173  31.113  28.729  1.00  0.00    -0.354 N 
ATOM     45  C   UNL A   1      41.532  27.150  28.289  1.00  0.00     0.074 A 
ATOM     46  C   UNL A   1      40.253  27.040  28.955  1.00  0.00     0.031 C 
ATOM     47  C   UNL A   1      43.225  33.236  29.426  1.00  0.00     0.029 A 
ATOM     48  C   UNL A   1      43.982  32.222  28.689  1.00  0.00     0.049 A 
ATOM     49  H   UNL A   1      43.384  30.275  28.259  1.00  0.00     0.167 HD
ATOM     50  C   UNL A   1      42.108  26.157  27.571  1.00  0.00     0.037 A 
ATOM     51  C   UNL A   1      45.208  32.391  28.150  1.00  0.00     0.037 A 
ATOM     52  C   UNL A   1      43.380  26.269  26.905  1.00  0.00     0.049 A 
ATOM     53  C   UNL A   1      45.875  31.240  27.437  1.00  0.00     0.074 A 
ATOM     54  C   UNL A   1      44.035  25.318  26.143  1.00  0.00     0.029 A 
ATOM     55  N   UNL A   1      44.188  27.395  26.925  1.00  0.00    -0.354 N 
ATOM     56  N   UNL A   1      45.419  30.031  27.212  1.00  0.00    -0.248 NA
ATOM     57  C   UNL A   1      47.227  31.474  26.907  1.00  0.00     0.031 C 
ATOM     58  C   UNL A   1      45.269  25.846  25.757  1.00  0.00     0.029 A 
ATOM     59  C   UNL A   1      45.352  27.150  26.216  1.00  0.00     0.049 A 
ATOM     60  H   UNL A   1      43.968  28.242  27.377  1.00  0.00     0.167 HD
ATOM     61  C   UNL A   1      46.410  29.373  26.494  1.00  0.00     0.074 A 
ATOM     62  C   UNL A   1      47.492  30.318  26.312  1.00  0.00     0.031 C 
ATOM     63  C   UNL A   1      46.420  28.100  26.028  1.00  0.00     0.037 A 
BRANCH  50  64
ATOM     64  C   UNL A   1      41.386  24.845  27.481  1.00  0.00     0.064 A 
ATOM     65  C   UNL A   1      41.869  23.722  28.171  1.00  0.00     0.173 A 
ATOM     66  C   UNL A   1      40.267  24.675  26.652  1.00  0.00     0.173 A 
ATOM     67  F   UNL A   1      42.940  23.830  28.972  1.00  0.00    -0.203 F 
ATOM     68  C   UNL A   1      41.271  22.474  28.019  1.00  0.00     0.198 A 
ATOM     69  C   UNL A   1      39.652  23.432  26.528  1.00  0.00     0.198 A 
ATOM     70  F   UNL A   1      39.757  25.720  25.983  1.00  0.00    -0.203 F 
ATOM     71  F   UNL A   1      41.776  21.409  28.656  1.00  0.00    -0.200 F 
ATOM     72  C   UNL A   1      40.161  22.331  27.200  1.00  0.00     0.200 A 
ATOM     73  F   UNL A   1      38.565  23.299  25.756  1.00  0.00    -0.200 F 
ATOM     74  F   UNL A   1      39.582  21.130  27.060  1.00  0.00    -0.200 F 
ENDBRANCH  50  64
BRANCH  51  75
ATOM     75  C   UNL A   1      45.895  33.705  28.278  1.00  0.00     0.064 A 
ATOM     76  C   UNL A   1      45.752  34.701  27.300  1.00  0.00     0.173 A 
ATOM     77  C   UNL A   1      46.716  33.988  29.377  1.00  0.00     0.173 A 
ATOM     78  F   UNL A   1      44.968  34.487  26.232  1.00  0.00    -0.203 F 
ATOM     79  C   UNL A   1      46.425  35.916  27.402  1.00  0.00     0.198 A 
ATOM     80  C   UNL A   1      47.366  35.216  29.495  1.00  0.00     0.198 A 
ATOM     81  F   UNL A   1      46.858  33.082  30.356  1.00  0.00    -0.203 F 
ATOM     82  F   UNL A   1      46.298  36.835  26.435  1.00  0.00    -0.200 F 
ATOM     83  C   UNL A   1      47.229  36.174  28.502  1.00  0.00     0.200 A 
ATOM     84  F   UNL A   1      48.115  35.474  30.576  1.00  0.00    -0.200 F 
ATOM     85  F   UNL A   1      47.865  37.348  28.609  1.00  0.00    -0.200 F 
ENDBRANCH  51  75
BRANCH  63  86
ATOM     86  C   UNL A   1      47.616  27.639  25.243  1.00  0.00     0.064 A 
ATOM     87  C   UNL A   1      48.760  27.165  25.909  1.00  0.00     0.173 A 
ATOM     88  C   UNL A   1      47.678  27.766  23.849  1.00  0.00     0.173 A 
ATOM     89  F   UNL A   1      48.759  27.034  27.245  1.00  0.00    -0.203 F 
ATOM     90  C   UNL A   1      49.925  26.864  25.210  1.00  0.00     0.198 A 
ATOM     91  C   UNL A   1      48.834  27.434  23.149  1.00  0.00     0.198 A 
ATOM     92  F   UNL A   1      46.610  28.205  23.164  1.00  0.00    -0.203 F 
ATOM     93  F   UNL A   1      51.018  26.462  25.873  1.00  0.00    -0.200 F 
ATOM     94  C   UNL A   1      49.961  26.996  23.830  1.00  0.00     0.200 A 
ATOM     95  F   UNL A   1      48.862  27.541  21.813  1.00  0.00    -0.200 F 
ATOM     96  F   UNL A   1      51.083  26.704  23.158  1.00  0.00    -0.200 F 
ENDBRANCH  63  86
ENDBRANCH  37  38
ENDBRANCH  30  32
ENDBRANCH  29  30
ENDBRANCH  28  29
ENDBRANCH  27  28
ENDBRANCH  26  27
ENDBRANCH  25  26
ENDBRANCH   1  25
TORSDOF 19
ENDMDL
