MODEL 1
REMARK VINA RESULT:     -10.6      0.000      0.000
REMARK SMILES COc1ccc2c(c1)CC[C@@](C)(CCC(=O)OCCOCCOCCOC(=O)c1ccc(-c3c4nc(c(-c5c(F)c(F)c(F)c(F)c5F)c5ccc([nH]5)c(-c5c(F)c(F)c(F)c(F)c5F)c5nc(c(-c6c(F)c(F)c(F)c(F)c6F)c6ccc3[nH]6)C=C5)C=C4)cc1)C2=O
REMARK SMILES IDX 21 1 20 2 19 3 18 4 17 5 15 6 16 7 14 8 13 9 11 10 3 11 4 12
REMARK SMILES IDX 8 13 5 14 7 15 6 16 9 17 92 18 10 19 93 20 12 21 2 22 1 23
REMARK SMILES IDX 22 24 23 25 24 26 25 27 26 28 27 29 28 30 29 31 30 32 91 33
REMARK SMILES IDX 31 34 90 35 32 36 33 37 34 38 84 39 35 40 89 41 83 42 85 43
REMARK SMILES IDX 36 44 88 45 82 46 81 47 37 49 69 50 49 51 68 52 50 53 53 54
REMARK SMILES IDX 67 55 86 56 51 57 52 58 66 60 87 61 54 62 38 63 39 64 47 65
REMARK SMILES IDX 40 66 41 67 45 68 48 69 42 70 43 71 46 72 44 73 70 74 71 75
REMARK SMILES IDX 79 76 72 77 73 78 77 79 80 80 74 81 75 82 78 83 76 84 55 85
REMARK SMILES IDX 56 86 64 87 57 88 58 89 62 90 65 91 59 92 60 93 63 94 61 95
REMARK H PARENT 85 48 53 59
REMARK Flexibility Score: inf
ROOT
ATOM      1  C   UNL A   1      40.888  21.529  26.113  1.00  0.00     0.188 C 
ENDROOT
BRANCH   1   2
ATOM      2  O   UNL A   1      39.598  21.797  26.647  1.00  0.00    -0.376 OA
BRANCH   2   3
ATOM      3  C   UNL A   1      38.531  21.600  25.721  1.00  0.00     0.202 C 
BRANCH   3   4
ATOM      4  C   UNL A   1      37.529  22.770  25.640  1.00  0.00     0.261 C 
BRANCH   4   5
ATOM      5  O   UNL A   1      36.204  22.437  26.116  1.00  0.00    -0.463 OA
BRANCH   5   6
ATOM      6  C   UNL A   1      35.208  22.414  25.198  1.00  0.00     0.305 C 
ATOM      7  O   UNL A   1      34.513  21.437  24.943  1.00  0.00    -0.252 OA
BRANCH   6   8
ATOM      8  C   UNL A   1      35.051  23.735  24.470  1.00  0.00     0.124 C 
BRANCH   8   9
ATOM      9  C   UNL A   1      34.596  24.975  25.262  1.00  0.00     0.026 C 
BRANCH   9  10
ATOM     10  C   UNL A   1      33.149  25.538  25.072  1.00  0.00     0.032 C 
ATOM     11  C   UNL A   1      30.151  29.587  23.730  1.00  0.00     0.119 A 
ATOM     12  C   UNL A   1      30.943  30.032  24.786  1.00  0.00     0.047 A 
ATOM     13  C   UNL A   1      30.245  28.262  23.287  1.00  0.00     0.050 A 
ATOM     14  C   UNL A   1      31.882  29.174  25.343  1.00  0.00     0.016 A 
ATOM     15  C   UNL A   1      31.193  27.388  23.836  1.00  0.00    -0.033 A 
ATOM     16  C   UNL A   1      32.019  27.866  24.856  1.00  0.00     0.022 A 
ATOM     17  C   UNL A   1      31.275  25.959  23.373  1.00  0.00     0.037 C 
ATOM     18  C   UNL A   1      33.056  27.005  25.459  1.00  0.00     0.169 C 
ATOM     19  C   UNL A   1      32.655  25.352  23.629  1.00  0.00     0.020 C 
ATOM     20  O   UNL A   1      33.764  27.500  26.323  1.00  0.00    -0.294 OA
ATOM     21  C   UNL A   1      32.241  24.810  26.092  1.00  0.00     0.020 C 
BRANCH  11  22
ATOM     22  O   UNL A   1      29.230  30.379  23.101  1.00  0.00    -0.497 OA
ATOM     23  C   UNL A   1      28.399  29.657  22.191  1.00  0.00     0.278 C 
ENDBRANCH  11  22
ENDBRANCH   9  10
ENDBRANCH   8   9
ENDBRANCH   6   8
ENDBRANCH   5   6
ENDBRANCH   4   5
ENDBRANCH   3   4
ENDBRANCH   2   3
ENDBRANCH   1   2
BRANCH   1  24
ATOM     24  C   UNL A   1      41.927  21.191  27.166  1.00  0.00     0.188 C 
BRANCH  24  25
ATOM     25  O   UNL A   1      42.248  19.808  27.291  1.00  0.00    -0.376 OA
BRANCH  25  26
ATOM     26  C   UNL A   1      42.126  19.050  26.093  1.00  0.00     0.202 C 
BRANCH  26  27
ATOM     27  C   UNL A   1      43.464  18.467  25.608  1.00  0.00     0.261 C 
BRANCH  27  28
ATOM     28  O   UNL A   1      43.803  18.936  24.293  1.00  0.00    -0.460 OA
BRANCH  28  29
ATOM     29  C   UNL A   1      45.056  19.450  24.160  1.00  0.00     0.338 C 
ATOM     30  O   UNL A   1      46.003  18.943  23.579  1.00  0.00    -0.246 OA
BRANCH  29  31
ATOM     31  C   UNL A   1      45.041  20.857  24.644  1.00  0.00     0.060 A 
ATOM     32  C   UNL A   1      45.459  21.186  25.936  1.00  0.00     0.016 A 
ATOM     33  C   UNL A   1      44.456  21.839  23.826  1.00  0.00     0.016 A 
ATOM     34  C   UNL A   1      45.307  22.494  26.402  1.00  0.00     0.010 A 
ATOM     35  C   UNL A   1      44.281  23.141  24.301  1.00  0.00     0.010 A 
ATOM     36  C   UNL A   1      44.735  23.483  25.582  1.00  0.00    -0.014 A 
BRANCH  36  37
ATOM     37  C   UNL A   1      44.889  24.906  25.967  1.00  0.00     0.031 A 
ATOM     38  C   UNL A   1      43.779  25.732  26.532  1.00  0.00     0.074 A 
ATOM     39  C   UNL A   1      46.118  25.430  25.809  1.00  0.00     0.049 A 
ATOM     40  N   UNL A   1      43.841  26.939  27.040  1.00  0.00    -0.248 NA
ATOM     41  C   UNL A   1      42.432  25.149  26.523  1.00  0.00     0.031 C 
ATOM     42  C   UNL A   1      47.259  24.714  25.233  1.00  0.00     0.029 A 
ATOM     43  N   UNL A   1      46.621  26.663  26.128  1.00  0.00    -0.354 N 
ATOM     44  C   UNL A   1      42.551  27.252  27.441  1.00  0.00     0.074 A 
ATOM     45  C   UNL A   1      41.715  26.126  27.071  1.00  0.00     0.031 C 
ATOM     46  C   UNL A   1      48.338  25.506  25.274  1.00  0.00     0.029 A 
ATOM     47  C   UNL A   1      47.961  26.787  25.859  1.00  0.00     0.049 A 
ATOM     48  H   UNL A   1      46.077  27.387  26.512  1.00  0.00     0.167 HD
ATOM     49  C   UNL A   1      42.120  28.372  28.074  1.00  0.00     0.037 A 
ATOM     50  C   UNL A   1      48.803  27.814  26.074  1.00  0.00     0.037 A 
ATOM     51  C   UNL A   1      42.964  29.494  28.416  1.00  0.00     0.049 A 
ATOM     52  C   UNL A   1      48.287  29.051  26.747  1.00  0.00     0.074 A 
ATOM     53  C   UNL A   1      42.627  30.650  29.101  1.00  0.00     0.029 A 
ATOM     54  N   UNL A   1      44.308  29.609  28.086  1.00  0.00    -0.354 N 
ATOM     55  N   UNL A   1      47.087  29.299  27.210  1.00  0.00    -0.248 NA
ATOM     56  C   UNL A   1      49.246  30.147  26.938  1.00  0.00     0.031 C 
ATOM     57  C   UNL A   1      43.748  31.485  29.137  1.00  0.00     0.029 A 
ATOM     58  C   UNL A   1      44.802  30.831  28.522  1.00  0.00     0.049 A 
ATOM     59  H   UNL A   1      44.834  28.924  27.612  1.00  0.00     0.167 HD
ATOM     60  C   UNL A   1      47.147  30.570  27.759  1.00  0.00     0.074 A 
ATOM     61  C   UNL A   1      48.510  31.032  27.593  1.00  0.00     0.031 C 
ATOM     62  C   UNL A   1      46.158  31.288  28.344  1.00  0.00     0.037 A 
BRANCH  49  63
ATOM     63  C   UNL A   1      40.673  28.452  28.467  1.00  0.00     0.064 A 
ATOM     64  C   UNL A   1      40.247  28.074  29.750  1.00  0.00     0.173 A 
ATOM     65  C   UNL A   1      39.723  29.023  27.605  1.00  0.00     0.173 A 
ATOM     66  F   UNL A   1      41.115  27.531  30.616  1.00  0.00    -0.203 F 
ATOM     67  C   UNL A   1      38.925  28.255  30.151  1.00  0.00     0.198 A 
ATOM     68  C   UNL A   1      38.408  29.226  28.017  1.00  0.00     0.198 A 
ATOM     69  F   UNL A   1      40.081  29.422  26.374  1.00  0.00    -0.203 F 
ATOM     70  F   UNL A   1      38.539  27.875  31.376  1.00  0.00    -0.200 F 
ATOM     71  C   UNL A   1      38.010  28.840  29.288  1.00  0.00     0.200 A 
ATOM     72  F   UNL A   1      37.530  29.813  27.191  1.00  0.00    -0.200 F 
ATOM     73  F   UNL A   1      36.745  29.040  29.685  1.00  0.00    -0.200 F 
ENDBRANCH  49  63
BRANCH  50  74
ATOM     74  C   UNL A   1      50.228  27.674  25.690  1.00  0.00     0.064 A 
ATOM     75  C   UNL A   1      51.198  27.345  26.644  1.00  0.00     0.173 A 
ATOM     76  C   UNL A   1      50.639  27.816  24.356  1.00  0.00     0.173 A 
ATOM     77  F   UNL A   1      50.853  27.208  27.932  1.00  0.00    -0.203 F 
ATOM     78  C   UNL A   1      52.532  27.175  26.280  1.00  0.00     0.198 A 
ATOM     79  C   UNL A   1      51.967  27.617  23.990  1.00  0.00     0.198 A 
ATOM     80  F   UNL A   1      49.742  28.117  23.405  1.00  0.00    -0.203 F 
ATOM     81  F   UNL A   1      53.448  26.891  27.217  1.00  0.00    -0.200 F 
ATOM     82  C   UNL A   1      52.913  27.303  24.953  1.00  0.00     0.200 A 
ATOM     83  F   UNL A   1      52.327  27.722  22.703  1.00  0.00    -0.200 F 
ATOM     84  F   UNL A   1      54.194  27.125  24.602  1.00  0.00    -0.200 F 
ENDBRANCH  50  74
BRANCH  62  85
ATOM     85  C   UNL A   1      46.508  32.658  28.849  1.00  0.00     0.064 A 
ATOM     86  C   UNL A   1      46.381  33.792  28.033  1.00  0.00     0.173 A 
ATOM     87  C   UNL A   1      46.926  32.847  30.176  1.00  0.00     0.173 A 
ATOM     88  F   UNL A   1      46.003  33.663  26.752  1.00  0.00    -0.203 F 
ATOM     89  C   UNL A   1      46.673  35.062  28.522  1.00  0.00     0.198 A 
ATOM     90  C   UNL A   1      47.188  34.122  30.669  1.00  0.00     0.198 A 
ATOM     91  F   UNL A   1      47.062  31.797  30.998  1.00  0.00    -0.203 F 
ATOM     92  F   UNL A   1      46.582  36.127  27.712  1.00  0.00    -0.200 F 
ATOM     93  C   UNL A   1      47.067  35.227  29.842  1.00  0.00     0.200 A 
ATOM     94  F   UNL A   1      47.556  34.282  31.948  1.00  0.00    -0.200 F 
ATOM     95  F   UNL A   1      47.334  36.452  30.314  1.00  0.00    -0.200 F 
ENDBRANCH  62  85
ENDBRANCH  36  37
ENDBRANCH  29  31
ENDBRANCH  28  29
ENDBRANCH  27  28
ENDBRANCH  26  27
ENDBRANCH  25  26
ENDBRANCH  24  25
ENDBRANCH   1  24
TORSDOF 20
ENDMDL
MODEL 2
REMARK VINA RESULT:     -10.5      1.814      7.678
REMARK SMILES COc1ccc2c(c1)CC[C@@](C)(CCC(=O)OCCOCCOCCOC(=O)c1ccc(-c3c4nc(c(-c5c(F)c(F)c(F)c(F)c5F)c5ccc([nH]5)c(-c5c(F)c(F)c(F)c(F)c5F)c5nc(c(-c6c(F)c(F)c(F)c(F)c6F)c6ccc3[nH]6)C=C5)C=C4)cc1)C2=O
REMARK SMILES IDX 21 1 20 2 19 3 18 4 17 5 15 6 16 7 14 8 13 9 11 10 3 11 4 12
REMARK SMILES IDX 8 13 5 14 7 15 6 16 9 17 92 18 10 19 93 20 12 21 2 22 1 23
REMARK SMILES IDX 22 24 23 25 24 26 25 27 26 28 27 29 28 30 29 31 30 32 91 33
REMARK SMILES IDX 31 34 90 35 32 36 33 37 34 38 84 39 35 40 89 41 83 42 85 43
REMARK SMILES IDX 36 44 88 45 82 46 81 47 37 49 69 50 49 51 68 52 50 53 53 54
REMARK SMILES IDX 67 55 86 56 51 57 52 58 66 60 87 61 54 62 38 63 39 64 47 65
REMARK SMILES IDX 40 66 41 67 45 68 48 69 42 70 43 71 46 72 44 73 70 74 71 75
REMARK SMILES IDX 79 76 72 77 73 78 77 79 80 80 74 81 75 82 78 83 76 84 55 85
REMARK SMILES IDX 56 86 64 87 57 88 58 89 62 90 65 91 59 92 60 93 63 94 61 95
REMARK H PARENT 85 48 53 59
REMARK Flexibility Score: inf
ROOT
ATOM      1  C   UNL A   1      35.857  21.562  24.627  1.00  0.00     0.188 C 
ENDROOT
BRANCH   1   2
ATOM      2  O   UNL A   1      35.308  20.405  25.242  1.00  0.00    -0.376 OA
BRANCH   2   3
ATOM      3  C   UNL A   1      34.057  19.990  24.692  1.00  0.00     0.202 C 
BRANCH   3   4
ATOM      4  C   UNL A   1      32.916  21.013  24.855  1.00  0.00     0.261 C 
BRANCH   4   5
ATOM      5  O   UNL A   1      32.756  21.894  23.719  1.00  0.00    -0.463 OA
BRANCH   5   6
ATOM      6  C   UNL A   1      32.597  23.215  23.980  1.00  0.00     0.305 C 
ATOM      7  O   UNL A   1      33.145  23.819  24.894  1.00  0.00    -0.252 OA
BRANCH   6   8
ATOM      8  C   UNL A   1      31.624  23.887  23.030  1.00  0.00     0.124 C 
BRANCH   8   9
ATOM      9  C   UNL A   1      30.288  24.420  23.582  1.00  0.00     0.026 C 
BRANCH   9  10
ATOM     10  C   UNL A   1      30.145  25.931  23.959  1.00  0.00     0.032 C 
ATOM     11  C   UNL A   1      32.124  30.034  26.495  1.00  0.00     0.119 A 
ATOM     12  C   UNL A   1      31.923  29.050  27.460  1.00  0.00     0.047 A 
ATOM     13  C   UNL A   1      31.757  29.803  25.164  1.00  0.00     0.050 A 
ATOM     14  C   UNL A   1      31.429  27.810  27.077  1.00  0.00     0.016 A 
ATOM     15  C   UNL A   1      31.264  28.554  24.762  1.00  0.00    -0.033 A 
ATOM     16  C   UNL A   1      31.121  27.558  25.731  1.00  0.00     0.022 A 
ATOM     17  C   UNL A   1      30.848  28.318  23.336  1.00  0.00     0.037 C 
ATOM     18  C   UNL A   1      30.632  26.213  25.371  1.00  0.00     0.169 C 
ATOM     19  C   UNL A   1      30.892  26.835  22.965  1.00  0.00     0.020 C 
ATOM     20  O   UNL A   1      30.564  25.381  26.264  1.00  0.00    -0.294 OA
ATOM     21  C   UNL A   1      28.630  26.247  24.001  1.00  0.00     0.020 C 
BRANCH  11  22
ATOM     22  O   UNL A   1      32.642  31.268  26.782  1.00  0.00    -0.497 OA
ATOM     23  C   UNL A   1      33.710  31.219  27.729  1.00  0.00     0.278 C 
ENDBRANCH  11  22
ENDBRANCH   9  10
ENDBRANCH   8   9
ENDBRANCH   6   8
ENDBRANCH   5   6
ENDBRANCH   4   5
ENDBRANCH   3   4
ENDBRANCH   2   3
ENDBRANCH   1   2
BRANCH   1  24
ATOM     24  C   UNL A   1      37.373  21.562  24.568  1.00  0.00     0.188 C 
BRANCH  24  25
ATOM     25  O   UNL A   1      38.030  20.904  25.649  1.00  0.00    -0.376 OA
BRANCH  25  26
ATOM     26  C   UNL A   1      38.799  19.764  25.284  1.00  0.00     0.202 C 
BRANCH  26  27
ATOM     27  C   UNL A   1      40.014  19.537  26.197  1.00  0.00     0.261 C 
BRANCH  27  28
ATOM     28  O   UNL A   1      41.113  18.946  25.484  1.00  0.00    -0.460 OA
BRANCH  28  29
ATOM     29  C   UNL A   1      42.307  18.958  26.135  1.00  0.00     0.338 C 
ATOM     30  O   UNL A   1      43.106  18.040  26.229  1.00  0.00    -0.246 OA
BRANCH  29  31
ATOM     31  C   UNL A   1      42.609  20.359  26.538  1.00  0.00     0.060 A 
ATOM     32  C   UNL A   1      42.390  20.804  27.843  1.00  0.00     0.016 A 
ATOM     33  C   UNL A   1      42.984  21.275  25.539  1.00  0.00     0.016 A 
ATOM     34  C   UNL A   1      42.558  22.156  28.152  1.00  0.00     0.010 A 
ATOM     35  C   UNL A   1      43.128  22.631  25.842  1.00  0.00     0.010 A 
ATOM     36  C   UNL A   1      42.945  23.073  27.159  1.00  0.00    -0.014 A 
BRANCH  36  37
ATOM     37  C   UNL A   1      43.433  24.410  27.574  1.00  0.00     0.031 A 
ATOM     38  C   UNL A   1      44.873  24.811  27.537  1.00  0.00     0.074 A 
ATOM     39  C   UNL A   1      42.491  25.286  27.970  1.00  0.00     0.049 A 
ATOM     40  N   UNL A   1      45.391  25.999  27.735  1.00  0.00    -0.248 NA
ATOM     41  C   UNL A   1      45.858  23.761  27.255  1.00  0.00     0.031 C 
ATOM     42  C   UNL A   1      41.062  24.978  28.073  1.00  0.00     0.029 A 
ATOM     43  N   UNL A   1      42.579  26.601  28.338  1.00  0.00    -0.354 N 
ATOM     44  C   UNL A   1      46.761  25.850  27.572  1.00  0.00     0.074 A 
ATOM     45  C   UNL A   1      46.998  24.444  27.307  1.00  0.00     0.031 C 
ATOM     46  C   UNL A   1      40.402  26.084  28.441  1.00  0.00     0.029 A 
ATOM     47  C   UNL A   1      41.361  27.169  28.617  1.00  0.00     0.049 A 
ATOM     48  H   UNL A   1      43.430  27.092  28.395  1.00  0.00     0.167 HD
ATOM     49  C   UNL A   1      47.718  26.810  27.624  1.00  0.00     0.037 A 
ATOM     50  C   UNL A   1      41.043  28.430  28.962  1.00  0.00     0.037 A 
ATOM     51  C   UNL A   1      47.465  28.203  27.910  1.00  0.00     0.049 A 
ATOM     52  C   UNL A   1      42.130  29.459  29.041  1.00  0.00     0.074 A 
ATOM     53  C   UNL A   1      48.365  29.255  27.935  1.00  0.00     0.029 A 
ATOM     54  N   UNL A   1      46.225  28.736  28.237  1.00  0.00    -0.354 N 
ATOM     55  N   UNL A   1      43.410  29.329  28.790  1.00  0.00    -0.248 NA
ATOM     56  C   UNL A   1      41.728  30.813  29.442  1.00  0.00     0.031 C 
ATOM     57  C   UNL A   1      47.683  30.410  28.329  1.00  0.00     0.029 A 
ATOM     58  C   UNL A   1      46.346  30.094  28.499  1.00  0.00     0.049 A 
ATOM     59  H   UNL A   1      45.384  28.226  28.277  1.00  0.00     0.167 HD
ATOM     60  C   UNL A   1      43.964  30.585  28.987  1.00  0.00     0.074 A 
ATOM     61  C   UNL A   1      42.877  31.468  29.355  1.00  0.00     0.031 C 
ATOM     62  C   UNL A   1      45.260  30.965  28.875  1.00  0.00     0.037 A 
BRANCH  49  63
ATOM     63  C   UNL A   1      49.139  26.409  27.347  1.00  0.00     0.064 A 
ATOM     64  C   UNL A   1      49.654  26.416  26.041  1.00  0.00     0.173 A 
ATOM     65  C   UNL A   1      50.027  26.134  28.398  1.00  0.00     0.173 A 
ATOM     66  F   UNL A   1      48.850  26.680  25.001  1.00  0.00    -0.203 F 
ATOM     67  C   UNL A   1      51.001  26.154  25.798  1.00  0.00     0.198 A 
ATOM     68  C   UNL A   1      51.379  25.897  28.154  1.00  0.00     0.198 A 
ATOM     69  F   UNL A   1      49.593  26.135  29.668  1.00  0.00    -0.203 F 
ATOM     70  F   UNL A   1      51.467  26.154  24.542  1.00  0.00    -0.200 F 
ATOM     71  C   UNL A   1      51.863  25.906  26.855  1.00  0.00     0.200 A 
ATOM     72  F   UNL A   1      52.216  25.681  29.179  1.00  0.00    -0.200 F 
ATOM     73  F   UNL A   1      53.164  25.682  26.622  1.00  0.00    -0.200 F 
ENDBRANCH  49  63
BRANCH  50  74
ATOM     74  C   UNL A   1      39.622  28.779  29.200  1.00  0.00     0.064 A 
ATOM     75  C   UNL A   1      39.058  28.655  30.475  1.00  0.00     0.173 A 
ATOM     76  C   UNL A   1      38.816  29.289  28.171  1.00  0.00     0.173 A 
ATOM     77  F   UNL A   1      39.788  28.163  31.487  1.00  0.00    -0.203 F 
ATOM     78  C   UNL A   1      37.735  29.018  30.711  1.00  0.00     0.198 A 
ATOM     79  C   UNL A   1      37.503  29.679  28.416  1.00  0.00     0.198 A 
ATOM     80  F   UNL A   1      39.318  29.439  26.936  1.00  0.00    -0.203 F 
ATOM     81  F   UNL A   1      37.208  28.861  31.934  1.00  0.00    -0.200 F 
ATOM     82  C   UNL A   1      36.961  29.537  29.684  1.00  0.00     0.200 A 
ATOM     83  F   UNL A   1      36.765  30.199  27.425  1.00  0.00    -0.200 F 
ATOM     84  F   UNL A   1      35.692  29.900  29.916  1.00  0.00    -0.200 F 
ENDBRANCH  50  74
BRANCH  62  85
ATOM     85  C   UNL A   1      45.581  32.404  29.158  1.00  0.00     0.064 A 
ATOM     86  C   UNL A   1      46.014  32.821  30.426  1.00  0.00     0.173 A 
ATOM     87  C   UNL A   1      45.505  33.368  28.140  1.00  0.00     0.173 A 
ATOM     88  F   UNL A   1      46.085  31.942  31.437  1.00  0.00    -0.203 F 
ATOM     89  C   UNL A   1      46.344  34.151  30.669  1.00  0.00     0.198 A 
ATOM     90  C   UNL A   1      45.866  34.691  28.379  1.00  0.00     0.198 A 
ATOM     91  F   UNL A   1      45.100  33.022  26.910  1.00  0.00    -0.203 F 
ATOM     92  F   UNL A   1      46.717  34.533  31.898  1.00  0.00    -0.200 F 
ATOM     93  C   UNL A   1      46.279  35.083  29.643  1.00  0.00     0.200 A 
ATOM     94  F   UNL A   1      45.816  35.588  27.385  1.00  0.00    -0.200 F 
ATOM     95  F   UNL A   1      46.612  36.360  29.875  1.00  0.00    -0.200 F 
ENDBRANCH  62  85
ENDBRANCH  36  37
ENDBRANCH  29  31
ENDBRANCH  28  29
ENDBRANCH  27  28
ENDBRANCH  26  27
ENDBRANCH  25  26
ENDBRANCH  24  25
ENDBRANCH   1  24
TORSDOF 20
ENDMDL
MODEL 3
REMARK VINA RESULT:     -10.4      0.885      7.316
REMARK SMILES COc1ccc2c(c1)CC[C@@](C)(CCC(=O)OCCOCCOCCOC(=O)c1ccc(-c3c4nc(c(-c5c(F)c(F)c(F)c(F)c5F)c5ccc([nH]5)c(-c5c(F)c(F)c(F)c(F)c5F)c5nc(c(-c6c(F)c(F)c(F)c(F)c6F)c6ccc3[nH]6)C=C5)C=C4)cc1)C2=O
REMARK SMILES IDX 21 1 20 2 19 3 18 4 17 5 15 6 16 7 14 8 13 9 11 10 3 11 4 12
REMARK SMILES IDX 8 13 5 14 7 15 6 16 9 17 92 18 10 19 93 20 12 21 2 22 1 23
REMARK SMILES IDX 22 24 23 25 24 26 25 27 26 28 27 29 28 30 29 31 30 32 91 33
REMARK SMILES IDX 31 34 90 35 32 36 33 37 34 38 84 39 35 40 89 41 83 42 85 43
REMARK SMILES IDX 36 44 88 45 82 46 81 47 37 49 69 50 49 51 68 52 50 53 53 54
REMARK SMILES IDX 67 55 86 56 51 57 52 58 66 60 87 61 54 62 38 63 39 64 47 65
REMARK SMILES IDX 40 66 41 67 45 68 48 69 42 70 43 71 46 72 44 73 70 74 71 75
REMARK SMILES IDX 79 76 72 77 73 78 77 79 80 80 74 81 75 82 78 83 76 84 55 85
REMARK SMILES IDX 56 86 64 87 57 88 58 89 62 90 65 91 59 92 60 93 63 94 61 95
REMARK H PARENT 85 48 53 59
REMARK Flexibility Score: inf
ROOT
ATOM      1  C   UNL A   1      40.657  22.028  26.124  1.00  0.00     0.188 C 
ENDROOT
BRANCH   1   2
ATOM      2  O   UNL A   1      39.364  22.172  26.695  1.00  0.00    -0.376 OA
BRANCH   2   3
ATOM      3  C   UNL A   1      38.297  22.093  25.751  1.00  0.00     0.202 C 
BRANCH   3   4
ATOM      4  C   UNL A   1      37.566  23.427  25.498  1.00  0.00     0.261 C 
BRANCH   4   5
ATOM      5  O   UNL A   1      36.280  23.520  26.154  1.00  0.00    -0.463 OA
BRANCH   5   6
ATOM      6  C   UNL A   1      35.198  23.108  25.451  1.00  0.00     0.305 C 
ATOM      7  O   UNL A   1      34.623  22.038  25.612  1.00  0.00    -0.252 OA
BRANCH   6   8
ATOM      8  C   UNL A   1      34.772  24.106  24.391  1.00  0.00     0.124 C 
BRANCH   8   9
ATOM      9  C   UNL A   1      34.158  25.448  24.832  1.00  0.00     0.026 C 
BRANCH   9  10
ATOM     10  C   UNL A   1      33.247  26.252  23.848  1.00  0.00     0.032 C 
ATOM     11  C   UNL A   1      28.769  28.818  23.108  1.00  0.00     0.119 A 
ATOM     12  C   UNL A   1      28.410  27.530  23.501  1.00  0.00     0.047 A 
ATOM     13  C   UNL A   1      30.117  29.157  22.947  1.00  0.00     0.050 A 
ATOM     14  C   UNL A   1      29.403  26.610  23.807  1.00  0.00     0.016 A 
ATOM     15  C   UNL A   1      31.130  28.240  23.260  1.00  0.00    -0.033 A 
ATOM     16  C   UNL A   1      30.756  26.970  23.706  1.00  0.00     0.022 A 
ATOM     17  C   UNL A   1      32.577  28.600  23.062  1.00  0.00     0.037 C 
ATOM     18  C   UNL A   1      31.772  25.966  24.077  1.00  0.00     0.169 C 
ATOM     19  C   UNL A   1      33.501  27.764  23.950  1.00  0.00     0.020 C 
ATOM     20  O   UNL A   1      31.372  24.888  24.492  1.00  0.00    -0.294 OA
ATOM     21  C   UNL A   1      33.529  25.713  22.424  1.00  0.00     0.020 C 
BRANCH  11  22
ATOM     22  O   UNL A   1      27.854  29.795  22.825  1.00  0.00    -0.497 OA
ATOM     23  C   UNL A   1      28.079  30.425  21.564  1.00  0.00     0.278 C 
ENDBRANCH  11  22
ENDBRANCH   9  10
ENDBRANCH   8   9
ENDBRANCH   6   8
ENDBRANCH   5   6
ENDBRANCH   4   5
ENDBRANCH   3   4
ENDBRANCH   2   3
ENDBRANCH   1   2
BRANCH   1  24
ATOM     24  C   UNL A   1      41.704  21.526  27.101  1.00  0.00     0.188 C 
BRANCH  24  25
ATOM     25  O   UNL A   1      41.723  20.116  27.311  1.00  0.00    -0.376 OA
BRANCH  25  26
ATOM     26  C   UNL A   1      41.672  19.329  26.126  1.00  0.00     0.202 C 
BRANCH  26  27
ATOM     27  C   UNL A   1      43.048  18.795  25.696  1.00  0.00     0.261 C 
BRANCH  27  28
ATOM     28  O   UNL A   1      43.404  19.243  24.378  1.00  0.00    -0.460 OA
BRANCH  28  29
ATOM     29  C   UNL A   1      44.693  19.651  24.228  1.00  0.00     0.338 C 
ATOM     30  O   UNL A   1      45.566  19.107  23.570  1.00  0.00    -0.246 OA
BRANCH  29  31
ATOM     31  C   UNL A   1      44.828  21.011  24.816  1.00  0.00     0.060 A 
ATOM     32  C   UNL A   1      45.277  21.196  26.125  1.00  0.00     0.016 A 
ATOM     33  C   UNL A   1      44.354  22.108  24.076  1.00  0.00     0.016 A 
ATOM     34  C   UNL A   1      45.265  22.475  26.688  1.00  0.00     0.010 A 
ATOM     35  C   UNL A   1      44.318  23.383  24.647  1.00  0.00     0.010 A 
ATOM     36  C   UNL A   1      44.804  23.578  25.947  1.00  0.00    -0.014 A 
BRANCH  36  37
ATOM     37  C   UNL A   1      45.109  24.943  26.436  1.00  0.00     0.031 A 
ATOM     38  C   UNL A   1      46.463  25.570  26.342  1.00  0.00     0.074 A 
ATOM     39  C   UNL A   1      44.074  25.629  26.957  1.00  0.00     0.049 A 
ATOM     40  N   UNL A   1      46.805  26.809  26.601  1.00  0.00    -0.248 NA
ATOM     41  C   UNL A   1      47.575  24.712  25.917  1.00  0.00     0.031 C 
ATOM     42  C   UNL A   1      42.722  25.091  27.123  1.00  0.00     0.029 A 
ATOM     43  N   UNL A   1      43.985  26.913  27.422  1.00  0.00    -0.354 N 
ATOM     44  C   UNL A   1      48.165  26.891  26.343  1.00  0.00     0.074 A 
ATOM     45  C   UNL A   1      48.596  25.562  25.953  1.00  0.00     0.031 C 
ATOM     46  C   UNL A   1      41.928  26.050  27.617  1.00  0.00     0.029 A 
ATOM     47  C   UNL A   1      42.718  27.259  27.819  1.00  0.00     0.049 A 
ATOM     48  H   UNL A   1      44.752  27.528  27.465  1.00  0.00     0.167 HD
ATOM     49  C   UNL A   1      48.965  27.985  26.411  1.00  0.00     0.037 A 
ATOM     50  C   UNL A   1      42.236  28.427  28.282  1.00  0.00     0.037 A 
ATOM     51  C   UNL A   1      48.521  29.297  26.822  1.00  0.00     0.049 A 
ATOM     52  C   UNL A   1      43.154  29.608  28.375  1.00  0.00     0.074 A 
ATOM     53  C   UNL A   1      49.248  30.476  26.875  1.00  0.00     0.029 A 
ATOM     54  N   UNL A   1      47.242  29.603  27.265  1.00  0.00    -0.354 N 
ATOM     55  N   UNL A   1      44.417  29.701  28.036  1.00  0.00    -0.248 NA
ATOM     56  C   UNL A   1      42.578  30.851  28.906  1.00  0.00     0.031 C 
ATOM     57  C   UNL A   1      48.427  31.478  27.400  1.00  0.00     0.029 A 
ATOM     58  C   UNL A   1      47.170  30.941  27.626  1.00  0.00     0.049 A 
ATOM     59  H   UNL A   1      46.494  28.964  27.317  1.00  0.00     0.167 HD
ATOM     60  C   UNL A   1      44.784  31.012  28.297  1.00  0.00     0.074 A 
ATOM     61  C   UNL A   1      43.604  31.684  28.800  1.00  0.00     0.031 C 
ATOM     62  C   UNL A   1      45.994  31.601  28.136  1.00  0.00     0.037 A 
BRANCH  49  63
ATOM     63  C   UNL A   1      50.406  27.835  26.016  1.00  0.00     0.064 A 
ATOM     64  C   UNL A   1      50.800  27.893  24.670  1.00  0.00     0.173 A 
ATOM     65  C   UNL A   1      51.415  27.757  26.990  1.00  0.00     0.173 A 
ATOM     66  F   UNL A   1      49.877  27.977  23.701  1.00  0.00    -0.203 F 
ATOM     67  C   UNL A   1      52.147  27.868  24.314  1.00  0.00     0.198 A 
ATOM     68  C   UNL A   1      52.761  27.757  26.631  1.00  0.00     0.198 A 
ATOM     69  F   UNL A   1      51.096  27.721  28.293  1.00  0.00    -0.203 F 
ATOM     70  F   UNL A   1      52.498  27.911  23.021  1.00  0.00    -0.200 F 
ATOM     71  C   UNL A   1      53.125  27.811  25.294  1.00  0.00     0.200 A 
ATOM     72  F   UNL A   1      53.707  27.726  27.581  1.00  0.00    -0.200 F 
ATOM     73  F   UNL A   1      54.421  27.815  24.951  1.00  0.00    -0.200 F 
ENDBRANCH  49  63
BRANCH  50  74
ATOM     74  C   UNL A   1      40.799  28.528  28.634  1.00  0.00     0.064 A 
ATOM     75  C   UNL A   1      40.353  28.207  29.921  1.00  0.00     0.173 A 
ATOM     76  C   UNL A   1      39.855  28.996  27.707  1.00  0.00     0.173 A 
ATOM     77  F   UNL A   1      41.219  27.747  30.836  1.00  0.00    -0.203 F 
ATOM     78  C   UNL A   1      39.010  28.337  30.267  1.00  0.00     0.198 A 
ATOM     79  C   UNL A   1      38.519  29.153  28.064  1.00  0.00     0.198 A 
ATOM     80  F   UNL A   1      40.238  29.330  26.466  1.00  0.00    -0.203 F 
ATOM     81  F   UNL A   1      38.601  27.993  31.496  1.00  0.00    -0.200 F 
ATOM     82  C   UNL A   1      38.097  28.818  29.341  1.00  0.00     0.200 A 
ATOM     83  F   UNL A   1      37.643  29.637  27.173  1.00  0.00    -0.200 F 
ATOM     84  F   UNL A   1      36.807  28.957  29.680  1.00  0.00    -0.200 F 
ENDBRANCH  50  74
BRANCH  62  85
ATOM     85  C   UNL A   1      46.109  33.050  28.512  1.00  0.00     0.064 A 
ATOM     86  C   UNL A   1      46.479  33.442  29.807  1.00  0.00     0.173 A 
ATOM     87  C   UNL A   1      45.898  34.056  27.556  1.00  0.00     0.173 A 
ATOM     88  F   UNL A   1      46.673  32.520  30.762  1.00  0.00    -0.203 F 
ATOM     89  C   UNL A   1      46.619  34.787  30.136  1.00  0.00     0.198 A 
ATOM     90  C   UNL A   1      46.069  35.399  27.881  1.00  0.00     0.198 A 
ATOM     91  F   UNL A   1      45.546  33.736  26.303  1.00  0.00    -0.203 F 
ATOM     92  F   UNL A   1      46.934  35.139  31.390  1.00  0.00    -0.200 F 
ATOM     93  C   UNL A   1      46.423  35.764  29.170  1.00  0.00     0.200 A 
ATOM     94  F   UNL A   1      45.893  36.341  26.944  1.00  0.00    -0.200 F 
ATOM     95  F   UNL A   1      46.573  37.058  29.485  1.00  0.00    -0.200 F 
ENDBRANCH  62  85
ENDBRANCH  36  37
ENDBRANCH  29  31
ENDBRANCH  28  29
ENDBRANCH  27  28
ENDBRANCH  26  27
ENDBRANCH  25  26
ENDBRANCH  24  25
ENDBRANCH   1  24
TORSDOF 20
ENDMDL
