MODEL 1
REMARK VINA RESULT:     -14.4      0.000      0.000
REMARK SMILES Cc1ccc(-c2cc(C(=O)OCCOCCOCCOC(=O)c3ccc(-c4c5nc(c(-c6c(F)c(F)c(F)c(F)c6F)c6ccc([nH]6)c(-c6c(F)c(F)c(F)c(F)c6F)c6nc(c(-c7c(F)c(F)c(F)c(F)c7F)c7ccc4[nH]7)C=C6)C=C5)cc3)c3c(-c4cccc([N+](=O)[O-])c4)[nH]nc3n2)cc1
REMARK SMILES IDX 15 1 14 2 13 3 12 4 11 5 9 6 10 7 8 8 6 9 7 10 100 11 99 12
REMARK SMILES IDX 86 13 98 14 87 15 97 16 5 18 1 19 2 20 3 21 102 22 4 23
REMARK SMILES IDX 101 24 88 25 89 26 96 27 90 28 92 29 91 30 93 31 94 32 95 33
REMARK SMILES IDX 16 34 17 35 18 36 19 37 20 38 21 39 22 40 23 41 24 42 85 43
REMARK SMILES IDX 25 44 84 45 26 46 27 47 28 48 78 49 29 50 83 51 77 52 79 53
REMARK SMILES IDX 30 54 82 55 76 56 75 57 31 59 63 60 43 61 62 62 44 63 47 64
REMARK SMILES IDX 61 65 80 66 45 67 46 68 60 70 81 71 48 72 32 73 33 74 41 75
REMARK SMILES IDX 34 76 35 77 39 78 42 79 36 80 37 81 40 82 38 83 64 84 65 85
REMARK SMILES IDX 73 86 66 87 67 88 71 89 74 90 68 91 69 92 72 93 70 94 49 95
REMARK SMILES IDX 50 96 58 97 51 98 52 99 56 100 59 101 53 102 54 103 57 104
REMARK SMILES IDX 55 105
REMARK H PARENT 97 17 79 58 47 69
REMARK Flexibility Score: inf
ROOT
ATOM      1  C   UNL A   1      39.645  21.493  26.258  1.00  0.00     0.188 C 
ENDROOT
BRANCH   1   2
ATOM      2  O   UNL A   1      38.480  21.504  25.383  1.00  0.00    -0.376 OA
BRANCH   2   3
ATOM      3  C   UNL A   1      37.506  22.587  25.427  1.00  0.00     0.202 C 
BRANCH   3   4
ATOM      4  C   UNL A   1      36.176  22.624  24.316  1.00  0.00     0.261 C 
BRANCH   4   5
ATOM      5  O   UNL A   1      35.084  23.932  23.847  1.00  0.00    -0.460 OA
BRANCH   5   6
ATOM      6  C   UNL A   1      33.742  24.276  23.362  1.00  0.00     0.339 C 
ATOM      7  O   UNL A   1      33.356  25.279  22.764  1.00  0.00    -0.246 OA
BRANCH   6   8
ATOM      8  C   UNL A   1      32.562  23.530  23.786  1.00  0.00     0.075 A 
ATOM      9  C   UNL A   1      32.317  21.242  24.590  1.00  0.00     0.074 A 
ATOM     10  C   UNL A   1      32.860  22.177  23.704  1.00  0.00     0.045 A 
ATOM     11  N   UNL A   1      31.394  21.456  25.543  1.00  0.00    -0.226 NA
ATOM     12  C   UNL A   1      31.040  22.751  25.661  1.00  0.00     0.182 A 
ATOM     13  C   UNL A   1      31.588  23.836  24.837  1.00  0.00     0.061 A 
ATOM     14  N   UNL A   1      30.175  23.159  26.577  1.00  0.00    -0.154 NA
ATOM     15  C   UNL A   1      30.950  24.972  25.388  1.00  0.00     0.076 A 
ATOM     16  N   UNL A   1      30.156  24.465  26.408  1.00  0.00    -0.275 N 
ATOM     17  H   UNL A   1      29.609  25.052  26.978  1.00  0.00     0.190 HD
BRANCH   9  18
ATOM     18  C   UNL A   1      32.818  19.892  24.464  1.00  0.00     0.000 A 
ATOM     19  C   UNL A   1      34.661  16.328  23.007  1.00  0.00     0.044 C 
ATOM     20  C   UNL A   1      34.009  17.541  23.590  1.00  0.00    -0.051 A 
ATOM     21  C   UNL A   1      32.682  17.827  23.246  1.00  0.00     0.004 A 
ATOM     22  C   UNL A   1      34.714  18.397  24.443  1.00  0.00     0.004 A 
ATOM     23  C   UNL A   1      32.085  18.994  23.689  1.00  0.00     0.010 A 
ATOM     24  C   UNL A   1      34.119  19.572  24.883  1.00  0.00     0.010 A 
ENDBRANCH   9  18
BRANCH  15  25
ATOM     25  C   UNL A   1      30.700  26.421  25.235  1.00  0.00     0.007 A 
ATOM     26  C   UNL A   1      30.097  26.905  24.050  1.00  0.00     0.011 A 
ATOM     27  C   UNL A   1      31.458  27.342  25.978  1.00  0.00     0.096 A 
ATOM     28  C   UNL A   1      30.220  28.248  23.637  1.00  0.00     0.008 A 
ATOM     29  C   UNL A   1      31.533  28.701  25.591  1.00  0.00     0.270 A 
ATOM     30  C   UNL A   1      30.931  29.156  24.413  1.00  0.00     0.085 A 
BRANCH  29  31
ATOM     31  N   UNL A   1      32.187  29.677  26.473  1.00  0.00     0.062 N 
ATOM     32  O   UNL A   1      32.703  29.252  27.519  1.00  0.00    -0.258 OA
ATOM     33  O   UNL A   1      32.192  30.859  26.110  1.00  0.00    -0.258 OA
ENDBRANCH  29  31
ENDBRANCH  15  25
ENDBRANCH   6   8
ENDBRANCH   5   6
ENDBRANCH   4   5
ENDBRANCH   3   4
ENDBRANCH   2   3
ENDBRANCH   1   2
BRANCH   1  34
ATOM     34  C   UNL A   1      40.388  20.120  26.173  1.00  0.00     0.188 C 
BRANCH  34  35
ATOM     35  O   UNL A   1      41.674  20.303  26.746  1.00  0.00    -0.376 OA
BRANCH  35  36
ATOM     36  C   UNL A   1      42.810  19.784  26.093  1.00  0.00     0.202 C 
BRANCH  36  37
ATOM     37  C   UNL A   1      43.699  20.857  25.442  1.00  0.00     0.261 C 
BRANCH  37  38
ATOM     38  O   UNL A   1      42.926  22.011  25.038  1.00  0.00    -0.460 OA
BRANCH  38  39
ATOM     39  C   UNL A   1      43.659  23.116  24.699  1.00  0.00     0.338 C 
ATOM     40  O   UNL A   1      44.760  23.082  24.167  1.00  0.00    -0.246 OA
BRANCH  39  41
ATOM     41  C   UNL A   1      43.029  24.350  25.258  1.00  0.00     0.060 A 
ATOM     42  C   UNL A   1      43.491  25.658  25.105  1.00  0.00     0.016 A 
ATOM     43  C   UNL A   1      42.138  24.178  26.248  1.00  0.00     0.016 A 
ATOM     44  C   UNL A   1      43.098  26.759  25.996  1.00  0.00     0.010 A 
ATOM     45  C   UNL A   1      42.133  25.172  27.231  1.00  0.00     0.010 A 
ATOM     46  C   UNL A   1      42.422  26.562  27.191  1.00  0.00    -0.014 A 
BRANCH  46  47
ATOM     47  C   UNL A   1      41.997  27.731  28.350  1.00  0.00     0.031 A 
ATOM     48  C   UNL A   1      40.693  28.913  28.460  1.00  0.00     0.074 A 
ATOM     49  C   UNL A   1      42.792  27.848  29.446  1.00  0.00     0.049 A 
ATOM     50  N   UNL A   1      40.723  29.981  29.246  1.00  0.00    -0.248 NA
ATOM     51  C   UNL A   1      39.373  29.019  27.758  1.00  0.00     0.031 C 
ATOM     52  C   UNL A   1      42.474  28.581  30.675  1.00  0.00     0.029 A 
ATOM     53  N   UNL A   1      44.111  27.428  29.658  1.00  0.00    -0.354 N 
ATOM     54  C   UNL A   1      39.467  30.610  29.299  1.00  0.00     0.074 A 
ATOM     55  C   UNL A   1      38.651  29.939  28.372  1.00  0.00     0.031 C 
ATOM     56  C   UNL A   1      43.610  28.919  31.289  1.00  0.00     0.029 A 
ATOM     57  C   UNL A   1      44.700  28.420  30.490  1.00  0.00     0.049 A 
ATOM     58  H   UNL A   1      44.542  26.616  29.305  1.00  0.00     0.167 HD
ATOM     59  C   UNL A   1      39.135  31.633  30.135  1.00  0.00     0.037 A 
ATOM     60  C   UNL A   1      45.813  29.117  30.137  1.00  0.00     0.037 A 
ATOM     61  C   UNL A   1      40.302  32.125  30.807  1.00  0.00     0.049 A 
ATOM     62  C   UNL A   1      45.639  30.616  30.045  1.00  0.00     0.074 A 
ATOM     63  C   UNL A   1      40.847  31.909  32.055  1.00  0.00     0.029 A 
ATOM     64  N   UNL A   1      41.278  32.728  30.035  1.00  0.00    -0.354 N 
ATOM     65  N   UNL A   1      44.563  31.262  30.394  1.00  0.00    -0.248 NA
ATOM     66  C   UNL A   1      46.649  31.512  29.481  1.00  0.00     0.031 C 
ATOM     67  C   UNL A   1      42.185  32.365  32.024  1.00  0.00     0.029 A 
ATOM     68  C   UNL A   1      42.440  32.862  30.759  1.00  0.00     0.049 A 
ATOM     69  H   UNL A   1      41.158  33.019  29.102  1.00  0.00     0.167 HD
ATOM     70  C   UNL A   1      44.666  32.584  30.019  1.00  0.00     0.074 A 
ATOM     71  C   UNL A   1      46.019  32.701  29.519  1.00  0.00     0.031 C 
ATOM     72  C   UNL A   1      43.605  33.444  30.118  1.00  0.00     0.037 A 
BRANCH  59  73
ATOM     73  C   UNL A   1      37.695  31.978  30.509  1.00  0.00     0.064 A 
ATOM     74  C   UNL A   1      36.919  32.789  29.653  1.00  0.00     0.173 A 
ATOM     75  C   UNL A   1      37.070  31.672  31.735  1.00  0.00     0.173 A 
ATOM     76  F   UNL A   1      37.298  33.033  28.394  1.00  0.00    -0.203 F 
ATOM     77  C   UNL A   1      35.729  33.399  30.065  1.00  0.00     0.198 A 
ATOM     78  C   UNL A   1      35.914  32.335  32.177  1.00  0.00     0.198 A 
ATOM     79  F   UNL A   1      37.537  30.696  32.527  1.00  0.00    -0.203 F 
ATOM     80  F   UNL A   1      35.059  34.191  29.214  1.00  0.00    -0.200 F 
ATOM     81  C   UNL A   1      35.261  33.225  31.349  1.00  0.00     0.200 A 
ATOM     82  F   UNL A   1      35.455  32.124  33.420  1.00  0.00    -0.200 F 
ATOM     83  F   UNL A   1      34.176  33.886  31.776  1.00  0.00    -0.200 F 
ENDBRANCH  59  73
BRANCH  60  84
ATOM     84  C   UNL A   1      46.783  28.273  29.402  1.00  0.00     0.064 A 
ATOM     85  C   UNL A   1      47.564  27.365  30.136  1.00  0.00     0.173 A 
ATOM     86  C   UNL A   1      46.542  27.973  28.066  1.00  0.00     0.173 A 
ATOM     87  F   UNL A   1      47.823  27.607  31.428  1.00  0.00    -0.203 F 
ATOM     88  C   UNL A   1      47.965  26.143  29.591  1.00  0.00     0.198 A 
ATOM     89  C   UNL A   1      46.914  26.733  27.543  1.00  0.00     0.198 A 
ATOM     90  F   UNL A   1      45.768  28.800  27.355  1.00  0.00    -0.203 F 
ATOM     91  F   UNL A   1      48.620  25.251  30.343  1.00  0.00    -0.200 F 
ATOM     92  C   UNL A   1      47.595  25.809  28.306  1.00  0.00     0.200 A 
ATOM     93  F   UNL A   1      46.512  26.362  26.329  1.00  0.00    -0.200 F 
ATOM     94  F   UNL A   1      47.832  24.584  27.818  1.00  0.00    -0.200 F 
ENDBRANCH  60  84
BRANCH  72  95
ATOM     95  C   UNL A   1      43.498  34.890  29.659  1.00  0.00     0.064 A 
ATOM     96  C   UNL A   1      43.688  36.016  30.473  1.00  0.00     0.173 A 
ATOM     97  C   UNL A   1      43.305  35.180  28.277  1.00  0.00     0.173 A 
ATOM     98  F   UNL A   1      43.999  35.895  31.769  1.00  0.00    -0.203 F 
ATOM     99  C   UNL A   1      43.626  37.321  29.964  1.00  0.00     0.198 A 
ATOM    100  C   UNL A   1      43.312  36.476  27.763  1.00  0.00     0.198 A 
ATOM    101  F   UNL A   1      43.125  34.205  27.373  1.00  0.00    -0.203 F 
ATOM    102  F   UNL A   1      43.766  38.363  30.796  1.00  0.00    -0.200 F 
ATOM    103  C   UNL A   1      43.451  37.551  28.611  1.00  0.00     0.200 A 
ATOM    104  F   UNL A   1      43.199  36.671  26.441  1.00  0.00    -0.200 F 
ATOM    105  F   UNL A   1      43.436  38.799  28.127  1.00  0.00    -0.200 F 
ENDBRANCH  72  95
ENDBRANCH  46  47
ENDBRANCH  39  41
ENDBRANCH  38  39
ENDBRANCH  37  38
ENDBRANCH  36  37
ENDBRANCH  35  36
ENDBRANCH  34  35
ENDBRANCH   1  34
TORSDOF 20
ENDMDL
MODEL 2
REMARK VINA RESULT:     -14.0      3.443     10.120
REMARK SMILES Cc1ccc(-c2cc(C(=O)OCCOCCOCCOC(=O)c3ccc(-c4c5nc(c(-c6c(F)c(F)c(F)c(F)c6F)c6ccc([nH]6)c(-c6c(F)c(F)c(F)c(F)c6F)c6nc(c(-c7c(F)c(F)c(F)c(F)c7F)c7ccc4[nH]7)C=C6)C=C5)cc3)c3c(-c4cccc([N+](=O)[O-])c4)[nH]nc3n2)cc1
REMARK SMILES IDX 15 1 14 2 13 3 12 4 11 5 9 6 10 7 8 8 6 9 7 10 100 11 99 12
REMARK SMILES IDX 86 13 98 14 87 15 97 16 5 18 1 19 2 20 3 21 102 22 4 23
REMARK SMILES IDX 101 24 88 25 89 26 96 27 90 28 92 29 91 30 93 31 94 32 95 33
REMARK SMILES IDX 16 34 17 35 18 36 19 37 20 38 21 39 22 40 23 41 24 42 85 43
REMARK SMILES IDX 25 44 84 45 26 46 27 47 28 48 78 49 29 50 83 51 77 52 79 53
REMARK SMILES IDX 30 54 82 55 76 56 75 57 31 59 63 60 43 61 62 62 44 63 47 64
REMARK SMILES IDX 61 65 80 66 45 67 46 68 60 70 81 71 48 72 32 73 33 74 41 75
REMARK SMILES IDX 34 76 35 77 39 78 42 79 36 80 37 81 40 82 38 83 64 84 65 85
REMARK SMILES IDX 73 86 66 87 67 88 71 89 74 90 68 91 69 92 72 93 70 94 49 95
REMARK SMILES IDX 50 96 58 97 51 98 52 99 56 100 59 101 53 102 54 103 57 104
REMARK SMILES IDX 55 105
REMARK H PARENT 97 17 79 58 47 69
REMARK Flexibility Score: inf
ROOT
ATOM      1  C   UNL A   1      33.249  29.002  24.647  1.00  0.00     0.188 C 
ENDROOT
BRANCH   1   2
ATOM      2  O   UNL A   1      33.680  27.892  25.488  1.00  0.00    -0.376 OA
BRANCH   2   3
ATOM      3  C   UNL A   1      33.305  27.813  26.894  1.00  0.00     0.202 C 
BRANCH   3   4
ATOM      4  C   UNL A   1      31.693  27.370  27.354  1.00  0.00     0.261 C 
BRANCH   4   5
ATOM      5  O   UNL A   1      30.718  25.949  26.965  1.00  0.00    -0.460 OA
BRANCH   5   6
ATOM      6  C   UNL A   1      30.599  24.755  26.119  1.00  0.00     0.339 C 
ATOM      7  O   UNL A   1      30.592  23.566  26.434  1.00  0.00    -0.246 OA
BRANCH   6   8
ATOM      8  C   UNL A   1      30.741  24.829  24.669  1.00  0.00     0.075 A 
ATOM      9  C   UNL A   1      30.606  26.724  23.141  1.00  0.00     0.074 A 
ATOM     10  C   UNL A   1      30.132  26.001  24.240  1.00  0.00     0.045 A 
ATOM     11  N   UNL A   1      31.598  26.383  22.302  1.00  0.00    -0.226 NA
ATOM     12  C   UNL A   1      32.219  25.238  22.647  1.00  0.00     0.182 A 
ATOM     13  C   UNL A   1      31.860  24.423  23.815  1.00  0.00     0.061 A 
ATOM     14  N   UNL A   1      33.249  24.766  21.962  1.00  0.00    -0.154 NA
ATOM     15  C   UNL A   1      32.828  23.393  23.761  1.00  0.00     0.076 A 
ATOM     16  N   UNL A   1      33.599  23.698  22.647  1.00  0.00    -0.275 N 
ATOM     17  H   UNL A   1      34.370  23.144  22.385  1.00  0.00     0.190 HD
BRANCH   9  18
ATOM     18  C   UNL A   1      29.951  27.989  22.892  1.00  0.00     0.000 A 
ATOM     19  C   UNL A   1      27.891  31.238  21.044  1.00  0.00     0.044 C 
ATOM     20  C   UNL A   1      28.602  30.136  21.762  1.00  0.00    -0.051 A 
ATOM     21  C   UNL A   1      29.994  30.037  21.640  1.00  0.00     0.004 A 
ATOM     22  C   UNL A   1      27.896  29.200  22.525  1.00  0.00     0.004 A 
ATOM     23  C   UNL A   1      30.667  28.971  22.210  1.00  0.00     0.010 A 
ATOM     24  C   UNL A   1      28.568  28.126  23.093  1.00  0.00     0.010 A 
ENDBRANCH   9  18
BRANCH  15  25
ATOM     25  C   UNL A   1      33.256  22.094  24.323  1.00  0.00     0.007 A 
ATOM     26  C   UNL A   1      34.556  21.961  24.864  1.00  0.00     0.011 A 
ATOM     27  C   UNL A   1      32.622  20.911  23.906  1.00  0.00     0.096 A 
ATOM     28  C   UNL A   1      35.187  20.708  25.008  1.00  0.00     0.008 A 
ATOM     29  C   UNL A   1      33.234  19.651  24.104  1.00  0.00     0.270 A 
ATOM     30  C   UNL A   1      34.523  19.544  24.639  1.00  0.00     0.085 A 
BRANCH  29  31
ATOM     31  N   UNL A   1      32.484  18.420  23.818  1.00  0.00     0.062 N 
ATOM     32  O   UNL A   1      31.852  17.903  24.752  1.00  0.00    -0.258 OA
ATOM     33  O   UNL A   1      32.522  17.986  22.661  1.00  0.00    -0.258 OA
ENDBRANCH  29  31
ENDBRANCH  15  25
ENDBRANCH   6   8
ENDBRANCH   5   6
ENDBRANCH   4   5
ENDBRANCH   3   4
ENDBRANCH   2   3
ENDBRANCH   1   2
BRANCH   1  34
ATOM     34  C   UNL A   1      32.427  30.039  25.478  1.00  0.00     0.188 C 
BRANCH  34  35
ATOM     35  O   UNL A   1      33.360  30.892  26.126  1.00  0.00    -0.376 OA
BRANCH  35  36
ATOM     36  C   UNL A   1      33.098  31.349  27.433  1.00  0.00     0.202 C 
BRANCH  36  37
ATOM     37  C   UNL A   1      34.321  31.305  28.365  1.00  0.00     0.261 C 
BRANCH  37  38
ATOM     38  O   UNL A   1      34.423  32.506  29.164  1.00  0.00    -0.460 OA
BRANCH  38  39
ATOM     39  C   UNL A   1      34.826  32.316  30.458  1.00  0.00     0.338 C 
ATOM     40  O   UNL A   1      34.158  32.602  31.441  1.00  0.00    -0.246 OA
BRANCH  39  41
ATOM     41  C   UNL A   1      36.265  31.915  30.502  1.00  0.00     0.060 A 
ATOM     42  C   UNL A   1      37.304  32.470  29.752  1.00  0.00     0.016 A 
ATOM     43  C   UNL A   1      36.544  30.725  31.057  1.00  0.00     0.016 A 
ATOM     44  C   UNL A   1      38.582  31.785  29.518  1.00  0.00     0.010 A 
ATOM     45  C   UNL A   1      37.603  30.024  30.474  1.00  0.00     0.010 A 
ATOM     46  C   UNL A   1      38.791  30.449  29.823  1.00  0.00    -0.014 A 
BRANCH  46  47
ATOM     47  C   UNL A   1      40.181  29.518  29.517  1.00  0.00     0.031 A 
ATOM     48  C   UNL A   1      40.438  27.838  29.049  1.00  0.00     0.074 A 
ATOM     49  C   UNL A   1      41.389  30.127  29.655  1.00  0.00     0.049 A 
ATOM     50  N   UNL A   1      41.584  27.188  29.209  1.00  0.00    -0.248 NA
ATOM     51  C   UNL A   1      39.528  26.816  28.438  1.00  0.00     0.031 C 
ATOM     52  C   UNL A   1      42.680  29.611  29.191  1.00  0.00     0.029 A 
ATOM     53  N   UNL A   1      41.742  31.293  30.346  1.00  0.00    -0.354 N 
ATOM     54  C   UNL A   1      41.566  25.951  28.542  1.00  0.00     0.074 A 
ATOM     55  C   UNL A   1      40.261  25.790  28.046  1.00  0.00     0.031 C 
ATOM     56  C   UNL A   1      43.658  30.162  29.915  1.00  0.00     0.029 A 
ATOM     57  C   UNL A   1      43.043  31.051  30.867  1.00  0.00     0.049 A 
ATOM     58  H   UNL A   1      41.203  32.111  30.449  1.00  0.00     0.167 HD
ATOM     59  C   UNL A   1      42.639  25.126  28.387  1.00  0.00     0.037 A 
ATOM     60  C   UNL A   1      43.334  31.123  32.194  1.00  0.00     0.037 A 
ATOM     61  C   UNL A   1      43.741  25.589  29.179  1.00  0.00     0.049 A 
ATOM     62  C   UNL A   1      43.854  29.846  32.814  1.00  0.00     0.074 A 
ATOM     63  C   UNL A   1      44.870  26.332  28.903  1.00  0.00     0.029 A 
ATOM     64  N   UNL A   1      43.594  25.567  30.554  1.00  0.00    -0.354 N 
ATOM     65  N   UNL A   1      44.147  28.763  32.151  1.00  0.00    -0.248 NA
ATOM     66  C   UNL A   1      44.021  29.660  34.255  1.00  0.00     0.031 C 
ATOM     67  C   UNL A   1      45.395  26.789  30.134  1.00  0.00     0.029 A 
ATOM     68  C   UNL A   1      44.585  26.313  31.149  1.00  0.00     0.049 A 
ATOM     69  H   UNL A   1      42.882  25.088  31.036  1.00  0.00     0.167 HD
ATOM     70  C   UNL A   1      44.419  27.735  33.028  1.00  0.00     0.074 A 
ATOM     71  C   UNL A   1      44.398  28.370  34.328  1.00  0.00     0.031 C 
ATOM     72  C   UNL A   1      44.593  26.448  32.594  1.00  0.00     0.037 A 
BRANCH  59  73
ATOM     73  C   UNL A   1      42.727  24.059  27.298  1.00  0.00     0.064 A 
ATOM     74  C   UNL A   1      42.379  22.723  27.591  1.00  0.00     0.173 A 
ATOM     75  C   UNL A   1      43.270  24.244  26.010  1.00  0.00     0.173 A 
ATOM     76  F   UNL A   1      41.705  22.408  28.702  1.00  0.00    -0.203 F 
ATOM     77  C   UNL A   1      42.728  21.653  26.760  1.00  0.00     0.198 A 
ATOM     78  C   UNL A   1      43.683  23.169  25.206  1.00  0.00     0.198 A 
ATOM     79  F   UNL A   1      43.384  25.468  25.474  1.00  0.00    -0.203 F 
ATOM     80  F   UNL A   1      42.401  20.401  27.116  1.00  0.00    -0.200 F 
ATOM     81  C   UNL A   1      43.438  21.870  25.599  1.00  0.00     0.200 A 
ATOM     82  F   UNL A   1      44.343  23.404  24.062  1.00  0.00    -0.200 F 
ATOM     83  F   UNL A   1      43.859  20.839  24.853  1.00  0.00    -0.200 F 
ENDBRANCH  59  73
BRANCH  60  84
ATOM     84  C   UNL A   1      42.595  32.218  32.862  1.00  0.00     0.064 A 
ATOM     85  C   UNL A   1      42.968  33.542  32.579  1.00  0.00     0.173 A 
ATOM     86  C   UNL A   1      41.285  31.997  33.272  1.00  0.00     0.173 A 
ATOM     87  F   UNL A   1      44.219  33.806  32.179  1.00  0.00    -0.203 F 
ATOM     88  C   UNL A   1      42.030  34.577  32.572  1.00  0.00     0.198 A 
ATOM     89  C   UNL A   1      40.347  33.031  33.223  1.00  0.00     0.198 A 
ATOM     90  F   UNL A   1      40.892  30.741  33.509  1.00  0.00    -0.203 F 
ATOM     91  F   UNL A   1      42.389  35.811  32.198  1.00  0.00    -0.200 F 
ATOM     92  C   UNL A   1      40.707  34.307  32.847  1.00  0.00     0.200 A 
ATOM     93  F   UNL A   1      39.054  32.782  33.421  1.00  0.00    -0.200 F 
ATOM     94  F   UNL A   1      39.766  35.248  32.693  1.00  0.00    -0.200 F 
ENDBRANCH  60  84
BRANCH  72  95
ATOM     95  C   UNL A   1      44.790  25.180  33.411  1.00  0.00     0.064 A 
ATOM     96  C   UNL A   1      45.985  24.453  33.503  1.00  0.00     0.173 A 
ATOM     97  C   UNL A   1      43.743  24.716  34.258  1.00  0.00     0.173 A 
ATOM     98  F   UNL A   1      47.091  24.843  32.858  1.00  0.00    -0.203 F 
ATOM     99  C   UNL A   1      46.106  23.321  34.322  1.00  0.00     0.198 A 
ATOM    100  C   UNL A   1      43.888  23.631  35.123  1.00  0.00     0.198 A 
ATOM    101  F   UNL A   1      42.546  25.320  34.292  1.00  0.00    -0.203 F 
ATOM    102  F   UNL A   1      47.257  22.633  34.335  1.00  0.00    -0.200 F 
ATOM    103  C   UNL A   1      45.065  22.918  35.140  1.00  0.00     0.200 A 
ATOM    104  F   UNL A   1      42.885  23.296  35.948  1.00  0.00    -0.200 F 
ATOM    105  F   UNL A   1      45.203  21.862  35.950  1.00  0.00    -0.200 F 
ENDBRANCH  72  95
ENDBRANCH  46  47
ENDBRANCH  39  41
ENDBRANCH  38  39
ENDBRANCH  37  38
ENDBRANCH  36  37
ENDBRANCH  35  36
ENDBRANCH  34  35
ENDBRANCH   1  34
TORSDOF 20
ENDMDL
MODEL 3
REMARK VINA RESULT:     -13.9      3.677     10.376
REMARK SMILES Cc1ccc(-c2cc(C(=O)OCCOCCOCCOC(=O)c3ccc(-c4c5nc(c(-c6c(F)c(F)c(F)c(F)c6F)c6ccc([nH]6)c(-c6c(F)c(F)c(F)c(F)c6F)c6nc(c(-c7c(F)c(F)c(F)c(F)c7F)c7ccc4[nH]7)C=C6)C=C5)cc3)c3c(-c4cccc([N+](=O)[O-])c4)[nH]nc3n2)cc1
REMARK SMILES IDX 15 1 14 2 13 3 12 4 11 5 9 6 10 7 8 8 6 9 7 10 100 11 99 12
REMARK SMILES IDX 86 13 98 14 87 15 97 16 5 18 1 19 2 20 3 21 102 22 4 23
REMARK SMILES IDX 101 24 88 25 89 26 96 27 90 28 92 29 91 30 93 31 94 32 95 33
REMARK SMILES IDX 16 34 17 35 18 36 19 37 20 38 21 39 22 40 23 41 24 42 85 43
REMARK SMILES IDX 25 44 84 45 26 46 27 47 28 48 78 49 29 50 83 51 77 52 79 53
REMARK SMILES IDX 30 54 82 55 76 56 75 57 31 59 63 60 43 61 62 62 44 63 47 64
REMARK SMILES IDX 61 65 80 66 45 67 46 68 60 70 81 71 48 72 32 73 33 74 41 75
REMARK SMILES IDX 34 76 35 77 39 78 42 79 36 80 37 81 40 82 38 83 64 84 65 85
REMARK SMILES IDX 73 86 66 87 67 88 71 89 74 90 68 91 69 92 72 93 70 94 49 95
REMARK SMILES IDX 50 96 58 97 51 98 52 99 56 100 59 101 53 102 54 103 57 104
REMARK SMILES IDX 55 105
REMARK H PARENT 97 17 79 58 47 69
REMARK Flexibility Score: inf
ROOT
ATOM      1  C   UNL A   1      34.451  31.786  27.704  1.00  0.00     0.188 C 
ENDROOT
BRANCH   1   2
ATOM      2  O   UNL A   1      34.040  30.393  27.828  1.00  0.00    -0.376 OA
BRANCH   2   3
ATOM      3  C   UNL A   1      33.163  29.769  26.845  1.00  0.00     0.202 C 
BRANCH   3   4
ATOM      4  C   UNL A   1      33.221  28.058  26.571  1.00  0.00     0.261 C 
BRANCH   4   5
ATOM      5  O   UNL A   1      32.005  26.797  26.805  1.00  0.00    -0.460 OA
BRANCH   5   6
ATOM      6  C   UNL A   1      31.457  25.532  26.302  1.00  0.00     0.339 C 
ATOM      7  O   UNL A   1      31.306  24.456  26.878  1.00  0.00    -0.246 OA
BRANCH   6   8
ATOM      8  C   UNL A   1      31.246  25.306  24.876  1.00  0.00     0.075 A 
ATOM      9  C   UNL A   1      30.594  26.833  23.091  1.00  0.00     0.074 A 
ATOM     10  C   UNL A   1      30.456  26.340  24.392  1.00  0.00     0.045 A 
ATOM     11  N   UNL A   1      31.384  26.357  22.114  1.00  0.00    -0.226 NA
ATOM     12  C   UNL A   1      32.164  25.331  22.510  1.00  0.00     0.182 A 
ATOM     13  C   UNL A   1      32.161  24.768  23.866  1.00  0.00     0.061 A 
ATOM     14  N   UNL A   1      33.038  24.761  21.696  1.00  0.00    -0.154 NA
ATOM     15  C   UNL A   1      33.172  23.783  23.775  1.00  0.00     0.076 A 
ATOM     16  N   UNL A   1      33.630  23.873  22.467  1.00  0.00    -0.275 N 
ATOM     17  H   UNL A   1      34.360  23.303  22.134  1.00  0.00     0.190 HD
BRANCH   9  18
ATOM     18  C   UNL A   1      29.795  27.994  22.770  1.00  0.00     0.000 A 
ATOM     19  C   UNL A   1      27.604  31.650  23.010  1.00  0.00     0.044 C 
ATOM     20  C   UNL A   1      28.365  30.372  22.845  1.00  0.00    -0.051 A 
ATOM     21  C   UNL A   1      27.738  29.165  23.174  1.00  0.00     0.004 A 
ATOM     22  C   UNL A   1      29.690  30.377  22.398  1.00  0.00     0.004 A 
ATOM     23  C   UNL A   1      28.448  27.977  23.128  1.00  0.00     0.010 A 
ATOM     24  C   UNL A   1      30.407  29.188  22.356  1.00  0.00     0.010 A 
ENDBRANCH   9  18
BRANCH  15  25
ATOM     25  C   UNL A   1      33.828  22.645  24.455  1.00  0.00     0.007 A 
ATOM     26  C   UNL A   1      35.214  22.706  24.738  1.00  0.00     0.011 A 
ATOM     27  C   UNL A   1      33.254  21.365  24.386  1.00  0.00     0.096 A 
ATOM     28  C   UNL A   1      35.986  21.548  24.966  1.00  0.00     0.008 A 
ATOM     29  C   UNL A   1      34.019  20.209  24.670  1.00  0.00     0.270 A 
ATOM     30  C   UNL A   1      35.388  20.293  24.944  1.00  0.00     0.085 A 
BRANCH  29  31
ATOM     31  N   UNL A   1      33.360  18.899  24.758  1.00  0.00     0.062 N 
ATOM     32  O   UNL A   1      33.908  17.941  24.192  1.00  0.00    -0.258 OA
ATOM     33  O   UNL A   1      32.306  18.834  25.401  1.00  0.00    -0.258 OA
ENDBRANCH  29  31
ENDBRANCH  15  25
ENDBRANCH   6   8
ENDBRANCH   5   6
ENDBRANCH   4   5
ENDBRANCH   3   4
ENDBRANCH   2   3
ENDBRANCH   1   2
BRANCH   1  34
ATOM     34  C   UNL A   1      33.294  32.744  28.136  1.00  0.00     0.188 C 
BRANCH  34  35
ATOM     35  O   UNL A   1      33.595  34.028  27.609  1.00  0.00    -0.376 OA
BRANCH  35  36
ATOM     36  C   UNL A   1      34.059  35.045  28.468  1.00  0.00     0.202 C 
BRANCH  36  37
ATOM     37  C   UNL A   1      33.110  35.354  29.638  1.00  0.00     0.261 C 
BRANCH  37  38
ATOM     38  O   UNL A   1      33.313  34.442  30.741  1.00  0.00    -0.460 OA
BRANCH  38  39
ATOM     39  C   UNL A   1      34.540  34.517  31.344  1.00  0.00     0.338 C 
ATOM     40  O   UNL A   1      34.898  35.426  32.078  1.00  0.00    -0.246 OA
BRANCH  39  41
ATOM     41  C   UNL A   1      35.446  33.453  30.813  1.00  0.00     0.060 A 
ATOM     42  C   UNL A   1      35.575  32.153  31.304  1.00  0.00     0.016 A 
ATOM     43  C   UNL A   1      36.447  33.856  30.013  1.00  0.00     0.016 A 
ATOM     44  C   UNL A   1      36.745  31.305  31.037  1.00  0.00     0.010 A 
ATOM     45  C   UNL A   1      37.640  33.138  30.136  1.00  0.00     0.010 A 
ATOM     46  C   UNL A   1      37.915  31.786  30.469  1.00  0.00    -0.014 A 
BRANCH  46  47
ATOM     47  C   UNL A   1      39.363  30.937  30.197  1.00  0.00     0.031 A 
ATOM     48  C   UNL A   1      39.731  29.344  29.537  1.00  0.00     0.074 A 
ATOM     49  C   UNL A   1      40.526  31.547  30.550  1.00  0.00     0.049 A 
ATOM     50  N   UNL A   1      40.875  28.703  29.735  1.00  0.00    -0.248 NA
ATOM     51  C   UNL A   1      38.929  28.397  28.696  1.00  0.00     0.031 C 
ATOM     52  C   UNL A   1      41.877  31.129  30.167  1.00  0.00     0.029 A 
ATOM     53  N   UNL A   1      40.759  32.614  31.427  1.00  0.00    -0.354 N 
ATOM     54  C   UNL A   1      40.975  27.571  28.909  1.00  0.00     0.074 A 
ATOM     55  C   UNL A   1      39.738  27.451  28.253  1.00  0.00     0.031 C 
ATOM     56  C   UNL A   1      42.750  31.595  31.063  1.00  0.00     0.029 A 
ATOM     57  C   UNL A   1      42.005  32.331  32.052  1.00  0.00     0.049 A 
ATOM     58  H   UNL A   1      40.182  33.398  31.579  1.00  0.00     0.167 HD
ATOM     59  C   UNL A   1      42.089  26.799  28.764  1.00  0.00     0.037 A 
ATOM     60  C   UNL A   1      42.149  32.224  33.400  1.00  0.00     0.037 A 
ATOM     61  C   UNL A   1      43.081  27.172  29.729  1.00  0.00     0.049 A 
ATOM     62  C   UNL A   1      42.646  30.885  33.896  1.00  0.00     0.074 A 
ATOM     63  C   UNL A   1      44.205  27.970  29.683  1.00  0.00     0.029 A 
ATOM     64  N   UNL A   1      42.788  26.956  31.063  1.00  0.00    -0.354 N 
ATOM     65  N   UNL A   1      43.048  29.911  33.129  1.00  0.00    -0.248 NA
ATOM     66  C   UNL A   1      42.665  30.505  35.309  1.00  0.00     0.031 C 
ATOM     67  C   UNL A   1      44.577  28.263  31.015  1.00  0.00     0.029 A 
ATOM     68  C   UNL A   1      43.682  27.634  31.860  1.00  0.00     0.049 A 
ATOM     69  H   UNL A   1      42.047  26.399  31.393  1.00  0.00     0.167 HD
ATOM     70  C   UNL A   1      43.263  28.777  33.884  1.00  0.00     0.074 A 
ATOM     71  C   UNL A   1      43.078  29.226  35.248  1.00  0.00     0.031 C 
ATOM     72  C   UNL A   1      43.529  27.567  33.302  1.00  0.00     0.037 A 
BRANCH  59  73
ATOM     73  C   UNL A   1      42.332  25.894  27.557  1.00  0.00     0.064 A 
ATOM     74  C   UNL A   1      41.808  24.585  27.540  1.00  0.00     0.173 A 
ATOM     75  C   UNL A   1      43.175  26.192  26.466  1.00  0.00     0.173 A 
ATOM     76  F   UNL A   1      40.868  24.201  28.411  1.00  0.00    -0.203 F 
ATOM     77  C   UNL A   1      42.243  23.608  26.638  1.00  0.00     0.198 A 
ATOM     78  C   UNL A   1      43.666  25.200  25.603  1.00  0.00     0.198 A 
ATOM     79  F   UNL A   1      43.519  27.456  26.179  1.00  0.00    -0.203 F 
ATOM     80  F   UNL A   1      41.732  22.370  26.700  1.00  0.00    -0.200 F 
ATOM     81  C   UNL A   1      43.221  23.898  25.711  1.00  0.00     0.200 A 
ATOM     82  F   UNL A   1      44.593  25.511  24.684  1.00  0.00    -0.200 F 
ATOM     83  F   UNL A   1      43.710  22.940  24.912  1.00  0.00    -0.200 F 
ENDBRANCH  59  73
BRANCH  60  84
ATOM     84  C   UNL A   1      41.303  33.199  34.124  1.00  0.00     0.064 A 
ATOM     85  C   UNL A   1      40.078  32.756  34.650  1.00  0.00     0.173 A 
ATOM     86  C   UNL A   1      41.905  34.291  34.741  1.00  0.00     0.173 A 
ATOM     87  F   UNL A   1      39.459  31.708  34.093  1.00  0.00    -0.203 F 
ATOM     88  C   UNL A   1      39.554  33.295  35.828  1.00  0.00     0.198 A 
ATOM     89  C   UNL A   1      41.394  34.795  35.938  1.00  0.00     0.198 A 
ATOM     90  F   UNL A   1      43.091  34.708  34.286  1.00  0.00    -0.203 F 
ATOM     91  F   UNL A   1      38.439  32.785  36.365  1.00  0.00    -0.200 F 
ATOM     92  C   UNL A   1      40.242  34.284  36.497  1.00  0.00     0.200 A 
ATOM     93  F   UNL A   1      42.073  35.703  36.635  1.00  0.00    -0.200 F 
ATOM     94  F   UNL A   1      39.842  34.703  37.705  1.00  0.00    -0.200 F 
ENDBRANCH  60  84
BRANCH  72  95
ATOM     95  C   UNL A   1      43.684  26.203  33.957  1.00  0.00     0.064 A 
ATOM     96  C   UNL A   1      42.687  25.532  34.680  1.00  0.00     0.173 A 
ATOM     97  C   UNL A   1      44.879  25.454  33.752  1.00  0.00     0.173 A 
ATOM     98  F   UNL A   1      41.470  26.062  34.846  1.00  0.00    -0.203 F 
ATOM     99  C   UNL A   1      42.889  24.249  35.208  1.00  0.00     0.198 A 
ATOM    100  C   UNL A   1      45.050  24.152  34.222  1.00  0.00     0.198 A 
ATOM    101  F   UNL A   1      45.916  25.957  33.066  1.00  0.00    -0.203 F 
ATOM    102  F   UNL A   1      41.919  23.673  35.935  1.00  0.00    -0.200 F 
ATOM    103  C   UNL A   1      44.061  23.555  34.970  1.00  0.00     0.200 A 
ATOM    104  F   UNL A   1      46.172  23.478  33.927  1.00  0.00    -0.200 F 
ATOM    105  F   UNL A   1      44.229  22.314  35.443  1.00  0.00    -0.200 F 
ENDBRANCH  72  95
ENDBRANCH  46  47
ENDBRANCH  39  41
ENDBRANCH  38  39
ENDBRANCH  37  38
ENDBRANCH  36  37
ENDBRANCH  35  36
ENDBRANCH  34  35
ENDBRANCH   1  34
TORSDOF 20
ENDMDL
