MODEL 1
REMARK VINA RESULT:     -11.8      0.000      0.000
REMARK SMILES O=C1[NH+]=C(Nc2ccc(C(=O)OCCOCCOCCOC(=O)c3ccc(-c4c5nc(c(-c6c(F)c(F)c(F)c(F)c6F)c6ccc([nH]6)c(-c6c(F)c(F)c(F)c(F)c6F)c6nc(c(-c7c(F)c(F)c(F)c(F)c7F)c7ccc4[nH]7)C=C6)C=C5)cc3)c(O)c2)S/C1=C\c1ccc[nH]1
REMARK SMILES IDX 16 1 15 2 14 3 13 4 12 5 10 6 11 7 9 8 6 9 7 10 89 11 8 12
REMARK SMILES IDX 87 13 5 14 1 15 2 16 3 17 91 18 4 19 90 21 92 22 93 24 94 25
REMARK SMILES IDX 97 26 95 27 96 28 88 30 17 32 18 33 19 34 20 35 21 36 22 37
REMARK SMILES IDX 23 38 24 39 25 40 86 41 26 42 85 43 27 44 28 45 29 46 79 47
REMARK SMILES IDX 30 48 84 49 78 50 80 51 31 52 83 53 77 54 76 55 32 57 64 58
REMARK SMILES IDX 44 59 63 60 45 61 48 62 62 63 81 64 46 65 47 66 61 68 82 69
REMARK SMILES IDX 49 70 33 71 34 72 42 73 35 74 36 75 40 76 43 77 37 78 38 79
REMARK SMILES IDX 41 80 39 81 65 82 66 83 74 84 67 85 68 86 72 87 75 88 69 89
REMARK SMILES IDX 70 90 73 91 71 92 50 93 51 94 59 95 52 96 53 97 57 98 60 99
REMARK SMILES IDX 54 100 55 101 58 102 56 103
REMARK H PARENT 3 20 5 23 97 29 88 31 80 56 48 67
REMARK Flexibility Score: inf
ROOT
ATOM      1  C   UNL A   1      34.829  33.523  29.137  1.00  0.00     0.188 C 
ENDROOT
BRANCH   1   2
ATOM      2  O   UNL A   1      34.422  32.175  28.951  1.00  0.00    -0.376 OA
BRANCH   2   3
ATOM      3  C   UNL A   1      34.296  31.639  27.640  1.00  0.00     0.202 C 
BRANCH   3   4
ATOM      4  C   UNL A   1      33.103  30.746  27.250  1.00  0.00     0.261 C 
BRANCH   4   5
ATOM      5  O   UNL A   1      33.189  30.097  25.968  1.00  0.00    -0.460 OA
BRANCH   5   6
ATOM      6  C   UNL A   1      31.999  29.747  25.413  1.00  0.00     0.341 C 
ATOM      7  O   UNL A   1      31.068  30.491  25.155  1.00  0.00    -0.246 OA
BRANCH   6   8
ATOM      8  C   UNL A   1      32.048  28.339  24.954  1.00  0.00     0.102 A 
ATOM      9  C   UNL A   1      31.997  25.620  24.213  1.00  0.00     0.129 A 
ATOM     10  C   UNL A   1      30.833  26.253  24.655  1.00  0.00     0.053 A 
ATOM     11  C   UNL A   1      33.167  26.383  24.078  1.00  0.00     0.098 A 
ATOM     12  C   UNL A   1      30.866  27.589  25.064  1.00  0.00     0.024 A 
ATOM     13  C   UNL A   1      33.180  27.742  24.401  1.00  0.00     0.134 A 
BRANCH   9  14
ATOM     14  N   UNL A   1      32.030  24.254  23.913  1.00  0.00    -0.234 N 
ATOM     15  O   UNL A   1      33.279  21.730  27.623  1.00  0.00    -0.240 OA
ATOM     16  C   UNL A   1      33.062  21.987  26.452  1.00  0.00     0.346 C 
ATOM     17  N   UNL A   1      32.736  23.238  25.966  1.00  0.00    -0.199 N 
ATOM     18  C   UNL A   1      33.099  20.959  25.364  1.00  0.00     0.111 C 
ATOM     19  C   UNL A   1      32.481  23.239  24.702  1.00  0.00     0.322 C 
ATOM     20  H   UNL A   1      32.702  24.047  26.527  1.00  0.00     0.316 HD
ATOM     21  S   UNL A   1      32.683  21.707  23.874  1.00  0.00     0.006 SA
ATOM     22  C   UNL A   1      33.386  19.672  25.606  1.00  0.00     0.050 C 
ATOM     23  H   UNL A   1      31.687  23.994  23.027  1.00  0.00     0.313 HD
BRANCH  22  24
ATOM     24  C   UNL A   1      33.511  18.697  24.585  1.00  0.00     0.039 A 
ATOM     25  C   UNL A   1      34.497  17.788  24.251  1.00  0.00     0.027 A 
ATOM     26  N   UNL A   1      32.465  18.507  23.713  1.00  0.00    -0.362 N 
ATOM     27  C   UNL A   1      34.040  17.046  23.136  1.00  0.00     0.020 A 
ATOM     28  C   UNL A   1      32.787  17.518  22.817  1.00  0.00     0.083 A 
ATOM     29  H   UNL A   1      31.616  19.004  23.729  1.00  0.00     0.166 HD
ENDBRANCH  22  24
ENDBRANCH   9  14
BRANCH  13  30
ATOM     30  O   UNL A   1      34.331  28.425  24.122  1.00  0.00    -0.507 OA
ATOM     31  H   UNL A   1      34.417  29.322  24.379  1.00  0.00     0.293 HD
ENDBRANCH  13  30
ENDBRANCH   6   8
ENDBRANCH   5   6
ENDBRANCH   4   5
ENDBRANCH   3   4
ENDBRANCH   2   3
ENDBRANCH   1   2
BRANCH   1  32
ATOM     32  C   UNL A   1      34.039  34.447  30.090  1.00  0.00     0.188 C 
BRANCH  32  33
ATOM     33  O   UNL A   1      33.885  33.920  31.388  1.00  0.00    -0.376 OA
BRANCH  33  34
ATOM     34  C   UNL A   1      34.143  34.772  32.493  1.00  0.00     0.202 C 
BRANCH  34  35
ATOM     35  C   UNL A   1      35.517  34.871  33.196  1.00  0.00     0.261 C 
BRANCH  35  36
ATOM     36  O   UNL A   1      36.593  34.056  32.711  1.00  0.00    -0.460 OA
BRANCH  36  37
ATOM     37  C   UNL A   1      36.794  32.877  33.341  1.00  0.00     0.338 C 
ATOM     38  O   UNL A   1      36.278  32.503  34.380  1.00  0.00    -0.246 OA
BRANCH  37  39
ATOM     39  C   UNL A   1      37.617  32.003  32.478  1.00  0.00     0.060 A 
ATOM     40  C   UNL A   1      38.678  31.295  33.059  1.00  0.00     0.016 A 
ATOM     41  C   UNL A   1      37.391  31.933  31.102  1.00  0.00     0.016 A 
ATOM     42  C   UNL A   1      39.554  30.564  32.257  1.00  0.00     0.010 A 
ATOM     43  C   UNL A   1      38.281  31.210  30.295  1.00  0.00     0.010 A 
ATOM     44  C   UNL A   1      39.395  30.565  30.865  1.00  0.00    -0.014 A 
BRANCH  44  45
ATOM     45  C   UNL A   1      40.518  30.088  30.015  1.00  0.00     0.031 A 
ATOM     46  C   UNL A   1      41.637  31.048  29.700  1.00  0.00     0.074 A 
ATOM     47  C   UNL A   1      40.584  28.816  29.584  1.00  0.00     0.049 A 
ATOM     48  N   UNL A   1      42.727  30.860  28.998  1.00  0.00    -0.248 NA
ATOM     49  C   UNL A   1      41.506  32.406  30.250  1.00  0.00     0.031 C 
ATOM     50  C   UNL A   1      39.587  27.782  29.845  1.00  0.00     0.029 A 
ATOM     51  N   UNL A   1      41.541  28.180  28.832  1.00  0.00    -0.354 N 
ATOM     52  C   UNL A   1      43.404  32.074  29.021  1.00  0.00     0.074 A 
ATOM     53  C   UNL A   1      42.585  33.003  29.768  1.00  0.00     0.031 C 
ATOM     54  C   UNL A   1      39.982  26.637  29.259  1.00  0.00     0.029 A 
ATOM     55  C   UNL A   1      41.246  26.866  28.559  1.00  0.00     0.049 A 
ATOM     56  H   UNL A   1      42.362  28.623  28.517  1.00  0.00     0.167 HD
ATOM     57  C   UNL A   1      44.607  32.382  28.482  1.00  0.00     0.037 A 
ATOM     58  C   UNL A   1      41.916  25.960  27.820  1.00  0.00     0.037 A 
ATOM     59  C   UNL A   1      45.429  31.456  27.749  1.00  0.00     0.049 A 
ATOM     60  C   UNL A   1      43.230  26.347  27.186  1.00  0.00     0.074 A 
ATOM     61  C   UNL A   1      46.673  31.669  27.181  1.00  0.00     0.029 A 
ATOM     62  N   UNL A   1      45.086  30.141  27.475  1.00  0.00    -0.354 N 
ATOM     63  N   UNL A   1      43.879  27.486  27.240  1.00  0.00    -0.248 NA
ATOM     64  C   UNL A   1      43.916  25.310  26.402  1.00  0.00     0.031 C 
ATOM     65  C   UNL A   1      47.053  30.503  26.508  1.00  0.00     0.029 A 
ATOM     66  C   UNL A   1      46.082  29.538  26.724  1.00  0.00     0.049 A 
ATOM     67  H   UNL A   1      44.257  29.701  27.771  1.00  0.00     0.167 HD
ATOM     68  C   UNL A   1      45.060  27.289  26.534  1.00  0.00     0.074 A 
ATOM     69  C   UNL A   1      45.048  25.916  26.079  1.00  0.00     0.031 C 
ATOM     70  C   UNL A   1      46.066  28.166  26.285  1.00  0.00     0.037 A 
BRANCH  57  71
ATOM     71  C   UNL A   1      45.100  33.794  28.640  1.00  0.00     0.064 A 
ATOM     72  C   UNL A   1      45.932  34.176  29.704  1.00  0.00     0.173 A 
ATOM     73  C   UNL A   1      44.773  34.766  27.682  1.00  0.00     0.173 A 
ATOM     74  F   UNL A   1      46.266  33.290  30.654  1.00  0.00    -0.203 F 
ATOM     75  C   UNL A   1      46.397  35.484  29.815  1.00  0.00     0.198 A 
ATOM     76  C   UNL A   1      45.268  36.064  27.779  1.00  0.00     0.198 A 
ATOM     77  F   UNL A   1      43.984  34.455  26.644  1.00  0.00    -0.203 F 
ATOM     78  F   UNL A   1      47.152  35.838  30.864  1.00  0.00    -0.200 F 
ATOM     79  C   UNL A   1      46.073  36.424  28.848  1.00  0.00     0.200 A 
ATOM     80  F   UNL A   1      44.967  36.965  26.834  1.00  0.00    -0.200 F 
ATOM     81  F   UNL A   1      46.535  37.679  28.948  1.00  0.00    -0.200 F 
ENDBRANCH  57  71
BRANCH  58  82
ATOM     82  C   UNL A   1      41.358  24.593  27.620  1.00  0.00     0.064 A 
ATOM     83  C   UNL A   1      41.948  23.471  28.219  1.00  0.00     0.173 A 
ATOM     84  C   UNL A   1      40.256  24.378  26.780  1.00  0.00     0.173 A 
ATOM     85  F   UNL A   1      43.021  23.618  29.010  1.00  0.00    -0.203 F 
ATOM     86  C   UNL A   1      41.481  22.184  27.955  1.00  0.00     0.198 A 
ATOM     87  C   UNL A   1      39.767  23.094  26.546  1.00  0.00     0.198 A 
ATOM     88  F   UNL A   1      39.655  25.415  26.179  1.00  0.00    -0.203 F 
ATOM     89  F   UNL A   1      42.109  21.124  28.483  1.00  0.00    -0.200 F 
ATOM     90  C   UNL A   1      40.388  21.997  27.123  1.00  0.00     0.200 A 
ATOM     91  F   UNL A   1      38.703  22.920  25.751  1.00  0.00    -0.200 F 
ATOM     92  F   UNL A   1      39.943  20.760  26.864  1.00  0.00    -0.200 F 
ENDBRANCH  58  82
BRANCH  70  93
ATOM     93  C   UNL A   1      47.266  27.647  25.538  1.00  0.00     0.064 A 
ATOM     94  C   UNL A   1      48.334  27.012  26.189  1.00  0.00     0.173 A 
ATOM     95  C   UNL A   1      47.342  27.785  24.142  1.00  0.00     0.173 A 
ATOM     96  F   UNL A   1      48.318  26.859  27.523  1.00  0.00    -0.203 F 
ATOM     97  C   UNL A   1      49.456  26.586  25.481  1.00  0.00     0.198 A 
ATOM     98  C   UNL A   1      48.446  27.319  23.432  1.00  0.00     0.198 A 
ATOM     99  F   UNL A   1      46.344  28.370  23.462  1.00  0.00    -0.203 F 
ATOM    100  F   UNL A   1      50.497  26.054  26.136  1.00  0.00    -0.200 F 
ATOM    101  C   UNL A   1      49.508  26.735  24.103  1.00  0.00     0.200 A 
ATOM    102  F   UNL A   1      48.484  27.445  22.099  1.00  0.00    -0.200 F 
ATOM    103  F   UNL A   1      50.589  26.328  23.424  1.00  0.00    -0.200 F 
ENDBRANCH  70  93
ENDBRANCH  44  45
ENDBRANCH  37  39
ENDBRANCH  36  37
ENDBRANCH  35  36
ENDBRANCH  34  35
ENDBRANCH  33  34
ENDBRANCH  32  33
ENDBRANCH   1  32
TORSDOF 20
ENDMDL
MODEL 2
REMARK VINA RESULT:     -11.1      0.799      7.099
REMARK SMILES O=C1[NH+]=C(Nc2ccc(C(=O)OCCOCCOCCOC(=O)c3ccc(-c4c5nc(c(-c6c(F)c(F)c(F)c(F)c6F)c6ccc([nH]6)c(-c6c(F)c(F)c(F)c(F)c6F)c6nc(c(-c7c(F)c(F)c(F)c(F)c7F)c7ccc4[nH]7)C=C6)C=C5)cc3)c(O)c2)S/C1=C\c1ccc[nH]1
REMARK SMILES IDX 16 1 15 2 14 3 13 4 12 5 10 6 11 7 9 8 6 9 7 10 89 11 8 12
REMARK SMILES IDX 87 13 5 14 1 15 2 16 3 17 91 18 4 19 90 21 92 22 93 24 94 25
REMARK SMILES IDX 97 26 95 27 96 28 88 30 17 32 18 33 19 34 20 35 21 36 22 37
REMARK SMILES IDX 23 38 24 39 25 40 86 41 26 42 85 43 27 44 28 45 29 46 79 47
REMARK SMILES IDX 30 48 84 49 78 50 80 51 31 52 83 53 77 54 76 55 32 57 64 58
REMARK SMILES IDX 44 59 63 60 45 61 48 62 62 63 81 64 46 65 47 66 61 68 82 69
REMARK SMILES IDX 49 70 33 71 34 72 42 73 35 74 36 75 40 76 43 77 37 78 38 79
REMARK SMILES IDX 41 80 39 81 65 82 66 83 74 84 67 85 68 86 72 87 75 88 69 89
REMARK SMILES IDX 70 90 73 91 71 92 50 93 51 94 59 95 52 96 53 97 57 98 60 99
REMARK SMILES IDX 54 100 55 101 58 102 56 103
REMARK H PARENT 3 20 5 23 97 29 88 31 80 56 48 67
REMARK Flexibility Score: inf
ROOT
ATOM      1  C   UNL A   1      35.462  32.684  29.180  1.00  0.00     0.188 C 
ENDROOT
BRANCH   1   2
ATOM      2  O   UNL A   1      34.749  31.478  28.945  1.00  0.00    -0.376 OA
BRANCH   2   3
ATOM      3  C   UNL A   1      34.646  30.952  27.629  1.00  0.00     0.202 C 
BRANCH   3   4
ATOM      4  C   UNL A   1      33.343  30.299  27.127  1.00  0.00     0.261 C 
BRANCH   4   5
ATOM      5  O   UNL A   1      33.214  30.158  25.700  1.00  0.00    -0.460 OA
BRANCH   5   6
ATOM      6  C   UNL A   1      31.984  29.782  25.262  1.00  0.00     0.341 C 
ATOM      7  O   UNL A   1      31.028  30.511  25.059  1.00  0.00    -0.246 OA
BRANCH   6   8
ATOM      8  C   UNL A   1      32.005  28.358  24.851  1.00  0.00     0.102 A 
ATOM      9  C   UNL A   1      31.919  25.613  24.219  1.00  0.00     0.129 A 
ATOM     10  C   UNL A   1      30.802  26.245  24.769  1.00  0.00     0.053 A 
ATOM     11  C   UNL A   1      33.052  26.386  23.923  1.00  0.00     0.098 A 
ATOM     12  C   UNL A   1      30.858  27.597  25.124  1.00  0.00     0.024 A 
ATOM     13  C   UNL A   1      33.077  27.757  24.193  1.00  0.00     0.134 A 
BRANCH   9  14
ATOM     14  N   UNL A   1      31.942  24.237  23.966  1.00  0.00    -0.234 N 
ATOM     15  O   UNL A   1      33.225  21.837  27.746  1.00  0.00    -0.240 OA
ATOM     16  C   UNL A   1      32.995  22.054  26.570  1.00  0.00     0.346 C 
ATOM     17  N   UNL A   1      32.669  23.290  26.045  1.00  0.00    -0.199 N 
ATOM     18  C   UNL A   1      33.014  20.990  25.518  1.00  0.00     0.111 C 
ATOM     19  C   UNL A   1      32.399  23.248  24.785  1.00  0.00     0.322 C 
ATOM     20  H   UNL A   1      32.645  24.118  26.578  1.00  0.00     0.316 HD
ATOM     21  S   UNL A   1      32.583  21.687  24.008  1.00  0.00     0.006 SA
ATOM     22  C   UNL A   1      33.298  19.710  25.801  1.00  0.00     0.050 C 
ATOM     23  H   UNL A   1      31.587  23.949  23.094  1.00  0.00     0.313 HD
BRANCH  22  24
ATOM     24  C   UNL A   1      33.406  18.699  24.814  1.00  0.00     0.039 A 
ATOM     25  C   UNL A   1      32.525  18.169  23.891  1.00  0.00     0.027 A 
ATOM     26  N   UNL A   1      34.619  18.078  24.626  1.00  0.00    -0.362 N 
ATOM     27  C   UNL A   1      33.220  17.190  23.142  1.00  0.00     0.020 A 
ATOM     28  C   UNL A   1      34.508  17.146  23.625  1.00  0.00     0.083 A 
ATOM     29  H   UNL A   1      35.440  18.273  25.133  1.00  0.00     0.166 HD
ENDBRANCH  22  24
ENDBRANCH   9  14
BRANCH  13  30
ATOM     30  O   UNL A   1      34.176  28.444  23.759  1.00  0.00    -0.507 OA
ATOM     31  H   UNL A   1      34.334  29.316  24.066  1.00  0.00     0.293 HD
ENDBRANCH  13  30
ENDBRANCH   6   8
ENDBRANCH   5   6
ENDBRANCH   4   5
ENDBRANCH   3   4
ENDBRANCH   2   3
ENDBRANCH   1   2
BRANCH   1  32
ATOM     32  C   UNL A   1      34.782  33.856  29.921  1.00  0.00     0.188 C 
BRANCH  32  33
ATOM     33  O   UNL A   1      34.091  33.464  31.084  1.00  0.00    -0.376 OA
BRANCH  33  34
ATOM     34  C   UNL A   1      34.292  34.215  32.270  1.00  0.00     0.202 C 
BRANCH  34  35
ATOM     35  C   UNL A   1      35.492  34.006  33.224  1.00  0.00     0.261 C 
BRANCH  35  36
ATOM     36  O   UNL A   1      36.685  33.408  32.699  1.00  0.00    -0.460 OA
BRANCH  36  37
ATOM     37  C   UNL A   1      37.191  32.358  33.386  1.00  0.00     0.338 C 
ATOM     38  O   UNL A   1      36.876  31.992  34.504  1.00  0.00    -0.246 OA
BRANCH  37  39
ATOM     39  C   UNL A   1      38.083  31.585  32.495  1.00  0.00     0.060 A 
ATOM     40  C   UNL A   1      39.086  30.794  33.072  1.00  0.00     0.016 A 
ATOM     41  C   UNL A   1      37.979  31.690  31.106  1.00  0.00     0.016 A 
ATOM     42  C   UNL A   1      40.024  30.153  32.264  1.00  0.00     0.010 A 
ATOM     43  C   UNL A   1      38.932  31.059  30.296  1.00  0.00     0.010 A 
ATOM     44  C   UNL A   1      39.989  30.330  30.875  1.00  0.00    -0.014 A 
BRANCH  44  45
ATOM     45  C   UNL A   1      41.179  29.943  30.072  1.00  0.00     0.031 A 
ATOM     46  C   UNL A   1      41.194  28.584  29.420  1.00  0.00     0.074 A 
ATOM     47  C   UNL A   1      42.197  30.797  29.865  1.00  0.00     0.049 A 
ATOM     48  N   UNL A   1      42.106  28.030  28.662  1.00  0.00    -0.248 NA
ATOM     49  C   UNL A   1      40.018  27.732  29.661  1.00  0.00     0.031 C 
ATOM     50  C   UNL A   1      42.291  32.149  30.410  1.00  0.00     0.029 A 
ATOM     51  N   UNL A   1      43.351  30.647  29.136  1.00  0.00    -0.354 N 
ATOM     52  C   UNL A   1      41.617  26.769  28.340  1.00  0.00     0.074 A 
ATOM     53  C   UNL A   1      40.349  26.621  29.020  1.00  0.00     0.031 C 
ATOM     54  C   UNL A   1      43.444  32.706  29.998  1.00  0.00     0.029 A 
ATOM     55  C   UNL A   1      44.181  31.740  29.183  1.00  0.00     0.049 A 
ATOM     56  H   UNL A   1      43.563  29.831  28.626  1.00  0.00     0.167 HD
ATOM     57  C   UNL A   1      42.166  25.826  27.540  1.00  0.00     0.037 A 
ATOM     58  C   UNL A   1      45.400  31.930  28.641  1.00  0.00     0.037 A 
ATOM     59  C   UNL A   1      43.422  25.976  26.854  1.00  0.00     0.049 A 
ATOM     60  C   UNL A   1      46.012  30.841  27.794  1.00  0.00     0.074 A 
ATOM     61  C   UNL A   1      44.054  25.085  26.004  1.00  0.00     0.029 A 
ATOM     62  N   UNL A   1      44.244  27.089  26.944  1.00  0.00    -0.354 N 
ATOM     63  N   UNL A   1      45.528  29.666  27.470  1.00  0.00    -0.248 NA
ATOM     64  C   UNL A   1      47.338  31.115  27.223  1.00  0.00     0.031 C 
ATOM     65  C   UNL A   1      45.286  25.631  25.633  1.00  0.00     0.029 A 
ATOM     66  C   UNL A   1      45.388  26.896  26.187  1.00  0.00     0.049 A 
ATOM     67  H   UNL A   1      44.043  27.898  27.470  1.00  0.00     0.167 HD
ATOM     68  C   UNL A   1      46.468  29.082  26.628  1.00  0.00     0.074 A 
ATOM     69  C   UNL A   1      47.542  30.040  26.476  1.00  0.00     0.031 C 
ATOM     70  C   UNL A   1      46.446  27.861  26.033  1.00  0.00     0.037 A 
BRANCH  57  71
ATOM     71  C   UNL A   1      41.424  24.528  27.382  1.00  0.00     0.064 A 
ATOM     72  C   UNL A   1      40.261  24.427  26.603  1.00  0.00     0.173 A 
ATOM     73  C   UNL A   1      41.915  23.358  27.980  1.00  0.00     0.173 A 
ATOM     74  F   UNL A   1      39.741  25.516  26.019  1.00  0.00    -0.203 F 
ATOM     75  C   UNL A   1      39.605  23.208  26.451  1.00  0.00     0.198 A 
ATOM     76  C   UNL A   1      41.276  22.135  27.797  1.00  0.00     0.198 A 
ATOM     77  F   UNL A   1      43.025  23.397  28.733  1.00  0.00    -0.203 F 
ATOM     78  F   UNL A   1      38.470  23.143  25.741  1.00  0.00    -0.200 F 
ATOM     79  C   UNL A   1      40.118  22.062  27.039  1.00  0.00     0.200 A 
ATOM     80  F   UNL A   1      41.784  21.026  28.353  1.00  0.00    -0.200 F 
ATOM     81  F   UNL A   1      39.494  20.886  26.878  1.00  0.00    -0.200 F 
ENDBRANCH  57  71
BRANCH  58  82
ATOM     82  C   UNL A   1      46.140  33.200  28.883  1.00  0.00     0.064 A 
ATOM     83  C   UNL A   1      46.037  34.285  28.000  1.00  0.00     0.173 A 
ATOM     84  C   UNL A   1      47.011  33.332  29.975  1.00  0.00     0.173 A 
ATOM     85  F   UNL A   1      45.239  34.201  26.925  1.00  0.00    -0.203 F 
ATOM     86  C   UNL A   1      46.803  35.436  28.179  1.00  0.00     0.198 A 
ATOM     87  C   UNL A   1      47.748  34.498  30.173  1.00  0.00     0.198 A 
ATOM     88  F   UNL A   1      47.151  32.324  30.849  1.00  0.00    -0.203 F 
ATOM     89  F   UNL A   1      46.738  36.428  27.279  1.00  0.00    -0.200 F 
ATOM     90  C   UNL A   1      47.654  35.543  29.267  1.00  0.00     0.200 A 
ATOM     91  F   UNL A   1      48.560  34.602  31.234  1.00  0.00    -0.200 F 
ATOM     92  F   UNL A   1      48.395  36.646  29.436  1.00  0.00    -0.200 F 
ENDBRANCH  58  82
BRANCH  70  93
ATOM     93  C   UNL A   1      47.588  27.521  25.113  1.00  0.00     0.064 A 
ATOM     94  C   UNL A   1      48.759  26.900  25.573  1.00  0.00     0.173 A 
ATOM     95  C   UNL A   1      47.503  27.818  23.742  1.00  0.00     0.173 A 
ATOM     96  F   UNL A   1      48.899  26.600  26.874  1.00  0.00    -0.203 F 
ATOM     97  C   UNL A   1      49.822  26.642  24.710  1.00  0.00     0.198 A 
ATOM     98  C   UNL A   1      48.549  27.519  22.874  1.00  0.00     0.198 A 
ATOM     99  F   UNL A   1      46.401  28.397  23.241  1.00  0.00    -0.203 F 
ATOM    100  F   UNL A   1      50.960  26.121  25.189  1.00  0.00    -0.200 F 
ATOM    101  C   UNL A   1      49.714  26.947  23.361  1.00  0.00     0.200 A 
ATOM    102  F   UNL A   1      48.434  27.794  21.568  1.00  0.00    -0.200 F 
ATOM    103  F   UNL A   1      50.738  26.700  22.533  1.00  0.00    -0.200 F 
ENDBRANCH  70  93
ENDBRANCH  44  45
ENDBRANCH  37  39
ENDBRANCH  36  37
ENDBRANCH  35  36
ENDBRANCH  34  35
ENDBRANCH  33  34
ENDBRANCH  32  33
ENDBRANCH   1  32
TORSDOF 20
ENDMDL
MODEL 3
REMARK VINA RESULT:     -11.0      5.442      6.903
REMARK SMILES O=C1[NH+]=C(Nc2ccc(C(=O)OCCOCCOCCOC(=O)c3ccc(-c4c5nc(c(-c6c(F)c(F)c(F)c(F)c6F)c6ccc([nH]6)c(-c6c(F)c(F)c(F)c(F)c6F)c6nc(c(-c7c(F)c(F)c(F)c(F)c7F)c7ccc4[nH]7)C=C6)C=C5)cc3)c(O)c2)S/C1=C\c1ccc[nH]1
REMARK SMILES IDX 16 1 15 2 14 3 13 4 12 5 10 6 11 7 9 8 6 9 7 10 89 11 8 12
REMARK SMILES IDX 87 13 5 14 1 15 2 16 3 17 91 18 4 19 90 21 92 22 93 24 94 25
REMARK SMILES IDX 97 26 95 27 96 28 88 30 17 32 18 33 19 34 20 35 21 36 22 37
REMARK SMILES IDX 23 38 24 39 25 40 86 41 26 42 85 43 27 44 28 45 29 46 79 47
REMARK SMILES IDX 30 48 84 49 78 50 80 51 31 52 83 53 77 54 76 55 32 57 64 58
REMARK SMILES IDX 44 59 63 60 45 61 48 62 62 63 81 64 46 65 47 66 61 68 82 69
REMARK SMILES IDX 49 70 33 71 34 72 42 73 35 74 36 75 40 76 43 77 37 78 38 79
REMARK SMILES IDX 41 80 39 81 65 82 66 83 74 84 67 85 68 86 72 87 75 88 69 89
REMARK SMILES IDX 70 90 73 91 71 92 50 93 51 94 59 95 52 96 53 97 57 98 60 99
REMARK SMILES IDX 54 100 55 101 58 102 56 103
REMARK H PARENT 3 20 5 23 97 29 88 31 80 56 48 67
REMARK Flexibility Score: inf
ROOT
ATOM      1  C   UNL A   1      33.575  36.157  31.172  1.00  0.00     0.188 C 
ENDROOT
BRANCH   1   2
ATOM      2  O   UNL A   1      32.841  35.944  29.975  1.00  0.00    -0.376 OA
BRANCH   2   3
ATOM      3  C   UNL A   1      33.260  34.955  29.043  1.00  0.00     0.202 C 
BRANCH   3   4
ATOM      4  C   UNL A   1      34.753  34.635  28.832  1.00  0.00     0.261 C 
BRANCH   4   5
ATOM      5  O   UNL A   1      35.076  33.253  28.591  1.00  0.00    -0.460 OA
BRANCH   5   6
ATOM      6  C   UNL A   1      35.224  32.489  29.706  1.00  0.00     0.341 C 
ATOM      7  O   UNL A   1      34.404  32.330  30.594  1.00  0.00    -0.246 OA
BRANCH   6   8
ATOM      8  C   UNL A   1      36.463  31.682  29.607  1.00  0.00     0.102 A 
ATOM      9  C   UNL A   1      38.725  30.003  29.519  1.00  0.00     0.129 A 
ATOM     10  C   UNL A   1      37.439  29.456  29.513  1.00  0.00     0.053 A 
ATOM     11  C   UNL A   1      38.862  31.398  29.496  1.00  0.00     0.098 A 
ATOM     12  C   UNL A   1      36.318  30.286  29.601  1.00  0.00     0.024 A 
ATOM     13  C   UNL A   1      37.739  32.230  29.492  1.00  0.00     0.134 A 
BRANCH   9  14
ATOM     14  N   UNL A   1      39.871  29.201  29.557  1.00  0.00    -0.234 N 
ATOM     15  O   UNL A   1      41.867  28.892  25.360  1.00  0.00    -0.240 OA
ATOM     16  C   UNL A   1      41.624  28.608  26.519  1.00  0.00     0.346 C 
ATOM     17  N   UNL A   1      40.636  29.196  27.285  1.00  0.00    -0.199 N 
ATOM     18  C   UNL A   1      42.390  27.580  27.293  1.00  0.00     0.111 C 
ATOM     19  C   UNL A   1      40.624  28.776  28.505  1.00  0.00     0.322 C 
ATOM     20  H   UNL A   1      40.004  29.866  26.936  1.00  0.00     0.316 HD
ATOM     21  S   UNL A   1      41.780  27.517  28.897  1.00  0.00     0.006 SA
ATOM     22  C   UNL A   1      43.402  26.887  26.751  1.00  0.00     0.050 C 
ATOM     23  H   UNL A   1      40.168  28.909  30.449  1.00  0.00     0.313 HD
BRANCH  22  24
ATOM     24  C   UNL A   1      44.088  25.850  27.432  1.00  0.00     0.039 A 
ATOM     25  C   UNL A   1      45.173  25.824  28.286  1.00  0.00     0.027 A 
ATOM     26  N   UNL A   1      43.628  24.559  27.314  1.00  0.00    -0.362 N 
ATOM     27  C   UNL A   1      45.385  24.481  28.678  1.00  0.00     0.020 A 
ATOM     28  C   UNL A   1      44.423  23.719  28.054  1.00  0.00     0.083 A 
ATOM     29  H   UNL A   1      42.849  24.280  26.782  1.00  0.00     0.166 HD
ENDBRANCH  22  24
ENDBRANCH   9  14
BRANCH  13  30
ATOM     30  O   UNL A   1      37.973  33.570  29.347  1.00  0.00    -0.507 OA
ATOM     31  H   UNL A   1      37.855  33.977  28.511  1.00  0.00     0.293 HD
ENDBRANCH  13  30
ENDBRANCH   6   8
ENDBRANCH   5   6
ENDBRANCH   4   5
ENDBRANCH   3   4
ENDBRANCH   2   3
ENDBRANCH   1   2
BRANCH   1  32
ATOM     32  C   UNL A   1      33.197  35.393  32.459  1.00  0.00     0.188 C 
BRANCH  32  33
ATOM     33  O   UNL A   1      34.218  34.548  32.935  1.00  0.00    -0.376 OA
BRANCH  33  34
ATOM     34  C   UNL A   1      35.561  34.998  32.843  1.00  0.00     0.202 C 
BRANCH  34  35
ATOM     35  C   UNL A   1      36.773  34.052  32.679  1.00  0.00     0.261 C 
BRANCH  35  36
ATOM     36  O   UNL A   1      36.648  32.697  33.133  1.00  0.00    -0.460 OA
BRANCH  36  37
ATOM     37  C   UNL A   1      37.226  32.398  34.319  1.00  0.00     0.338 C 
ATOM     38  O   UNL A   1      36.800  32.662  35.430  1.00  0.00    -0.246 OA
BRANCH  37  39
ATOM     39  C   UNL A   1      38.394  31.524  34.080  1.00  0.00     0.060 A 
ATOM     40  C   UNL A   1      39.618  31.864  34.672  1.00  0.00     0.016 A 
ATOM     41  C   UNL A   1      38.304  30.421  33.227  1.00  0.00     0.016 A 
ATOM     42  C   UNL A   1      40.769  31.138  34.366  1.00  0.00     0.010 A 
ATOM     43  C   UNL A   1      39.465  29.703  32.908  1.00  0.00     0.010 A 
ATOM     44  C   UNL A   1      40.710  30.091  33.438  1.00  0.00    -0.014 A 
BRANCH  44  45
ATOM     45  C   UNL A   1      41.980  29.570  32.863  1.00  0.00     0.031 A 
ATOM     46  C   UNL A   1      42.607  30.319  31.715  1.00  0.00     0.074 A 
ATOM     47  C   UNL A   1      42.601  28.498  33.385  1.00  0.00     0.049 A 
ATOM     48  N   UNL A   1      43.715  30.072  31.062  1.00  0.00    -0.248 NA
ATOM     49  C   UNL A   1      41.883  31.508  31.237  1.00  0.00     0.031 C 
ATOM     50  C   UNL A   1      42.118  27.706  34.512  1.00  0.00     0.029 A 
ATOM     51  N   UNL A   1      43.781  27.893  33.028  1.00  0.00    -0.354 N 
ATOM     52  C   UNL A   1      43.816  31.070  30.099  1.00  0.00     0.074 A 
ATOM     53  C   UNL A   1      42.638  31.899  30.222  1.00  0.00     0.031 C 
ATOM     54  C   UNL A   1      42.994  26.714  34.755  1.00  0.00     0.029 A 
ATOM     55  C   UNL A   1      44.084  26.786  33.782  1.00  0.00     0.049 A 
ATOM     56  H   UNL A   1      44.357  28.221  32.299  1.00  0.00     0.167 HD
ATOM     57  C   UNL A   1      44.808  31.284  29.202  1.00  0.00     0.037 A 
ATOM     58  C   UNL A   1      45.116  25.925  33.687  1.00  0.00     0.037 A 
ATOM     59  C   UNL A   1      45.986  30.466  29.086  1.00  0.00     0.049 A 
ATOM     60  C   UNL A   1      46.182  26.158  32.644  1.00  0.00     0.074 A 
ATOM     61  C   UNL A   1      47.057  30.614  28.222  1.00  0.00     0.029 A 
ATOM     62  N   UNL A   1      46.246  29.341  29.853  1.00  0.00    -0.354 N 
ATOM     63  N   UNL A   1      46.286  27.121  31.759  1.00  0.00    -0.248 NA
ATOM     64  C   UNL A   1      47.287  25.190  32.600  1.00  0.00     0.031 C 
ATOM     65  C   UNL A   1      47.933  29.542  28.422  1.00  0.00     0.029 A 
ATOM     66  C   UNL A   1      47.448  28.770  29.464  1.00  0.00     0.049 A 
ATOM     67  H   UNL A   1      45.663  28.999  30.569  1.00  0.00     0.167 HD
ATOM     68  C   UNL A   1      47.481  26.896  31.085  1.00  0.00     0.074 A 
ATOM     69  C   UNL A   1      48.076  25.717  31.677  1.00  0.00     0.031 C 
ATOM     70  C   UNL A   1      48.037  27.602  30.068  1.00  0.00     0.037 A 
BRANCH  57  71
ATOM     71  C   UNL A   1      44.650  32.437  28.251  1.00  0.00     0.064 A 
ATOM     72  C   UNL A   1      44.161  32.263  26.947  1.00  0.00     0.173 A 
ATOM     73  C   UNL A   1      44.948  33.743  28.669  1.00  0.00     0.173 A 
ATOM     74  F   UNL A   1      43.873  31.035  26.491  1.00  0.00    -0.203 F 
ATOM     75  C   UNL A   1      44.000  33.350  26.092  1.00  0.00     0.198 A 
ATOM     76  C   UNL A   1      44.753  34.830  27.823  1.00  0.00     0.198 A 
ATOM     77  F   UNL A   1      45.416  33.967  29.907  1.00  0.00    -0.203 F 
ATOM     78  F   UNL A   1      43.575  33.155  24.835  1.00  0.00    -0.200 F 
ATOM     79  C   UNL A   1      44.286  34.633  26.532  1.00  0.00     0.200 A 
ATOM     80  F   UNL A   1      45.014  36.071  28.258  1.00  0.00    -0.200 F 
ATOM     81  F   UNL A   1      44.115  35.680  25.713  1.00  0.00    -0.200 F 
ENDBRANCH  57  71
BRANCH  58  82
ATOM     82  C   UNL A   1      45.200  24.748  34.597  1.00  0.00     0.064 A 
ATOM     83  C   UNL A   1      45.840  24.832  35.841  1.00  0.00     0.173 A 
ATOM     84  C   UNL A   1      44.688  23.500  34.213  1.00  0.00     0.173 A 
ATOM     85  F   UNL A   1      46.371  25.996  36.246  1.00  0.00    -0.203 F 
ATOM     86  C   UNL A   1      45.999  23.706  36.648  1.00  0.00     0.198 A 
ATOM     87  C   UNL A   1      44.814  22.383  35.037  1.00  0.00     0.198 A 
ATOM     88  F   UNL A   1      44.069  23.362  33.031  1.00  0.00    -0.203 F 
ATOM     89  F   UNL A   1      46.679  23.800  37.800  1.00  0.00    -0.200 F 
ATOM     90  C   UNL A   1      45.482  22.484  36.247  1.00  0.00     0.200 A 
ATOM     91  F   UNL A   1      44.302  21.207  34.650  1.00  0.00    -0.200 F 
ATOM     92  F   UNL A   1      45.639  21.401  37.020  1.00  0.00    -0.200 F 
ENDBRANCH  58  82
BRANCH  70  93
ATOM     93  C   UNL A   1      49.387  27.155  29.573  1.00  0.00     0.064 A 
ATOM     94  C   UNL A   1      50.582  27.604  30.155  1.00  0.00     0.173 A 
ATOM     95  C   UNL A   1      49.483  26.254  28.499  1.00  0.00     0.173 A 
ATOM     96  F   UNL A   1      50.552  28.470  31.180  1.00  0.00    -0.203 F 
ATOM     97  C   UNL A   1      51.820  27.214  29.647  1.00  0.00     0.198 A 
ATOM     98  C   UNL A   1      50.721  25.833  28.021  1.00  0.00     0.198 A 
ATOM     99  F   UNL A   1      48.374  25.778  27.913  1.00  0.00    -0.203 F 
ATOM    100  F   UNL A   1      52.946  27.719  30.169  1.00  0.00    -0.200 F 
ATOM    101  C   UNL A   1      51.887  26.325  28.584  1.00  0.00     0.200 A 
ATOM    102  F   UNL A   1      50.784  24.958  27.009  1.00  0.00    -0.200 F 
ATOM    103  F   UNL A   1      53.078  25.954  28.094  1.00  0.00    -0.200 F 
ENDBRANCH  70  93
ENDBRANCH  44  45
ENDBRANCH  37  39
ENDBRANCH  36  37
ENDBRANCH  35  36
ENDBRANCH  34  35
ENDBRANCH  33  34
ENDBRANCH  32  33
ENDBRANCH   1  32
TORSDOF 20
ENDMDL
