MODEL 1
REMARK VINA RESULT:     -10.7      0.000      0.000
REMARK SMILES COc1ccc(NC(=O)c2cccn2CC(=O)OCCOCCOCCOC(=O)c2ccc(-c3c4nc(c(-c5c(F)c(F)c(F)c(F)c5F)c5ccc([nH]5)c(-c5c(F)c(F)c(F)c(F)c5F)c5nc(c(-c6c(F)c(F)c(F)c(F)c6F)c6ccc3[nH]6)C=C5)C=C4)cc2)cc1F
REMARK SMILES IDX 22 1 21 2 20 3 19 4 18 5 16 6 17 7 15 8 14 9 10 10 11 11
REMARK SMILES IDX 12 12 13 13 8 14 7 15 9 17 6 18 3 19 4 20 94 21 5 22 93 23
REMARK SMILES IDX 95 24 2 25 1 26 23 27 24 28 25 29 26 30 27 31 28 32 29 33
REMARK SMILES IDX 30 34 31 35 92 36 32 37 91 38 33 39 34 40 35 41 85 42 36 43
REMARK SMILES IDX 90 44 84 45 86 46 37 47 89 48 83 49 82 50 38 52 70 53 50 54
REMARK SMILES IDX 69 55 51 56 54 57 68 58 87 59 52 60 53 61 67 63 88 64 55 65
REMARK SMILES IDX 39 66 40 67 48 68 41 69 42 70 46 71 49 72 43 73 44 74 47 75
REMARK SMILES IDX 45 76 71 77 72 78 80 79 73 80 74 81 78 82 81 83 75 84 76 85
REMARK SMILES IDX 79 86 77 87 56 88 57 89 65 90 58 91 59 92 63 93 66 94 60 95
REMARK SMILES IDX 61 96 64 97 62 98
REMARK H PARENT 7 16 86 51 54 62
REMARK Flexibility Score: inf
ROOT
ATOM      1  C   UNL A   1      40.633  21.018  26.723  1.00  0.00     0.188 C 
ENDROOT
BRANCH   1   2
ATOM      2  O   UNL A   1      39.751  21.834  25.956  1.00  0.00    -0.376 OA
BRANCH   2   3
ATOM      3  C   UNL A   1      38.405  21.428  25.780  1.00  0.00     0.202 C 
BRANCH   3   4
ATOM      4  C   UNL A   1      37.444  22.472  25.182  1.00  0.00     0.261 C 
BRANCH   4   5
ATOM      5  O   UNL A   1      36.825  23.375  26.132  1.00  0.00    -0.462 OA
BRANCH   5   6
ATOM      6  C   UNL A   1      35.543  23.739  25.879  1.00  0.00     0.326 C 
ATOM      7  O   UNL A   1      35.238  24.819  25.373  1.00  0.00    -0.250 OA
BRANCH   6   8
ATOM      8  C   UNL A   1      34.468  22.724  26.199  1.00  0.00     0.244 C 
BRANCH   8   9
ATOM      9  N   UNL A   1      33.325  22.518  25.299  1.00  0.00    -0.332 N 
ATOM     10  C   UNL A   1      32.059  23.073  25.419  1.00  0.00     0.107 A 
ATOM     11  C   UNL A   1      31.410  22.845  24.208  1.00  0.00     0.033 A 
ATOM     12  C   UNL A   1      32.261  22.095  23.371  1.00  0.00     0.020 A 
ATOM     13  C   UNL A   1      33.447  21.940  24.049  1.00  0.00     0.087 A 
BRANCH  10  14
ATOM     14  C   UNL A   1      31.590  23.844  26.552  1.00  0.00     0.272 C 
ATOM     15  N   UNL A   1      31.282  25.180  26.432  1.00  0.00    -0.321 N 
ATOM     16  H   UNL A   1      31.278  25.658  27.292  1.00  0.00     0.170 HD
ATOM     17  O   UNL A   1      31.514  23.355  27.679  1.00  0.00    -0.267 OA
BRANCH  15  18
ATOM     18  C   UNL A   1      30.975  26.005  25.335  1.00  0.00     0.044 A 
ATOM     19  C   UNL A   1      30.558  27.673  23.094  1.00  0.00     0.154 A 
ATOM     20  C   UNL A   1      29.495  26.980  23.674  1.00  0.00     0.052 A 
ATOM     21  C   UNL A   1      31.815  27.572  23.686  1.00  0.00     0.167 A 
ATOM     22  C   UNL A   1      29.698  26.166  24.795  1.00  0.00     0.030 A 
ATOM     23  C   UNL A   1      32.025  26.751  24.794  1.00  0.00     0.069 A 
ATOM     24  F   UNL A   1      32.865  28.266  23.220  1.00  0.00    -0.203 F 
BRANCH  19  25
ATOM     25  O   UNL A   1      30.226  28.420  21.998  1.00  0.00    -0.494 OA
ATOM     26  C   UNL A   1      29.694  29.713  22.265  1.00  0.00     0.278 C 
ENDBRANCH  19  25
ENDBRANCH  15  18
ENDBRANCH  10  14
ENDBRANCH   8   9
ENDBRANCH   6   8
ENDBRANCH   5   6
ENDBRANCH   4   5
ENDBRANCH   3   4
ENDBRANCH   2   3
ENDBRANCH   1   2
BRANCH   1  27
ATOM     27  C   UNL A   1      41.453  19.886  26.076  1.00  0.00     0.188 C 
BRANCH  27  28
ATOM     28  O   UNL A   1      42.834  19.924  26.384  1.00  0.00    -0.376 OA
BRANCH  28  29
ATOM     29  C   UNL A   1      43.739  20.007  25.302  1.00  0.00     0.202 C 
BRANCH  29  30
ATOM     30  C   UNL A   1      44.424  21.368  25.249  1.00  0.00     0.261 C 
BRANCH  30  31
ATOM     31  O   UNL A   1      43.582  22.434  24.809  1.00  0.00    -0.460 OA
BRANCH  31  32
ATOM     32  C   UNL A   1      44.195  23.609  24.658  1.00  0.00     0.338 C 
ATOM     33  O   UNL A   1      45.306  23.843  24.150  1.00  0.00    -0.246 OA
BRANCH  32  34
ATOM     34  C   UNL A   1      43.424  24.651  25.284  1.00  0.00     0.060 A 
ATOM     35  C   UNL A   1      44.000  25.922  25.391  1.00  0.00     0.016 A 
ATOM     36  C   UNL A   1      42.341  24.226  26.061  1.00  0.00     0.016 A 
ATOM     37  C   UNL A   1      43.576  26.738  26.412  1.00  0.00     0.010 A 
ATOM     38  C   UNL A   1      41.956  25.018  27.111  1.00  0.00     0.010 A 
ATOM     39  C   UNL A   1      42.609  26.244  27.296  1.00  0.00    -0.014 A 
BRANCH  39  40
ATOM     40  C   UNL A   1      42.196  27.078  28.419  1.00  0.00     0.031 A 
ATOM     41  C   UNL A   1      43.000  26.715  29.687  1.00  0.00     0.074 A 
ATOM     42  C   UNL A   1      41.225  27.984  28.094  1.00  0.00     0.049 A 
ATOM     43  N   UNL A   1      42.784  26.985  30.939  1.00  0.00    -0.248 NA
ATOM     44  C   UNL A   1      44.231  25.879  29.528  1.00  0.00     0.031 C 
ATOM     45  C   UNL A   1      40.590  28.147  26.759  1.00  0.00     0.029 A 
ATOM     46  N   UNL A   1      40.564  28.947  28.809  1.00  0.00    -0.354 N 
ATOM     47  C   UNL A   1      43.912  26.538  31.663  1.00  0.00     0.074 A 
ATOM     48  C   UNL A   1      44.726  25.789  30.760  1.00  0.00     0.031 C 
ATOM     49  C   UNL A   1      39.591  29.058  26.802  1.00  0.00     0.029 A 
ATOM     50  C   UNL A   1      39.489  29.593  28.142  1.00  0.00     0.049 A 
ATOM     51  H   UNL A   1      40.820  29.179  29.732  1.00  0.00     0.167 HD
ATOM     52  C   UNL A   1      44.193  26.930  32.937  1.00  0.00     0.037 A 
ATOM     53  C   UNL A   1      38.548  30.430  28.684  1.00  0.00     0.037 A 
ATOM     54  C   UNL A   1      43.170  27.772  33.452  1.00  0.00     0.049 A 
ATOM     55  C   UNL A   1      38.976  30.558  30.087  1.00  0.00     0.074 A 
ATOM     56  C   UNL A   1      42.031  27.608  34.195  1.00  0.00     0.029 A 
ATOM     57  N   UNL A   1      43.236  29.081  33.056  1.00  0.00    -0.354 N 
ATOM     58  N   UNL A   1      40.014  31.221  30.496  1.00  0.00    -0.248 NA
ATOM     59  C   UNL A   1      38.360  29.637  31.038  1.00  0.00     0.031 C 
ATOM     60  C   UNL A   1      41.324  28.833  34.089  1.00  0.00     0.029 A 
ATOM     61  C   UNL A   1      41.969  29.596  33.119  1.00  0.00     0.049 A 
ATOM     62  H   UNL A   1      44.047  29.563  32.777  1.00  0.00     0.167 HD
ATOM     63  C   UNL A   1      40.347  30.604  31.682  1.00  0.00     0.074 A 
ATOM     64  C   UNL A   1      39.251  29.709  32.019  1.00  0.00     0.031 C 
ATOM     65  C   UNL A   1      41.621  30.589  32.146  1.00  0.00     0.037 A 
BRANCH  52  66
ATOM     66  C   UNL A   1      45.473  26.873  33.733  1.00  0.00     0.064 A 
ATOM     67  C   UNL A   1      46.527  27.785  33.564  1.00  0.00     0.173 A 
ATOM     68  C   UNL A   1      45.461  26.158  34.956  1.00  0.00     0.173 A 
ATOM     69  F   UNL A   1      46.626  28.530  32.455  1.00  0.00    -0.203 F 
ATOM     70  C   UNL A   1      47.448  28.032  34.590  1.00  0.00     0.198 A 
ATOM     71  C   UNL A   1      46.343  26.449  35.994  1.00  0.00     0.198 A 
ATOM     72  F   UNL A   1      44.531  25.220  35.191  1.00  0.00    -0.203 F 
ATOM     73  F   UNL A   1      48.410  28.948  34.412  1.00  0.00    -0.200 F 
ATOM     74  C   UNL A   1      47.327  27.400  35.817  1.00  0.00     0.200 A 
ATOM     75  F   UNL A   1      46.191  25.853  37.186  1.00  0.00    -0.200 F 
ATOM     76  F   UNL A   1      48.136  27.730  36.833  1.00  0.00    -0.200 F 
ENDBRANCH  52  66
BRANCH  53  77
ATOM     77  C   UNL A   1      37.196  30.997  28.316  1.00  0.00     0.064 A 
ATOM     78  C   UNL A   1      36.964  32.397  28.452  1.00  0.00     0.173 A 
ATOM     79  C   UNL A   1      36.065  30.264  27.937  1.00  0.00     0.173 A 
ATOM     80  F   UNL A   1      37.972  33.255  28.665  1.00  0.00    -0.203 F 
ATOM     81  C   UNL A   1      35.695  32.977  28.403  1.00  0.00     0.198 A 
ATOM     82  C   UNL A   1      34.789  30.855  27.845  1.00  0.00     0.198 A 
ATOM     83  F   UNL A   1      36.154  28.963  27.640  1.00  0.00    -0.203 F 
ATOM     84  F   UNL A   1      35.551  34.285  28.663  1.00  0.00    -0.200 F 
ATOM     85  C   UNL A   1      34.599  32.199  28.121  1.00  0.00     0.200 A 
ATOM     86  F   UNL A   1      33.732  30.105  27.505  1.00  0.00    -0.200 F 
ATOM     87  F   UNL A   1      33.373  32.740  28.108  1.00  0.00    -0.200 F 
ENDBRANCH  53  77
BRANCH  65  88
ATOM     88  C   UNL A   1      42.618  31.328  31.278  1.00  0.00     0.064 A 
ATOM     89  C   UNL A   1      43.376  30.681  30.281  1.00  0.00     0.173 A 
ATOM     90  C   UNL A   1      42.788  32.708  31.382  1.00  0.00     0.173 A 
ATOM     91  F   UNL A   1      43.285  29.363  30.114  1.00  0.00    -0.203 F 
ATOM     92  C   UNL A   1      44.273  31.356  29.456  1.00  0.00     0.198 A 
ATOM     93  C   UNL A   1      43.683  33.393  30.552  1.00  0.00     0.198 A 
ATOM     94  F   UNL A   1      42.100  33.398  32.302  1.00  0.00    -0.203 F 
ATOM     95  F   UNL A   1      44.998  30.677  28.551  1.00  0.00    -0.200 F 
ATOM     96  C   UNL A   1      44.428  32.718  29.594  1.00  0.00     0.200 A 
ATOM     97  F   UNL A   1      43.840  34.716  30.690  1.00  0.00    -0.200 F 
ATOM     98  F   UNL A   1      45.304  33.375  28.822  1.00  0.00    -0.200 F 
ENDBRANCH  65  88
ENDBRANCH  39  40
ENDBRANCH  32  34
ENDBRANCH  31  32
ENDBRANCH  30  31
ENDBRANCH  29  30
ENDBRANCH  28  29
ENDBRANCH  27  28
ENDBRANCH   1  27
TORSDOF 21
ENDMDL
MODEL 2
REMARK VINA RESULT:     -10.6      1.339      2.081
REMARK SMILES COc1ccc(NC(=O)c2cccn2CC(=O)OCCOCCOCCOC(=O)c2ccc(-c3c4nc(c(-c5c(F)c(F)c(F)c(F)c5F)c5ccc([nH]5)c(-c5c(F)c(F)c(F)c(F)c5F)c5nc(c(-c6c(F)c(F)c(F)c(F)c6F)c6ccc3[nH]6)C=C5)C=C4)cc2)cc1F
REMARK SMILES IDX 22 1 21 2 20 3 19 4 18 5 16 6 17 7 15 8 14 9 10 10 11 11
REMARK SMILES IDX 12 12 13 13 8 14 7 15 9 17 6 18 3 19 4 20 94 21 5 22 93 23
REMARK SMILES IDX 95 24 2 25 1 26 23 27 24 28 25 29 26 30 27 31 28 32 29 33
REMARK SMILES IDX 30 34 31 35 92 36 32 37 91 38 33 39 34 40 35 41 85 42 36 43
REMARK SMILES IDX 90 44 84 45 86 46 37 47 89 48 83 49 82 50 38 52 70 53 50 54
REMARK SMILES IDX 69 55 51 56 54 57 68 58 87 59 52 60 53 61 67 63 88 64 55 65
REMARK SMILES IDX 39 66 40 67 48 68 41 69 42 70 46 71 49 72 43 73 44 74 47 75
REMARK SMILES IDX 45 76 71 77 72 78 80 79 73 80 74 81 78 82 81 83 75 84 76 85
REMARK SMILES IDX 79 86 77 87 56 88 57 89 65 90 58 91 59 92 63 93 66 94 60 95
REMARK SMILES IDX 61 96 64 97 62 98
REMARK H PARENT 7 16 86 51 54 62
REMARK Flexibility Score: inf
ROOT
ATOM      1  C   UNL A   1      40.393  20.980  26.844  1.00  0.00     0.188 C 
ENDROOT
BRANCH   1   2
ATOM      2  O   UNL A   1      39.522  21.835  26.108  1.00  0.00    -0.376 OA
BRANCH   2   3
ATOM      3  C   UNL A   1      38.313  21.312  25.584  1.00  0.00     0.202 C 
BRANCH   3   4
ATOM      4  C   UNL A   1      37.292  22.335  25.056  1.00  0.00     0.261 C 
BRANCH   4   5
ATOM      5  O   UNL A   1      36.483  22.994  26.061  1.00  0.00    -0.462 OA
BRANCH   5   6
ATOM      6  C   UNL A   1      35.210  22.550  26.205  1.00  0.00     0.326 C 
ATOM      7  O   UNL A   1      34.925  21.496  26.773  1.00  0.00    -0.250 OA
BRANCH   6   8
ATOM      8  C   UNL A   1      34.110  23.444  25.677  1.00  0.00     0.244 C 
BRANCH   8   9
ATOM      9  N   UNL A   1      33.392  23.116  24.439  1.00  0.00    -0.332 N 
ATOM     10  C   UNL A   1      32.017  23.045  24.265  1.00  0.00     0.107 A 
ATOM     11  C   UNL A   1      31.792  22.999  22.892  1.00  0.00     0.033 A 
ATOM     12  C   UNL A   1      33.036  22.979  22.229  1.00  0.00     0.020 A 
ATOM     13  C   UNL A   1      34.003  23.091  23.199  1.00  0.00     0.087 A 
BRANCH  10  14
ATOM     14  C   UNL A   1      31.036  23.136  25.328  1.00  0.00     0.272 C 
ATOM     15  N   UNL A   1      30.550  24.351  25.754  1.00  0.00    -0.321 N 
ATOM     16  H   UNL A   1      30.147  24.317  26.650  1.00  0.00     0.170 HD
ATOM     17  O   UNL A   1      30.651  22.138  25.938  1.00  0.00    -0.267 OA
BRANCH  15  18
ATOM     18  C   UNL A   1      30.511  25.631  25.173  1.00  0.00     0.044 A 
ATOM     19  C   UNL A   1      30.597  28.251  24.120  1.00  0.00     0.154 A 
ATOM     20  C   UNL A   1      29.813  27.266  23.518  1.00  0.00     0.052 A 
ATOM     21  C   UNL A   1      31.283  27.928  25.289  1.00  0.00     0.167 A 
ATOM     22  C   UNL A   1      29.757  25.971  24.049  1.00  0.00     0.030 A 
ATOM     23  C   UNL A   1      31.242  26.635  25.813  1.00  0.00     0.069 A 
ATOM     24  F   UNL A   1      31.999  28.845  25.955  1.00  0.00    -0.203 F 
BRANCH  19  25
ATOM     25  O   UNL A   1      30.573  29.466  23.493  1.00  0.00    -0.494 OA
ATOM     26  C   UNL A   1      29.957  29.490  22.209  1.00  0.00     0.278 C 
ENDBRANCH  19  25
ENDBRANCH  15  18
ENDBRANCH  10  14
ENDBRANCH   8   9
ENDBRANCH   6   8
ENDBRANCH   5   6
ENDBRANCH   4   5
ENDBRANCH   3   4
ENDBRANCH   2   3
ENDBRANCH   1   2
BRANCH   1  27
ATOM     27  C   UNL A   1      41.230  19.888  26.150  1.00  0.00     0.188 C 
BRANCH  27  28
ATOM     28  O   UNL A   1      42.606  19.918  26.478  1.00  0.00    -0.376 OA
BRANCH  28  29
ATOM     29  C   UNL A   1      43.527  19.638  25.444  1.00  0.00     0.202 C 
BRANCH  29  30
ATOM     30  C   UNL A   1      44.330  20.876  25.061  1.00  0.00     0.261 C 
BRANCH  30  31
ATOM     31  O   UNL A   1      43.542  21.955  24.557  1.00  0.00    -0.460 OA
BRANCH  31  32
ATOM     32  C   UNL A   1      44.214  23.088  24.338  1.00  0.00     0.338 C 
ATOM     33  O   UNL A   1      45.279  23.249  23.717  1.00  0.00    -0.246 OA
BRANCH  32  34
ATOM     34  C   UNL A   1      43.584  24.177  25.038  1.00  0.00     0.060 A 
ATOM     35  C   UNL A   1      44.317  25.355  25.218  1.00  0.00     0.016 A 
ATOM     36  C   UNL A   1      42.458  23.844  25.799  1.00  0.00     0.016 A 
ATOM     37  C   UNL A   1      44.004  26.151  26.295  1.00  0.00     0.010 A 
ATOM     38  C   UNL A   1      42.180  24.608  26.901  1.00  0.00     0.010 A 
ATOM     39  C   UNL A   1      42.985  25.727  27.156  1.00  0.00    -0.014 A 
BRANCH  39  40
ATOM     40  C   UNL A   1      42.684  26.533  28.335  1.00  0.00     0.031 A 
ATOM     41  C   UNL A   1      43.545  26.080  29.533  1.00  0.00     0.074 A 
ATOM     42  C   UNL A   1      41.742  27.498  28.107  1.00  0.00     0.049 A 
ATOM     43  N   UNL A   1      43.422  26.307  30.807  1.00  0.00    -0.248 NA
ATOM     44  C   UNL A   1      44.720  25.192  29.265  1.00  0.00     0.031 C 
ATOM     45  C   UNL A   1      41.035  27.747  26.823  1.00  0.00     0.029 A 
ATOM     46  N   UNL A   1      41.177  28.462  28.899  1.00  0.00    -0.354 N 
ATOM     47  C   UNL A   1      44.568  25.777  31.439  1.00  0.00     0.074 A 
ATOM     48  C   UNL A   1      45.285  25.027  30.459  1.00  0.00     0.031 C 
ATOM     49  C   UNL A   1      40.089  28.702  26.963  1.00  0.00     0.029 A 
ATOM     50  C   UNL A   1      40.097  29.185  28.327  1.00  0.00     0.049 A 
ATOM     51  H   UNL A   1      41.501  28.642  29.812  1.00  0.00     0.167 HD
ATOM     52  C   UNL A   1      44.946  26.102  32.707  1.00  0.00     0.037 A 
ATOM     53  C   UNL A   1      39.235  30.045  28.960  1.00  0.00     0.037 A 
ATOM     54  C   UNL A   1      44.002  26.970  33.318  1.00  0.00     0.049 A 
ATOM     55  C   UNL A   1      39.755  30.093  30.337  1.00  0.00     0.074 A 
ATOM     56  C   UNL A   1      42.904  26.831  34.126  1.00  0.00     0.029 A 
ATOM     57  N   UNL A   1      44.110  28.289  32.969  1.00  0.00    -0.354 N 
ATOM     58  N   UNL A   1      40.849  30.688  30.703  1.00  0.00    -0.248 NA
ATOM     59  C   UNL A   1      39.153  29.164  31.288  1.00  0.00     0.031 C 
ATOM     60  C   UNL A   1      42.255  28.092  34.111  1.00  0.00     0.029 A 
ATOM     61  C   UNL A   1      42.877  28.862  33.132  1.00  0.00     0.049 A 
ATOM     62  H   UNL A   1      44.925  28.743  32.657  1.00  0.00     0.167 HD
ATOM     63  C   UNL A   1      41.223  30.007  31.842  1.00  0.00     0.074 A 
ATOM     64  C   UNL A   1      40.105  29.152  32.213  1.00  0.00     0.031 C 
ATOM     65  C   UNL A   1      42.520  29.911  32.222  1.00  0.00     0.037 A 
BRANCH  52  66
ATOM     66  C   UNL A   1      46.269  25.950  33.417  1.00  0.00     0.064 A 
ATOM     67  C   UNL A   1      46.571  24.866  34.258  1.00  0.00     0.173 A 
ATOM     68  C   UNL A   1      47.377  26.674  32.916  1.00  0.00     0.173 A 
ATOM     69  F   UNL A   1      45.601  24.099  34.774  1.00  0.00    -0.203 F 
ATOM     70  C   UNL A   1      47.895  24.479  34.500  1.00  0.00     0.198 A 
ATOM     71  C   UNL A   1      48.690  26.251  33.112  1.00  0.00     0.198 A 
ATOM     72  F   UNL A   1      47.194  27.762  32.152  1.00  0.00    -0.203 F 
ATOM     73  F   UNL A   1      48.144  23.408  35.267  1.00  0.00    -0.200 F 
ATOM     74  C   UNL A   1      48.948  25.142  33.891  1.00  0.00     0.200 A 
ATOM     75  F   UNL A   1      49.695  26.882  32.487  1.00  0.00    -0.200 F 
ATOM     76  F   UNL A   1      50.204  24.692  34.028  1.00  0.00    -0.200 F 
ENDBRANCH  52  66
BRANCH  53  77
ATOM     77  C   UNL A   1      37.894  30.691  28.700  1.00  0.00     0.064 A 
ATOM     78  C   UNL A   1      37.705  32.065  29.027  1.00  0.00     0.173 A 
ATOM     79  C   UNL A   1      36.736  30.045  28.252  1.00  0.00     0.173 A 
ATOM     80  F   UNL A   1      38.742  32.861  29.330  1.00  0.00    -0.203 F 
ATOM     81  C   UNL A   1      36.453  32.680  29.084  1.00  0.00     0.198 A 
ATOM     82  C   UNL A   1      35.476  30.677  28.267  1.00  0.00     0.198 A 
ATOM     83  F   UNL A   1      36.781  28.794  27.782  1.00  0.00    -0.203 F 
ATOM     84  F   UNL A   1      36.352  33.944  29.519  1.00  0.00    -0.200 F 
ATOM     85  C   UNL A   1      35.330  31.975  28.725  1.00  0.00     0.200 A 
ATOM     86  F   UNL A   1      34.391  30.006  27.854  1.00  0.00    -0.200 F 
ATOM     87  F   UNL A   1      34.120  32.546  28.811  1.00  0.00    -0.200 F 
ENDBRANCH  53  77
BRANCH  65  88
ATOM     88  C   UNL A   1      43.498  30.636  31.321  1.00  0.00     0.064 A 
ATOM     89  C   UNL A   1      43.834  31.992  31.508  1.00  0.00     0.173 A 
ATOM     90  C   UNL A   1      44.166  29.971  30.293  1.00  0.00     0.173 A 
ATOM     91  F   UNL A   1      43.240  32.708  32.461  1.00  0.00    -0.203 F 
ATOM     92  C   UNL A   1      44.755  32.660  30.705  1.00  0.00     0.198 A 
ATOM     93  C   UNL A   1      45.098  30.636  29.486  1.00  0.00     0.198 A 
ATOM     94  F   UNL A   1      43.907  28.679  30.054  1.00  0.00    -0.203 F 
ATOM     95  F   UNL A   1      45.003  33.965  30.906  1.00  0.00    -0.200 F 
ATOM     96  C   UNL A   1      45.388  31.979  29.688  1.00  0.00     0.200 A 
ATOM     97  F   UNL A   1      45.708  29.976  28.493  1.00  0.00    -0.200 F 
ATOM     98  F   UNL A   1      46.259  32.617  28.894  1.00  0.00    -0.200 F 
ENDBRANCH  65  88
ENDBRANCH  39  40
ENDBRANCH  32  34
ENDBRANCH  31  32
ENDBRANCH  30  31
ENDBRANCH  29  30
ENDBRANCH  28  29
ENDBRANCH  27  28
ENDBRANCH   1  27
TORSDOF 21
ENDMDL
MODEL 3
REMARK VINA RESULT:     -10.5      1.921      2.586
REMARK SMILES COc1ccc(NC(=O)c2cccn2CC(=O)OCCOCCOCCOC(=O)c2ccc(-c3c4nc(c(-c5c(F)c(F)c(F)c(F)c5F)c5ccc([nH]5)c(-c5c(F)c(F)c(F)c(F)c5F)c5nc(c(-c6c(F)c(F)c(F)c(F)c6F)c6ccc3[nH]6)C=C5)C=C4)cc2)cc1F
REMARK SMILES IDX 22 1 21 2 20 3 19 4 18 5 16 6 17 7 15 8 14 9 10 10 11 11
REMARK SMILES IDX 12 12 13 13 8 14 7 15 9 17 6 18 3 19 4 20 94 21 5 22 93 23
REMARK SMILES IDX 95 24 2 25 1 26 23 27 24 28 25 29 26 30 27 31 28 32 29 33
REMARK SMILES IDX 30 34 31 35 92 36 32 37 91 38 33 39 34 40 35 41 85 42 36 43
REMARK SMILES IDX 90 44 84 45 86 46 37 47 89 48 83 49 82 50 38 52 70 53 50 54
REMARK SMILES IDX 69 55 51 56 54 57 68 58 87 59 52 60 53 61 67 63 88 64 55 65
REMARK SMILES IDX 39 66 40 67 48 68 41 69 42 70 46 71 49 72 43 73 44 74 47 75
REMARK SMILES IDX 45 76 71 77 72 78 80 79 73 80 74 81 78 82 81 83 75 84 76 85
REMARK SMILES IDX 79 86 77 87 56 88 57 89 65 90 58 91 59 92 63 93 66 94 60 95
REMARK SMILES IDX 61 96 64 97 62 98
REMARK H PARENT 7 16 86 51 54 62
REMARK Flexibility Score: inf
ROOT
ATOM      1  C   UNL A   1      42.289  19.610  26.504  1.00  0.00     0.188 C 
ENDROOT
BRANCH   1   2
ATOM      2  O   UNL A   1      41.317  20.381  25.802  1.00  0.00    -0.376 OA
BRANCH   2   3
ATOM      3  C   UNL A   1      39.994  20.456  26.305  1.00  0.00     0.202 C 
BRANCH   3   4
ATOM      4  C   UNL A   1      39.253  21.789  26.095  1.00  0.00     0.261 C 
BRANCH   4   5
ATOM      5  O   UNL A   1      38.122  21.745  25.190  1.00  0.00    -0.462 OA
BRANCH   5   6
ATOM      6  C   UNL A   1      37.321  22.839  25.163  1.00  0.00     0.326 C 
ATOM      7  O   UNL A   1      37.480  23.808  25.904  1.00  0.00    -0.250 OA
BRANCH   6   8
ATOM      8  C   UNL A   1      36.221  22.856  24.124  1.00  0.00     0.244 C 
BRANCH   8   9
ATOM      9  N   UNL A   1      34.917  22.235  24.387  1.00  0.00    -0.332 N 
ATOM     10  C   UNL A   1      33.741  22.431  23.676  1.00  0.00     0.107 A 
ATOM     11  C   UNL A   1      32.859  21.434  24.086  1.00  0.00     0.033 A 
ATOM     12  C   UNL A   1      33.477  20.668  25.096  1.00  0.00     0.020 A 
ATOM     13  C   UNL A   1      34.755  21.155  25.235  1.00  0.00     0.087 A 
BRANCH  10  14
ATOM     14  C   UNL A   1      33.555  23.411  22.626  1.00  0.00     0.272 C 
ATOM     15  N   UNL A   1      32.814  24.552  22.832  1.00  0.00    -0.321 N 
ATOM     16  H   UNL A   1      32.504  24.972  21.998  1.00  0.00     0.170 HD
ATOM     17  O   UNL A   1      33.993  23.230  21.489  1.00  0.00    -0.267 OA
BRANCH  15  18
ATOM     18  C   UNL A   1      32.408  25.242  23.988  1.00  0.00     0.044 A 
ATOM     19  C   UNL A   1      31.411  26.530  26.297  1.00  0.00     0.154 A 
ATOM     20  C   UNL A   1      32.771  26.575  25.986  1.00  0.00     0.052 A 
ATOM     21  C   UNL A   1      30.550  25.890  25.407  1.00  0.00     0.167 A 
ATOM     22  C   UNL A   1      33.263  25.950  24.833  1.00  0.00     0.030 A 
ATOM     23  C   UNL A   1      31.038  25.254  24.265  1.00  0.00     0.069 A 
ATOM     24  F   UNL A   1      29.224  25.870  25.611  1.00  0.00    -0.203 F 
BRANCH  19  25
ATOM     25  O   UNL A   1      31.066  27.167  27.456  1.00  0.00    -0.494 OA
ATOM     26  C   UNL A   1      31.619  28.466  27.639  1.00  0.00     0.278 C 
ENDBRANCH  19  25
ENDBRANCH  15  18
ENDBRANCH  10  14
ENDBRANCH   8   9
ENDBRANCH   6   8
ENDBRANCH   5   6
ENDBRANCH   4   5
ENDBRANCH   3   4
ENDBRANCH   2   3
ENDBRANCH   1   2
BRANCH   1  27
ATOM     27  C   UNL A   1      43.019  18.429  25.835  1.00  0.00     0.188 C 
BRANCH  27  28
ATOM     28  O   UNL A   1      44.389  18.670  25.574  1.00  0.00    -0.376 OA
BRANCH  28  29
ATOM     29  C   UNL A   1      44.714  19.328  24.367  1.00  0.00     0.202 C 
BRANCH  29  30
ATOM     30  C   UNL A   1      45.339  20.695  24.625  1.00  0.00     0.261 C 
BRANCH  30  31
ATOM     31  O   UNL A   1      44.419  21.684  25.087  1.00  0.00    -0.460 OA
BRANCH  31  32
ATOM     32  C   UNL A   1      44.291  22.748  24.291  1.00  0.00     0.338 C 
ATOM     33  O   UNL A   1      44.701  22.898  23.127  1.00  0.00    -0.246 OA
BRANCH  32  34
ATOM     34  C   UNL A   1      43.670  23.829  25.011  1.00  0.00     0.060 A 
ATOM     35  C   UNL A   1      44.394  25.016  25.169  1.00  0.00     0.016 A 
ATOM     36  C   UNL A   1      42.574  23.482  25.808  1.00  0.00     0.016 A 
ATOM     37  C   UNL A   1      44.106  25.808  26.254  1.00  0.00     0.010 A 
ATOM     38  C   UNL A   1      42.322  24.244  26.918  1.00  0.00     0.010 A 
ATOM     39  C   UNL A   1      43.120  25.373  27.147  1.00  0.00    -0.014 A 
BRANCH  39  40
ATOM     40  C   UNL A   1      42.848  26.175  28.336  1.00  0.00     0.031 A 
ATOM     41  C   UNL A   1      43.705  25.689  29.524  1.00  0.00     0.074 A 
ATOM     42  C   UNL A   1      41.928  27.165  28.123  1.00  0.00     0.049 A 
ATOM     43  N   UNL A   1      43.596  25.908  30.800  1.00  0.00    -0.248 NA
ATOM     44  C   UNL A   1      44.856  24.776  29.239  1.00  0.00     0.031 C 
ATOM     45  C   UNL A   1      41.219  27.442  26.846  1.00  0.00     0.029 A 
ATOM     46  N   UNL A   1      41.393  28.135  28.928  1.00  0.00    -0.354 N 
ATOM     47  C   UNL A   1      44.733  25.345  31.420  1.00  0.00     0.074 A 
ATOM     48  C   UNL A   1      45.425  24.586  30.428  1.00  0.00     0.031 C 
ATOM     49  C   UNL A   1      40.298  28.419  27.002  1.00  0.00     0.029 A 
ATOM     50  C   UNL A   1      40.327  28.890  28.370  1.00  0.00     0.049 A 
ATOM     51  H   UNL A   1      41.727  28.299  29.840  1.00  0.00     0.167 HD
ATOM     52  C   UNL A   1      45.128  25.648  32.688  1.00  0.00     0.037 A 
ATOM     53  C   UNL A   1      39.491  29.764  29.016  1.00  0.00     0.037 A 
ATOM     54  C   UNL A   1      44.209  26.534  33.313  1.00  0.00     0.049 A 
ATOM     55  C   UNL A   1      40.020  29.788  30.390  1.00  0.00     0.074 A 
ATOM     56  C   UNL A   1      43.114  26.414  34.127  1.00  0.00     0.029 A 
ATOM     57  N   UNL A   1      44.347  27.853  32.975  1.00  0.00    -0.354 N 
ATOM     58  N   UNL A   1      41.131  30.351  30.754  1.00  0.00    -0.248 NA
ATOM     59  C   UNL A   1      39.402  28.865  31.337  1.00  0.00     0.031 C 
ATOM     60  C   UNL A   1      42.496  27.691  34.128  1.00  0.00     0.029 A 
ATOM     61  C   UNL A   1      43.130  28.454  33.153  1.00  0.00     0.049 A 
ATOM     62  H   UNL A   1      45.172  28.289  32.662  1.00  0.00     0.167 HD
ATOM     63  C   UNL A   1      41.496  29.651  31.884  1.00  0.00     0.074 A 
ATOM     64  C   UNL A   1      40.360  28.821  32.255  1.00  0.00     0.031 C 
ATOM     65  C   UNL A   1      42.793  29.520  32.254  1.00  0.00     0.037 A 
BRANCH  52  66
ATOM     66  C   UNL A   1      46.451  25.457  33.388  1.00  0.00     0.064 A 
ATOM     67  C   UNL A   1      46.672  24.469  34.360  1.00  0.00     0.173 A 
ATOM     68  C   UNL A   1      47.608  25.993  32.773  1.00  0.00     0.173 A 
ATOM     69  F   UNL A   1      45.648  23.879  34.993  1.00  0.00    -0.203 F 
ATOM     70  C   UNL A   1      47.958  23.985  34.628  1.00  0.00     0.198 A 
ATOM     71  C   UNL A   1      48.879  25.468  32.999  1.00  0.00     0.198 A 
ATOM     72  F   UNL A   1      47.509  26.984  31.874  1.00  0.00    -0.203 F 
ATOM     73  F   UNL A   1      48.126  23.004  35.526  1.00  0.00    -0.200 F 
ATOM     74  C   UNL A   1      49.052  24.450  33.915  1.00  0.00     0.200 A 
ATOM     75  F   UNL A   1      49.921  25.905  32.277  1.00  0.00    -0.200 F 
ATOM     76  F   UNL A   1      50.260  23.897  34.089  1.00  0.00    -0.200 F 
ENDBRANCH  52  66
BRANCH  53  77
ATOM     77  C   UNL A   1      38.164  30.445  28.771  1.00  0.00     0.064 A 
ATOM     78  C   UNL A   1      37.999  31.810  29.148  1.00  0.00     0.173 A 
ATOM     79  C   UNL A   1      36.997  29.839  28.292  1.00  0.00     0.173 A 
ATOM     80  F   UNL A   1      39.048  32.574  29.488  1.00  0.00    -0.203 F 
ATOM     81  C   UNL A   1      36.759  32.447  29.219  1.00  0.00     0.198 A 
ATOM     82  C   UNL A   1      35.749  30.495  28.322  1.00  0.00     0.198 A 
ATOM     83  F   UNL A   1      37.022  28.606  27.776  1.00  0.00    -0.203 F 
ATOM     84  F   UNL A   1      36.678  33.696  29.700  1.00  0.00    -0.200 F 
ATOM     85  C   UNL A   1      35.625  31.778  28.827  1.00  0.00     0.200 A 
ATOM     86  F   UNL A   1      34.655  29.861  27.877  1.00  0.00    -0.200 F 
ATOM     87  F   UNL A   1      34.425  32.368  28.926  1.00  0.00    -0.200 F 
ENDBRANCH  53  77
BRANCH  65  88
ATOM     88  C   UNL A   1      43.783  30.229  31.353  1.00  0.00     0.064 A 
ATOM     89  C   UNL A   1      44.405  29.587  30.263  1.00  0.00     0.173 A 
ATOM     90  C   UNL A   1      44.078  31.581  31.523  1.00  0.00     0.173 A 
ATOM     91  F   UNL A   1      44.188  28.294  30.028  1.00  0.00    -0.203 F 
ATOM     92  C   UNL A   1      45.293  30.238  29.409  1.00  0.00     0.198 A 
ATOM     93  C   UNL A   1      44.965  32.242  30.664  1.00  0.00     0.198 A 
ATOM     94  F   UNL A   1      43.523  32.264  32.533  1.00  0.00    -0.203 F 
ATOM     95  F   UNL A   1      45.886  29.561  28.412  1.00  0.00    -0.200 F 
ATOM     96  C   UNL A   1      45.575  31.571  29.613  1.00  0.00     0.200 A 
ATOM     97  F   UNL A   1      45.245  33.536  30.865  1.00  0.00    -0.200 F 
ATOM     98  F   UNL A   1      46.444  32.203  28.812  1.00  0.00    -0.200 F 
ENDBRANCH  65  88
ENDBRANCH  39  40
ENDBRANCH  32  34
ENDBRANCH  31  32
ENDBRANCH  30  31
ENDBRANCH  29  30
ENDBRANCH  28  29
ENDBRANCH  27  28
ENDBRANCH   1  27
TORSDOF 21
ENDMDL
