MODEL 1
REMARK VINA RESULT:     -10.9      0.000      0.000
REMARK SMILES N#CC1=C(N)N2C(=O)[C@@H](CC(=O)OCCOCCOCCOC(=O)c3ccc(-c4c5nc(c(-c6c(F)c(F)c(F)c(F)c6F)c6ccc([nH]6)c(-c6c(F)c(F)c(F)c(F)c6F)c6nc(c(-c7c(F)c(F)c(F)c(F)c7F)c7ccc4[nH]7)C=C6)C=C5)cc3)SC2=C(C#N)[C@H]1c1ccc(Cl)cc1
REMARK SMILES IDX 17 1 16 2 15 3 14 4 13 5 11 6 12 7 10 8 9 9 3 10 4 11 93 12
REMARK SMILES IDX 6 13 90 14 7 15 89 16 8 17 88 18 2 19 1 20 5 21 94 24 95 25
REMARK SMILES IDX 100 26 96 27 99 28 97 29 98 30 91 31 92 32 18 33 19 34 20 35
REMARK SMILES IDX 21 36 22 37 23 38 24 39 25 40 26 41 87 42 27 43 86 44 28 45
REMARK SMILES IDX 29 46 30 47 80 48 31 49 85 50 79 51 81 52 32 53 84 54 78 55
REMARK SMILES IDX 77 56 33 58 65 59 45 60 64 61 46 62 49 63 63 64 82 65 47 66
REMARK SMILES IDX 48 67 62 69 83 70 50 71 34 72 35 73 43 74 36 75 37 76 41 77
REMARK SMILES IDX 44 78 38 79 39 80 42 81 40 82 66 83 67 84 75 85 68 86 69 87
REMARK SMILES IDX 73 88 76 89 70 90 71 91 74 92 72 93 51 94 52 95 60 96 53 97
REMARK SMILES IDX 54 98 58 99 61 100 55 101 56 102 59 103 57 104
REMARK H PARENT 5 22 5 23 81 57 49 68
REMARK Flexibility Score: inf
ROOT
ATOM      1  C   UNL A   1      39.859  20.262  25.873  1.00  0.00     0.188 C 
ENDROOT
BRANCH   1   2
ATOM      2  O   UNL A   1      39.026  19.219  25.421  1.00  0.00    -0.376 OA
BRANCH   2   3
ATOM      3  C   UNL A   1      37.832  19.608  24.753  1.00  0.00     0.202 C 
BRANCH   3   4
ATOM      4  C   UNL A   1      37.357  21.076  24.945  1.00  0.00     0.261 C 
BRANCH   4   5
ATOM      5  O   UNL A   1      36.117  21.292  25.717  1.00  0.00    -0.463 OA
BRANCH   5   6
ATOM      6  C   UNL A   1      35.560  22.530  25.687  1.00  0.00     0.307 C 
ATOM      7  O   UNL A   1      35.593  23.281  26.664  1.00  0.00    -0.252 OA
BRANCH   6   8
ATOM      8  C   UNL A   1      35.082  23.127  24.326  1.00  0.00     0.147 C 
BRANCH   8   9
ATOM      9  C   UNL A   1      33.875  22.848  23.378  1.00  0.00     0.154 C 
ATOM     10  C   UNL A   1      31.041  26.793  23.212  1.00  0.00     0.083 C 
ATOM     11  C   UNL A   1      31.573  25.783  22.428  1.00  0.00     0.126 C 
ATOM     12  C   UNL A   1      31.279  26.991  24.873  1.00  0.00     0.107 C 
ATOM     13  N   UNL A   1      32.291  24.720  23.008  1.00  0.00    -0.258 N 
ATOM     14  C   UNL A   1      31.070  25.079  25.019  1.00  0.00     0.073 C 
ATOM     15  C   UNL A   1      33.246  23.879  22.386  1.00  0.00     0.247 C 
ATOM     16  C   UNL A   1      31.811  24.292  24.209  1.00  0.00     0.099 C 
ATOM     17  O   UNL A   1      33.581  23.941  21.207  1.00  0.00    -0.273 OA
ATOM     18  S   UNL A   1      32.362  22.663  24.531  1.00  0.00    -0.093 SA
BRANCH  10  19
ATOM     19  C   UNL A   1      30.330  27.944  22.520  1.00  0.00     0.100 C 
ATOM     20  N   UNL A   1      29.740  28.900  21.945  1.00  0.00    -0.193 NA
ENDBRANCH  10  19
BRANCH  11  21
ATOM     21  N   UNL A   1      31.471  25.803  21.062  1.00  0.00    -0.384 N 
ATOM     22  H   UNL A   1      31.502  26.660  20.579  1.00  0.00     0.158 HD
ATOM     23  H   UNL A   1      31.367  24.959  20.564  1.00  0.00     0.158 HD
ENDBRANCH  11  21
BRANCH  12  24
ATOM     24  C   UNL A   1      32.636  28.361  25.919  1.00  0.00    -0.034 A 
ATOM     25  C   UNL A   1      32.359  29.831  26.446  1.00  0.00     0.006 A 
ATOM     26  C   UNL A   1      34.105  28.232  26.427  1.00  0.00     0.006 A 
ATOM     27  C   UNL A   1      33.189  30.741  27.167  1.00  0.00     0.021 A 
ATOM     28  C   UNL A   1      34.925  29.152  27.155  1.00  0.00     0.021 A 
ATOM     29  C   UNL A   1      34.468  30.395  27.512  1.00  0.00     0.041 A 
ATOM     30  Cl  UNL A   1      35.476  31.498  28.353  1.00  0.00    -0.084 Cl
ENDBRANCH  12  24
BRANCH  14  31
ATOM     31  C   UNL A   1      30.401  24.381  26.191  1.00  0.00     0.098 C 
ATOM     32  N   UNL A   1      29.845  23.801  27.163  1.00  0.00    -0.193 NA
ENDBRANCH  14  31
ENDBRANCH   8   9
ENDBRANCH   6   8
ENDBRANCH   5   6
ENDBRANCH   4   5
ENDBRANCH   3   4
ENDBRANCH   2   3
ENDBRANCH   1   2
BRANCH   1  33
ATOM     33  C   UNL A   1      41.217  19.875  26.493  1.00  0.00     0.188 C 
BRANCH  33  34
ATOM     34  O   UNL A   1      42.260  20.822  26.494  1.00  0.00    -0.376 OA
BRANCH  34  35
ATOM     35  C   UNL A   1      43.379  20.429  25.707  1.00  0.00     0.202 C 
BRANCH  35  36
ATOM     36  C   UNL A   1      44.300  21.623  25.410  1.00  0.00     0.261 C 
BRANCH  36  37
ATOM     37  O   UNL A   1      43.582  22.890  25.532  1.00  0.00    -0.460 OA
BRANCH  37  38
ATOM     38  C   UNL A   1      44.229  23.929  24.981  1.00  0.00     0.338 C 
ATOM     39  O   UNL A   1      45.047  23.756  24.087  1.00  0.00    -0.246 OA
BRANCH  38  40
ATOM     40  C   UNL A   1      43.900  25.359  25.450  1.00  0.00     0.060 A 
ATOM     41  C   UNL A   1      42.610  26.600  25.045  1.00  0.00     0.016 A 
ATOM     42  C   UNL A   1      45.343  25.931  26.314  1.00  0.00     0.016 A 
ATOM     43  C   UNL A   1      42.738  28.351  25.739  1.00  0.00     0.010 A 
ATOM     44  C   UNL A   1      45.533  27.609  26.882  1.00  0.00     0.010 A 
ATOM     45  C   UNL A   1      44.217  28.826  26.707  1.00  0.00    -0.014 A 
BRANCH  45  46
ATOM     46  C   UNL A   1      44.401  29.927  27.741  1.00  0.00     0.031 A 
ATOM     47  C   UNL A   1      43.221  30.388  28.618  1.00  0.00     0.074 A 
ATOM     48  C   UNL A   1      45.439  30.783  27.601  1.00  0.00     0.049 A 
ATOM     49  N   UNL A   1      43.045  31.522  29.262  1.00  0.00    -0.248 NA
ATOM     50  C   UNL A   1      42.054  29.488  28.727  1.00  0.00     0.031 C 
ATOM     51  C   UNL A   1      46.593  30.588  26.737  1.00  0.00     0.029 A 
ATOM     52  N   UNL A   1      45.650  32.047  28.110  1.00  0.00    -0.354 N 
ATOM     53  C   UNL A   1      41.775  31.458  29.838  1.00  0.00     0.074 A 
ATOM     54  C   UNL A   1      41.155  30.258  29.326  1.00  0.00     0.031 C 
ATOM     55  C   UNL A   1      47.329  31.701  26.677  1.00  0.00     0.029 A 
ATOM     56  C   UNL A   1      46.745  32.684  27.566  1.00  0.00     0.049 A 
ATOM     57  H   UNL A   1      45.074  32.455  28.798  1.00  0.00     0.167 HD
ATOM     58  C   UNL A   1      41.207  32.262  30.776  1.00  0.00     0.037 A 
ATOM     59  C   UNL A   1      47.273  33.905  27.769  1.00  0.00     0.037 A 
ATOM     60  C   UNL A   1      41.858  33.421  31.332  1.00  0.00     0.049 A 
ATOM     61  C   UNL A   1      46.683  34.755  28.849  1.00  0.00     0.074 A 
ATOM     62  C   UNL A   1      41.463  34.219  32.393  1.00  0.00     0.029 A 
ATOM     63  N   UNL A   1      43.056  33.942  30.868  1.00  0.00    -0.354 N 
ATOM     64  N   UNL A   1      45.573  34.577  29.520  1.00  0.00    -0.248 NA
ATOM     65  C   UNL A   1      47.460  35.930  29.261  1.00  0.00     0.031 C 
ATOM     66  C   UNL A   1      42.409  35.238  32.552  1.00  0.00     0.029 A 
ATOM     67  C   UNL A   1      43.415  35.049  31.620  1.00  0.00     0.049 A 
ATOM     68  H   UNL A   1      43.577  33.579  30.115  1.00  0.00     0.167 HD
ATOM     69  C   UNL A   1      45.551  35.575  30.479  1.00  0.00     0.074 A 
ATOM     70  C   UNL A   1      46.760  36.353  30.301  1.00  0.00     0.031 C 
ATOM     71  C   UNL A   1      44.620  35.813  31.433  1.00  0.00     0.037 A 
BRANCH  58  72
ATOM     72  C   UNL A   1      39.874  31.850  31.365  1.00  0.00     0.064 A 
ATOM     73  C   UNL A   1      39.811  30.957  32.450  1.00  0.00     0.173 A 
ATOM     74  C   UNL A   1      38.661  32.402  30.919  1.00  0.00     0.173 A 
ATOM     75  F   UNL A   1      40.933  30.408  32.938  1.00  0.00    -0.203 F 
ATOM     76  C   UNL A   1      38.595  30.596  33.028  1.00  0.00     0.198 A 
ATOM     77  C   UNL A   1      37.447  32.067  31.526  1.00  0.00     0.198 A 
ATOM     78  F   UNL A   1      38.648  33.283  29.909  1.00  0.00    -0.203 F 
ATOM     79  F   UNL A   1      38.570  29.699  34.024  1.00  0.00    -0.200 F 
ATOM     80  C   UNL A   1      37.415  31.157  32.571  1.00  0.00     0.200 A 
ATOM     81  F   UNL A   1      36.308  32.631  31.102  1.00  0.00    -0.200 F 
ATOM     82  F   UNL A   1      36.248  30.820  33.137  1.00  0.00    -0.200 F 
ENDBRANCH  58  72
BRANCH  59  83
ATOM     83  C   UNL A   1      48.513  34.310  27.053  1.00  0.00     0.064 A 
ATOM     84  C   UNL A   1      48.447  35.100  25.895  1.00  0.00     0.173 A 
ATOM     85  C   UNL A   1      49.785  33.946  27.519  1.00  0.00     0.173 A 
ATOM     86  F   UNL A   1      47.255  35.484  25.416  1.00  0.00    -0.203 F 
ATOM     87  C   UNL A   1      49.598  35.463  25.201  1.00  0.00     0.198 A 
ATOM     88  C   UNL A   1      50.939  34.338  26.840  1.00  0.00     0.198 A 
ATOM     89  F   UNL A   1      49.906  33.222  28.642  1.00  0.00    -0.203 F 
ATOM     90  F   UNL A   1      49.498  36.168  24.065  1.00  0.00    -0.200 F 
ATOM     91  C   UNL A   1      50.844  35.083  25.673  1.00  0.00     0.200 A 
ATOM     92  F   UNL A   1      52.144  33.993  27.313  1.00  0.00    -0.200 F 
ATOM     93  F   UNL A   1      51.951  35.432  25.004  1.00  0.00    -0.200 F 
ENDBRANCH  59  83
BRANCH  71  94
ATOM     94  C   UNL A   1      44.900  36.936  32.383  1.00  0.00     0.064 A 
ATOM     95  C   UNL A   1      44.470  38.244  32.125  1.00  0.00     0.173 A 
ATOM     96  C   UNL A   1      45.608  36.694  33.571  1.00  0.00     0.173 A 
ATOM     97  F   UNL A   1      43.810  38.527  30.990  1.00  0.00    -0.203 F 
ATOM     98  C   UNL A   1      44.770  39.280  33.003  1.00  0.00     0.198 A 
ATOM     99  C   UNL A   1      45.872  37.726  34.466  1.00  0.00     0.198 A 
ATOM    100  F   UNL A   1      46.041  35.459  33.864  1.00  0.00    -0.203 F 
ATOM    101  F   UNL A   1      44.408  40.535  32.703  1.00  0.00    -0.200 F 
ATOM    102  C   UNL A   1      45.463  39.019  34.176  1.00  0.00     0.200 A 
ATOM    103  F   UNL A   1      46.528  37.469  35.606  1.00  0.00    -0.200 F 
ATOM    104  F   UNL A   1      45.746  40.017  35.024  1.00  0.00    -0.200 F 
ENDBRANCH  71  94
ENDBRANCH  45  46
ENDBRANCH  38  40
ENDBRANCH  37  38
ENDBRANCH  36  37
ENDBRANCH  35  36
ENDBRANCH  34  35
ENDBRANCH  33  34
ENDBRANCH   1  33
TORSDOF 22
ENDMDL
MODEL 2
REMARK VINA RESULT:     -10.8      2.203      7.374
REMARK SMILES N#CC1=C(N)N2C(=O)[C@@H](CC(=O)OCCOCCOCCOC(=O)c3ccc(-c4c5nc(c(-c6c(F)c(F)c(F)c(F)c6F)c6ccc([nH]6)c(-c6c(F)c(F)c(F)c(F)c6F)c6nc(c(-c7c(F)c(F)c(F)c(F)c7F)c7ccc4[nH]7)C=C6)C=C5)cc3)SC2=C(C#N)[C@H]1c1ccc(Cl)cc1
REMARK SMILES IDX 17 1 16 2 15 3 14 4 13 5 11 6 12 7 10 8 9 9 3 10 4 11 93 12
REMARK SMILES IDX 6 13 90 14 7 15 89 16 8 17 88 18 2 19 1 20 5 21 94 24 95 25
REMARK SMILES IDX 100 26 96 27 99 28 97 29 98 30 91 31 92 32 18 33 19 34 20 35
REMARK SMILES IDX 21 36 22 37 23 38 24 39 25 40 26 41 87 42 27 43 86 44 28 45
REMARK SMILES IDX 29 46 30 47 80 48 31 49 85 50 79 51 81 52 32 53 84 54 78 55
REMARK SMILES IDX 77 56 33 58 65 59 45 60 64 61 46 62 49 63 63 64 82 65 47 66
REMARK SMILES IDX 48 67 62 69 83 70 50 71 34 72 35 73 43 74 36 75 37 76 41 77
REMARK SMILES IDX 44 78 38 79 39 80 42 81 40 82 66 83 67 84 75 85 68 86 69 87
REMARK SMILES IDX 73 88 76 89 70 90 71 91 74 92 72 93 51 94 52 95 60 96 53 97
REMARK SMILES IDX 54 98 58 99 61 100 55 101 56 102 59 103 57 104
REMARK H PARENT 5 22 5 23 81 57 49 68
REMARK Flexibility Score: inf
ROOT
ATOM      1  C   UNL A   1      38.153  20.608  24.786  1.00  0.00     0.188 C 
ENDROOT
BRANCH   1   2
ATOM      2  O   UNL A   1      37.518  19.350  24.790  1.00  0.00    -0.376 OA
BRANCH   2   3
ATOM      3  C   UNL A   1      36.112  19.352  25.008  1.00  0.00     0.202 C 
BRANCH   3   4
ATOM      4  C   UNL A   1      35.363  20.697  24.793  1.00  0.00     0.261 C 
BRANCH   4   5
ATOM      5  O   UNL A   1      35.258  21.608  25.951  1.00  0.00    -0.463 OA
BRANCH   5   6
ATOM      6  C   UNL A   1      35.521  22.924  25.747  1.00  0.00     0.307 C 
ATOM      7  O   UNL A   1      36.365  23.528  26.410  1.00  0.00    -0.252 OA
BRANCH   6   8
ATOM      8  C   UNL A   1      34.931  23.642  24.492  1.00  0.00     0.147 C 
BRANCH   8   9
ATOM      9  C   UNL A   1      33.776  23.319  23.493  1.00  0.00     0.154 C 
ATOM     10  C   UNL A   1      30.782  27.139  23.237  1.00  0.00     0.083 C 
ATOM     11  C   UNL A   1      31.389  26.160  22.470  1.00  0.00     0.126 C 
ATOM     12  C   UNL A   1      30.945  27.333  24.908  1.00  0.00     0.107 C 
ATOM     13  N   UNL A   1      32.129  25.124  23.072  1.00  0.00    -0.258 N 
ATOM     14  C   UNL A   1      30.813  25.413  25.033  1.00  0.00     0.073 C 
ATOM     15  C   UNL A   1      33.144  24.329  22.483  1.00  0.00     0.247 C 
ATOM     16  C   UNL A   1      31.619  24.665  24.249  1.00  0.00     0.099 C 
ATOM     17  O   UNL A   1      33.523  24.416  21.319  1.00  0.00    -0.273 OA
ATOM     18  S   UNL A   1      32.228  23.060  24.583  1.00  0.00    -0.093 SA
BRANCH  10  19
ATOM     19  C   UNL A   1      30.050  28.264  22.524  1.00  0.00     0.100 C 
ATOM     20  N   UNL A   1      29.443  29.197  21.932  1.00  0.00    -0.193 NA
ENDBRANCH  10  19
BRANCH  11  21
ATOM     21  N   UNL A   1      31.341  26.186  21.101  1.00  0.00    -0.384 N 
ATOM     22  H   UNL A   1      31.087  27.014  20.633  1.00  0.00     0.158 HD
ATOM     23  H   UNL A   1      31.562  25.376  20.585  1.00  0.00     0.158 HD
ENDBRANCH  11  21
BRANCH  12  24
ATOM     24  C   UNL A   1      32.197  28.753  26.017  1.00  0.00    -0.034 A 
ATOM     25  C   UNL A   1      33.665  28.557  26.584  1.00  0.00     0.006 A 
ATOM     26  C   UNL A   1      32.001  30.236  26.456  1.00  0.00     0.006 A 
ATOM     27  C   UNL A   1      34.534  29.457  27.269  1.00  0.00     0.021 A 
ATOM     28  C   UNL A   1      32.885  31.132  27.138  1.00  0.00     0.021 A 
ATOM     29  C   UNL A   1      34.135  30.738  27.545  1.00  0.00     0.041 A 
ATOM     30  Cl  UNL A   1      35.166  31.813  28.393  1.00  0.00    -0.084 Cl
ENDBRANCH  12  24
BRANCH  14  31
ATOM     31  C   UNL A   1      30.128  24.677  26.173  1.00  0.00     0.098 C 
ATOM     32  N   UNL A   1      29.559  24.066  27.118  1.00  0.00    -0.193 NA
ENDBRANCH  14  31
ENDBRANCH   8   9
ENDBRANCH   6   8
ENDBRANCH   5   6
ENDBRANCH   4   5
ENDBRANCH   3   4
ENDBRANCH   2   3
ENDBRANCH   1   2
BRANCH   1  33
ATOM     33  C   UNL A   1      38.848  21.062  26.086  1.00  0.00     0.188 C 
BRANCH  33  34
ATOM     34  O   UNL A   1      39.357  22.374  26.164  1.00  0.00    -0.376 OA
BRANCH  34  35
ATOM     35  C   UNL A   1      40.292  22.554  27.221  1.00  0.00     0.202 C 
BRANCH  35  36
ATOM     36  C   UNL A   1      40.313  24.011  27.708  1.00  0.00     0.261 C 
BRANCH  36  37
ATOM     37  O   UNL A   1      39.841  24.924  26.669  1.00  0.00    -0.460 OA
BRANCH  37  38
ATOM     38  C   UNL A   1      40.721  25.890  26.362  1.00  0.00     0.338 C 
ATOM     39  O   UNL A   1      41.123  26.031  25.215  1.00  0.00    -0.246 OA
BRANCH  38  40
ATOM     40  C   UNL A   1      41.192  26.861  27.461  1.00  0.00     0.060 A 
ATOM     41  C   UNL A   1      42.125  26.697  29.033  1.00  0.00     0.016 A 
ATOM     42  C   UNL A   1      40.287  28.367  27.200  1.00  0.00     0.016 A 
ATOM     43  C   UNL A   1      42.284  28.179  30.191  1.00  0.00     0.010 A 
ATOM     44  C   UNL A   1      40.335  29.738  28.337  1.00  0.00     0.010 A 
ATOM     45  C   UNL A   1      41.396  29.730  29.791  1.00  0.00    -0.014 A 
BRANCH  45  46
ATOM     46  C   UNL A   1      41.676  31.161  30.225  1.00  0.00     0.031 A 
ATOM     47  C   UNL A   1      42.989  31.861  29.827  1.00  0.00     0.074 A 
ATOM     48  C   UNL A   1      41.008  31.659  31.291  1.00  0.00     0.049 A 
ATOM     49  N   UNL A   1      43.596  32.890  30.382  1.00  0.00    -0.248 NA
ATOM     50  C   UNL A   1      43.761  31.287  28.706  1.00  0.00     0.031 C 
ATOM     51  C   UNL A   1      39.815  31.084  31.892  1.00  0.00     0.029 A 
ATOM     52  N   UNL A   1      41.292  32.716  32.129  1.00  0.00    -0.354 N 
ATOM     53  C   UNL A   1      44.788  33.073  29.680  1.00  0.00     0.074 A 
ATOM     54  C   UNL A   1      44.908  31.951  28.779  1.00  0.00     0.031 C 
ATOM     55  C   UNL A   1      39.524  31.698  33.042  1.00  0.00     0.029 A 
ATOM     56  C   UNL A   1      40.469  32.779  33.234  1.00  0.00     0.049 A 
ATOM     57  H   UNL A   1      42.013  33.365  31.955  1.00  0.00     0.167 HD
ATOM     58  C   UNL A   1      45.657  34.118  29.706  1.00  0.00     0.037 A 
ATOM     59  C   UNL A   1      40.426  33.624  34.280  1.00  0.00     0.037 A 
ATOM     60  C   UNL A   1      45.496  35.267  30.560  1.00  0.00     0.049 A 
ATOM     61  C   UNL A   1      41.340  34.807  34.267  1.00  0.00     0.074 A 
ATOM     62  C   UNL A   1      46.208  36.455  30.568  1.00  0.00     0.029 A 
ATOM     63  N   UNL A   1      44.541  35.371  31.559  1.00  0.00    -0.354 N 
ATOM     64  N   UNL A   1      42.348  35.058  33.469  1.00  0.00    -0.248 NA
ATOM     65  C   UNL A   1      41.060  35.868  35.242  1.00  0.00     0.031 C 
ATOM     66  C   UNL A   1      45.701  37.264  31.591  1.00  0.00     0.029 A 
ATOM     67  C   UNL A   1      44.644  36.600  32.190  1.00  0.00     0.049 A 
ATOM     68  H   UNL A   1      43.884  34.674  31.787  1.00  0.00     0.167 HD
ATOM     69  C   UNL A   1      42.779  36.331  33.799  1.00  0.00     0.074 A 
ATOM     70  C   UNL A   1      41.921  36.800  34.868  1.00  0.00     0.031 C 
ATOM     71  C   UNL A   1      43.785  37.054  33.251  1.00  0.00     0.037 A 
BRANCH  58  72
ATOM     72  C   UNL A   1      46.785  34.141  28.695  1.00  0.00     0.064 A 
ATOM     73  C   UNL A   1      46.599  34.712  27.422  1.00  0.00     0.173 A 
ATOM     74  C   UNL A   1      48.075  33.683  29.009  1.00  0.00     0.173 A 
ATOM     75  F   UNL A   1      45.397  35.188  27.065  1.00  0.00    -0.203 F 
ATOM     76  C   UNL A   1      47.637  34.775  26.493  1.00  0.00     0.198 A 
ATOM     77  C   UNL A   1      49.122  33.783  28.088  1.00  0.00     0.198 A 
ATOM     78  F   UNL A   1      48.333  33.155  30.213  1.00  0.00    -0.203 F 
ATOM     79  F   UNL A   1      47.407  35.275  25.271  1.00  0.00    -0.200 F 
ATOM     80  C   UNL A   1      48.899  34.318  26.829  1.00  0.00     0.200 A 
ATOM     81  F   UNL A   1      50.351  33.365  28.423  1.00  0.00    -0.200 F 
ATOM     82  F   UNL A   1      49.899  34.393  25.940  1.00  0.00    -0.200 F 
ENDBRANCH  58  72
BRANCH  59  83
ATOM     83  C   UNL A   1      39.376  33.466  35.324  1.00  0.00     0.064 A 
ATOM     84  C   UNL A   1      38.043  33.813  35.057  1.00  0.00     0.173 A 
ATOM     85  C   UNL A   1      39.670  32.943  36.592  1.00  0.00     0.173 A 
ATOM     86  F   UNL A   1      37.709  34.306  33.856  1.00  0.00    -0.203 F 
ATOM     87  C   UNL A   1      37.056  33.695  36.033  1.00  0.00     0.198 A 
ATOM     88  C   UNL A   1      38.674  32.796  37.557  1.00  0.00     0.198 A 
ATOM     89  F   UNL A   1      40.922  32.562  36.886  1.00  0.00    -0.203 F 
ATOM     90  F   UNL A   1      35.804  34.091  35.766  1.00  0.00    -0.200 F 
ATOM     91  C   UNL A   1      37.372  33.186  37.282  1.00  0.00     0.200 A 
ATOM     92  F   UNL A   1      38.975  32.278  38.756  1.00  0.00    -0.200 F 
ATOM     93  F   UNL A   1      36.422  33.075  38.221  1.00  0.00    -0.200 F 
ENDBRANCH  59  83
BRANCH  71  94
ATOM     94  C   UNL A   1      43.978  38.444  33.772  1.00  0.00     0.064 A 
ATOM     95  C   UNL A   1      43.456  39.560  33.104  1.00  0.00     0.173 A 
ATOM     96  C   UNL A   1      44.693  38.658  34.960  1.00  0.00     0.173 A 
ATOM     97  F   UNL A   1      42.785  39.405  31.952  1.00  0.00    -0.203 F 
ATOM     98  C   UNL A   1      43.676  40.847  33.586  1.00  0.00     0.198 A 
ATOM     99  C   UNL A   1      44.877  39.943  35.459  1.00  0.00     0.198 A 
ATOM    100  F   UNL A   1      45.212  37.623  35.636  1.00  0.00    -0.203 F 
ATOM    101  F   UNL A   1      43.227  41.903  32.895  1.00  0.00    -0.200 F 
ATOM    102  C   UNL A   1      44.378  41.037  34.767  1.00  0.00     0.200 A 
ATOM    103  F   UNL A   1      45.543  40.125  36.608  1.00  0.00    -0.200 F 
ATOM    104  F   UNL A   1      44.584  42.276  35.232  1.00  0.00    -0.200 F 
ENDBRANCH  71  94
ENDBRANCH  45  46
ENDBRANCH  38  40
ENDBRANCH  37  38
ENDBRANCH  36  37
ENDBRANCH  35  36
ENDBRANCH  34  35
ENDBRANCH  33  34
ENDBRANCH   1  33
TORSDOF 22
ENDMDL
MODEL 3
REMARK VINA RESULT:     -10.4      6.903     11.518
REMARK SMILES N#CC1=C(N)N2C(=O)[C@@H](CC(=O)OCCOCCOCCOC(=O)c3ccc(-c4c5nc(c(-c6c(F)c(F)c(F)c(F)c6F)c6ccc([nH]6)c(-c6c(F)c(F)c(F)c(F)c6F)c6nc(c(-c7c(F)c(F)c(F)c(F)c7F)c7ccc4[nH]7)C=C6)C=C5)cc3)SC2=C(C#N)[C@H]1c1ccc(Cl)cc1
REMARK SMILES IDX 17 1 16 2 15 3 14 4 13 5 11 6 12 7 10 8 9 9 3 10 4 11 93 12
REMARK SMILES IDX 6 13 90 14 7 15 89 16 8 17 88 18 2 19 1 20 5 21 94 24 95 25
REMARK SMILES IDX 100 26 96 27 99 28 97 29 98 30 91 31 92 32 18 33 19 34 20 35
REMARK SMILES IDX 21 36 22 37 23 38 24 39 25 40 26 41 87 42 27 43 86 44 28 45
REMARK SMILES IDX 29 46 30 47 80 48 31 49 85 50 79 51 81 52 32 53 84 54 78 55
REMARK SMILES IDX 77 56 33 58 65 59 45 60 64 61 46 62 49 63 63 64 82 65 47 66
REMARK SMILES IDX 48 67 62 69 83 70 50 71 34 72 35 73 43 74 36 75 37 76 41 77
REMARK SMILES IDX 44 78 38 79 39 80 42 81 40 82 66 83 67 84 75 85 68 86 69 87
REMARK SMILES IDX 73 88 76 89 70 90 71 91 74 92 72 93 51 94 52 95 60 96 53 97
REMARK SMILES IDX 54 98 58 99 61 100 55 101 56 102 59 103 57 104
REMARK H PARENT 5 22 5 23 81 57 49 68
REMARK Flexibility Score: inf
ROOT
ATOM      1  C   UNL A   1      39.020  28.985  28.604  1.00  0.00     0.188 C 
ENDROOT
BRANCH   1   2
ATOM      2  O   UNL A   1      40.292  29.196  28.036  1.00  0.00    -0.376 OA
BRANCH   2   3
ATOM      3  C   UNL A   1      41.036  28.031  27.698  1.00  0.00     0.202 C 
BRANCH   3   4
ATOM      4  C   UNL A   1      41.103  27.644  26.194  1.00  0.00     0.261 C 
BRANCH   4   5
ATOM      5  O   UNL A   1      42.442  27.546  25.578  1.00  0.00    -0.463 OA
BRANCH   5   6
ATOM      6  C   UNL A   1      42.979  26.309  25.424  1.00  0.00     0.307 C 
ATOM      7  O   UNL A   1      42.275  25.308  25.280  1.00  0.00    -0.252 OA
BRANCH   6   8
ATOM      8  C   UNL A   1      44.514  26.162  25.176  1.00  0.00     0.147 C 
BRANCH   8   9
ATOM      9  C   UNL A   1      45.547  25.012  25.386  1.00  0.00     0.154 C 
ATOM     10  C   UNL A   1      43.160  20.844  26.129  1.00  0.00     0.083 C 
ATOM     11  C   UNL A   1      44.261  21.386  25.488  1.00  0.00     0.126 C 
ATOM     12  C   UNL A   1      42.051  21.690  27.082  1.00  0.00     0.107 C 
ATOM     13  N   UNL A   1      44.629  22.729  25.694  1.00  0.00    -0.258 N 
ATOM     14  C   UNL A   1      43.567  22.627  27.820  1.00  0.00     0.073 C 
ATOM     15  C   UNL A   1      45.404  23.555  24.841  1.00  0.00     0.247 C 
ATOM     16  C   UNL A   1      44.452  23.184  26.965  1.00  0.00     0.099 C 
ATOM     17  O   UNL A   1      45.902  23.202  23.777  1.00  0.00    -0.273 OA
ATOM     18  S   UNL A   1      45.455  24.588  27.248  1.00  0.00    -0.093 SA
BRANCH  10  19
ATOM     19  C   UNL A   1      42.779  19.406  25.817  1.00  0.00     0.100 C 
ATOM     20  N   UNL A   1      42.463  18.213  25.558  1.00  0.00    -0.193 NA
ENDBRANCH  10  19
BRANCH  11  21
ATOM     21  N   UNL A   1      45.003  20.659  24.595  1.00  0.00    -0.384 N 
ATOM     22  H   UNL A   1      45.636  19.978  24.919  1.00  0.00     0.158 HD
ATOM     23  H   UNL A   1      44.902  20.817  23.627  1.00  0.00     0.158 HD
ENDBRANCH  11  21
BRANCH  12  24
ATOM     24  C   UNL A   1      40.046  22.412  26.556  1.00  0.00    -0.034 A 
ATOM     25  C   UNL A   1      38.867  21.642  25.829  1.00  0.00     0.006 A 
ATOM     26  C   UNL A   1      39.298  23.759  26.795  1.00  0.00     0.006 A 
ATOM     27  C   UNL A   1      37.539  22.049  25.506  1.00  0.00     0.021 A 
ATOM     28  C   UNL A   1      37.961  24.154  26.471  1.00  0.00     0.021 A 
ATOM     29  C   UNL A   1      37.097  23.305  25.826  1.00  0.00     0.041 A 
ATOM     30  Cl  UNL A   1      35.511  23.807  25.413  1.00  0.00    -0.084 Cl
ENDBRANCH  12  24
BRANCH  14  31
ATOM     31  C   UNL A   1      43.669  23.079  29.267  1.00  0.00     0.098 C 
ATOM     32  N   UNL A   1      43.754  23.453  30.469  1.00  0.00    -0.193 NA
ENDBRANCH  14  31
ENDBRANCH   8   9
ENDBRANCH   6   8
ENDBRANCH   5   6
ENDBRANCH   4   5
ENDBRANCH   3   4
ENDBRANCH   2   3
ENDBRANCH   1   2
BRANCH   1  33
ATOM     33  C   UNL A   1      38.220  30.225  29.048  1.00  0.00     0.188 C 
BRANCH  33  34
ATOM     34  O   UNL A   1      37.115  30.636  28.276  1.00  0.00    -0.376 OA
BRANCH  34  35
ATOM     35  C   UNL A   1      35.914  30.755  29.030  1.00  0.00     0.202 C 
BRANCH  35  36
ATOM     36  C   UNL A   1      35.493  32.225  29.183  1.00  0.00     0.261 C 
BRANCH  36  37
ATOM     37  O   UNL A   1      34.835  32.458  30.468  1.00  0.00    -0.460 OA
BRANCH  37  38
ATOM     38  C   UNL A   1      35.461  33.363  31.235  1.00  0.00     0.338 C 
ATOM     39  O   UNL A   1      34.935  34.437  31.494  1.00  0.00    -0.246 OA
BRANCH  38  40
ATOM     40  C   UNL A   1      36.839  33.023  31.834  1.00  0.00     0.060 A 
ATOM     41  C   UNL A   1      38.580  33.185  31.275  1.00  0.00     0.016 A 
ATOM     42  C   UNL A   1      36.519  31.948  33.211  1.00  0.00     0.016 A 
ATOM     43  C   UNL A   1      39.970  32.413  32.292  1.00  0.00     0.010 A 
ATOM     44  C   UNL A   1      37.810  31.120  34.117  1.00  0.00     0.010 A 
ATOM     45  C   UNL A   1      39.552  31.400  33.759  1.00  0.00    -0.014 A 
BRANCH  45  46
ATOM     46  C   UNL A   1      40.385  31.059  34.986  1.00  0.00     0.031 A 
ATOM     47  C   UNL A   1      40.836  32.163  35.962  1.00  0.00     0.074 A 
ATOM     48  C   UNL A   1      41.086  29.902  34.994  1.00  0.00     0.049 A 
ATOM     49  N   UNL A   1      41.834  32.170  36.821  1.00  0.00    -0.248 NA
ATOM     50  C   UNL A   1      40.120  33.455  35.916  1.00  0.00     0.031 C 
ATOM     51  C   UNL A   1      40.893  28.784  34.084  1.00  0.00     0.029 A 
ATOM     52  N   UNL A   1      42.177  29.505  35.738  1.00  0.00    -0.354 N 
ATOM     53  C   UNL A   1      41.850  33.440  37.400  1.00  0.00     0.074 A 
ATOM     54  C   UNL A   1      40.883  34.231  36.675  1.00  0.00     0.031 C 
ATOM     55  C   UNL A   1      41.872  27.887  34.228  1.00  0.00     0.029 A 
ATOM     56  C   UNL A   1      42.736  28.321  35.307  1.00  0.00     0.049 A 
ATOM     57  H   UNL A   1      42.523  30.018  36.505  1.00  0.00     0.167 HD
ATOM     58  C   UNL A   1      42.528  33.887  38.490  1.00  0.00     0.037 A 
ATOM     59  C   UNL A   1      43.798  27.615  35.735  1.00  0.00     0.037 A 
ATOM     60  C   UNL A   1      43.442  33.071  39.249  1.00  0.00     0.049 A 
ATOM     61  C   UNL A   1      44.497  28.078  36.973  1.00  0.00     0.074 A 
ATOM     62  C   UNL A   1      44.064  33.349  40.456  1.00  0.00     0.029 A 
ATOM     63  N   UNL A   1      43.858  31.804  38.872  1.00  0.00    -0.354 N 
ATOM     64  N   UNL A   1      44.359  29.208  37.620  1.00  0.00    -0.248 NA
ATOM     65  C   UNL A   1      45.435  27.135  37.592  1.00  0.00     0.031 C 
ATOM     66  C   UNL A   1      44.877  32.261  40.791  1.00  0.00     0.029 A 
ATOM     67  C   UNL A   1      44.726  31.287  39.818  1.00  0.00     0.049 A 
ATOM     68  H   UNL A   1      43.576  31.338  38.051  1.00  0.00     0.167 HD
ATOM     69  C   UNL A   1      45.139  29.086  38.758  1.00  0.00     0.074 A 
ATOM     70  C   UNL A   1      45.745  27.771  38.711  1.00  0.00     0.031 C 
ATOM     71  C   UNL A   1      45.321  29.978  39.760  1.00  0.00     0.037 A 
BRANCH  58  72
ATOM     72  C   UNL A   1      42.214  35.272  39.015  1.00  0.00     0.064 A 
ATOM     73  C   UNL A   1      42.916  36.397  38.543  1.00  0.00     0.173 A 
ATOM     74  C   UNL A   1      41.161  35.506  39.915  1.00  0.00     0.173 A 
ATOM     75  F   UNL A   1      43.919  36.247  37.667  1.00  0.00    -0.203 F 
ATOM     76  C   UNL A   1      42.614  37.684  38.988  1.00  0.00     0.198 A 
ATOM     77  C   UNL A   1      40.837  36.801  40.329  1.00  0.00     0.198 A 
ATOM     78  F   UNL A   1      40.429  34.485  40.383  1.00  0.00    -0.203 F 
ATOM     79  F   UNL A   1      43.342  38.724  38.559  1.00  0.00    -0.200 F 
ATOM     80  C   UNL A   1      41.570  37.886  39.874  1.00  0.00     0.200 A 
ATOM     81  F   UNL A   1      39.808  37.000  41.166  1.00  0.00    -0.200 F 
ATOM     82  F   UNL A   1      41.272  39.125  40.288  1.00  0.00    -0.200 F 
ENDBRANCH  58  72
BRANCH  59  83
ATOM     83  C   UNL A   1      44.146  26.321  35.085  1.00  0.00     0.064 A 
ATOM     84  C   UNL A   1      45.175  26.250  34.135  1.00  0.00     0.173 A 
ATOM     85  C   UNL A   1      43.482  25.130  35.416  1.00  0.00     0.173 A 
ATOM     86  F   UNL A   1      45.848  27.358  33.794  1.00  0.00    -0.203 F 
ATOM     87  C   UNL A   1      45.492  25.051  33.501  1.00  0.00     0.198 A 
ATOM     88  C   UNL A   1      43.822  23.924  34.803  1.00  0.00     0.198 A 
ATOM     89  F   UNL A   1      42.514  25.137  36.345  1.00  0.00    -0.203 F 
ATOM     90  F   UNL A   1      46.440  25.027  32.555  1.00  0.00    -0.200 F 
ATOM     91  C   UNL A   1      44.815  23.888  33.836  1.00  0.00     0.200 A 
ATOM     92  F   UNL A   1      43.186  22.796  35.147  1.00  0.00    -0.200 F 
ATOM     93  F   UNL A   1      45.120  22.736  33.224  1.00  0.00    -0.200 F 
ENDBRANCH  59  83
BRANCH  71  94
ATOM     94  C   UNL A   1      46.178  29.538  40.907  1.00  0.00     0.064 A 
ATOM     95  C   UNL A   1      47.556  29.792  40.936  1.00  0.00     0.173 A 
ATOM     96  C   UNL A   1      45.607  28.856  41.992  1.00  0.00     0.173 A 
ATOM     97  F   UNL A   1      48.149  30.420  39.909  1.00  0.00    -0.203 F 
ATOM     98  C   UNL A   1      48.340  29.344  41.994  1.00  0.00     0.198 A 
ATOM     99  C   UNL A   1      46.388  28.445  43.066  1.00  0.00     0.198 A 
ATOM    100  F   UNL A   1      44.293  28.589  42.011  1.00  0.00    -0.203 F 
ATOM    101  F   UNL A   1      49.666  29.538  41.969  1.00  0.00    -0.200 F 
ATOM    102  C   UNL A   1      47.756  28.679  43.062  1.00  0.00     0.200 A 
ATOM    103  F   UNL A   1      45.820  27.816  44.104  1.00  0.00    -0.200 F 
ATOM    104  F   UNL A   1      48.512  28.254  44.083  1.00  0.00    -0.200 F 
ENDBRANCH  71  94
ENDBRANCH  45  46
ENDBRANCH  38  40
ENDBRANCH  37  38
ENDBRANCH  36  37
ENDBRANCH  35  36
ENDBRANCH  34  35
ENDBRANCH  33  34
ENDBRANCH   1  33
TORSDOF 22
ENDMDL
