MODEL 1
REMARK VINA RESULT:     -11.5      0.000      0.000
REMARK SMILES O=C(OCCOCCOCCOC(=O)[C@H]1CC[C@@H](CNC(=O)[C@@H]2C[C@H]3CC[C@@H]2[NH2+]3)O1)c1ccc(-c2c3nc(c(-c4c(F)c(F)c(F)c(F)c4F)c4ccc([nH]4)c(-c4c(F)c(F)c(F)c(F)c4F)c4nc(c(-c5c(F)c(F)c(F)c(F)c5F)c5ccc2[nH]5)C=C4)C=C3)cc1
REMARK SMILES IDX 8 1 7 2 6 3 5 4 4 5 3 6 2 7 1 8 31 9 32 10 93 11 33 12 92 13
REMARK SMILES IDX 34 14 35 15 36 16 86 17 37 18 91 19 85 20 87 21 38 22 90 23
REMARK SMILES IDX 84 24 83 25 39 27 71 28 51 29 70 30 52 31 55 32 69 33 88 34
REMARK SMILES IDX 53 35 54 36 68 38 89 39 56 40 40 41 41 42 49 43 42 44 43 45
REMARK SMILES IDX 47 46 50 47 44 48 45 49 48 50 46 51 72 52 73 53 81 54 74 55
REMARK SMILES IDX 75 56 79 57 82 58 76 59 77 60 80 61 78 62 57 63 58 64 66 65
REMARK SMILES IDX 59 66 60 67 64 68 67 69 61 70 62 71 65 72 63 73 9 74 10 75
REMARK SMILES IDX 11 76 12 77 13 78 14 79 15 80 16 81 30 82 17 83 18 84 19 85
REMARK SMILES IDX 20 86 21 87 22 89 23 90 24 91 28 92 25 93 27 94 29 95 26 96
REMARK H PARENT 87 26 55 37 20 88 29 97 29 98
REMARK Flexibility Score: inf
ROOT
ATOM      1  C   UNL A   1      46.729  19.659  24.678  1.00  0.00     0.188 C 
ENDROOT
BRANCH   1   2
ATOM      2  C   UNL A   1      46.026  21.021  24.653  1.00  0.00     0.188 C 
BRANCH   2   3
ATOM      3  O   UNL A   1      46.029  21.601  25.961  1.00  0.00    -0.376 OA
BRANCH   3   4
ATOM      4  C   UNL A   1      45.967  23.027  25.984  1.00  0.00     0.202 C 
BRANCH   4   5
ATOM      5  C   UNL A   1      45.982  23.703  24.607  1.00  0.00     0.261 C 
BRANCH   5   6
ATOM      6  O   UNL A   1      44.722  24.296  24.263  1.00  0.00    -0.460 OA
BRANCH   6   7
ATOM      7  C   UNL A   1      43.533  24.012  24.848  1.00  0.00     0.338 C 
ATOM      8  O   UNL A   1      42.975  22.942  24.630  1.00  0.00    -0.246 OA
BRANCH   7   9
ATOM      9  C   UNL A   1      42.897  24.948  25.813  1.00  0.00     0.060 A 
ATOM     10  C   UNL A   1      42.158  24.541  26.925  1.00  0.00     0.016 A 
ATOM     11  C   UNL A   1      43.202  26.301  25.674  1.00  0.00     0.016 A 
ATOM     12  C   UNL A   1      41.672  25.460  27.855  1.00  0.00     0.010 A 
ATOM     13  C   UNL A   1      42.815  27.202  26.667  1.00  0.00     0.010 A 
ATOM     14  C   UNL A   1      42.052  26.796  27.781  1.00  0.00    -0.014 A 
BRANCH  14  15
ATOM     15  C   UNL A   1      41.706  27.781  28.850  1.00  0.00     0.031 A 
ATOM     16  C   UNL A   1      42.428  27.686  30.165  1.00  0.00     0.074 A 
ATOM     17  C   UNL A   1      40.677  28.646  28.709  1.00  0.00     0.049 A 
ATOM     18  N   UNL A   1      42.105  28.156  31.342  1.00  0.00    -0.248 NA
ATOM     19  C   UNL A   1      43.675  26.901  30.158  1.00  0.00     0.031 C 
ATOM     20  C   UNL A   1      39.882  28.860  27.498  1.00  0.00     0.029 A 
ATOM     21  N   UNL A   1      40.072  29.469  29.633  1.00  0.00    -0.354 N 
ATOM     22  C   UNL A   1      43.046  27.637  32.220  1.00  0.00     0.074 A 
ATOM     23  C   UNL A   1      43.931  26.792  31.451  1.00  0.00     0.031 C 
ATOM     24  C   UNL A   1      38.865  29.693  27.763  1.00  0.00     0.029 A 
ATOM     25  C   UNL A   1      38.916  30.058  29.171  1.00  0.00     0.049 A 
ATOM     26  H   UNL A   1      40.430  29.620  30.538  1.00  0.00     0.167 HD
ATOM     27  C   UNL A   1      43.178  27.874  33.546  1.00  0.00     0.037 A 
ATOM     28  C   UNL A   1      37.980  30.778  29.817  1.00  0.00     0.037 A 
ATOM     29  C   UNL A   1      42.363  28.808  34.269  1.00  0.00     0.049 A 
ATOM     30  C   UNL A   1      38.173  31.071  31.278  1.00  0.00     0.074 A 
ATOM     31  C   UNL A   1      42.503  29.254  35.570  1.00  0.00     0.029 A 
ATOM     32  N   UNL A   1      41.260  29.459  33.734  1.00  0.00    -0.354 N 
ATOM     33  N   UNL A   1      39.114  30.649  32.087  1.00  0.00    -0.248 NA
ATOM     34  C   UNL A   1      37.192  31.962  31.913  1.00  0.00     0.031 C 
ATOM     35  C   UNL A   1      41.478  30.169  35.827  1.00  0.00     0.029 A 
ATOM     36  C   UNL A   1      40.713  30.310  34.679  1.00  0.00     0.049 A 
ATOM     37  H   UNL A   1      40.918  29.335  32.819  1.00  0.00     0.167 HD
ATOM     38  C   UNL A   1      38.867  31.254  33.309  1.00  0.00     0.074 A 
ATOM     39  C   UNL A   1      37.685  32.074  33.138  1.00  0.00     0.031 C 
ATOM     40  C   UNL A   1      39.560  31.146  34.467  1.00  0.00     0.037 A 
BRANCH  27  41
ATOM     41  C   UNL A   1      44.259  27.132  34.275  1.00  0.00     0.064 A 
ATOM     42  C   UNL A   1      44.006  25.921  34.940  1.00  0.00     0.173 A 
ATOM     43  C   UNL A   1      45.563  27.648  34.331  1.00  0.00     0.173 A 
ATOM     44  F   UNL A   1      42.774  25.389  34.927  1.00  0.00    -0.203 F 
ATOM     45  C   UNL A   1      44.998  25.288  35.683  1.00  0.00     0.198 A 
ATOM     46  C   UNL A   1      46.564  26.992  35.045  1.00  0.00     0.198 A 
ATOM     47  F   UNL A   1      45.866  28.795  33.706  1.00  0.00    -0.203 F 
ATOM     48  F   UNL A   1      44.708  24.178  36.375  1.00  0.00    -0.200 F 
ATOM     49  C   UNL A   1      46.277  25.822  35.732  1.00  0.00     0.200 A 
ATOM     50  F   UNL A   1      47.803  27.501  35.083  1.00  0.00    -0.200 F 
ATOM     51  F   UNL A   1      47.229  25.216  36.455  1.00  0.00    -0.200 F 
ENDBRANCH  27  41
BRANCH  28  52
ATOM     52  C   UNL A   1      36.785  31.288  29.090  1.00  0.00     0.064 A 
ATOM     53  C   UNL A   1      36.687  32.639  28.731  1.00  0.00     0.173 A 
ATOM     54  C   UNL A   1      35.710  30.448  28.763  1.00  0.00     0.173 A 
ATOM     55  F   UNL A   1      37.683  33.485  29.034  1.00  0.00    -0.203 F 
ATOM     56  C   UNL A   1      35.546  33.140  28.107  1.00  0.00     0.198 A 
ATOM     57  C   UNL A   1      34.578  30.946  28.118  1.00  0.00     0.198 A 
ATOM     58  F   UNL A   1      35.757  29.144  29.067  1.00  0.00    -0.203 F 
ATOM     59  F   UNL A   1      35.460  34.446  27.822  1.00  0.00    -0.200 F 
ATOM     60  C   UNL A   1      34.492  32.292  27.801  1.00  0.00     0.200 A 
ATOM     61  F   UNL A   1      33.566  30.121  27.810  1.00  0.00    -0.200 F 
ATOM     62  F   UNL A   1      33.392  32.776  27.208  1.00  0.00    -0.200 F 
ENDBRANCH  28  52
BRANCH  40  63
ATOM     63  C   UNL A   1      39.107  31.989  35.617  1.00  0.00     0.064 A 
ATOM     64  C   UNL A   1      38.280  31.474  36.623  1.00  0.00     0.173 A 
ATOM     65  C   UNL A   1      39.568  33.308  35.746  1.00  0.00     0.173 A 
ATOM     66  F   UNL A   1      37.799  30.225  36.529  1.00  0.00    -0.203 F 
ATOM     67  C   UNL A   1      37.927  32.253  37.720  1.00  0.00     0.198 A 
ATOM     68  C   UNL A   1      39.234  34.074  36.856  1.00  0.00     0.198 A 
ATOM     69  F   UNL A   1      40.363  33.842  34.806  1.00  0.00    -0.203 F 
ATOM     70  F   UNL A   1      37.113  31.753  38.660  1.00  0.00    -0.200 F 
ATOM     71  C   UNL A   1      38.413  33.547  37.842  1.00  0.00     0.200 A 
ATOM     72  F   UNL A   1      39.712  35.321  36.978  1.00  0.00    -0.200 F 
ATOM     73  F   UNL A   1      38.087  34.288  38.909  1.00  0.00    -0.200 F 
ENDBRANCH  40  63
ENDBRANCH  14  15
ENDBRANCH   7   9
ENDBRANCH   6   7
ENDBRANCH   5   6
ENDBRANCH   4   5
ENDBRANCH   3   4
ENDBRANCH   2   3
ENDBRANCH   1   2
BRANCH   1  74
ATOM     74  O   UNL A   1      45.874  18.514  24.607  1.00  0.00    -0.376 OA
BRANCH  74  75
ATOM     75  C   UNL A   1      44.780  18.467  25.516  1.00  0.00     0.202 C 
BRANCH  75  76
ATOM     76  C   UNL A   1      43.409  18.916  24.988  1.00  0.00     0.261 C 
BRANCH  76  77
ATOM     77  O   UNL A   1      42.331  18.861  25.942  1.00  0.00    -0.461 OA
BRANCH  77  78
ATOM     78  C   UNL A   1      42.059  20.041  26.561  1.00  0.00     0.335 C 
ATOM     79  O   UNL A   1      42.907  20.824  26.980  1.00  0.00    -0.249 OA
BRANCH  78  80
ATOM     80  C   UNL A   1      40.556  20.342  26.701  1.00  0.00     0.228 C 
ATOM     81  C   UNL A   1      40.371  21.791  27.167  1.00  0.00     0.047 C 
ATOM     82  O   UNL A   1      39.613  20.149  25.637  1.00  0.00    -0.361 OA
ATOM     83  C   UNL A   1      39.269  22.328  26.284  1.00  0.00     0.037 C 
ATOM     84  C   UNL A   1      38.525  21.061  25.917  1.00  0.00     0.138 C 
BRANCH  84  85
ATOM     85  C   UNL A   1      37.568  21.279  24.743  1.00  0.00     0.147 C 
BRANCH  85  86
ATOM     86  N   UNL A   1      36.277  20.633  24.921  1.00  0.00    -0.353 N 
ATOM     87  C   UNL A   1      35.073  21.116  25.311  1.00  0.00     0.229 C 
ATOM     88  H   UNL A   1      36.278  19.670  24.720  1.00  0.00     0.163 HD
ATOM     89  O   UNL A   1      34.120  20.325  25.271  1.00  0.00    -0.275 OA
BRANCH  87  90
ATOM     90  C   UNL A   1      34.802  22.519  25.844  1.00  0.00     0.142 C 
ATOM     91  C   UNL A   1      33.771  22.812  26.936  1.00  0.00     0.084 C 
ATOM     92  C   UNL A   1      34.307  23.390  24.682  1.00  0.00     0.195 C 
ATOM     93  C   UNL A   1      32.745  23.691  26.202  1.00  0.00     0.183 C 
ATOM     94  C   UNL A   1      34.450  24.880  25.036  1.00  0.00     0.072 C 
ATOM     95  N   UNL A   1      32.850  23.190  24.822  1.00  0.00    -0.341 N 
ATOM     96  C   UNL A   1      33.303  25.104  26.028  1.00  0.00     0.071 C 
ATOM     97  H   UNL A   1      32.312  23.749  24.159  1.00  0.00     0.346 HD
ATOM     98  H   UNL A   1      32.495  22.250  24.644  1.00  0.00     0.346 HD
ENDBRANCH  87  90
ENDBRANCH  85  86
ENDBRANCH  84  85
ENDBRANCH  78  80
ENDBRANCH  77  78
ENDBRANCH  76  77
ENDBRANCH  75  76
ENDBRANCH  74  75
ENDBRANCH   1  74
TORSDOF 20
ENDMDL
MODEL 2
REMARK VINA RESULT:     -11.2      1.730      3.090
REMARK SMILES O=C(OCCOCCOCCOC(=O)[C@H]1CC[C@@H](CNC(=O)[C@@H]2C[C@H]3CC[C@@H]2[NH2+]3)O1)c1ccc(-c2c3nc(c(-c4c(F)c(F)c(F)c(F)c4F)c4ccc([nH]4)c(-c4c(F)c(F)c(F)c(F)c4F)c4nc(c(-c5c(F)c(F)c(F)c(F)c5F)c5ccc2[nH]5)C=C4)C=C3)cc1
REMARK SMILES IDX 8 1 7 2 6 3 5 4 4 5 3 6 2 7 1 8 31 9 32 10 93 11 33 12 92 13
REMARK SMILES IDX 34 14 35 15 36 16 86 17 37 18 91 19 85 20 87 21 38 22 90 23
REMARK SMILES IDX 84 24 83 25 39 27 71 28 51 29 70 30 52 31 55 32 69 33 88 34
REMARK SMILES IDX 53 35 54 36 68 38 89 39 56 40 40 41 41 42 49 43 42 44 43 45
REMARK SMILES IDX 47 46 50 47 44 48 45 49 48 50 46 51 72 52 73 53 81 54 74 55
REMARK SMILES IDX 75 56 79 57 82 58 76 59 77 60 80 61 78 62 57 63 58 64 66 65
REMARK SMILES IDX 59 66 60 67 64 68 67 69 61 70 62 71 65 72 63 73 9 74 10 75
REMARK SMILES IDX 11 76 12 77 13 78 14 79 15 80 16 81 30 82 17 83 18 84 19 85
REMARK SMILES IDX 20 86 21 87 22 89 23 90 24 91 28 92 25 93 27 94 29 95 26 96
REMARK H PARENT 87 26 55 37 20 88 29 97 29 98
REMARK Flexibility Score: inf
ROOT
ATOM      1  C   UNL A   1      42.267  19.535  27.297  1.00  0.00     0.188 C 
ENDROOT
BRANCH   1   2
ATOM      2  C   UNL A   1      42.648  18.841  25.984  1.00  0.00     0.188 C 
BRANCH   2   3
ATOM      3  O   UNL A   1      43.213  19.789  25.072  1.00  0.00    -0.376 OA
BRANCH   3   4
ATOM      4  C   UNL A   1      44.623  19.973  25.196  1.00  0.00     0.202 C 
BRANCH   4   5
ATOM      5  C   UNL A   1      45.087  21.434  25.262  1.00  0.00     0.261 C 
BRANCH   5   6
ATOM      6  O   UNL A   1      44.195  22.269  26.014  1.00  0.00    -0.460 OA
BRANCH   6   7
ATOM      7  C   UNL A   1      43.376  23.215  25.494  1.00  0.00     0.338 C 
ATOM      8  O   UNL A   1      43.041  23.162  24.315  1.00  0.00    -0.246 OA
BRANCH   7   9
ATOM      9  C   UNL A   1      42.811  24.302  26.335  1.00  0.00     0.060 A 
ATOM     10  C   UNL A   1      41.833  24.106  27.312  1.00  0.00     0.016 A 
ATOM     11  C   UNL A   1      43.417  25.553  26.241  1.00  0.00     0.016 A 
ATOM     12  C   UNL A   1      41.413  25.144  28.144  1.00  0.00     0.010 A 
ATOM     13  C   UNL A   1      43.079  26.556  27.151  1.00  0.00     0.010 A 
ATOM     14  C   UNL A   1      42.078  26.365  28.126  1.00  0.00    -0.014 A 
BRANCH  14  15
ATOM     15  C   UNL A   1      41.786  27.444  29.118  1.00  0.00     0.031 A 
ATOM     16  C   UNL A   1      42.522  27.423  30.429  1.00  0.00     0.074 A 
ATOM     17  C   UNL A   1      40.789  28.336  28.921  1.00  0.00     0.049 A 
ATOM     18  N   UNL A   1      42.233  27.997  31.568  1.00  0.00    -0.248 NA
ATOM     19  C   UNL A   1      43.737  26.592  30.470  1.00  0.00     0.031 C 
ATOM     20  C   UNL A   1      39.987  28.485  27.705  1.00  0.00     0.029 A 
ATOM     21  N   UNL A   1      40.229  29.251  29.784  1.00  0.00    -0.354 N 
ATOM     22  C   UNL A   1      43.165  27.512  32.475  1.00  0.00     0.074 A 
ATOM     23  C   UNL A   1      44.006  26.574  31.765  1.00  0.00     0.031 C 
ATOM     24  C   UNL A   1      39.006  29.376  27.914  1.00  0.00     0.029 A 
ATOM     25  C   UNL A   1      39.091  29.848  29.288  1.00  0.00     0.049 A 
ATOM     26  H   UNL A   1      40.605  29.459  30.670  1.00  0.00     0.167 HD
ATOM     27  C   UNL A   1      43.325  27.846  33.777  1.00  0.00     0.037 A 
ATOM     28  C   UNL A   1      38.192  30.653  29.886  1.00  0.00     0.037 A 
ATOM     29  C   UNL A   1      42.557  28.866  34.432  1.00  0.00     0.049 A 
ATOM     30  C   UNL A   1      38.417  31.052  31.317  1.00  0.00     0.074 A 
ATOM     31  C   UNL A   1      42.732  29.406  35.692  1.00  0.00     0.029 A 
ATOM     32  N   UNL A   1      41.472  29.516  33.860  1.00  0.00    -0.354 N 
ATOM     33  N   UNL A   1      39.351  30.657  32.146  1.00  0.00    -0.248 NA
ATOM     34  C   UNL A   1      37.480  32.028  31.890  1.00  0.00     0.031 C 
ATOM     35  C   UNL A   1      41.746  30.378  35.887  1.00  0.00     0.029 A 
ATOM     36  C   UNL A   1      40.972  30.459  34.740  1.00  0.00     0.049 A 
ATOM     37  H   UNL A   1      41.113  29.335  32.961  1.00  0.00     0.167 HD
ATOM     38  C   UNL A   1      39.144  31.365  33.320  1.00  0.00     0.074 A 
ATOM     39  C   UNL A   1      37.993  32.216  33.098  1.00  0.00     0.031 C 
ATOM     40  C   UNL A   1      39.849  31.322  34.475  1.00  0.00     0.037 A 
BRANCH  27  41
ATOM     41  C   UNL A   1      44.386  27.121  34.550  1.00  0.00     0.064 A 
ATOM     42  C   UNL A   1      45.698  27.611  34.643  1.00  0.00     0.173 A 
ATOM     43  C   UNL A   1      44.095  25.906  35.189  1.00  0.00     0.173 A 
ATOM     44  F   UNL A   1      46.033  28.763  34.042  1.00  0.00    -0.203 F 
ATOM     45  C   UNL A   1      46.692  26.884  35.293  1.00  0.00     0.198 A 
ATOM     46  C   UNL A   1      45.085  25.199  35.870  1.00  0.00     0.198 A 
ATOM     47  F   UNL A   1      42.856  25.394  35.143  1.00  0.00    -0.203 F 
ATOM     48  F   UNL A   1      47.954  27.335  35.295  1.00  0.00    -0.200 F 
ATOM     49  C   UNL A   1      46.384  25.681  35.908  1.00  0.00     0.200 A 
ATOM     50  F   UNL A   1      44.784  24.042  36.476  1.00  0.00    -0.200 F 
ATOM     51  F   UNL A   1      47.344  24.979  36.525  1.00  0.00    -0.200 F 
ENDBRANCH  27  41
BRANCH  28  52
ATOM     52  C   UNL A   1      37.008  31.151  29.134  1.00  0.00     0.064 A 
ATOM     53  C   UNL A   1      36.951  32.478  28.684  1.00  0.00     0.173 A 
ATOM     54  C   UNL A   1      35.904  30.327  28.872  1.00  0.00     0.173 A 
ATOM     55  F   UNL A   1      37.977  33.309  28.922  1.00  0.00    -0.203 F 
ATOM     56  C   UNL A   1      35.821  32.972  28.034  1.00  0.00     0.198 A 
ATOM     57  C   UNL A   1      34.782  30.817  28.202  1.00  0.00     0.198 A 
ATOM     58  F   UNL A   1      35.911  29.046  29.264  1.00  0.00    -0.203 F 
ATOM     59  F   UNL A   1      35.775  34.258  27.662  1.00  0.00    -0.200 F 
ATOM     60  C   UNL A   1      34.738  32.141  27.794  1.00  0.00     0.200 A 
ATOM     61  F   UNL A   1      33.742  30.008  27.957  1.00  0.00    -0.200 F 
ATOM     62  F   UNL A   1      33.648  32.620  27.177  1.00  0.00    -0.200 F 
ENDBRANCH  28  52
BRANCH  40  63
ATOM     63  C   UNL A   1      39.445  32.269  35.560  1.00  0.00     0.064 A 
ATOM     64  C   UNL A   1      38.474  31.927  36.509  1.00  0.00     0.173 A 
ATOM     65  C   UNL A   1      40.093  33.507  35.689  1.00  0.00     0.173 A 
ATOM     66  F   UNL A   1      37.814  30.762  36.412  1.00  0.00    -0.203 F 
ATOM     67  C   UNL A   1      38.162  32.794  37.551  1.00  0.00     0.198 A 
ATOM     68  C   UNL A   1      39.797  34.359  36.746  1.00  0.00     0.198 A 
ATOM     69  F   UNL A   1      41.030  33.876  34.802  1.00  0.00    -0.203 F 
ATOM     70  F   UNL A   1      37.212  32.462  38.435  1.00  0.00    -0.200 F 
ATOM     71  C   UNL A   1      38.831  34.003  37.675  1.00  0.00     0.200 A 
ATOM     72  F   UNL A   1      40.451  35.523  36.871  1.00  0.00    -0.200 F 
ATOM     73  F   UNL A   1      38.543  34.828  38.691  1.00  0.00    -0.200 F 
ENDBRANCH  40  63
ENDBRANCH  14  15
ENDBRANCH   7   9
ENDBRANCH   6   7
ENDBRANCH   5   6
ENDBRANCH   4   5
ENDBRANCH   3   4
ENDBRANCH   2   3
ENDBRANCH   1   2
BRANCH   1  74
ATOM     74  O   UNL A   1      40.881  19.853  27.455  1.00  0.00    -0.376 OA
BRANCH  74  75
ATOM     75  C   UNL A   1      40.422  21.060  26.856  1.00  0.00     0.202 C 
BRANCH  75  76
ATOM     76  C   UNL A   1      39.362  20.935  25.751  1.00  0.00     0.261 C 
BRANCH  76  77
ATOM     77  O   UNL A   1      38.254  21.849  25.853  1.00  0.00    -0.461 OA
BRANCH  77  78
ATOM     78  C   UNL A   1      37.086  21.389  25.328  1.00  0.00     0.335 C 
ATOM     79  O   UNL A   1      36.980  20.380  24.634  1.00  0.00    -0.249 OA
BRANCH  78  80
ATOM     80  C   UNL A   1      35.859  22.248  25.682  1.00  0.00     0.228 C 
ATOM     81  C   UNL A   1      36.272  23.724  25.728  1.00  0.00     0.047 C 
ATOM     82  O   UNL A   1      34.630  22.207  24.944  1.00  0.00    -0.361 OA
ATOM     83  C   UNL A   1      35.175  24.440  24.976  1.00  0.00     0.037 C 
ATOM     84  C   UNL A   1      34.007  23.495  25.162  1.00  0.00     0.138 C 
BRANCH  84  85
ATOM     85  C   UNL A   1      32.857  23.808  24.203  1.00  0.00     0.147 C 
BRANCH  85  86
ATOM     86  N   UNL A   1      33.273  24.547  23.023  1.00  0.00    -0.353 N 
ATOM     87  C   UNL A   1      32.945  25.781  22.569  1.00  0.00     0.229 C 
ATOM     88  H   UNL A   1      33.910  24.064  22.449  1.00  0.00     0.163 HD
ATOM     89  O   UNL A   1      33.550  26.180  21.564  1.00  0.00    -0.275 OA
BRANCH  87  90
ATOM     90  C   UNL A   1      31.866  26.690  23.148  1.00  0.00     0.142 C 
ATOM     91  C   UNL A   1      30.947  27.552  22.280  1.00  0.00     0.084 C 
ATOM     92  C   UNL A   1      32.544  27.733  24.047  1.00  0.00     0.195 C 
ATOM     93  C   UNL A   1      31.335  28.981  22.696  1.00  0.00     0.183 C 
ATOM     94  C   UNL A   1      31.513  28.370  24.993  1.00  0.00     0.072 C 
ATOM     95  N   UNL A   1      32.751  28.815  23.062  1.00  0.00    -0.341 N 
ATOM     96  C   UNL A   1      30.731  29.305  24.062  1.00  0.00     0.071 C 
ATOM     97  H   UNL A   1      33.150  29.655  23.480  1.00  0.00     0.346 HD
ATOM     98  H   UNL A   1      33.406  28.626  22.301  1.00  0.00     0.346 HD
ENDBRANCH  87  90
ENDBRANCH  85  86
ENDBRANCH  84  85
ENDBRANCH  78  80
ENDBRANCH  77  78
ENDBRANCH  76  77
ENDBRANCH  75  76
ENDBRANCH  74  75
ENDBRANCH   1  74
TORSDOF 20
ENDMDL
MODEL 3
REMARK VINA RESULT:     -11.2      4.487     10.003
REMARK SMILES O=C(OCCOCCOCCOC(=O)[C@H]1CC[C@@H](CNC(=O)[C@@H]2C[C@H]3CC[C@@H]2[NH2+]3)O1)c1ccc(-c2c3nc(c(-c4c(F)c(F)c(F)c(F)c4F)c4ccc([nH]4)c(-c4c(F)c(F)c(F)c(F)c4F)c4nc(c(-c5c(F)c(F)c(F)c(F)c5F)c5ccc2[nH]5)C=C4)C=C3)cc1
REMARK SMILES IDX 8 1 7 2 6 3 5 4 4 5 3 6 2 7 1 8 31 9 32 10 93 11 33 12 92 13
REMARK SMILES IDX 34 14 35 15 36 16 86 17 37 18 91 19 85 20 87 21 38 22 90 23
REMARK SMILES IDX 84 24 83 25 39 27 71 28 51 29 70 30 52 31 55 32 69 33 88 34
REMARK SMILES IDX 53 35 54 36 68 38 89 39 56 40 40 41 41 42 49 43 42 44 43 45
REMARK SMILES IDX 47 46 50 47 44 48 45 49 48 50 46 51 72 52 73 53 81 54 74 55
REMARK SMILES IDX 75 56 79 57 82 58 76 59 77 60 80 61 78 62 57 63 58 64 66 65
REMARK SMILES IDX 59 66 60 67 64 68 67 69 61 70 62 71 65 72 63 73 9 74 10 75
REMARK SMILES IDX 11 76 12 77 13 78 14 79 15 80 16 81 30 82 17 83 18 84 19 85
REMARK SMILES IDX 20 86 21 87 22 89 23 90 24 91 28 92 25 93 27 94 29 95 26 96
REMARK H PARENT 87 26 55 37 20 88 29 97 29 98
REMARK Flexibility Score: inf
ROOT
ATOM      1  C   UNL A   1      35.432  31.956  28.001  1.00  0.00     0.188 C 
ENDROOT
BRANCH   1   2
ATOM      2  C   UNL A   1      35.707  33.448  28.227  1.00  0.00     0.188 C 
BRANCH   2   3
ATOM      3  O   UNL A   1      34.660  34.235  27.649  1.00  0.00    -0.376 OA
BRANCH   3   4
ATOM      4  C   UNL A   1      34.237  35.343  28.442  1.00  0.00     0.202 C 
BRANCH   4   5
ATOM      5  C   UNL A   1      32.943  35.121  29.236  1.00  0.00     0.261 C 
BRANCH   5   6
ATOM      6  O   UNL A   1      32.697  36.153  30.201  1.00  0.00    -0.460 OA
BRANCH   6   7
ATOM      7  C   UNL A   1      32.675  35.984  31.546  1.00  0.00     0.338 C 
ATOM      8  O   UNL A   1      31.781  36.488  32.218  1.00  0.00    -0.246 OA
BRANCH   7   9
ATOM      9  C   UNL A   1      33.683  35.141  32.241  1.00  0.00     0.060 A 
ATOM     10  C   UNL A   1      33.418  33.871  32.756  1.00  0.00     0.016 A 
ATOM     11  C   UNL A   1      35.001  35.593  32.228  1.00  0.00     0.016 A 
ATOM     12  C   UNL A   1      34.427  33.081  33.307  1.00  0.00     0.010 A 
ATOM     13  C   UNL A   1      36.024  34.754  32.671  1.00  0.00     0.010 A 
ATOM     14  C   UNL A   1      35.756  33.478  33.209  1.00  0.00    -0.014 A 
BRANCH  14  15
ATOM     15  C   UNL A   1      36.884  32.588  33.620  1.00  0.00     0.031 A 
ATOM     16  C   UNL A   1      37.604  32.898  34.902  1.00  0.00     0.074 A 
ATOM     17  C   UNL A   1      37.350  31.614  32.806  1.00  0.00     0.049 A 
ATOM     18  N   UNL A   1      38.789  32.531  35.316  1.00  0.00    -0.248 NA
ATOM     19  C   UNL A   1      36.899  33.797  35.833  1.00  0.00     0.031 C 
ATOM     20  C   UNL A   1      36.761  31.190  31.534  1.00  0.00     0.029 A 
ATOM     21  N   UNL A   1      38.487  30.843  32.900  1.00  0.00    -0.354 N 
ATOM     22  C   UNL A   1      39.007  33.234  36.492  1.00  0.00     0.074 A 
ATOM     23  C   UNL A   1      37.850  34.073  36.710  1.00  0.00     0.031 C 
ATOM     24  C   UNL A   1      37.562  30.294  30.938  1.00  0.00     0.029 A 
ATOM     25  C   UNL A   1      38.738  30.094  31.772  1.00  0.00     0.049 A 
ATOM     26  H   UNL A   1      39.065  30.828  33.698  1.00  0.00     0.167 HD
ATOM     27  C   UNL A   1      40.065  33.160  37.333  1.00  0.00     0.037 A 
ATOM     28  C   UNL A   1      39.813  29.360  31.428  1.00  0.00     0.037 A 
ATOM     29  C   UNL A   1      41.149  32.235  37.161  1.00  0.00     0.049 A 
ATOM     30  C   UNL A   1      40.955  29.250  32.399  1.00  0.00     0.074 A 
ATOM     31  C   UNL A   1      42.190  31.951  38.025  1.00  0.00     0.029 A 
ATOM     32  N   UNL A   1      41.313  31.422  36.048  1.00  0.00    -0.354 N 
ATOM     33  N   UNL A   1      41.118  29.851  33.552  1.00  0.00    -0.248 NA
ATOM     34  C   UNL A   1      42.052  28.341  32.036  1.00  0.00     0.031 C 
ATOM     35  C   UNL A   1      42.992  30.973  37.430  1.00  0.00     0.029 A 
ATOM     36  C   UNL A   1      42.437  30.630  36.206  1.00  0.00     0.049 A 
ATOM     37  H   UNL A   1      40.719  31.410  35.263  1.00  0.00     0.167 HD
ATOM     38  C   UNL A   1      42.306  29.363  34.072  1.00  0.00     0.074 A 
ATOM     39  C   UNL A   1      42.827  28.415  33.108  1.00  0.00     0.031 C 
ATOM     40  C   UNL A   1      42.909  29.666  35.247  1.00  0.00     0.037 A 
BRANCH  27  41
ATOM     41  C   UNL A   1      40.072  34.082  38.516  1.00  0.00     0.064 A 
ATOM     42  C   UNL A   1      39.442  33.741  39.723  1.00  0.00     0.173 A 
ATOM     43  C   UNL A   1      40.699  35.335  38.437  1.00  0.00     0.173 A 
ATOM     44  F   UNL A   1      38.818  32.559  39.849  1.00  0.00    -0.203 F 
ATOM     45  C   UNL A   1      39.384  34.641  40.783  1.00  0.00     0.198 A 
ATOM     46  C   UNL A   1      40.671  36.219  39.514  1.00  0.00     0.198 A 
ATOM     47  F   UNL A   1      41.327  35.711  37.313  1.00  0.00    -0.203 F 
ATOM     48  F   UNL A   1      38.705  34.322  41.893  1.00  0.00    -0.200 F 
ATOM     49  C   UNL A   1      40.002  35.878  40.679  1.00  0.00     0.200 A 
ATOM     50  F   UNL A   1      41.279  37.410  39.418  1.00  0.00    -0.200 F 
ATOM     51  F   UNL A   1      39.937  36.747  41.697  1.00  0.00    -0.200 F 
ENDBRANCH  27  41
BRANCH  28  52
ATOM     52  C   UNL A   1      39.859  28.657  30.117  1.00  0.00     0.064 A 
ATOM     53  C   UNL A   1      39.301  27.380  29.969  1.00  0.00     0.173 A 
ATOM     54  C   UNL A   1      40.480  29.230  28.998  1.00  0.00     0.173 A 
ATOM     55  F   UNL A   1      38.708  26.784  31.014  1.00  0.00    -0.203 F 
ATOM     56  C   UNL A   1      39.394  26.686  28.763  1.00  0.00     0.198 A 
ATOM     57  C   UNL A   1      40.552  28.545  27.785  1.00  0.00     0.198 A 
ATOM     58  F   UNL A   1      41.015  30.456  29.077  1.00  0.00    -0.203 F 
ATOM     59  F   UNL A   1      38.896  25.446  28.666  1.00  0.00    -0.200 F 
ATOM     60  C   UNL A   1      40.020  27.270  27.672  1.00  0.00     0.200 A 
ATOM     61  F   UNL A   1      41.145  29.116  26.727  1.00  0.00    -0.200 F 
ATOM     62  F   UNL A   1      40.115  26.599  26.515  1.00  0.00    -0.200 F 
ENDBRANCH  28  52
BRANCH  40  63
ATOM     63  C   UNL A   1      44.156  28.914  35.590  1.00  0.00     0.064 A 
ATOM     64  C   UNL A   1      45.423  29.400  35.248  1.00  0.00     0.173 A 
ATOM     65  C   UNL A   1      44.078  27.727  36.335  1.00  0.00     0.173 A 
ATOM     66  F   UNL A   1      45.544  30.520  34.518  1.00  0.00    -0.203 F 
ATOM     67  C   UNL A   1      46.574  28.722  35.638  1.00  0.00     0.198 A 
ATOM     68  C   UNL A   1      45.230  27.066  36.744  1.00  0.00     0.198 A 
ATOM     69  F   UNL A   1      42.884  27.225  36.685  1.00  0.00    -0.203 F 
ATOM     70  F   UNL A   1      47.778  29.187  35.278  1.00  0.00    -0.200 F 
ATOM     71  C   UNL A   1      46.477  27.563  36.394  1.00  0.00     0.200 A 
ATOM     72  F   UNL A   1      45.136  25.952  37.484  1.00  0.00    -0.200 F 
ATOM     73  F   UNL A   1      47.587  26.922  36.784  1.00  0.00    -0.200 F 
ENDBRANCH  40  63
ENDBRANCH  14  15
ENDBRANCH   7   9
ENDBRANCH   6   7
ENDBRANCH   5   6
ENDBRANCH   4   5
ENDBRANCH   3   4
ENDBRANCH   2   3
ENDBRANCH   1   2
BRANCH   1  74
ATOM     74  O   UNL A   1      34.056  31.590  27.860  1.00  0.00    -0.376 OA
BRANCH  74  75
ATOM     75  C   UNL A   1      33.782  30.261  27.431  1.00  0.00     0.202 C 
BRANCH  75  76
ATOM     76  C   UNL A   1      32.390  29.988  26.839  1.00  0.00     0.261 C 
BRANCH  76  77
ATOM     77  O   UNL A   1      32.229  28.704  26.208  1.00  0.00    -0.461 OA
BRANCH  77  78
ATOM     78  C   UNL A   1      31.535  27.792  26.942  1.00  0.00     0.335 C 
ATOM     79  O   UNL A   1      31.416  27.822  28.164  1.00  0.00    -0.249 OA
BRANCH  78  80
ATOM     80  C   UNL A   1      30.881  26.681  26.102  1.00  0.00     0.228 C 
ATOM     81  C   UNL A   1      31.598  26.580  24.750  1.00  0.00     0.047 C 
ATOM     82  O   UNL A   1      30.727  25.332  26.565  1.00  0.00    -0.361 OA
ATOM     83  C   UNL A   1      31.794  25.096  24.542  1.00  0.00     0.037 C 
ATOM     84  C   UNL A   1      30.665  24.519  25.369  1.00  0.00     0.138 C 
BRANCH  84  85
ATOM     85  C   UNL A   1      30.844  23.020  25.617  1.00  0.00     0.147 C 
BRANCH  85  86
ATOM     86  N   UNL A   1      31.730  22.719  26.730  1.00  0.00    -0.353 N 
ATOM     87  C   UNL A   1      33.072  22.547  26.794  1.00  0.00     0.229 C 
ATOM     88  H   UNL A   1      31.271  22.624  27.595  1.00  0.00     0.163 HD
ATOM     89  O   UNL A   1      33.557  22.395  27.924  1.00  0.00    -0.275 OA
BRANCH  87  90
ATOM     90  C   UNL A   1      34.022  22.469  25.603  1.00  0.00     0.142 C 
ATOM     91  C   UNL A   1      34.474  21.145  24.981  1.00  0.00     0.084 C 
ATOM     92  C   UNL A   1      35.354  23.116  26.004  1.00  0.00     0.195 C 
ATOM     93  C   UNL A   1      35.988  21.149  25.248  1.00  0.00     0.183 C 
ATOM     94  C   UNL A   1      36.170  23.473  24.751  1.00  0.00     0.072 C 
ATOM     95  N   UNL A   1      36.073  21.923  26.497  1.00  0.00    -0.341 N 
ATOM     96  C   UNL A   1      36.682  22.106  24.280  1.00  0.00     0.071 C 
ATOM     97  H   UNL A   1      37.035  22.128  26.767  1.00  0.00     0.346 HD
ATOM     98  H   UNL A   1      35.707  21.480  27.341  1.00  0.00     0.346 HD
ENDBRANCH  87  90
ENDBRANCH  85  86
ENDBRANCH  84  85
ENDBRANCH  78  80
ENDBRANCH  77  78
ENDBRANCH  76  77
ENDBRANCH  75  76
ENDBRANCH  74  75
ENDBRANCH   1  74
TORSDOF 20
ENDMDL
