MODEL 1
REMARK VINA RESULT:     -10.6      0.000      0.000
REMARK SMILES Cc1ccccc1C(=O)N1CSC[C@H]1C(=O)OCCOCCOCCOC(=O)c1ccc(-c2c3nc(c(-c4c(F)c(F)c(F)c(F)c4F)c4ccc([nH]4)c(-c4c(F)c(F)c(F)c(F)c4F)c4nc(c(-c5c(F)c(F)c(F)c(F)c5F)c5ccc2[nH]5)C=C4)C=C3)cc1
REMARK SMILES IDX 21 1 20 2 19 3 18 4 17 5 15 6 16 7 14 8 10 9 11 10 12 11
REMARK SMILES IDX 13 12 8 13 9 14 7 15 1 16 2 17 3 18 4 19 6 20 5 21 22 22
REMARK SMILES IDX 23 23 24 24 25 25 26 26 27 27 28 28 29 29 30 30 91 31 31 32
REMARK SMILES IDX 90 33 32 34 33 35 34 36 84 37 35 38 89 39 83 40 85 41 36 42
REMARK SMILES IDX 88 43 82 44 81 45 37 47 69 48 49 49 68 50 50 51 53 52 67 53
REMARK SMILES IDX 86 54 51 55 52 56 66 58 87 59 54 60 38 61 39 62 47 63 40 64
REMARK SMILES IDX 41 65 45 66 48 67 42 68 43 69 46 70 44 71 70 72 71 73 79 74
REMARK SMILES IDX 72 75 73 76 77 77 80 78 74 79 75 80 78 81 76 82 55 83 56 84
REMARK SMILES IDX 64 85 57 86 58 87 62 88 65 89 59 90 60 91 63 92 61 93
REMARK H PARENT 85 46 53 57
REMARK Flexibility Score: inf
ROOT
ATOM      1  C   UNL A   1      34.109  23.785  26.616  1.00  0.00     0.188 C 
ENDROOT
BRANCH   1   2
ATOM      2  O   UNL A   1      34.029  24.850  25.646  1.00  0.00    -0.376 OA
BRANCH   2   3
ATOM      3  C   UNL A   1      33.600  26.127  26.112  1.00  0.00     0.202 C 
BRANCH   3   4
ATOM      4  C   UNL A   1      32.098  26.211  26.451  1.00  0.00     0.261 C 
BRANCH   4   5
ATOM      5  O   UNL A   1      30.871  25.994  25.639  1.00  0.00    -0.462 OA
BRANCH   5   6
ATOM      6  C   UNL A   1      30.857  24.719  25.079  1.00  0.00     0.329 C 
ATOM      7  O   UNL A   1      30.633  23.782  25.820  1.00  0.00    -0.250 OA
BRANCH   6   8
ATOM      8  C   UNL A   1      31.186  24.363  23.528  1.00  0.00     0.206 C 
ATOM      9  N   UNL A   1      32.372  24.841  22.709  1.00  0.00    -0.315 N 
ATOM     10  C   UNL A   1      33.410  23.845  22.451  1.00  0.00     0.191 C 
ATOM     11  S   UNL A   1      32.529  22.297  22.309  1.00  0.00    -0.138 SA
ATOM     12  C   UNL A   1      31.404  22.796  23.615  1.00  0.00     0.108 C 
BRANCH   9  13
ATOM     13  C   UNL A   1      32.594  26.006  22.004  1.00  0.00     0.255 C 
ATOM     14  O   UNL A   1      33.128  25.989  20.893  1.00  0.00    -0.269 OA
BRANCH  13  15
ATOM     15  C   UNL A   1      31.943  27.267  22.383  1.00  0.00     0.042 A 
ATOM     16  C   UNL A   1      34.203  28.106  23.249  1.00  0.00     0.045 C 
ATOM     17  C   UNL A   1      32.705  28.203  23.127  1.00  0.00    -0.038 A 
ATOM     18  C   UNL A   1      32.032  29.181  23.869  1.00  0.00     0.004 A 
ATOM     19  C   UNL A   1      30.640  29.236  23.866  1.00  0.00     0.000 A 
ATOM     20  C   UNL A   1      30.549  27.337  22.365  1.00  0.00     0.014 A 
ATOM     21  C   UNL A   1      29.902  28.329  23.104  1.00  0.00     0.001 A 
ENDBRANCH  13  15
ENDBRANCH   9  13
ENDBRANCH   6   8
ENDBRANCH   5   6
ENDBRANCH   4   5
ENDBRANCH   3   4
ENDBRANCH   2   3
ENDBRANCH   1   2
BRANCH   1  22
ATOM     22  C   UNL A   1      34.317  22.422  25.919  1.00  0.00     0.188 C 
BRANCH  22  23
ATOM     23  O   UNL A   1      35.572  21.792  26.119  1.00  0.00    -0.376 OA
BRANCH  23  24
ATOM     24  C   UNL A   1      36.683  22.408  25.467  1.00  0.00     0.202 C 
BRANCH  24  25
ATOM     25  C   UNL A   1      38.144  22.212  26.016  1.00  0.00     0.261 C 
BRANCH  25  26
ATOM     26  O   UNL A   1      38.969  21.323  25.203  1.00  0.00    -0.460 OA
BRANCH  26  27
ATOM     27  C   UNL A   1      39.884  20.513  25.807  1.00  0.00     0.338 C 
ATOM     28  O   UNL A   1      39.692  19.320  26.058  1.00  0.00    -0.246 OA
BRANCH  27  29
ATOM     29  C   UNL A   1      41.057  21.301  26.387  1.00  0.00     0.060 A 
ATOM     30  C   UNL A   1      41.177  21.363  27.757  1.00  0.00     0.016 A 
ATOM     31  C   UNL A   1      41.896  22.179  25.705  1.00  0.00     0.016 A 
ATOM     32  C   UNL A   1      41.791  22.480  28.377  1.00  0.00     0.010 A 
ATOM     33  C   UNL A   1      42.403  23.358  26.345  1.00  0.00     0.010 A 
ATOM     34  C   UNL A   1      42.192  23.603  27.704  1.00  0.00    -0.014 A 
BRANCH  34  35
ATOM     35  C   UNL A   1      42.398  24.909  28.442  1.00  0.00     0.031 A 
ATOM     36  C   UNL A   1      41.279  25.901  28.351  1.00  0.00     0.074 A 
ATOM     37  C   UNL A   1      43.532  25.514  28.953  1.00  0.00     0.049 A 
ATOM     38  N   UNL A   1      41.435  27.192  28.334  1.00  0.00    -0.248 NA
ATOM     39  C   UNL A   1      39.896  25.486  28.155  1.00  0.00     0.031 C 
ATOM     40  C   UNL A   1      43.518  26.499  30.049  1.00  0.00     0.029 A 
ATOM     41  N   UNL A   1      44.903  25.489  28.621  1.00  0.00    -0.354 N 
ATOM     42  C   UNL A   1      40.189  27.744  28.488  1.00  0.00     0.074 A 
ATOM     43  C   UNL A   1      39.266  26.661  28.217  1.00  0.00     0.031 C 
ATOM     44  C   UNL A   1      44.740  27.025  30.237  1.00  0.00     0.029 A 
ATOM     45  C   UNL A   1      45.667  26.487  29.254  1.00  0.00     0.049 A 
ATOM     46  H   UNL A   1      45.292  24.830  28.001  1.00  0.00     0.167 HD
ATOM     47  C   UNL A   1      40.027  28.982  29.042  1.00  0.00     0.037 A 
ATOM     48  C   UNL A   1      46.831  27.073  28.817  1.00  0.00     0.037 A 
ATOM     49  C   UNL A   1      41.282  29.617  29.421  1.00  0.00     0.049 A 
ATOM     50  C   UNL A   1      46.646  28.560  28.656  1.00  0.00     0.074 A 
ATOM     51  C   UNL A   1      41.941  29.674  30.640  1.00  0.00     0.029 A 
ATOM     52  N   UNL A   1      42.172  30.117  28.475  1.00  0.00    -0.354 N 
ATOM     53  N   UNL A   1      45.468  29.101  28.697  1.00  0.00    -0.248 NA
ATOM     54  C   UNL A   1      47.689  29.529  28.317  1.00  0.00     0.031 C 
ATOM     55  C   UNL A   1      43.192  30.283  30.449  1.00  0.00     0.029 A 
ATOM     56  C   UNL A   1      43.323  30.566  29.102  1.00  0.00     0.049 A 
ATOM     57  H   UNL A   1      42.008  30.148  27.504  1.00  0.00     0.167 HD
ATOM     58  C   UNL A   1      45.559  30.428  28.393  1.00  0.00     0.074 A 
ATOM     59  C   UNL A   1      46.967  30.651  28.141  1.00  0.00     0.031 C 
ATOM     60  C   UNL A   1      44.429  31.190  28.391  1.00  0.00     0.037 A 
BRANCH  47  61
ATOM     61  C   UNL A   1      38.685  29.361  29.636  1.00  0.00     0.064 A 
ATOM     62  C   UNL A   1      37.759  30.159  28.933  1.00  0.00     0.173 A 
ATOM     63  C   UNL A   1      38.331  29.067  30.963  1.00  0.00     0.173 A 
ATOM     64  F   UNL A   1      37.870  30.385  27.619  1.00  0.00    -0.203 F 
ATOM     65  C   UNL A   1      36.678  30.776  29.563  1.00  0.00     0.198 A 
ATOM     66  C   UNL A   1      37.283  29.727  31.611  1.00  0.00     0.198 A 
ATOM     67  F   UNL A   1      39.012  28.148  31.664  1.00  0.00    -0.203 F 
ATOM     68  F   UNL A   1      35.860  31.565  28.854  1.00  0.00    -0.200 F 
ATOM     69  C   UNL A   1      36.473  30.604  30.915  1.00  0.00     0.200 A 
ATOM     70  F   UNL A   1      37.085  29.533  32.922  1.00  0.00    -0.200 F 
ATOM     71  F   UNL A   1      35.490  31.266  31.540  1.00  0.00    -0.200 F 
ENDBRANCH  47  61
BRANCH  48  72
ATOM     72  C   UNL A   1      47.853  26.307  28.033  1.00  0.00     0.064 A 
ATOM     73  C   UNL A   1      47.743  26.259  26.631  1.00  0.00     0.173 A 
ATOM     74  C   UNL A   1      49.036  25.782  28.584  1.00  0.00     0.173 A 
ATOM     75  F   UNL A   1      46.615  26.668  26.029  1.00  0.00    -0.203 F 
ATOM     76  C   UNL A   1      48.832  25.917  25.820  1.00  0.00     0.198 A 
ATOM     77  C   UNL A   1      50.133  25.459  27.772  1.00  0.00     0.198 A 
ATOM     78  F   UNL A   1      49.214  25.743  29.913  1.00  0.00    -0.203 F 
ATOM     79  F   UNL A   1      48.743  26.063  24.490  1.00  0.00    -0.200 F 
ATOM     80  C   UNL A   1      50.045  25.580  26.395  1.00  0.00     0.200 A 
ATOM     81  F   UNL A   1      51.316  25.169  28.335  1.00  0.00    -0.200 F 
ATOM     82  F   UNL A   1      51.140  25.450  25.631  1.00  0.00    -0.200 F 
ENDBRANCH  48  72
BRANCH  60  83
ATOM     83  C   UNL A   1      44.313  32.616  27.938  1.00  0.00     0.064 A 
ATOM     84  C   UNL A   1      44.002  33.004  26.625  1.00  0.00     0.173 A 
ATOM     85  C   UNL A   1      44.413  33.667  28.881  1.00  0.00     0.173 A 
ATOM     86  F   UNL A   1      43.775  32.096  25.666  1.00  0.00    -0.203 F 
ATOM     87  C   UNL A   1      43.865  34.349  26.270  1.00  0.00     0.198 A 
ATOM     88  C   UNL A   1      44.228  35.001  28.533  1.00  0.00     0.198 A 
ATOM     89  F   UNL A   1      44.675  33.427  30.174  1.00  0.00    -0.203 F 
ATOM     90  F   UNL A   1      43.609  34.675  24.994  1.00  0.00    -0.200 F 
ATOM     91  C   UNL A   1      43.970  35.345  27.223  1.00  0.00     0.200 A 
ATOM     92  F   UNL A   1      44.289  35.949  29.480  1.00  0.00    -0.200 F 
ATOM     93  F   UNL A   1      43.805  36.630  26.884  1.00  0.00    -0.200 F 
ENDBRANCH  60  83
ENDBRANCH  34  35
ENDBRANCH  27  29
ENDBRANCH  26  27
ENDBRANCH  25  26
ENDBRANCH  24  25
ENDBRANCH  23  24
ENDBRANCH  22  23
ENDBRANCH   1  22
TORSDOF 19
ENDMDL
MODEL 2
REMARK VINA RESULT:     -10.6      5.031     10.372
REMARK SMILES Cc1ccccc1C(=O)N1CSC[C@H]1C(=O)OCCOCCOCCOC(=O)c1ccc(-c2c3nc(c(-c4c(F)c(F)c(F)c(F)c4F)c4ccc([nH]4)c(-c4c(F)c(F)c(F)c(F)c4F)c4nc(c(-c5c(F)c(F)c(F)c(F)c5F)c5ccc2[nH]5)C=C4)C=C3)cc1
REMARK SMILES IDX 21 1 20 2 19 3 18 4 17 5 15 6 16 7 14 8 10 9 11 10 12 11
REMARK SMILES IDX 13 12 8 13 9 14 7 15 1 16 2 17 3 18 4 19 6 20 5 21 22 22
REMARK SMILES IDX 23 23 24 24 25 25 26 26 27 27 28 28 29 29 30 30 91 31 31 32
REMARK SMILES IDX 90 33 32 34 33 35 34 36 84 37 35 38 89 39 83 40 85 41 36 42
REMARK SMILES IDX 88 43 82 44 81 45 37 47 69 48 49 49 68 50 50 51 53 52 67 53
REMARK SMILES IDX 86 54 51 55 52 56 66 58 87 59 54 60 38 61 39 62 47 63 40 64
REMARK SMILES IDX 41 65 45 66 48 67 42 68 43 69 46 70 44 71 70 72 71 73 79 74
REMARK SMILES IDX 72 75 73 76 77 77 80 78 74 79 75 80 78 81 76 82 55 83 56 84
REMARK SMILES IDX 64 85 57 86 58 87 62 88 65 89 59 90 60 91 63 92 61 93
REMARK H PARENT 85 46 53 57
REMARK Flexibility Score: inf
ROOT
ATOM      1  C   UNL A   1      33.232  32.921  27.626  1.00  0.00     0.188 C 
ENDROOT
BRANCH   1   2
ATOM      2  O   UNL A   1      34.119  32.002  28.297  1.00  0.00    -0.376 OA
BRANCH   2   3
ATOM      3  C   UNL A   1      34.551  30.859  27.563  1.00  0.00     0.202 C 
BRANCH   3   4
ATOM      4  C   UNL A   1      33.465  29.783  27.359  1.00  0.00     0.261 C 
BRANCH   4   5
ATOM      5  O   UNL A   1      33.531  28.306  27.207  1.00  0.00    -0.462 OA
BRANCH   5   6
ATOM      6  C   UNL A   1      32.285  27.778  26.874  1.00  0.00     0.329 C 
ATOM      7  O   UNL A   1      31.413  27.820  27.718  1.00  0.00    -0.250 OA
BRANCH   6   8
ATOM      8  C   UNL A   1      31.913  27.045  25.472  1.00  0.00     0.206 C 
ATOM      9  N   UNL A   1      31.053  25.808  25.284  1.00  0.00    -0.315 N 
ATOM     10  C   UNL A   1      29.718  26.038  24.736  1.00  0.00     0.191 C 
ATOM     11  S   UNL A   1      29.917  27.418  23.619  1.00  0.00    -0.138 SA
ATOM     12  C   UNL A   1      31.087  28.184  24.744  1.00  0.00     0.108 C 
BRANCH   9  13
ATOM     13  C   UNL A   1      31.345  24.462  25.374  1.00  0.00     0.255 C 
ATOM     14  O   UNL A   1      30.518  23.657  25.810  1.00  0.00    -0.269 OA
BRANCH  13  15
ATOM     15  C   UNL A   1      32.504  23.881  24.683  1.00  0.00     0.042 A 
ATOM     16  C   UNL A   1      33.527  23.353  26.971  1.00  0.00     0.045 C 
ATOM     17  C   UNL A   1      33.615  23.497  25.475  1.00  0.00    -0.038 A 
ATOM     18  C   UNL A   1      34.866  23.362  24.859  1.00  0.00     0.004 A 
ATOM     19  C   UNL A   1      35.008  23.592  23.492  1.00  0.00     0.000 A 
ATOM     20  C   UNL A   1      32.645  24.092  23.311  1.00  0.00     0.014 A 
ATOM     21  C   UNL A   1      33.899  23.939  22.718  1.00  0.00     0.001 A 
ENDBRANCH  13  15
ENDBRANCH   9  13
ENDBRANCH   6   8
ENDBRANCH   5   6
ENDBRANCH   4   5
ENDBRANCH   3   4
ENDBRANCH   2   3
ENDBRANCH   1   2
BRANCH   1  22
ATOM     22  C   UNL A   1      33.473  34.368  28.111  1.00  0.00     0.188 C 
BRANCH  22  23
ATOM     23  O   UNL A   1      32.512  34.904  29.008  1.00  0.00    -0.376 OA
BRANCH  23  24
ATOM     24  C   UNL A   1      32.854  36.157  29.602  1.00  0.00     0.202 C 
BRANCH  24  25
ATOM     25  C   UNL A   1      32.582  36.420  31.128  1.00  0.00     0.261 C 
BRANCH  25  26
ATOM     26  O   UNL A   1      33.780  36.749  31.896  1.00  0.00    -0.460 OA
BRANCH  26  27
ATOM     27  C   UNL A   1      34.271  35.850  32.796  1.00  0.00     0.338 C 
ATOM     28  O   UNL A   1      34.415  36.084  34.000  1.00  0.00    -0.246 OA
BRANCH  27  29
ATOM     29  C   UNL A   1      34.879  34.627  32.113  1.00  0.00     0.060 A 
ATOM     30  C   UNL A   1      35.177  33.534  32.896  1.00  0.00     0.016 A 
ATOM     31  C   UNL A   1      35.404  34.560  30.825  1.00  0.00     0.016 A 
ATOM     32  C   UNL A   1      36.229  32.655  32.538  1.00  0.00     0.010 A 
ATOM     33  C   UNL A   1      36.543  33.737  30.536  1.00  0.00     0.010 A 
ATOM     34  C   UNL A   1      37.086  32.875  31.492  1.00  0.00    -0.014 A 
BRANCH  34  35
ATOM     35  C   UNL A   1      38.431  32.184  31.443  1.00  0.00     0.031 A 
ATOM     36  C   UNL A   1      38.468  30.860  30.742  1.00  0.00     0.074 A 
ATOM     37  C   UNL A   1      39.596  32.373  32.165  1.00  0.00     0.049 A 
ATOM     38  N   UNL A   1      39.236  29.867  31.078  1.00  0.00    -0.248 NA
ATOM     39  C   UNL A   1      37.537  30.531  29.669  1.00  0.00     0.031 C 
ATOM     40  C   UNL A   1      40.935  31.989  31.684  1.00  0.00     0.029 A 
ATOM     41  N   UNL A   1      39.893  32.851  33.458  1.00  0.00    -0.354 N 
ATOM     42  C   UNL A   1      39.154  28.943  30.067  1.00  0.00     0.074 A 
ATOM     43  C   UNL A   1      37.983  29.327  29.306  1.00  0.00     0.031 C 
ATOM     44  C   UNL A   1      41.857  32.156  32.648  1.00  0.00     0.029 A 
ATOM     45  C   UNL A   1      41.216  32.609  33.872  1.00  0.00     0.049 A 
ATOM     46  H   UNL A   1      39.233  33.315  34.022  1.00  0.00     0.167 HD
ATOM     47  C   UNL A   1      40.180  28.078  29.814  1.00  0.00     0.037 A 
ATOM     48  C   UNL A   1      41.694  32.460  35.152  1.00  0.00     0.037 A 
ATOM     49  C   UNL A   1      41.315  28.244  30.713  1.00  0.00     0.049 A 
ATOM     50  C   UNL A   1      42.330  31.104  35.324  1.00  0.00     0.074 A 
ATOM     51  C   UNL A   1      42.498  28.952  30.563  1.00  0.00     0.029 A 
ATOM     52  N   UNL A   1      41.264  27.849  32.047  1.00  0.00    -0.354 N 
ATOM     53  N   UNL A   1      42.186  30.174  34.431  1.00  0.00    -0.248 NA
ATOM     54  C   UNL A   1      43.043  30.627  36.510  1.00  0.00     0.031 C 
ATOM     55  C   UNL A   1      43.201  28.916  31.779  1.00  0.00     0.029 A 
ATOM     56  C   UNL A   1      42.432  28.218  32.692  1.00  0.00     0.049 A 
ATOM     57  H   UNL A   1      40.509  27.377  32.468  1.00  0.00     0.167 HD
ATOM     58  C   UNL A   1      42.741  29.012  34.881  1.00  0.00     0.074 A 
ATOM     59  C   UNL A   1      43.248  29.334  36.199  1.00  0.00     0.031 C 
ATOM     60  C   UNL A   1      42.708  27.905  34.087  1.00  0.00     0.037 A 
BRANCH  47  61
ATOM     61  C   UNL A   1      40.284  27.425  28.450  1.00  0.00     0.064 A 
ATOM     62  C   UNL A   1      39.899  26.085  28.235  1.00  0.00     0.173 A 
ATOM     63  C   UNL A   1      40.890  28.053  27.350  1.00  0.00     0.173 A 
ATOM     64  F   UNL A   1      39.163  25.407  29.123  1.00  0.00    -0.203 F 
ATOM     65  C   UNL A   1      40.272  25.377  27.093  1.00  0.00     0.198 A 
ATOM     66  C   UNL A   1      41.315  27.333  26.230  1.00  0.00     0.198 A 
ATOM     67  F   UNL A   1      41.103  29.379  27.352  1.00  0.00    -0.203 F 
ATOM     68  F   UNL A   1      39.922  24.090  26.967  1.00  0.00    -0.200 F 
ATOM     69  C   UNL A   1      41.029  25.986  26.116  1.00  0.00     0.200 A 
ATOM     70  F   UNL A   1      42.033  27.946  25.278  1.00  0.00    -0.200 F 
ATOM     71  F   UNL A   1      41.465  25.284  25.061  1.00  0.00    -0.200 F 
ENDBRANCH  47  61
BRANCH  48  72
ATOM     72  C   UNL A   1      41.109  33.217  36.306  1.00  0.00     0.064 A 
ATOM     73  C   UNL A   1      41.603  34.502  36.600  1.00  0.00     0.173 A 
ATOM     74  C   UNL A   1      39.961  32.813  37.011  1.00  0.00     0.173 A 
ATOM     75  F   UNL A   1      42.738  34.934  36.030  1.00  0.00    -0.203 F 
ATOM     76  C   UNL A   1      40.873  35.408  37.378  1.00  0.00     0.198 A 
ATOM     77  C   UNL A   1      39.220  33.728  37.773  1.00  0.00     0.198 A 
ATOM     78  F   UNL A   1      39.442  31.590  36.832  1.00  0.00    -0.203 F 
ATOM     79  F   UNL A   1      41.286  36.680  37.481  1.00  0.00    -0.200 F 
ATOM     80  C   UNL A   1      39.650  35.038  37.910  1.00  0.00     0.200 A 
ATOM     81  F   UNL A   1      38.018  33.375  38.255  1.00  0.00    -0.200 F 
ATOM     82  F   UNL A   1      38.856  35.957  38.480  1.00  0.00    -0.200 F 
ENDBRANCH  48  72
BRANCH  60  83
ATOM     83  C   UNL A   1      43.126  26.516  34.469  1.00  0.00     0.064 A 
ATOM     84  C   UNL A   1      44.450  26.052  34.429  1.00  0.00     0.173 A 
ATOM     85  C   UNL A   1      42.176  25.616  35.009  1.00  0.00     0.173 A 
ATOM     86  F   UNL A   1      45.456  26.848  34.042  1.00  0.00    -0.203 F 
ATOM     87  C   UNL A   1      44.788  24.758  34.839  1.00  0.00     0.198 A 
ATOM     88  C   UNL A   1      42.524  24.347  35.460  1.00  0.00     0.198 A 
ATOM     89  F   UNL A   1      40.883  25.950  35.130  1.00  0.00    -0.203 F 
ATOM     90  F   UNL A   1      46.059  24.343  34.743  1.00  0.00    -0.200 F 
ATOM     91  C   UNL A   1      43.827  23.911  35.360  1.00  0.00     0.200 A 
ATOM     92  F   UNL A   1      41.587  23.556  36.004  1.00  0.00    -0.200 F 
ATOM     93  F   UNL A   1      44.161  22.684  35.782  1.00  0.00    -0.200 F 
ENDBRANCH  60  83
ENDBRANCH  34  35
ENDBRANCH  27  29
ENDBRANCH  26  27
ENDBRANCH  25  26
ENDBRANCH  24  25
ENDBRANCH  23  24
ENDBRANCH  22  23
ENDBRANCH   1  22
TORSDOF 19
ENDMDL
MODEL 3
REMARK VINA RESULT:     -10.4      2.593      4.512
REMARK SMILES Cc1ccccc1C(=O)N1CSC[C@H]1C(=O)OCCOCCOCCOC(=O)c1ccc(-c2c3nc(c(-c4c(F)c(F)c(F)c(F)c4F)c4ccc([nH]4)c(-c4c(F)c(F)c(F)c(F)c4F)c4nc(c(-c5c(F)c(F)c(F)c(F)c5F)c5ccc2[nH]5)C=C4)C=C3)cc1
REMARK SMILES IDX 21 1 20 2 19 3 18 4 17 5 15 6 16 7 14 8 10 9 11 10 12 11
REMARK SMILES IDX 13 12 8 13 9 14 7 15 1 16 2 17 3 18 4 19 6 20 5 21 22 22
REMARK SMILES IDX 23 23 24 24 25 25 26 26 27 27 28 28 29 29 30 30 91 31 31 32
REMARK SMILES IDX 90 33 32 34 33 35 34 36 84 37 35 38 89 39 83 40 85 41 36 42
REMARK SMILES IDX 88 43 82 44 81 45 37 47 69 48 49 49 68 50 50 51 53 52 67 53
REMARK SMILES IDX 86 54 51 55 52 56 66 58 87 59 54 60 38 61 39 62 47 63 40 64
REMARK SMILES IDX 41 65 45 66 48 67 42 68 43 69 46 70 44 71 70 72 71 73 79 74
REMARK SMILES IDX 72 75 73 76 77 77 80 78 74 79 75 80 78 81 76 82 55 83 56 84
REMARK SMILES IDX 64 85 57 86 58 87 62 88 65 89 59 90 60 91 63 92 61 93
REMARK H PARENT 85 46 53 57
REMARK Flexibility Score: inf
ROOT
ATOM      1  C   UNL A   1      35.663  22.814  26.082  1.00  0.00     0.188 C 
ENDROOT
BRANCH   1   2
ATOM      2  O   UNL A   1      34.642  22.997  25.079  1.00  0.00    -0.376 OA
BRANCH   2   3
ATOM      3  C   UNL A   1      33.303  23.173  25.536  1.00  0.00     0.202 C 
BRANCH   3   4
ATOM      4  C   UNL A   1      33.020  24.552  26.166  1.00  0.00     0.261 C 
BRANCH   4   5
ATOM      5  O   UNL A   1      31.835  25.110  26.870  1.00  0.00    -0.462 OA
BRANCH   5   6
ATOM      6  C   UNL A   1      31.722  26.481  26.655  1.00  0.00     0.329 C 
ATOM      7  O   UNL A   1      30.649  27.000  26.885  1.00  0.00    -0.250 OA
BRANCH   6   8
ATOM      8  C   UNL A   1      32.885  27.443  26.052  1.00  0.00     0.206 C 
ATOM      9  N   UNL A   1      32.734  28.500  24.973  1.00  0.00    -0.315 N 
ATOM     10  C   UNL A   1      32.767  29.887  25.431  1.00  0.00     0.191 C 
ATOM     11  S   UNL A   1      33.900  29.883  26.812  1.00  0.00    -0.138 SA
ATOM     12  C   UNL A   1      33.283  28.281  27.337  1.00  0.00     0.108 C 
BRANCH   9  13
ATOM     13  C   UNL A   1      32.737  28.415  23.595  1.00  0.00     0.255 C 
ATOM     14  O   UNL A   1      33.198  29.324  22.900  1.00  0.00    -0.269 OA
BRANCH  13  15
ATOM     15  C   UNL A   1      32.489  27.143  22.904  1.00  0.00     0.042 A 
ATOM     16  C   UNL A   1      30.009  27.370  23.503  1.00  0.00     0.045 C 
ATOM     17  C   UNL A   1      31.192  26.580  23.011  1.00  0.00    -0.038 A 
ATOM     18  C   UNL A   1      31.030  25.211  22.764  1.00  0.00     0.004 A 
ATOM     19  C   UNL A   1      32.124  24.424  22.409  1.00  0.00     0.000 A 
ATOM     20  C   UNL A   1      33.579  26.356  22.530  1.00  0.00     0.014 A 
ATOM     21  C   UNL A   1      33.390  24.996  22.277  1.00  0.00     0.001 A 
ENDBRANCH  13  15
ENDBRANCH   9  13
ENDBRANCH   6   8
ENDBRANCH   5   6
ENDBRANCH   4   5
ENDBRANCH   3   4
ENDBRANCH   2   3
ENDBRANCH   1   2
BRANCH   1  22
ATOM     22  C   UNL A   1      37.057  23.167  25.516  1.00  0.00     0.188 C 
BRANCH  22  23
ATOM     23  O   UNL A   1      37.733  22.139  24.808  1.00  0.00    -0.376 OA
BRANCH  23  24
ATOM     24  C   UNL A   1      38.480  21.225  25.612  1.00  0.00     0.202 C 
BRANCH  24  25
ATOM     25  C   UNL A   1      39.923  21.597  26.115  1.00  0.00     0.261 C 
BRANCH  25  26
ATOM     26  O   UNL A   1      39.948  22.672  27.103  1.00  0.00    -0.460 OA
BRANCH  26  27
ATOM     27  C   UNL A   1      40.726  23.770  26.885  1.00  0.00     0.338 C 
ATOM     28  O   UNL A   1      41.923  23.721  26.585  1.00  0.00    -0.246 OA
BRANCH  27  29
ATOM     29  C   UNL A   1      40.034  25.061  27.317  1.00  0.00     0.060 A 
ATOM     30  C   UNL A   1      40.380  26.225  26.669  1.00  0.00     0.016 A 
ATOM     31  C   UNL A   1      39.265  25.258  28.461  1.00  0.00     0.016 A 
ATOM     32  C   UNL A   1      40.293  27.474  27.333  1.00  0.00     0.010 A 
ATOM     33  C   UNL A   1      39.297  26.508  29.164  1.00  0.00     0.010 A 
ATOM     34  C   UNL A   1      39.987  27.614  28.661  1.00  0.00    -0.014 A 
BRANCH  34  35
ATOM     35  C   UNL A   1      40.358  28.878  29.406  1.00  0.00     0.031 A 
ATOM     36  C   UNL A   1      39.315  29.952  29.442  1.00  0.00     0.074 A 
ATOM     37  C   UNL A   1      41.577  29.382  29.824  1.00  0.00     0.049 A 
ATOM     38  N   UNL A   1      39.567  31.228  29.440  1.00  0.00    -0.248 NA
ATOM     39  C   UNL A   1      37.892  29.647  29.365  1.00  0.00     0.031 C 
ATOM     40  C   UNL A   1      41.737  30.333  30.939  1.00  0.00     0.029 A 
ATOM     41  N   UNL A   1      42.906  29.266  29.367  1.00  0.00    -0.354 N 
ATOM     42  C   UNL A   1      38.386  31.866  29.720  1.00  0.00     0.074 A 
ATOM     43  C   UNL A   1      37.362  30.863  29.511  1.00  0.00     0.031 C 
ATOM     44  C   UNL A   1      43.008  30.761  31.025  1.00  0.00     0.029 A 
ATOM     45  C   UNL A   1      43.798  30.185  29.949  1.00  0.00     0.049 A 
ATOM     46  H   UNL A   1      43.186  28.599  28.699  1.00  0.00     0.167 HD
ATOM     47  C   UNL A   1      38.369  33.096  30.315  1.00  0.00     0.037 A 
ATOM     48  C   UNL A   1      44.960  30.696  29.420  1.00  0.00     0.037 A 
ATOM     49  C   UNL A   1      39.699  33.624  30.591  1.00  0.00     0.049 A 
ATOM     50  C   UNL A   1      44.875  32.197  29.311  1.00  0.00     0.074 A 
ATOM     51  C   UNL A   1      40.467  33.596  31.746  1.00  0.00     0.029 A 
ATOM     52  N   UNL A   1      40.535  34.085  29.579  1.00  0.00    -0.354 N 
ATOM     53  N   UNL A   1      43.750  32.823  29.472  1.00  0.00    -0.248 NA
ATOM     54  C   UNL A   1      45.954  33.096  28.899  1.00  0.00     0.031 C 
ATOM     55  C   UNL A   1      41.739  34.116  31.454  1.00  0.00     0.029 A 
ATOM     56  C   UNL A   1      41.768  34.429  30.107  1.00  0.00     0.049 A 
ATOM     57  H   UNL A   1      40.287  34.157  28.629  1.00  0.00     0.167 HD
ATOM     58  C   UNL A   1      43.914  34.147  29.193  1.00  0.00     0.074 A 
ATOM     59  C   UNL A   1      45.307  34.273  28.816  1.00  0.00     0.031 C 
ATOM     60  C   UNL A   1      42.850  34.991  29.312  1.00  0.00     0.037 A 
BRANCH  47  61
ATOM     61  C   UNL A   1      37.120  33.555  31.040  1.00  0.00     0.064 A 
ATOM     62  C   UNL A   1      36.961  33.382  32.430  1.00  0.00     0.173 A 
ATOM     63  C   UNL A   1      35.991  34.052  30.369  1.00  0.00     0.173 A 
ATOM     64  F   UNL A   1      37.989  33.079  33.231  1.00  0.00    -0.203 F 
ATOM     65  C   UNL A   1      35.721  33.502  33.058  1.00  0.00     0.198 A 
ATOM     66  C   UNL A   1      34.737  34.118  30.983  1.00  0.00     0.198 A 
ATOM     67  F   UNL A   1      36.080  34.463  29.094  1.00  0.00    -0.203 F 
ATOM     68  F   UNL A   1      35.621  33.275  34.375  1.00  0.00    -0.200 F 
ATOM     69  C   UNL A   1      34.598  33.815  32.323  1.00  0.00     0.200 A 
ATOM     70  F   UNL A   1      33.658  34.444  30.258  1.00  0.00    -0.200 F 
ATOM     71  F   UNL A   1      33.393  33.842  32.908  1.00  0.00    -0.200 F 
ENDBRANCH  47  61
BRANCH  48  72
ATOM     72  C   UNL A   1      45.845  29.881  28.528  1.00  0.00     0.064 A 
ATOM     73  C   UNL A   1      46.814  29.042  29.109  1.00  0.00     0.173 A 
ATOM     74  C   UNL A   1      45.655  29.747  27.141  1.00  0.00     0.173 A 
ATOM     75  F   UNL A   1      47.113  29.159  30.411  1.00  0.00    -0.203 F 
ATOM     76  C   UNL A   1      47.393  27.986  28.395  1.00  0.00     0.198 A 
ATOM     77  C   UNL A   1      46.220  28.676  26.432  1.00  0.00     0.198 A 
ATOM     78  F   UNL A   1      44.785  30.533  26.489  1.00  0.00    -0.203 F 
ATOM     79  F   UNL A   1      48.169  27.097  29.034  1.00  0.00    -0.200 F 
ATOM     80  C   UNL A   1      47.044  27.767  27.074  1.00  0.00     0.200 A 
ATOM     81  F   UNL A   1      45.848  28.448  25.162  1.00  0.00    -0.200 F 
ATOM     82  F   UNL A   1      47.435  26.646  26.449  1.00  0.00    -0.200 F 
ENDBRANCH  48  72
BRANCH  60  83
ATOM     83  C   UNL A   1      42.803  36.435  28.904  1.00  0.00     0.064 A 
ATOM     84  C   UNL A   1      42.086  36.919  27.799  1.00  0.00     0.173 A 
ATOM     85  C   UNL A   1      43.420  37.417  29.715  1.00  0.00     0.173 A 
ATOM     86  F   UNL A   1      41.370  36.097  27.019  1.00  0.00    -0.203 F 
ATOM     87  C   UNL A   1      42.043  38.282  27.492  1.00  0.00     0.198 A 
ATOM     88  C   UNL A   1      43.335  38.777  29.432  1.00  0.00     0.198 A 
ATOM     89  F   UNL A   1      44.109  37.087  30.817  1.00  0.00    -0.203 F 
ATOM     90  F   UNL A   1      41.381  38.695  26.401  1.00  0.00    -0.200 F 
ATOM     91  C   UNL A   1      42.660  39.209  28.311  1.00  0.00     0.200 A 
ATOM     92  F   UNL A   1      43.901  39.664  30.263  1.00  0.00    -0.200 F 
ATOM     93  F   UNL A   1      42.589  40.517  28.031  1.00  0.00    -0.200 F 
ENDBRANCH  60  83
ENDBRANCH  34  35
ENDBRANCH  27  29
ENDBRANCH  26  27
ENDBRANCH  25  26
ENDBRANCH  24  25
ENDBRANCH  23  24
ENDBRANCH  22  23
ENDBRANCH   1  22
TORSDOF 19
ENDMDL
