MODEL 1
REMARK VINA RESULT:      -9.6      0.000      0.000
REMARK SMILES COCc1cccc(O[C@@H](C)c2ccc(C(=O)OCCOCCOCCOC(=O)c3ccc(-c4c5nc(c(-c6c(F)c(F)c(F)c(F)c6F)c6ccc([nH]6)c(-c6c(F)c(F)c(F)c(F)c6F)c6nc(c(-c7c(F)c(F)c(F)c(F)c7F)c7ccc4[nH]7)C=C6)C=C5)cc3)o2)c1
REMARK SMILES IDX 21 1 20 2 19 3 18 4 16 5 17 6 15 7 12 8 13 9 93 10 14 11
REMARK SMILES IDX 10 12 11 13 9 14 8 15 4 16 5 17 94 18 6 19 7 20 3 21 2 22
REMARK SMILES IDX 1 23 22 24 23 25 24 26 25 27 26 28 27 29 28 30 29 31 30 32
REMARK SMILES IDX 31 33 92 34 32 35 91 36 33 37 34 38 35 39 85 40 36 41 90 42
REMARK SMILES IDX 84 43 86 44 37 45 89 46 83 47 82 48 38 50 70 51 50 52 69 53
REMARK SMILES IDX 51 54 54 55 68 56 87 57 52 58 53 59 67 61 88 62 55 63 39 64
REMARK SMILES IDX 40 65 48 66 41 67 42 68 46 69 49 70 43 71 44 72 47 73 45 74
REMARK SMILES IDX 71 75 72 76 80 77 73 78 74 79 78 80 81 81 75 82 76 83 79 84
REMARK SMILES IDX 77 85 56 86 57 87 65 88 58 89 59 90 63 91 66 92 60 93 61 94
REMARK SMILES IDX 64 95 62 96
REMARK H PARENT 86 49 54 60
REMARK Flexibility Score: inf
ROOT
ATOM      1  O   UNL A   1      45.057  18.265  25.374  1.00  0.00    -0.376 OA
ENDROOT
BRANCH   1   2
ATOM      2  C   UNL A   1      46.162  19.161  25.442  1.00  0.00     0.202 C 
BRANCH   2   3
ATOM      3  C   UNL A   1      46.151  20.337  24.470  1.00  0.00     0.261 C 
BRANCH   3   4
ATOM      4  O   UNL A   1      45.525  21.479  25.081  1.00  0.00    -0.457 OA
BRANCH   4   5
ATOM      5  C   UNL A   1      44.878  22.314  24.215  1.00  0.00     0.374 C 
ATOM      6  O   UNL A   1      44.423  21.975  23.139  1.00  0.00    -0.242 OA
BRANCH   5   7
ATOM      7  C   UNL A   1      44.679  23.599  24.845  1.00  0.00     0.211 A 
ATOM      8  C   UNL A   1      45.315  25.678  25.268  1.00  0.00     0.145 A 
ATOM      9  C   UNL A   1      44.080  25.510  25.866  1.00  0.00     0.050 A 
ATOM     10  O   UNL A   1      45.657  24.524  24.641  1.00  0.00    -0.450 OA
ATOM     11  C   UNL A   1      43.664  24.180  25.579  1.00  0.00     0.058 A 
BRANCH   8  12
ATOM     12  C   UNL A   1      46.264  26.836  25.164  1.00  0.00     0.236 C 
ATOM     13  C   UNL A   1      45.728  28.150  25.722  1.00  0.00     0.062 C 
BRANCH  12  14
ATOM     14  O   UNL A   1      46.889  26.957  23.873  1.00  0.00    -0.483 OA
BRANCH  14  15
ATOM     15  C   UNL A   1      48.230  27.078  23.663  1.00  0.00     0.120 A 
ATOM     16  C   UNL A   1      50.267  27.521  22.390  1.00  0.00    -0.019 A 
ATOM     17  C   UNL A   1      51.028  27.012  23.448  1.00  0.00     0.006 A 
ATOM     18  C   UNL A   1      48.865  27.561  22.519  1.00  0.00     0.052 A 
ATOM     19  C   UNL A   1      50.409  26.605  24.626  1.00  0.00     0.004 A 
ATOM     20  C   UNL A   1      49.018  26.642  24.730  1.00  0.00     0.046 A 
BRANCH  16  21
ATOM     21  C   UNL A   1      50.896  27.925  21.075  1.00  0.00     0.195 C 
BRANCH  21  22
ATOM     22  O   UNL A   1      50.968  29.334  20.841  1.00  0.00    -0.380 OA
ATOM     23  C   UNL A   1      51.868  29.695  19.805  1.00  0.00     0.195 C 
ENDBRANCH  21  22
ENDBRANCH  16  21
ENDBRANCH  14  15
ENDBRANCH  12  14
ENDBRANCH   8  12
ENDBRANCH   5   7
ENDBRANCH   4   5
ENDBRANCH   3   4
ENDBRANCH   2   3
ENDBRANCH   1   2
BRANCH   1  24
ATOM     24  C   UNL A   1      43.816  18.733  24.874  1.00  0.00     0.188 C 
BRANCH  24  25
ATOM     25  C   UNL A   1      42.752  19.291  25.840  1.00  0.00     0.188 C 
BRANCH  25  26
ATOM     26  O   UNL A   1      41.385  19.359  25.471  1.00  0.00    -0.376 OA
BRANCH  26  27
ATOM     27  C   UNL A   1      40.467  20.075  26.284  1.00  0.00     0.202 C 
BRANCH  27  28
ATOM     28  C   UNL A   1      40.386  21.592  26.132  1.00  0.00     0.261 C 
BRANCH  28  29
ATOM     29  O   UNL A   1      39.244  22.156  26.787  1.00  0.00    -0.460 OA
BRANCH  29  30
ATOM     30  C   UNL A   1      38.784  23.307  26.243  1.00  0.00     0.338 C 
ATOM     31  O   UNL A   1      37.876  23.449  25.445  1.00  0.00    -0.246 OA
BRANCH  30  32
ATOM     32  C   UNL A   1      39.470  24.444  26.872  1.00  0.00     0.060 A 
ATOM     33  C   UNL A   1      39.335  24.622  28.255  1.00  0.00     0.016 A 
ATOM     34  C   UNL A   1      40.167  25.369  26.093  1.00  0.00     0.016 A 
ATOM     35  C   UNL A   1      39.872  25.753  28.862  1.00  0.00     0.010 A 
ATOM     36  C   UNL A   1      40.683  26.514  26.698  1.00  0.00     0.010 A 
ATOM     37  C   UNL A   1      40.510  26.723  28.077  1.00  0.00    -0.014 A 
BRANCH  37  38
ATOM     38  C   UNL A   1      40.863  28.037  28.658  1.00  0.00     0.031 A 
ATOM     39  C   UNL A   1      42.287  28.292  29.049  1.00  0.00     0.074 A 
ATOM     40  C   UNL A   1      39.916  28.962  28.878  1.00  0.00     0.049 A 
ATOM     41  N   UNL A   1      42.806  29.321  29.667  1.00  0.00    -0.248 NA
ATOM     42  C   UNL A   1      43.255  27.235  28.715  1.00  0.00     0.031 C 
ATOM     43  C   UNL A   1      38.503  28.812  28.545  1.00  0.00     0.029 A 
ATOM     44  N   UNL A   1      40.001  30.203  29.457  1.00  0.00    -0.354 N 
ATOM     45  C   UNL A   1      44.152  29.025  29.822  1.00  0.00     0.074 A 
ATOM     46  C   UNL A   1      44.374  27.723  29.230  1.00  0.00     0.031 C 
ATOM     47  C   UNL A   1      37.850  29.920  28.936  1.00  0.00     0.029 A 
ATOM     48  C   UNL A   1      38.796  30.851  29.544  1.00  0.00     0.049 A 
ATOM     49  H   UNL A   1      40.847  30.591  29.778  1.00  0.00     0.167 HD
ATOM     50  C   UNL A   1      45.112  29.768  30.420  1.00  0.00     0.037 A 
ATOM     51  C   UNL A   1      38.494  32.055  30.066  1.00  0.00     0.037 A 
ATOM     52  C   UNL A   1      44.883  31.055  31.019  1.00  0.00     0.049 A 
ATOM     53  C   UNL A   1      39.583  32.865  30.719  1.00  0.00     0.074 A 
ATOM     54  C   UNL A   1      45.789  31.885  31.655  1.00  0.00     0.029 A 
ATOM     55  N   UNL A   1      43.653  31.695  31.059  1.00  0.00    -0.354 N 
ATOM     56  N   UNL A   1      40.858  32.587  30.849  1.00  0.00    -0.248 NA
ATOM     57  C   UNL A   1      39.187  34.148  31.318  1.00  0.00     0.031 C 
ATOM     58  C   UNL A   1      45.099  33.013  32.111  1.00  0.00     0.029 A 
ATOM     59  C   UNL A   1      43.774  32.904  31.723  1.00  0.00     0.049 A 
ATOM     60  H   UNL A   1      42.819  31.342  30.674  1.00  0.00     0.167 HD
ATOM     61  C   UNL A   1      41.415  33.656  31.535  1.00  0.00     0.074 A 
ATOM     62  C   UNL A   1      40.346  34.603  31.775  1.00  0.00     0.031 C 
ATOM     63  C   UNL A   1      42.696  33.834  31.941  1.00  0.00     0.037 A 
BRANCH  50  64
ATOM     64  C   UNL A   1      46.486  29.179  30.494  1.00  0.00     0.064 A 
ATOM     65  C   UNL A   1      46.912  28.440  31.607  1.00  0.00     0.173 A 
ATOM     66  C   UNL A   1      47.387  29.347  29.431  1.00  0.00     0.173 A 
ATOM     67  F   UNL A   1      46.094  28.270  32.657  1.00  0.00    -0.203 F 
ATOM     68  C   UNL A   1      48.197  27.907  31.663  1.00  0.00     0.198 A 
ATOM     69  C   UNL A   1      48.663  28.794  29.480  1.00  0.00     0.198 A 
ATOM     70  F   UNL A   1      47.027  30.049  28.346  1.00  0.00    -0.203 F 
ATOM     71  F   UNL A   1      48.599  27.242  32.755  1.00  0.00    -0.200 F 
ATOM     72  C   UNL A   1      49.069  28.081  30.597  1.00  0.00     0.200 A 
ATOM     73  F   UNL A   1      49.502  28.959  28.448  1.00  0.00    -0.200 F 
ATOM     74  F   UNL A   1      50.306  27.569  30.653  1.00  0.00    -0.200 F 
ENDBRANCH  50  64
BRANCH  51  75
ATOM     75  C   UNL A   1      37.107  32.580  29.980  1.00  0.00     0.064 A 
ATOM     76  C   UNL A   1      36.683  33.286  28.846  1.00  0.00     0.173 A 
ATOM     77  C   UNL A   1      36.182  32.394  31.016  1.00  0.00     0.173 A 
ATOM     78  F   UNL A   1      37.540  33.509  27.839  1.00  0.00    -0.203 F 
ATOM     79  C   UNL A   1      35.390  33.797  28.756  1.00  0.00     0.198 A 
ATOM     80  C   UNL A   1      34.881  32.883  30.915  1.00  0.00     0.198 A 
ATOM     81  F   UNL A   1      36.538  31.724  32.122  1.00  0.00    -0.203 F 
ATOM     82  F   UNL A   1      35.023  34.501  27.677  1.00  0.00    -0.200 F 
ATOM     83  C   UNL A   1      34.488  33.590  29.790  1.00  0.00     0.200 A 
ATOM     84  F   UNL A   1      34.009  32.672  31.911  1.00  0.00    -0.200 F 
ATOM     85  F   UNL A   1      33.244  34.078  29.701  1.00  0.00    -0.200 F 
ENDBRANCH  51  75
BRANCH  63  86
ATOM     86  C   UNL A   1      43.019  35.103  32.671  1.00  0.00     0.064 A 
ATOM     87  C   UNL A   1      43.548  36.215  32.004  1.00  0.00     0.173 A 
ATOM     88  C   UNL A   1      42.727  35.229  34.038  1.00  0.00     0.173 A 
ATOM     89  F   UNL A   1      43.854  36.138  30.700  1.00  0.00    -0.203 F 
ATOM     90  C   UNL A   1      43.785  37.408  32.681  1.00  0.00     0.198 A 
ATOM     91  C   UNL A   1      42.945  36.430  34.707  1.00  0.00     0.198 A 
ATOM     92  F   UNL A   1      42.212  34.193  34.718  1.00  0.00    -0.203 F 
ATOM     93  F   UNL A   1      44.316  38.452  32.030  1.00  0.00    -0.200 F 
ATOM     94  C   UNL A   1      43.475  37.517  34.029  1.00  0.00     0.200 A 
ATOM     95  F   UNL A   1      42.634  36.537  36.006  1.00  0.00    -0.200 F 
ATOM     96  F   UNL A   1      43.691  38.670  34.676  1.00  0.00    -0.200 F 
ENDBRANCH  63  86
ENDBRANCH  37  38
ENDBRANCH  30  32
ENDBRANCH  29  30
ENDBRANCH  28  29
ENDBRANCH  27  28
ENDBRANCH  26  27
ENDBRANCH  25  26
ENDBRANCH  24  25
ENDBRANCH   1  24
TORSDOF 22
ENDMDL
MODEL 2
REMARK VINA RESULT:      -9.3      1.379      2.535
REMARK SMILES COCc1cccc(O[C@@H](C)c2ccc(C(=O)OCCOCCOCCOC(=O)c3ccc(-c4c5nc(c(-c6c(F)c(F)c(F)c(F)c6F)c6ccc([nH]6)c(-c6c(F)c(F)c(F)c(F)c6F)c6nc(c(-c7c(F)c(F)c(F)c(F)c7F)c7ccc4[nH]7)C=C6)C=C5)cc3)o2)c1
REMARK SMILES IDX 21 1 20 2 19 3 18 4 16 5 17 6 15 7 12 8 13 9 93 10 14 11
REMARK SMILES IDX 10 12 11 13 9 14 8 15 4 16 5 17 94 18 6 19 7 20 3 21 2 22
REMARK SMILES IDX 1 23 22 24 23 25 24 26 25 27 26 28 27 29 28 30 29 31 30 32
REMARK SMILES IDX 31 33 92 34 32 35 91 36 33 37 34 38 35 39 85 40 36 41 90 42
REMARK SMILES IDX 84 43 86 44 37 45 89 46 83 47 82 48 38 50 70 51 50 52 69 53
REMARK SMILES IDX 51 54 54 55 68 56 87 57 52 58 53 59 67 61 88 62 55 63 39 64
REMARK SMILES IDX 40 65 48 66 41 67 42 68 46 69 49 70 43 71 44 72 47 73 45 74
REMARK SMILES IDX 71 75 72 76 80 77 73 78 74 79 78 80 81 81 75 82 76 83 79 84
REMARK SMILES IDX 77 85 56 86 57 87 65 88 58 89 59 90 63 91 66 92 60 93 61 94
REMARK SMILES IDX 64 95 62 96
REMARK H PARENT 86 49 54 60
REMARK Flexibility Score: inf
ROOT
ATOM      1  O   UNL A   1      45.172  18.176  25.332  1.00  0.00    -0.376 OA
ENDROOT
BRANCH   1   2
ATOM      2  C   UNL A   1      46.374  18.933  25.442  1.00  0.00     0.202 C 
BRANCH   2   3
ATOM      3  C   UNL A   1      46.509  20.140  24.518  1.00  0.00     0.261 C 
BRANCH   3   4
ATOM      4  O   UNL A   1      46.430  21.358  25.280  1.00  0.00    -0.457 OA
BRANCH   4   5
ATOM      5  C   UNL A   1      45.941  22.434  24.596  1.00  0.00     0.374 C 
ATOM      6  O   UNL A   1      45.106  22.371  23.714  1.00  0.00    -0.242 OA
BRANCH   5   7
ATOM      7  C   UNL A   1      46.443  23.651  25.193  1.00  0.00     0.211 A 
ATOM      8  C   UNL A   1      47.190  25.729  25.039  1.00  0.00     0.145 A 
ATOM      9  C   UNL A   1      47.117  25.432  26.387  1.00  0.00     0.050 A 
ATOM     10  O   UNL A   1      46.765  24.654  24.330  1.00  0.00    -0.450 OA
ATOM     11  C   UNL A   1      46.620  24.103  26.486  1.00  0.00     0.058 A 
BRANCH   8  12
ATOM     12  C   UNL A   1      47.595  26.954  24.271  1.00  0.00     0.236 C 
ATOM     13  C   UNL A   1      46.702  28.170  24.497  1.00  0.00     0.062 C 
BRANCH  12  14
ATOM     14  O   UNL A   1      47.896  26.696  22.887  1.00  0.00    -0.483 OA
BRANCH  14  15
ATOM     15  C   UNL A   1      49.053  27.052  22.262  1.00  0.00     0.120 A 
ATOM     16  C   UNL A   1      51.347  27.875  22.094  1.00  0.00    -0.019 A 
ATOM     17  C   UNL A   1      51.212  27.942  20.703  1.00  0.00     0.006 A 
ATOM     18  C   UNL A   1      50.260  27.413  22.861  1.00  0.00     0.052 A 
ATOM     19  C   UNL A   1      50.041  27.506  20.090  1.00  0.00     0.004 A 
ATOM     20  C   UNL A   1      48.971  27.062  20.868  1.00  0.00     0.046 A 
BRANCH  16  21
ATOM     21  C   UNL A   1      52.582  28.387  22.802  1.00  0.00     0.195 C 
BRANCH  21  22
ATOM     22  O   UNL A   1      53.528  29.059  21.967  1.00  0.00    -0.380 OA
ATOM     23  C   UNL A   1      54.525  29.766  22.689  1.00  0.00     0.195 C 
ENDBRANCH  21  22
ENDBRANCH  16  21
ENDBRANCH  14  15
ENDBRANCH  12  14
ENDBRANCH   8  12
ENDBRANCH   5   7
ENDBRANCH   4   5
ENDBRANCH   3   4
ENDBRANCH   2   3
ENDBRANCH   1   2
BRANCH   1  24
ATOM     24  C   UNL A   1      44.008  18.795  24.812  1.00  0.00     0.188 C 
BRANCH  24  25
ATOM     25  C   UNL A   1      42.923  19.332  25.768  1.00  0.00     0.188 C 
BRANCH  25  26
ATOM     26  O   UNL A   1      41.549  19.274  25.428  1.00  0.00    -0.376 OA
BRANCH  26  27
ATOM     27  C   UNL A   1      40.595  19.978  26.211  1.00  0.00     0.202 C 
BRANCH  27  28
ATOM     28  C   UNL A   1      40.608  21.505  26.178  1.00  0.00     0.261 C 
BRANCH  28  29
ATOM     29  O   UNL A   1      39.571  22.086  26.977  1.00  0.00    -0.460 OA
BRANCH  29  30
ATOM     30  C   UNL A   1      39.024  23.214  26.469  1.00  0.00     0.338 C 
ATOM     31  O   UNL A   1      37.989  23.328  25.837  1.00  0.00    -0.246 OA
BRANCH  30  32
ATOM     32  C   UNL A   1      39.810  24.374  26.913  1.00  0.00     0.060 A 
ATOM     33  C   UNL A   1      40.043  24.534  28.285  1.00  0.00     0.016 A 
ATOM     34  C   UNL A   1      40.238  25.333  25.994  1.00  0.00     0.016 A 
ATOM     35  C   UNL A   1      40.681  25.681  28.749  1.00  0.00     0.010 A 
ATOM     36  C   UNL A   1      40.855  26.492  26.461  1.00  0.00     0.010 A 
ATOM     37  C   UNL A   1      41.049  26.683  27.840  1.00  0.00    -0.014 A 
BRANCH  37  38
ATOM     38  C   UNL A   1      41.495  28.005  28.331  1.00  0.00     0.031 A 
ATOM     39  C   UNL A   1      42.965  28.294  28.385  1.00  0.00     0.074 A 
ATOM     40  C   UNL A   1      40.603  28.908  28.767  1.00  0.00     0.049 A 
ATOM     41  N   UNL A   1      43.588  29.336  28.872  1.00  0.00    -0.248 NA
ATOM     42  C   UNL A   1      43.855  27.260  27.833  1.00  0.00     0.031 C 
ATOM     43  C   UNL A   1      39.155  28.724  28.767  1.00  0.00     0.029 A 
ATOM     44  N   UNL A   1      40.791  30.151  29.316  1.00  0.00    -0.354 N 
ATOM     45  C   UNL A   1      44.940  29.071  28.713  1.00  0.00     0.074 A 
ATOM     46  C   UNL A   1      45.050  27.774  28.079  1.00  0.00     0.031 C 
ATOM     47  C   UNL A   1      38.584  29.817  29.302  1.00  0.00     0.029 A 
ATOM     48  C   UNL A   1      39.623  30.771  29.681  1.00  0.00     0.049 A 
ATOM     49  H   UNL A   1      41.678  30.559  29.437  1.00  0.00     0.167 HD
ATOM     50  C   UNL A   1      45.995  29.837  29.078  1.00  0.00     0.037 A 
ATOM     51  C   UNL A   1      39.422  31.968  30.264  1.00  0.00     0.037 A 
ATOM     52  C   UNL A   1      45.880  31.118  29.720  1.00  0.00     0.049 A 
ATOM     53  C   UNL A   1      40.612  32.803  30.653  1.00  0.00     0.074 A 
ATOM     54  C   UNL A   1      46.888  31.970  30.134  1.00  0.00     0.029 A 
ATOM     55  N   UNL A   1      44.677  31.729  30.045  1.00  0.00    -0.354 N 
ATOM     56  N   UNL A   1      41.888  32.555  30.486  1.00  0.00    -0.248 NA
ATOM     57  C   UNL A   1      40.334  34.077  31.333  1.00  0.00     0.031 C 
ATOM     58  C   UNL A   1      46.296  33.082  30.742  1.00  0.00     0.029 A 
ATOM     59  C   UNL A   1      44.919  32.942  30.668  1.00  0.00     0.049 A 
ATOM     60  H   UNL A   1      43.785  31.356  29.859  1.00  0.00     0.167 HD
ATOM     61  C   UNL A   1      42.564  33.638  31.030  1.00  0.00     0.074 A 
ATOM     62  C   UNL A   1      41.556  34.560  31.514  1.00  0.00     0.031 C 
ATOM     63  C   UNL A   1      43.899  33.846  31.133  1.00  0.00     0.037 A 
BRANCH  50  64
ATOM     64  C   UNL A   1      47.362  29.280  28.832  1.00  0.00     0.064 A 
ATOM     65  C   UNL A   1      48.056  29.531  27.639  1.00  0.00     0.173 A 
ATOM     66  C   UNL A   1      47.993  28.493  29.808  1.00  0.00     0.173 A 
ATOM     67  F   UNL A   1      47.485  30.261  26.668  1.00  0.00    -0.203 F 
ATOM     68  C   UNL A   1      49.323  28.997  27.423  1.00  0.00     0.198 A 
ATOM     69  C   UNL A   1      49.269  27.980  29.598  1.00  0.00     0.198 A 
ATOM     70  F   UNL A   1      47.369  28.222  30.964  1.00  0.00    -0.203 F 
ATOM     71  F   UNL A   1      49.950  29.212  26.258  1.00  0.00    -0.200 F 
ATOM     72  C   UNL A   1      49.930  28.227  28.405  1.00  0.00     0.200 A 
ATOM     73  F   UNL A   1      49.856  27.240  30.549  1.00  0.00    -0.200 F 
ATOM     74  F   UNL A   1      51.150  27.713  28.195  1.00  0.00    -0.200 F 
ENDBRANCH  50  64
BRANCH  51  75
ATOM     75  C   UNL A   1      38.040  32.459  30.502  1.00  0.00     0.064 A 
ATOM     76  C   UNL A   1      37.366  32.141  31.689  1.00  0.00     0.173 A 
ATOM     77  C   UNL A   1      37.364  33.247  29.560  1.00  0.00     0.173 A 
ATOM     78  F   UNL A   1      37.964  31.371  32.610  1.00  0.00    -0.203 F 
ATOM     79  C   UNL A   1      36.065  32.581  31.921  1.00  0.00     0.198 A 
ATOM     80  C   UNL A   1      36.071  33.708  29.803  1.00  0.00     0.198 A 
ATOM     81  F   UNL A   1      37.965  33.579  28.408  1.00  0.00    -0.203 F 
ATOM     82  F   UNL A   1      35.431  32.229  33.048  1.00  0.00    -0.200 F 
ATOM     83  C   UNL A   1      35.421  33.369  30.979  1.00  0.00     0.200 A 
ATOM     84  F   UNL A   1      35.456  34.478  28.895  1.00  0.00    -0.200 F 
ATOM     85  F   UNL A   1      34.171  33.796  31.204  1.00  0.00    -0.200 F 
ENDBRANCH  51  75
BRANCH  63  86
ATOM     86  C   UNL A   1      44.352  35.123  31.775  1.00  0.00     0.064 A 
ATOM     87  C   UNL A   1      44.644  35.187  33.144  1.00  0.00     0.173 A 
ATOM     88  C   UNL A   1      44.564  36.272  30.999  1.00  0.00     0.173 A 
ATOM     89  F   UNL A   1      44.445  34.117  33.928  1.00  0.00    -0.203 F 
ATOM     90  C   UNL A   1      45.124  36.362  33.717  1.00  0.00     0.198 A 
ATOM     91  C   UNL A   1      45.064  37.437  31.571  1.00  0.00     0.198 A 
ATOM     92  F   UNL A   1      44.305  36.255  29.682  1.00  0.00    -0.203 F 
ATOM     93  F   UNL A   1      45.372  36.411  35.033  1.00  0.00    -0.200 F 
ATOM     94  C   UNL A   1      45.341  37.483  32.929  1.00  0.00     0.200 A 
ATOM     95  F   UNL A   1      45.284  38.516  30.806  1.00  0.00    -0.200 F 
ATOM     96  F   UNL A   1      45.815  38.608  33.479  1.00  0.00    -0.200 F 
ENDBRANCH  63  86
ENDBRANCH  37  38
ENDBRANCH  30  32
ENDBRANCH  29  30
ENDBRANCH  28  29
ENDBRANCH  27  28
ENDBRANCH  26  27
ENDBRANCH  25  26
ENDBRANCH  24  25
ENDBRANCH   1  24
TORSDOF 22
ENDMDL
MODEL 3
REMARK VINA RESULT:      -9.1      2.379      3.353
REMARK SMILES COCc1cccc(O[C@@H](C)c2ccc(C(=O)OCCOCCOCCOC(=O)c3ccc(-c4c5nc(c(-c6c(F)c(F)c(F)c(F)c6F)c6ccc([nH]6)c(-c6c(F)c(F)c(F)c(F)c6F)c6nc(c(-c7c(F)c(F)c(F)c(F)c7F)c7ccc4[nH]7)C=C6)C=C5)cc3)o2)c1
REMARK SMILES IDX 21 1 20 2 19 3 18 4 16 5 17 6 15 7 12 8 13 9 93 10 14 11
REMARK SMILES IDX 10 12 11 13 9 14 8 15 4 16 5 17 94 18 6 19 7 20 3 21 2 22
REMARK SMILES IDX 1 23 22 24 23 25 24 26 25 27 26 28 27 29 28 30 29 31 30 32
REMARK SMILES IDX 31 33 92 34 32 35 91 36 33 37 34 38 35 39 85 40 36 41 90 42
REMARK SMILES IDX 84 43 86 44 37 45 89 46 83 47 82 48 38 50 70 51 50 52 69 53
REMARK SMILES IDX 51 54 54 55 68 56 87 57 52 58 53 59 67 61 88 62 55 63 39 64
REMARK SMILES IDX 40 65 48 66 41 67 42 68 46 69 49 70 43 71 44 72 47 73 45 74
REMARK SMILES IDX 71 75 72 76 80 77 73 78 74 79 78 80 81 81 75 82 76 83 79 84
REMARK SMILES IDX 77 85 56 86 57 87 65 88 58 89 59 90 63 91 66 92 60 93 61 94
REMARK SMILES IDX 64 95 62 96
REMARK H PARENT 86 49 54 60
REMARK Flexibility Score: inf
ROOT
ATOM      1  O   UNL A   1      45.362  18.102  25.617  1.00  0.00    -0.376 OA
ENDROOT
BRANCH   1   2
ATOM      2  C   UNL A   1      46.309  19.120  25.306  1.00  0.00     0.202 C 
BRANCH   2   3
ATOM      3  C   UNL A   1      45.776  20.352  24.580  1.00  0.00     0.261 C 
BRANCH   3   4
ATOM      4  O   UNL A   1      46.390  21.541  25.107  1.00  0.00    -0.457 OA
BRANCH   4   5
ATOM      5  C   UNL A   1      45.803  22.712  24.720  1.00  0.00     0.374 C 
ATOM      6  O   UNL A   1      45.445  22.964  23.586  1.00  0.00    -0.242 OA
BRANCH   5   7
ATOM      7  C   UNL A   1      45.531  23.521  25.886  1.00  0.00     0.211 A 
ATOM      8  C   UNL A   1      46.203  24.728  27.617  1.00  0.00     0.145 A 
ATOM      9  C   UNL A   1      44.823  24.803  27.592  1.00  0.00     0.050 A 
ATOM     10  O   UNL A   1      46.619  23.967  26.574  1.00  0.00    -0.450 OA
ATOM     11  C   UNL A   1      44.393  24.042  26.469  1.00  0.00     0.058 A 
BRANCH   8  12
ATOM     12  C   UNL A   1      47.254  25.324  28.508  1.00  0.00     0.236 C 
ATOM     13  C   UNL A   1      46.791  25.615  29.931  1.00  0.00     0.062 C 
BRANCH  12  14
ATOM     14  O   UNL A   1      47.986  26.402  27.896  1.00  0.00    -0.483 OA
BRANCH  14  15
ATOM     15  C   UNL A   1      47.591  27.706  27.886  1.00  0.00     0.120 A 
ATOM     16  C   UNL A   1      46.012  29.567  27.791  1.00  0.00    -0.019 A 
ATOM     17  C   UNL A   1      47.081  30.456  27.640  1.00  0.00     0.006 A 
ATOM     18  C   UNL A   1      46.285  28.192  27.927  1.00  0.00     0.052 A 
ATOM     19  C   UNL A   1      48.392  29.990  27.680  1.00  0.00     0.004 A 
ATOM     20  C   UNL A   1      48.642  28.622  27.805  1.00  0.00     0.046 A 
BRANCH  16  21
ATOM     21  C   UNL A   1      44.573  30.026  27.700  1.00  0.00     0.195 C 
BRANCH  21  22
ATOM     22  O   UNL A   1      44.383  31.443  27.720  1.00  0.00    -0.380 OA
ATOM     23  C   UNL A   1      43.536  31.890  28.767  1.00  0.00     0.195 C 
ENDBRANCH  21  22
ENDBRANCH  16  21
ENDBRANCH  14  15
ENDBRANCH  12  14
ENDBRANCH   8  12
ENDBRANCH   5   7
ENDBRANCH   4   5
ENDBRANCH   3   4
ENDBRANCH   2   3
ENDBRANCH   1   2
BRANCH   1  24
ATOM     24  C   UNL A   1      43.990  18.324  25.341  1.00  0.00     0.188 C 
BRANCH  24  25
ATOM     25  C   UNL A   1      42.978  18.455  26.497  1.00  0.00     0.188 C 
BRANCH  25  26
ATOM     26  O   UNL A   1      41.866  19.329  26.407  1.00  0.00    -0.376 OA
BRANCH  26  27
ATOM     27  C   UNL A   1      41.980  20.671  26.857  1.00  0.00     0.202 C 
BRANCH  27  28
ATOM     28  C   UNL A   1      40.703  21.455  27.148  1.00  0.00     0.261 C 
BRANCH  28  29
ATOM     29  O   UNL A   1      40.849  22.861  26.915  1.00  0.00    -0.460 OA
BRANCH  29  30
ATOM     30  C   UNL A   1      39.698  23.516  26.640  1.00  0.00     0.338 C 
ATOM     31  O   UNL A   1      38.723  23.103  26.038  1.00  0.00    -0.246 OA
BRANCH  30  32
ATOM     32  C   UNL A   1      39.716  24.824  27.311  1.00  0.00     0.060 A 
ATOM     33  C   UNL A   1      40.384  25.884  26.684  1.00  0.00     0.016 A 
ATOM     34  C   UNL A   1      39.154  24.977  28.579  1.00  0.00     0.016 A 
ATOM     35  C   UNL A   1      40.523  27.101  27.345  1.00  0.00     0.010 A 
ATOM     36  C   UNL A   1      39.315  26.188  29.250  1.00  0.00     0.010 A 
ATOM     37  C   UNL A   1      40.025  27.241  28.648  1.00  0.00    -0.014 A 
BRANCH  37  38
ATOM     38  C   UNL A   1      40.378  28.429  29.455  1.00  0.00     0.031 A 
ATOM     39  C   UNL A   1      41.736  28.493  30.086  1.00  0.00     0.074 A 
ATOM     40  C   UNL A   1      39.481  29.406  29.660  1.00  0.00     0.049 A 
ATOM     41  N   UNL A   1      42.225  29.379  30.914  1.00  0.00    -0.248 NA
ATOM     42  C   UNL A   1      42.662  27.399  29.755  1.00  0.00     0.031 C 
ATOM     43  C   UNL A   1      38.133  29.438  29.102  1.00  0.00     0.029 A 
ATOM     44  N   UNL A   1      39.566  30.548  30.415  1.00  0.00    -0.354 N 
ATOM     45  C   UNL A   1      43.502  28.936  31.225  1.00  0.00     0.074 A 
ATOM     46  C   UNL A   1      43.717  27.705  30.494  1.00  0.00     0.031 C 
ATOM     47  C   UNL A   1      37.511  30.545  29.544  1.00  0.00     0.029 A 
ATOM     48  C   UNL A   1      38.415  31.294  30.412  1.00  0.00     0.049 A 
ATOM     49  H   UNL A   1      40.376  30.808  30.911  1.00  0.00     0.167 HD
ATOM     50  C   UNL A   1      44.407  29.499  32.060  1.00  0.00     0.037 A 
ATOM     51  C   UNL A   1      38.125  32.445  31.049  1.00  0.00     0.037 A 
ATOM     52  C   UNL A   1      44.183  30.715  32.794  1.00  0.00     0.049 A 
ATOM     53  C   UNL A   1      39.153  33.055  31.965  1.00  0.00     0.074 A 
ATOM     54  C   UNL A   1      45.034  31.365  33.669  1.00  0.00     0.029 A 
ATOM     55  N   UNL A   1      43.014  31.461  32.740  1.00  0.00    -0.354 N 
ATOM     56  N   UNL A   1      40.365  32.640  32.243  1.00  0.00    -0.248 NA
ATOM     57  C   UNL A   1      38.764  34.283  32.674  1.00  0.00     0.031 C 
ATOM     58  C   UNL A   1      44.368  32.487  34.172  1.00  0.00     0.029 A 
ATOM     59  C   UNL A   1      43.117  32.558  33.579  1.00  0.00     0.049 A 
ATOM     60  H   UNL A   1      42.229  31.243  32.189  1.00  0.00     0.167 HD
ATOM     61  C   UNL A   1      40.884  33.553  33.149  1.00  0.00     0.074 A 
ATOM     62  C   UNL A   1      39.865  34.561  33.359  1.00  0.00     0.031 C 
ATOM     63  C   UNL A   1      42.092  33.553  33.764  1.00  0.00     0.037 A 
BRANCH  50  64
ATOM     64  C   UNL A   1      45.702  28.775  32.254  1.00  0.00     0.064 A 
ATOM     65  C   UNL A   1      46.872  29.165  31.585  1.00  0.00     0.173 A 
ATOM     66  C   UNL A   1      45.777  27.681  33.129  1.00  0.00     0.173 A 
ATOM     67  F   UNL A   1      46.844  30.192  30.722  1.00  0.00    -0.203 F 
ATOM     68  C   UNL A   1      48.066  28.473  31.770  1.00  0.00     0.198 A 
ATOM     69  C   UNL A   1      46.978  27.006  33.330  1.00  0.00     0.198 A 
ATOM     70  F   UNL A   1      44.685  27.268  33.789  1.00  0.00    -0.203 F 
ATOM     71  F   UNL A   1      49.161  28.835  31.088  1.00  0.00    -0.200 F 
ATOM     72  C   UNL A   1      48.118  27.398  32.647  1.00  0.00     0.200 A 
ATOM     73  F   UNL A   1      47.028  25.971  34.179  1.00  0.00    -0.200 F 
ATOM     74  F   UNL A   1      49.268  26.733  32.823  1.00  0.00    -0.200 F 
ENDBRANCH  50  64
BRANCH  51  75
ATOM     75  C   UNL A   1      36.814  33.108  30.832  1.00  0.00     0.064 A 
ATOM     76  C   UNL A   1      35.819  33.058  31.819  1.00  0.00     0.173 A 
ATOM     77  C   UNL A   1      36.522  33.797  29.647  1.00  0.00     0.173 A 
ATOM     78  F   UNL A   1      36.045  32.390  32.961  1.00  0.00    -0.203 F 
ATOM     79  C   UNL A   1      34.579  33.662  31.626  1.00  0.00     0.198 A 
ATOM     80  C   UNL A   1      35.290  34.423  29.464  1.00  0.00     0.198 A 
ATOM     81  F   UNL A   1      37.439  33.874  28.673  1.00  0.00    -0.203 F 
ATOM     82  F   UNL A   1      33.634  33.565  32.570  1.00  0.00    -0.200 F 
ATOM     83  C   UNL A   1      34.318  34.349  30.449  1.00  0.00     0.200 A 
ATOM     84  F   UNL A   1      35.044  35.094  28.331  1.00  0.00    -0.200 F 
ATOM     85  F   UNL A   1      33.126  34.932  30.265  1.00  0.00    -0.200 F 
ENDBRANCH  51  75
BRANCH  63  86
ATOM     86  C   UNL A   1      42.388  34.680  34.706  1.00  0.00     0.064 A 
ATOM     87  C   UNL A   1      42.846  35.920  34.241  1.00  0.00     0.173 A 
ATOM     88  C   UNL A   1      42.142  34.539  36.080  1.00  0.00     0.173 A 
ATOM     89  F   UNL A   1      43.106  36.097  32.937  1.00  0.00    -0.203 F 
ATOM     90  C   UNL A   1      43.057  36.978  35.120  1.00  0.00     0.198 A 
ATOM     91  C   UNL A   1      42.334  35.605  36.953  1.00  0.00     0.198 A 
ATOM     92  F   UNL A   1      41.697  33.372  36.571  1.00  0.00    -0.203 F 
ATOM     93  F   UNL A   1      43.520  38.148  34.658  1.00  0.00    -0.200 F 
ATOM     94  C   UNL A   1      42.793  36.823  36.473  1.00  0.00     0.200 A 
ATOM     95  F   UNL A   1      42.068  35.458  38.258  1.00  0.00    -0.200 F 
ATOM     96  F   UNL A   1      42.984  37.847  37.316  1.00  0.00    -0.200 F 
ENDBRANCH  63  86
ENDBRANCH  37  38
ENDBRANCH  30  32
ENDBRANCH  29  30
ENDBRANCH  28  29
ENDBRANCH  27  28
ENDBRANCH  26  27
ENDBRANCH  25  26
ENDBRANCH  24  25
ENDBRANCH   1  24
TORSDOF 22
ENDMDL
