MODEL 1
REMARK VINA RESULT:     -11.0      0.000      0.000
REMARK SMILES O=C(CNC(=O)[C@H]1CC[C@@H](Cn2cnc3ccccc3c2=O)CC1)OCCOCCOCCOC(=O)c1ccc(-c2c3nc(c(-c4c(F)c(F)c(F)c(F)c4F)c4ccc([nH]4)c(-c4c(F)c(F)c(F)c(F)c4F)c4nc(c(-c5c(F)c(F)c(F)c(F)c5F)c5ccc2[nH]5)C=C4)C=C3)cc1
REMARK SMILES IDX 29 1 28 2 27 3 26 4 25 5 2 6 1 7 3 8 4 9 5 10 6 12 7 13
REMARK SMILES IDX 24 14 8 15 23 16 9 17 10 18 11 19 12 20 13 21 21 22 14 23
REMARK SMILES IDX 20 24 22 25 15 26 19 27 16 28 18 29 17 30 30 31 31 32 32 33
REMARK SMILES IDX 33 34 34 35 35 36 36 37 37 38 38 39 99 40 39 41 98 42 40 43
REMARK SMILES IDX 41 44 42 45 92 46 43 47 97 48 91 49 93 50 44 51 96 52 90 53
REMARK SMILES IDX 89 54 45 56 77 57 57 58 76 59 58 60 61 61 75 62 94 63 59 64
REMARK SMILES IDX 60 65 74 67 95 68 62 69 46 70 47 71 55 72 48 73 49 74 53 75
REMARK SMILES IDX 56 76 50 77 51 78 54 79 52 80 78 81 79 82 87 83 80 84 81 85
REMARK SMILES IDX 85 86 88 87 82 88 83 89 86 90 84 91 63 92 64 93 72 94 65 95
REMARK SMILES IDX 66 96 70 97 73 98 67 99 68 100 71 101 69 102
REMARK H PARENT 4 11 93 55 61 66
REMARK Flexibility Score: inf
ROOT
ATOM      1  C   UNL A   1      40.061  22.616  27.038  1.00  0.00     0.188 C 
ENDROOT
BRANCH   1   2
ATOM      2  O   UNL A   1      38.829  23.275  26.751  1.00  0.00    -0.376 OA
BRANCH   2   3
ATOM      3  C   UNL A   1      38.070  22.628  25.734  1.00  0.00     0.202 C 
BRANCH   3   4
ATOM      4  C   UNL A   1      36.941  23.524  25.213  1.00  0.00     0.261 C 
BRANCH   4   5
ATOM      5  O   UNL A   1      35.923  23.794  26.194  1.00  0.00    -0.462 OA
BRANCH   5   6
ATOM      6  C   UNL A   1      34.640  24.101  25.876  1.00  0.00     0.325 C 
ATOM      7  O   UNL A   1      33.728  23.452  26.390  1.00  0.00    -0.250 OA
BRANCH   6   8
ATOM      8  C   UNL A   1      34.350  25.167  24.804  1.00  0.00     0.238 C 
BRANCH   8   9
ATOM      9  N   UNL A   1      33.987  24.686  23.481  1.00  0.00    -0.345 N 
ATOM     10  C   UNL A   1      33.273  25.226  22.459  1.00  0.00     0.223 C 
ATOM     11  H   UNL A   1      34.329  23.784  23.284  1.00  0.00     0.164 HD
ATOM     12  O   UNL A   1      33.277  24.566  21.413  1.00  0.00    -0.275 OA
BRANCH  10  13
ATOM     13  C   UNL A   1      32.426  26.515  22.518  1.00  0.00     0.078 C 
ATOM     14  C   UNL A   1      31.319  26.430  23.567  1.00  0.00     0.014 C 
ATOM     15  C   UNL A   1      33.223  27.818  22.549  1.00  0.00     0.014 C 
ATOM     16  C   UNL A   1      30.488  27.708  23.729  1.00  0.00     0.006 C 
ATOM     17  C   UNL A   1      32.364  29.069  22.776  1.00  0.00     0.006 C 
ATOM     18  C   UNL A   1      31.350  28.973  23.918  1.00  0.00     0.009 C 
BRANCH  18  19
ATOM     19  C   UNL A   1      31.914  28.934  25.339  1.00  0.00     0.130 C 
BRANCH  19  20
ATOM     20  N   UNL A   1      32.255  30.177  25.995  1.00  0.00    -0.298 N 
ATOM     21  C   UNL A   1      31.129  31.585  26.052  1.00  0.00     0.203 A 
ATOM     22  C   UNL A   1      33.815  30.051  26.787  1.00  0.00     0.261 A 
ATOM     23  N   UNL A   1      31.384  32.876  26.815  1.00  0.00    -0.238 NA
ATOM     24  C   UNL A   1      34.319  31.588  27.706  1.00  0.00     0.066 A 
ATOM     25  O   UNL A   1      34.529  29.064  26.807  1.00  0.00    -0.269 OA
ATOM     26  C   UNL A   1      32.961  33.127  27.747  1.00  0.00     0.077 A 
ATOM     27  C   UNL A   1      35.913  31.774  28.512  1.00  0.00     0.016 A 
ATOM     28  C   UNL A   1      33.411  34.617  28.638  1.00  0.00     0.029 A 
ATOM     29  C   UNL A   1      36.266  33.348  29.304  1.00  0.00     0.001 A 
ATOM     30  C   UNL A   1      35.062  34.712  29.368  1.00  0.00     0.002 A 
ENDBRANCH  19  20
ENDBRANCH  18  19
ENDBRANCH  10  13
ENDBRANCH   8   9
ENDBRANCH   6   8
ENDBRANCH   5   6
ENDBRANCH   4   5
ENDBRANCH   3   4
ENDBRANCH   2   3
ENDBRANCH   1   2
BRANCH   1  31
ATOM     31  C   UNL A   1      40.222  21.330  26.250  1.00  0.00     0.188 C 
BRANCH  31  32
ATOM     32  O   UNL A   1      40.825  20.241  26.940  1.00  0.00    -0.376 OA
BRANCH  32  33
ATOM     33  C   UNL A   1      41.146  19.091  26.153  1.00  0.00     0.202 C 
BRANCH  33  34
ATOM     34  C   UNL A   1      42.445  18.369  26.539  1.00  0.00     0.261 C 
BRANCH  34  35
ATOM     35  O   UNL A   1      43.250  18.153  25.366  1.00  0.00    -0.460 OA
BRANCH  35  36
ATOM     36  C   UNL A   1      44.397  18.820  25.115  1.00  0.00     0.338 C 
ATOM     37  O   UNL A   1      45.402  18.257  24.704  1.00  0.00    -0.246 OA
BRANCH  36  38
ATOM     38  C   UNL A   1      44.288  20.459  25.261  1.00  0.00     0.060 A 
ATOM     39  C   UNL A   1      44.014  21.786  26.744  1.00  0.00     0.016 A 
ATOM     40  C   UNL A   1      44.967  20.913  23.798  1.00  0.00     0.016 A 
ATOM     41  C   UNL A   1      44.427  23.305  26.781  1.00  0.00     0.010 A 
ATOM     42  C   UNL A   1      45.423  22.516  23.818  1.00  0.00     0.010 A 
ATOM     43  C   UNL A   1      45.148  23.765  25.368  1.00  0.00    -0.014 A 
BRANCH  43  44
ATOM     44  C   UNL A   1      45.340  25.265  25.797  1.00  0.00     0.031 A 
ATOM     45  C   UNL A   1      46.684  25.946  25.649  1.00  0.00     0.074 A 
ATOM     46  C   UNL A   1      44.247  26.034  25.972  1.00  0.00     0.049 A 
ATOM     47  N   UNL A   1      47.158  26.987  26.278  1.00  0.00    -0.248 NA
ATOM     48  C   UNL A   1      47.639  25.376  24.680  1.00  0.00     0.031 C 
ATOM     49  C   UNL A   1      42.868  25.633  25.690  1.00  0.00     0.029 A 
ATOM     50  N   UNL A   1      44.111  27.267  26.532  1.00  0.00    -0.354 N 
ATOM     51  C   UNL A   1      48.487  27.098  25.877  1.00  0.00     0.074 A 
ATOM     52  C   UNL A   1      48.768  25.992  25.000  1.00  0.00     0.031 C 
ATOM     53  C   UNL A   1      42.029  26.442  26.339  1.00  0.00     0.029 A 
ATOM     54  C   UNL A   1      42.824  27.477  26.969  1.00  0.00     0.049 A 
ATOM     55  H   UNL A   1      44.841  27.924  26.614  1.00  0.00     0.167 HD
ATOM     56  C   UNL A   1      49.358  28.087  26.184  1.00  0.00     0.037 A 
ATOM     57  C   UNL A   1      42.354  28.393  27.824  1.00  0.00     0.037 A 
ATOM     58  C   UNL A   1      48.911  29.276  26.863  1.00  0.00     0.049 A 
ATOM     59  C   UNL A   1      43.314  29.463  28.209  1.00  0.00     0.074 A 
ATOM     60  C   UNL A   1      49.614  30.424  27.163  1.00  0.00     0.029 A 
ATOM     61  N   UNL A   1      47.597  29.483  27.279  1.00  0.00    -0.354 N 
ATOM     62  N   UNL A   1      44.604  29.520  27.965  1.00  0.00    -0.248 NA
ATOM     63  C   UNL A   1      42.761  30.630  28.888  1.00  0.00     0.031 C 
ATOM     64  C   UNL A   1      48.736  31.307  27.799  1.00  0.00     0.029 A 
ATOM     65  C   UNL A   1      47.471  30.735  27.847  1.00  0.00     0.049 A 
ATOM     66  H   UNL A   1      46.865  28.832  27.183  1.00  0.00     0.167 HD
ATOM     67  C   UNL A   1      45.018  30.756  28.409  1.00  0.00     0.074 A 
ATOM     68  C   UNL A   1      43.831  31.414  28.938  1.00  0.00     0.031 C 
ATOM     69  C   UNL A   1      46.255  31.311  28.372  1.00  0.00     0.037 A 
BRANCH  56  70
ATOM     70  C   UNL A   1      50.812  27.956  25.796  1.00  0.00     0.064 A 
ATOM     71  C   UNL A   1      51.290  28.192  24.496  1.00  0.00     0.173 A 
ATOM     72  C   UNL A   1      51.768  27.625  26.775  1.00  0.00     0.173 A 
ATOM     73  F   UNL A   1      50.442  28.523  23.511  1.00  0.00    -0.203 F 
ATOM     74  C   UNL A   1      52.645  28.061  24.185  1.00  0.00     0.198 A 
ATOM     75  C   UNL A   1      53.127  27.543  26.471  1.00  0.00     0.198 A 
ATOM     76  F   UNL A   1      51.388  27.393  28.040  1.00  0.00    -0.203 F 
ATOM     77  F   UNL A   1      53.059  28.231  22.921  1.00  0.00    -0.200 F 
ATOM     78  C   UNL A   1      53.564  27.749  25.174  1.00  0.00     0.200 A 
ATOM     79  F   UNL A   1      54.014  27.268  27.439  1.00  0.00    -0.200 F 
ATOM     80  F   UNL A   1      54.867  27.648  24.877  1.00  0.00    -0.200 F 
ENDBRANCH  56  70
BRANCH  57  81
ATOM     81  C   UNL A   1      40.920  28.345  28.179  1.00  0.00     0.064 A 
ATOM     82  C   UNL A   1      40.532  27.926  29.455  1.00  0.00     0.173 A 
ATOM     83  C   UNL A   1      39.946  28.936  27.355  1.00  0.00     0.173 A 
ATOM     84  F   UNL A   1      41.440  27.394  30.286  1.00  0.00    -0.203 F 
ATOM     85  C   UNL A   1      39.224  28.100  29.901  1.00  0.00     0.198 A 
ATOM     86  C   UNL A   1      38.640  29.123  27.808  1.00  0.00     0.198 A 
ATOM     87  F   UNL A   1      40.283  29.406  26.145  1.00  0.00    -0.203 F 
ATOM     88  F   UNL A   1      38.889  27.718  31.140  1.00  0.00    -0.200 F 
ATOM     89  C   UNL A   1      38.284  28.708  29.083  1.00  0.00     0.200 A 
ATOM     90  F   UNL A   1      37.744  29.748  27.032  1.00  0.00    -0.200 F 
ATOM     91  F   UNL A   1      37.038  28.916  29.533  1.00  0.00    -0.200 F 
ENDBRANCH  57  81
BRANCH  69  92
ATOM     92  C   UNL A   1      46.369  32.679  28.952  1.00  0.00     0.064 A 
ATOM     93  C   UNL A   1      46.646  32.854  30.313  1.00  0.00     0.173 A 
ATOM     94  C   UNL A   1      46.280  33.811  28.130  1.00  0.00     0.173 A 
ATOM     95  F   UNL A   1      46.718  31.792  31.130  1.00  0.00    -0.203 F 
ATOM     96  C   UNL A   1      46.813  34.126  30.840  1.00  0.00     0.198 A 
ATOM     97  C   UNL A   1      46.493  35.078  28.653  1.00  0.00     0.198 A 
ATOM     98  F   UNL A   1      46.024  33.680  26.819  1.00  0.00    -0.203 F 
ATOM     99  F   UNL A   1      47.026  34.278  32.153  1.00  0.00    -0.200 F 
ATOM    100  C   UNL A   1      46.752  35.235  30.007  1.00  0.00     0.200 A 
ATOM    101  F   UNL A   1      46.459  36.147  27.846  1.00  0.00    -0.200 F 
ATOM    102  F   UNL A   1      46.942  36.460  30.514  1.00  0.00    -0.200 F 
ENDBRANCH  69  92
ENDBRANCH  43  44
ENDBRANCH  36  38
ENDBRANCH  35  36
ENDBRANCH  34  35
ENDBRANCH  33  34
ENDBRANCH  32  33
ENDBRANCH  31  32
ENDBRANCH   1  31
TORSDOF 21
ENDMDL
MODEL 2
REMARK VINA RESULT:     -10.2      4.697     11.035
REMARK SMILES O=C(CNC(=O)[C@H]1CC[C@@H](Cn2cnc3ccccc3c2=O)CC1)OCCOCCOCCOC(=O)c1ccc(-c2c3nc(c(-c4c(F)c(F)c(F)c(F)c4F)c4ccc([nH]4)c(-c4c(F)c(F)c(F)c(F)c4F)c4nc(c(-c5c(F)c(F)c(F)c(F)c5F)c5ccc2[nH]5)C=C4)C=C3)cc1
REMARK SMILES IDX 29 1 28 2 27 3 26 4 25 5 2 6 1 7 3 8 4 9 5 10 6 12 7 13
REMARK SMILES IDX 24 14 8 15 23 16 9 17 10 18 11 19 12 20 13 21 21 22 14 23
REMARK SMILES IDX 20 24 22 25 15 26 19 27 16 28 18 29 17 30 30 31 31 32 32 33
REMARK SMILES IDX 33 34 34 35 35 36 36 37 37 38 38 39 99 40 39 41 98 42 40 43
REMARK SMILES IDX 41 44 42 45 92 46 43 47 97 48 91 49 93 50 44 51 96 52 90 53
REMARK SMILES IDX 89 54 45 56 77 57 57 58 76 59 58 60 61 61 75 62 94 63 59 64
REMARK SMILES IDX 60 65 74 67 95 68 62 69 46 70 47 71 55 72 48 73 49 74 53 75
REMARK SMILES IDX 56 76 50 77 51 78 54 79 52 80 78 81 79 82 87 83 80 84 81 85
REMARK SMILES IDX 85 86 88 87 82 88 83 89 86 90 84 91 63 92 64 93 72 94 65 95
REMARK SMILES IDX 66 96 70 97 73 98 67 99 68 100 71 101 69 102
REMARK H PARENT 4 11 93 55 61 66
REMARK Flexibility Score: inf
ROOT
ATOM      1  C   UNL A   1      34.654  33.263  32.178  1.00  0.00     0.188 C 
ENDROOT
BRANCH   1   2
ATOM      2  O   UNL A   1      35.215  32.796  30.953  1.00  0.00    -0.376 OA
BRANCH   2   3
ATOM      3  C   UNL A   1      34.672  33.440  29.804  1.00  0.00     0.202 C 
BRANCH   3   4
ATOM      4  C   UNL A   1      35.705  33.553  28.677  1.00  0.00     0.261 C 
BRANCH   4   5
ATOM      5  O   UNL A   1      35.476  32.633  27.594  1.00  0.00    -0.462 OA
BRANCH   5   6
ATOM      6  C   UNL A   1      34.612  31.589  27.671  1.00  0.00     0.325 C 
ATOM      7  O   UNL A   1      33.402  31.812  27.592  1.00  0.00    -0.250 OA
BRANCH   6   8
ATOM      8  C   UNL A   1      35.142  30.175  27.964  1.00  0.00     0.238 C 
BRANCH   8   9
ATOM      9  N   UNL A   1      35.531  29.890  29.336  1.00  0.00    -0.345 N 
ATOM     10  C   UNL A   1      36.721  29.914  29.989  1.00  0.00     0.223 C 
ATOM     11  H   UNL A   1      34.776  29.625  29.910  1.00  0.00     0.164 HD
ATOM     12  O   UNL A   1      36.651  29.732  31.211  1.00  0.00    -0.275 OA
BRANCH  10  13
ATOM     13  C   UNL A   1      38.114  30.073  29.343  1.00  0.00     0.078 C 
ATOM     14  C   UNL A   1      39.220  30.216  30.386  1.00  0.00     0.014 C 
ATOM     15  C   UNL A   1      38.430  29.084  28.222  1.00  0.00     0.014 C 
ATOM     16  C   UNL A   1      40.639  30.301  29.811  1.00  0.00     0.006 C 
ATOM     17  C   UNL A   1      39.876  29.157  27.716  1.00  0.00     0.006 C 
ATOM     18  C   UNL A   1      40.954  29.177  28.803  1.00  0.00     0.009 C 
BRANCH  18  19
ATOM     19  C   UNL A   1      41.152  27.888  29.601  1.00  0.00     0.130 C 
BRANCH  19  20
ATOM     20  N   UNL A   1      41.360  26.646  28.890  1.00  0.00    -0.298 N 
ATOM     21  C   UNL A   1      39.997  25.585  28.371  1.00  0.00     0.203 A 
ATOM     22  C   UNL A   1      43.061  26.416  28.530  1.00  0.00     0.261 A 
ATOM     23  N   UNL A   1      40.142  24.326  27.529  1.00  0.00    -0.238 NA
ATOM     24  C   UNL A   1      43.424  24.867  27.566  1.00  0.00     0.066 A 
ATOM     25  O   UNL A   1      43.962  27.184  28.817  1.00  0.00    -0.269 OA
ATOM     26  C   UNL A   1      41.809  23.739  26.988  1.00  0.00     0.077 A 
ATOM     27  C   UNL A   1      45.088  24.330  27.159  1.00  0.00     0.016 A 
ATOM     28  C   UNL A   1      42.126  22.247  26.045  1.00  0.00     0.029 A 
ATOM     29  C   UNL A   1      45.268  22.774  26.276  1.00  0.00     0.001 A 
ATOM     30  C   UNL A   1      43.844  21.776  25.737  1.00  0.00     0.002 A 
ENDBRANCH  19  20
ENDBRANCH  18  19
ENDBRANCH  10  13
ENDBRANCH   8   9
ENDBRANCH   6   8
ENDBRANCH   5   6
ENDBRANCH   4   5
ENDBRANCH   3   4
ENDBRANCH   2   3
ENDBRANCH   1   2
BRANCH   1  31
ATOM     31  C   UNL A   1      34.705  34.775  32.293  1.00  0.00     0.188 C 
BRANCH  31  32
ATOM     32  O   UNL A   1      35.237  35.296  33.506  1.00  0.00    -0.376 OA
BRANCH  32  33
ATOM     33  C   UNL A   1      35.241  34.411  34.629  1.00  0.00     0.202 C 
BRANCH  33  34
ATOM     34  C   UNL A   1      36.628  33.960  35.109  1.00  0.00     0.261 C 
BRANCH  34  35
ATOM     35  O   UNL A   1      37.626  34.347  34.147  1.00  0.00    -0.460 OA
BRANCH  35  36
ATOM     36  C   UNL A   1      38.186  33.491  33.266  1.00  0.00     0.338 C 
ATOM     37  O   UNL A   1      37.737  32.371  33.069  1.00  0.00    -0.246 OA
BRANCH  36  38
ATOM     38  C   UNL A   1      39.421  34.128  32.376  1.00  0.00     0.060 A 
ATOM     39  C   UNL A   1      41.396  34.414  32.600  1.00  0.00     0.016 A 
ATOM     40  C   UNL A   1      38.708  34.109  30.860  1.00  0.00     0.016 A 
ATOM     41  C   UNL A   1      42.491  34.575  31.479  1.00  0.00     0.010 A 
ATOM     42  C   UNL A   1      39.849  34.267  29.656  1.00  0.00     0.010 A 
ATOM     43  C   UNL A   1      41.820  34.506  29.971  1.00  0.00    -0.014 A 
BRANCH  43  44
ATOM     44  C   UNL A   1      43.174  34.744  29.210  1.00  0.00     0.031 A 
ATOM     45  C   UNL A   1      44.046  33.577  28.799  1.00  0.00     0.074 A 
ATOM     46  C   UNL A   1      43.390  35.941  28.630  1.00  0.00     0.049 A 
ATOM     47  N   UNL A   1      45.325  33.550  28.543  1.00  0.00    -0.248 NA
ATOM     48  C   UNL A   1      43.408  32.253  28.677  1.00  0.00     0.031 C 
ATOM     49  C   UNL A   1      42.419  37.033  28.542  1.00  0.00     0.029 A 
ATOM     50  N   UNL A   1      44.524  36.481  28.106  1.00  0.00    -0.354 N 
ATOM     51  C   UNL A   1      45.647  32.206  28.368  1.00  0.00     0.074 A 
ATOM     52  C   UNL A   1      44.452  31.441  28.603  1.00  0.00     0.031 C 
ATOM     53  C   UNL A   1      43.059  38.177  28.289  1.00  0.00     0.029 A 
ATOM     54  C   UNL A   1      44.457  37.854  28.081  1.00  0.00     0.049 A 
ATOM     55  H   UNL A   1      45.294  35.956  27.787  1.00  0.00     0.167 HD
ATOM     56  C   UNL A   1      46.838  31.690  27.982  1.00  0.00     0.037 A 
ATOM     57  C   UNL A   1      45.439  38.752  27.941  1.00  0.00     0.037 A 
ATOM     58  C   UNL A   1      47.900  32.550  27.529  1.00  0.00     0.049 A 
ATOM     59  C   UNL A   1      46.767  38.197  27.562  1.00  0.00     0.074 A 
ATOM     60  C   UNL A   1      49.129  32.212  27.003  1.00  0.00     0.029 A 
ATOM     61  N   UNL A   1      47.807  33.940  27.488  1.00  0.00    -0.354 N 
ATOM     62  N   UNL A   1      47.137  36.937  27.528  1.00  0.00    -0.248 NA
ATOM     63  C   UNL A   1      47.775  39.150  27.111  1.00  0.00     0.031 C 
ATOM     64  C   UNL A   1      49.796  33.399  26.683  1.00  0.00     0.029 A 
ATOM     65  C   UNL A   1      48.964  34.477  26.958  1.00  0.00     0.049 A 
ATOM     66  H   UNL A   1      47.031  34.464  27.793  1.00  0.00     0.167 HD
ATOM     67  C   UNL A   1      48.408  36.931  26.996  1.00  0.00     0.074 A 
ATOM     68  C   UNL A   1      48.738  38.323  26.725  1.00  0.00     0.031 C 
ATOM     69  C   UNL A   1      49.225  35.881  26.738  1.00  0.00     0.037 A 
BRANCH  56  70
ATOM     70  C   UNL A   1      47.052  30.195  28.007  1.00  0.00     0.064 A 
ATOM     71  C   UNL A   1      46.749  29.352  26.925  1.00  0.00     0.173 A 
ATOM     72  C   UNL A   1      47.625  29.591  29.142  1.00  0.00     0.173 A 
ATOM     73  F   UNL A   1      46.210  29.854  25.804  1.00  0.00    -0.203 F 
ATOM     74  C   UNL A   1      46.967  27.974  26.993  1.00  0.00     0.198 A 
ATOM     75  C   UNL A   1      47.888  28.222  29.189  1.00  0.00     0.198 A 
ATOM     76  F   UNL A   1      47.949  30.333  30.212  1.00  0.00    -0.203 F 
ATOM     77  F   UNL A   1      46.606  27.190  25.967  1.00  0.00    -0.200 F 
ATOM     78  C   UNL A   1      47.547  27.412  28.118  1.00  0.00     0.200 A 
ATOM     79  F   UNL A   1      48.475  27.689  30.269  1.00  0.00    -0.200 F 
ATOM     80  F   UNL A   1      47.778  26.093  28.172  1.00  0.00    -0.200 F 
ENDBRANCH  56  70
BRANCH  57  81
ATOM     81  C   UNL A   1      45.091  40.186  28.025  1.00  0.00     0.064 A 
ATOM     82  C   UNL A   1      45.414  40.916  29.173  1.00  0.00     0.173 A 
ATOM     83  C   UNL A   1      44.659  40.899  26.892  1.00  0.00     0.173 A 
ATOM     84  F   UNL A   1      45.867  40.277  30.261  1.00  0.00    -0.203 F 
ATOM     85  C   UNL A   1      45.325  42.305  29.189  1.00  0.00     0.198 A 
ATOM     86  C   UNL A   1      44.584  42.291  26.905  1.00  0.00     0.198 A 
ATOM     87  F   UNL A   1      44.393  40.249  25.749  1.00  0.00    -0.203 F 
ATOM     88  F   UNL A   1      45.672  42.980  30.293  1.00  0.00    -0.200 F 
ATOM     89  C   UNL A   1      44.921  42.992  28.054  1.00  0.00     0.200 A 
ATOM     90  F   UNL A   1      44.234  42.955  25.795  1.00  0.00    -0.200 F 
ATOM     91  F   UNL A   1      44.881  44.332  28.059  1.00  0.00    -0.200 F 
ENDBRANCH  57  81
BRANCH  69  92
ATOM     92  C   UNL A   1      50.558  36.222  26.164  1.00  0.00     0.064 A 
ATOM     93  C   UNL A   1      50.763  36.199  24.779  1.00  0.00     0.173 A 
ATOM     94  C   UNL A   1      51.605  36.646  26.995  1.00  0.00     0.173 A 
ATOM     95  F   UNL A   1      49.788  35.780  23.958  1.00  0.00    -0.203 F 
ATOM     96  C   UNL A   1      51.985  36.576  24.242  1.00  0.00     0.198 A 
ATOM     97  C   UNL A   1      52.809  37.065  26.450  1.00  0.00     0.198 A 
ATOM     98  F   UNL A   1      51.440  36.687  28.326  1.00  0.00    -0.203 F 
ATOM     99  F   UNL A   1      52.180  36.500  22.920  1.00  0.00    -0.200 F 
ATOM    100  C   UNL A   1      53.000  37.022  25.076  1.00  0.00     0.200 A 
ATOM    101  F   UNL A   1      53.782  37.520  27.251  1.00  0.00    -0.200 F 
ATOM    102  F   UNL A   1      54.170  37.413  24.552  1.00  0.00    -0.200 F 
ENDBRANCH  69  92
ENDBRANCH  43  44
ENDBRANCH  36  38
ENDBRANCH  35  36
ENDBRANCH  34  35
ENDBRANCH  33  34
ENDBRANCH  32  33
ENDBRANCH  31  32
ENDBRANCH   1  31
TORSDOF 21
ENDMDL
MODEL 3
REMARK VINA RESULT:     -10.1      5.231     10.218
REMARK SMILES O=C(CNC(=O)[C@H]1CC[C@@H](Cn2cnc3ccccc3c2=O)CC1)OCCOCCOCCOC(=O)c1ccc(-c2c3nc(c(-c4c(F)c(F)c(F)c(F)c4F)c4ccc([nH]4)c(-c4c(F)c(F)c(F)c(F)c4F)c4nc(c(-c5c(F)c(F)c(F)c(F)c5F)c5ccc2[nH]5)C=C4)C=C3)cc1
REMARK SMILES IDX 29 1 28 2 27 3 26 4 25 5 2 6 1 7 3 8 4 9 5 10 6 12 7 13
REMARK SMILES IDX 24 14 8 15 23 16 9 17 10 18 11 19 12 20 13 21 21 22 14 23
REMARK SMILES IDX 20 24 22 25 15 26 19 27 16 28 18 29 17 30 30 31 31 32 32 33
REMARK SMILES IDX 33 34 34 35 35 36 36 37 37 38 38 39 99 40 39 41 98 42 40 43
REMARK SMILES IDX 41 44 42 45 92 46 43 47 97 48 91 49 93 50 44 51 96 52 90 53
REMARK SMILES IDX 89 54 45 56 77 57 57 58 76 59 58 60 61 61 75 62 94 63 59 64
REMARK SMILES IDX 60 65 74 67 95 68 62 69 46 70 47 71 55 72 48 73 49 74 53 75
REMARK SMILES IDX 56 76 50 77 51 78 54 79 52 80 78 81 79 82 87 83 80 84 81 85
REMARK SMILES IDX 85 86 88 87 82 88 83 89 86 90 84 91 63 92 64 93 72 94 65 95
REMARK SMILES IDX 66 96 70 97 73 98 67 99 68 100 71 101 69 102
REMARK H PARENT 4 11 93 55 61 66
REMARK Flexibility Score: inf
ROOT
ATOM      1  C   UNL A   1      42.020  26.073  28.136  1.00  0.00     0.188 C 
ENDROOT
BRANCH   1   2
ATOM      2  O   UNL A   1      40.892  25.308  27.714  1.00  0.00    -0.376 OA
BRANCH   2   3
ATOM      3  C   UNL A   1      40.942  23.951  28.145  1.00  0.00     0.202 C 
BRANCH   3   4
ATOM      4  C   UNL A   1      40.876  22.978  26.962  1.00  0.00     0.261 C 
BRANCH   4   5
ATOM      5  O   UNL A   1      39.540  22.754  26.477  1.00  0.00    -0.462 OA
BRANCH   5   6
ATOM      6  C   UNL A   1      39.121  21.572  25.959  1.00  0.00     0.325 C 
ATOM      7  O   UNL A   1      39.903  20.620  25.941  1.00  0.00    -0.250 OA
BRANCH   6   8
ATOM      8  C   UNL A   1      37.731  21.470  25.306  1.00  0.00     0.238 C 
BRANCH   8   9
ATOM      9  N   UNL A   1      36.581  21.583  26.188  1.00  0.00    -0.345 N 
ATOM     10  C   UNL A   1      35.240  21.569  25.974  1.00  0.00     0.223 C 
ATOM     11  H   UNL A   1      36.823  21.690  27.137  1.00  0.00     0.164 HD
ATOM     12  O   UNL A   1      34.546  21.561  26.999  1.00  0.00    -0.275 OA
BRANCH  10  13
ATOM     13  C   UNL A   1      34.533  21.634  24.602  1.00  0.00     0.078 C 
ATOM     14  C   UNL A   1      33.195  20.897  24.609  1.00  0.00     0.014 C 
ATOM     15  C   UNL A   1      34.487  23.018  23.958  1.00  0.00     0.014 C 
ATOM     16  C   UNL A   1      32.406  20.988  23.297  1.00  0.00     0.006 C 
ATOM     17  C   UNL A   1      33.637  23.083  22.683  1.00  0.00     0.006 C 
ATOM     18  C   UNL A   1      32.254  22.433  22.778  1.00  0.00     0.009 C 
BRANCH  18  19
ATOM     19  C   UNL A   1      31.225  23.132  23.667  1.00  0.00     0.130 C 
BRANCH  19  20
ATOM     20  N   UNL A   1      31.250  24.575  23.771  1.00  0.00    -0.298 N 
ATOM     21  C   UNL A   1      30.958  25.655  22.357  1.00  0.00     0.203 A 
ATOM     22  C   UNL A   1      31.481  25.070  25.438  1.00  0.00     0.261 A 
ATOM     23  N   UNL A   1      30.865  27.172  22.423  1.00  0.00    -0.238 NA
ATOM     24  C   UNL A   1      31.474  26.914  25.683  1.00  0.00     0.066 A 
ATOM     25  O   UNL A   1      31.596  24.326  26.396  1.00  0.00    -0.269 OA
ATOM     26  C   UNL A   1      31.100  28.065  24.024  1.00  0.00     0.077 A 
ATOM     27  C   UNL A   1      31.798  27.697  27.266  1.00  0.00     0.016 A 
ATOM     28  C   UNL A   1      31.072  29.846  24.231  1.00  0.00     0.029 A 
ATOM     29  C   UNL A   1      31.817  29.494  27.318  1.00  0.00     0.001 A 
ATOM     30  C   UNL A   1      31.463  30.526  25.860  1.00  0.00     0.002 A 
ENDBRANCH  19  20
ENDBRANCH  18  19
ENDBRANCH  10  13
ENDBRANCH   8   9
ENDBRANCH   6   8
ENDBRANCH   5   6
ENDBRANCH   4   5
ENDBRANCH   3   4
ENDBRANCH   2   3
ENDBRANCH   1   2
BRANCH   1  31
ATOM     31  C   UNL A   1      43.115  26.108  27.086  1.00  0.00     0.188 C 
BRANCH  31  32
ATOM     32  O   UNL A   1      44.107  25.091  27.178  1.00  0.00    -0.376 OA
BRANCH  32  33
ATOM     33  C   UNL A   1      44.935  24.908  26.028  1.00  0.00     0.202 C 
BRANCH  33  34
ATOM     34  C   UNL A   1      44.886  26.041  24.992  1.00  0.00     0.261 C 
BRANCH  34  35
ATOM     35  O   UNL A   1      46.165  26.698  24.929  1.00  0.00    -0.460 OA
BRANCH  35  36
ATOM     36  C   UNL A   1      46.326  28.033  25.062  1.00  0.00     0.338 C 
ATOM     37  O   UNL A   1      46.776  28.729  24.163  1.00  0.00    -0.246 OA
BRANCH  36  38
ATOM     38  C   UNL A   1      45.730  28.662  26.465  1.00  0.00     0.060 A 
ATOM     39  C   UNL A   1      44.205  29.849  27.012  1.00  0.00     0.016 A 
ATOM     40  C   UNL A   1      46.481  27.645  27.566  1.00  0.00     0.016 A 
ATOM     41  C   UNL A   1      43.496  29.943  28.415  1.00  0.00     0.010 A 
ATOM     42  C   UNL A   1      45.741  27.719  29.057  1.00  0.00     0.010 A 
ATOM     43  C   UNL A   1      44.185  28.910  29.505  1.00  0.00    -0.014 A 
BRANCH  43  44
ATOM     44  C   UNL A   1      43.261  29.341  30.701  1.00  0.00     0.031 A 
ATOM     45  C   UNL A   1      41.798  29.656  30.474  1.00  0.00     0.074 A 
ATOM     46  C   UNL A   1      43.679  29.103  31.960  1.00  0.00     0.049 A 
ATOM     47  N   UNL A   1      40.988  30.384  31.192  1.00  0.00    -0.248 NA
ATOM     48  C   UNL A   1      41.155  29.098  29.270  1.00  0.00     0.031 C 
ATOM     49  C   UNL A   1      44.887  28.366  32.333  1.00  0.00     0.029 A 
ATOM     50  N   UNL A   1      43.197  29.549  33.153  1.00  0.00    -0.354 N 
ATOM     51  C   UNL A   1      39.807  30.471  30.458  1.00  0.00     0.074 A 
ATOM     52  C   UNL A   1      40.019  29.776  29.216  1.00  0.00     0.031 C 
ATOM     53  C   UNL A   1      45.215  28.659  33.593  1.00  0.00     0.029 A 
ATOM     54  C   UNL A   1      44.164  29.502  34.129  1.00  0.00     0.049 A 
ATOM     55  H   UNL A   1      42.275  29.864  33.297  1.00  0.00     0.167 HD
ATOM     56  C   UNL A   1      38.641  31.039  30.843  1.00  0.00     0.037 A 
ATOM     57  C   UNL A   1      44.203  30.114  35.319  1.00  0.00     0.037 A 
ATOM     58  C   UNL A   1      38.453  31.488  32.198  1.00  0.00     0.049 A 
ATOM     59  C   UNL A   1      42.942  30.784  35.737  1.00  0.00     0.074 A 
ATOM     60  C   UNL A   1      37.317  31.986  32.800  1.00  0.00     0.029 A 
ATOM     61  N   UNL A   1      39.436  31.412  33.182  1.00  0.00    -0.354 N 
ATOM     62  N   UNL A   1      41.866  31.005  35.017  1.00  0.00    -0.248 NA
ATOM     63  C   UNL A   1      42.847  31.196  37.133  1.00  0.00     0.031 C 
ATOM     64  C   UNL A   1      37.626  32.252  34.138  1.00  0.00     0.029 A 
ATOM     65  C   UNL A   1      38.938  31.868  34.387  1.00  0.00     0.049 A 
ATOM     66  H   UNL A   1      40.353  31.082  33.041  1.00  0.00     0.167 HD
ATOM     67  C   UNL A   1      40.934  31.535  35.883  1.00  0.00     0.074 A 
ATOM     68  C   UNL A   1      41.584  31.598  37.185  1.00  0.00     0.031 C 
ATOM     69  C   UNL A   1      39.657  31.920  35.638  1.00  0.00     0.037 A 
BRANCH  56  70
ATOM     70  C   UNL A   1      37.513  31.188  29.848  1.00  0.00     0.064 A 
ATOM     71  C   UNL A   1      37.271  32.366  29.123  1.00  0.00     0.173 A 
ATOM     72  C   UNL A   1      36.672  30.092  29.580  1.00  0.00     0.173 A 
ATOM     73  F   UNL A   1      38.037  33.451  29.315  1.00  0.00    -0.203 F 
ATOM     74  C   UNL A   1      36.217  32.456  28.211  1.00  0.00     0.198 A 
ATOM     75  C   UNL A   1      35.650  30.169  28.632  1.00  0.00     0.198 A 
ATOM     76  F   UNL A   1      36.847  28.930  30.227  1.00  0.00    -0.203 F 
ATOM     77  F   UNL A   1      35.974  33.615  27.584  1.00  0.00    -0.200 F 
ATOM     78  C   UNL A   1      35.415  31.355  27.957  1.00  0.00     0.200 A 
ATOM     79  F   UNL A   1      34.897  29.091  28.371  1.00  0.00    -0.200 F 
ATOM     80  F   UNL A   1      34.420  31.436  27.064  1.00  0.00    -0.200 F 
ENDBRANCH  56  70
BRANCH  57  81
ATOM     81  C   UNL A   1      45.413  29.945  36.151  1.00  0.00     0.064 A 
ATOM     82  C   UNL A   1      46.364  30.968  36.212  1.00  0.00     0.173 A 
ATOM     83  C   UNL A   1      45.523  28.888  37.071  1.00  0.00     0.173 A 
ATOM     84  F   UNL A   1      46.272  32.014  35.379  1.00  0.00    -0.203 F 
ATOM     85  C   UNL A   1      47.380  30.947  37.165  1.00  0.00     0.198 A 
ATOM     86  C   UNL A   1      46.532  28.875  38.033  1.00  0.00     0.198 A 
ATOM     87  F   UNL A   1      44.601  27.913  37.089  1.00  0.00    -0.203 F 
ATOM     88  F   UNL A   1      48.259  31.957  37.220  1.00  0.00    -0.200 F 
ATOM     89  C   UNL A   1      47.457  29.908  38.080  1.00  0.00     0.200 A 
ATOM     90  F   UNL A   1      46.580  27.893  38.943  1.00  0.00    -0.200 F 
ATOM     91  F   UNL A   1      48.409  29.915  39.024  1.00  0.00    -0.200 F 
ENDBRANCH  57  81
BRANCH  69  92
ATOM     92  C   UNL A   1      38.911  32.468  36.807  1.00  0.00     0.064 A 
ATOM     93  C   UNL A   1      38.023  31.660  37.526  1.00  0.00     0.173 A 
ATOM     94  C   UNL A   1      39.144  33.777  37.251  1.00  0.00     0.173 A 
ATOM     95  F   UNL A   1      37.763  30.409  37.116  1.00  0.00    -0.203 F 
ATOM     96  C   UNL A   1      37.375  32.152  38.649  1.00  0.00     0.198 A 
ATOM     97  C   UNL A   1      38.529  34.249  38.400  1.00  0.00     0.198 A 
ATOM     98  F   UNL A   1      39.995  34.576  36.590  1.00  0.00    -0.203 F 
ATOM     99  F   UNL A   1      36.491  31.382  39.296  1.00  0.00    -0.200 F 
ATOM    100  C   UNL A   1      37.640  33.439  39.094  1.00  0.00     0.200 A 
ATOM    101  F   UNL A   1      38.803  35.483  38.845  1.00  0.00    -0.200 F 
ATOM    102  F   UNL A   1      37.035  33.902  40.196  1.00  0.00    -0.200 F 
ENDBRANCH  69  92
ENDBRANCH  43  44
ENDBRANCH  36  38
ENDBRANCH  35  36
ENDBRANCH  34  35
ENDBRANCH  33  34
ENDBRANCH  32  33
ENDBRANCH  31  32
ENDBRANCH   1  31
TORSDOF 21
ENDMDL
