MODEL 1
REMARK VINA RESULT:     -10.7      0.000      0.000
REMARK SMILES CC[C@@H](C)[C@@H](NC(=O)Cn1nc(-c2ccc3ccccc3c2)ccc1=O)C(=O)OCCOCCOCCOC(=O)c1ccc(-c2c3nc(c(-c4c(F)c(F)c(F)c(F)c4F)c4ccc([nH]4)c(-c4c(F)c(F)c(F)c(F)c4F)c4nc(c(-c5c(F)c(F)c(F)c(F)c5F)c5ccc2[nH]5)C=C4)C=C3)cc1
REMARK SMILES IDX 33 1 32 2 31 3 30 4 29 5 27 6 28 7 5 8 3 9 4 10 2 11 1 12
REMARK SMILES IDX 6 13 7 14 8 16 9 17 10 18 11 19 25 20 12 21 24 22 26 23
REMARK SMILES IDX 23 24 13 25 14 26 22 27 15 28 21 29 16 30 20 31 17 32 19 33
REMARK SMILES IDX 18 34 34 35 35 36 36 37 37 38 38 39 39 40 40 41 41 42 42 43
REMARK SMILES IDX 103 44 43 45 102 46 44 47 45 48 46 49 96 50 47 51 101 52
REMARK SMILES IDX 95 53 97 54 48 55 100 56 94 57 93 58 49 60 81 61 61 62 80 63
REMARK SMILES IDX 62 64 65 65 79 66 98 67 63 68 64 69 78 71 99 72 66 73 50 74
REMARK SMILES IDX 51 75 59 76 52 77 53 78 57 79 60 80 54 81 55 82 58 83 56 84
REMARK SMILES IDX 82 85 83 86 91 87 84 88 85 89 89 90 92 91 86 92 87 93 90 94
REMARK SMILES IDX 88 95 67 96 68 97 76 98 69 99 70 100 74 101 77 102 71 103
REMARK SMILES IDX 72 104 75 105 73 106
REMARK H PARENT 6 15 97 59 65 70
REMARK Flexibility Score: inf
ROOT
ATOM      1  C   UNL A   1      37.452  23.879  26.128  1.00  0.00     0.188 C 
ENDROOT
BRANCH   1   2
ATOM      2  O   UNL A   1      36.215  23.752  25.437  1.00  0.00    -0.376 OA
BRANCH   2   3
ATOM      3  C   UNL A   1      35.123  23.128  26.101  1.00  0.00     0.202 C 
BRANCH   3   4
ATOM      4  C   UNL A   1      33.932  24.020  26.467  1.00  0.00     0.261 C 
BRANCH   4   5
ATOM      5  O   UNL A   1      33.656  25.147  25.591  1.00  0.00    -0.462 OA
BRANCH   5   6
ATOM      6  C   UNL A   1      32.546  25.057  24.810  1.00  0.00     0.328 C 
ATOM      7  O   UNL A   1      32.254  24.043  24.178  1.00  0.00    -0.250 OA
BRANCH   6   8
ATOM      8  C   UNL A   1      31.758  26.384  24.598  1.00  0.00     0.195 C 
BRANCH   8   9
ATOM      9  C   UNL A   1      30.778  26.685  23.415  1.00  0.00     0.019 C 
ATOM     10  C   UNL A   1      31.439  26.601  22.033  1.00  0.00     0.010 C 
BRANCH   9  11
ATOM     11  C   UNL A   1      30.144  28.106  23.566  1.00  0.00     0.002 C 
ATOM     12  C   UNL A   1      30.616  29.130  22.537  1.00  0.00     0.004 C 
ENDBRANCH   9  11
ENDBRANCH   8   9
BRANCH   8  13
ATOM     13  N   UNL A   1      31.336  26.988  25.873  1.00  0.00    -0.341 N 
ATOM     14  C   UNL A   1      31.835  27.967  26.674  1.00  0.00     0.242 C 
ATOM     15  H   UNL A   1      30.506  26.594  26.225  1.00  0.00     0.164 HD
ATOM     16  O   UNL A   1      31.355  28.017  27.815  1.00  0.00    -0.273 OA
BRANCH  14  17
ATOM     17  C   UNL A   1      32.743  29.093  26.185  1.00  0.00     0.248 C 
BRANCH  17  18
ATOM     18  N   UNL A   1      32.734  30.431  26.760  1.00  0.00    -0.220 N 
ATOM     19  N   UNL A   1      33.684  30.767  27.693  1.00  0.00    -0.169 NA
ATOM     20  C   UNL A   1      31.770  31.317  26.289  1.00  0.00     0.267 A 
ATOM     21  C   UNL A   1      33.716  31.998  28.102  1.00  0.00     0.091 A 
ATOM     22  C   UNL A   1      31.809  32.686  26.843  1.00  0.00     0.075 A 
ATOM     23  O   UNL A   1      30.918  31.045  25.446  1.00  0.00    -0.268 OA
ATOM     24  C   UNL A   1      32.753  33.045  27.713  1.00  0.00     0.036 A 
BRANCH  21  25
ATOM     25  C   UNL A   1      34.825  32.450  28.971  1.00  0.00     0.003 A 
ATOM     26  C   UNL A   1      34.580  32.587  30.337  1.00  0.00     0.011 A 
ATOM     27  C   UNL A   1      36.042  32.866  28.441  1.00  0.00     0.019 A 
ATOM     28  C   UNL A   1      35.544  33.110  31.192  1.00  0.00     0.009 A 
ATOM     29  C   UNL A   1      37.022  33.419  29.289  1.00  0.00    -0.018 A 
ATOM     30  C   UNL A   1      36.766  33.542  30.679  1.00  0.00    -0.018 A 
ATOM     31  C   UNL A   1      38.239  33.896  28.785  1.00  0.00     0.009 A 
ATOM     32  C   UNL A   1      37.723  34.125  31.520  1.00  0.00     0.009 A 
ATOM     33  C   UNL A   1      39.181  34.486  29.633  1.00  0.00     0.001 A 
ATOM     34  C   UNL A   1      38.925  34.599  30.997  1.00  0.00     0.001 A 
ENDBRANCH  21  25
ENDBRANCH  17  18
ENDBRANCH  14  17
ENDBRANCH   8  13
ENDBRANCH   6   8
ENDBRANCH   5   6
ENDBRANCH   4   5
ENDBRANCH   3   4
ENDBRANCH   2   3
ENDBRANCH   1   2
BRANCH   1  35
ATOM     35  C   UNL A   1      38.414  22.683  26.092  1.00  0.00     0.188 C 
BRANCH  35  36
ATOM     36  O   UNL A   1      38.219  21.874  24.953  1.00  0.00    -0.376 OA
BRANCH  36  37
ATOM     37  C   UNL A   1      37.895  20.511  25.081  1.00  0.00     0.202 C 
BRANCH  37  38
ATOM     38  C   UNL A   1      39.024  19.495  25.259  1.00  0.00     0.261 C 
BRANCH  38  39
ATOM     39  O   UNL A   1      39.921  19.725  26.349  1.00  0.00    -0.460 OA
BRANCH  39  40
ATOM     40  C   UNL A   1      41.253  19.639  26.127  1.00  0.00     0.338 C 
ATOM     41  O   UNL A   1      41.840  18.782  25.486  1.00  0.00    -0.246 OA
BRANCH  40  42
ATOM     42  C   UNL A   1      41.825  20.935  26.567  1.00  0.00     0.060 A 
ATOM     43  C   UNL A   1      42.309  21.843  25.621  1.00  0.00     0.016 A 
ATOM     44  C   UNL A   1      41.994  21.187  27.938  1.00  0.00     0.016 A 
ATOM     45  C   UNL A   1      42.967  22.996  26.045  1.00  0.00     0.010 A 
ATOM     46  C   UNL A   1      42.658  22.344  28.360  1.00  0.00     0.010 A 
ATOM     47  C   UNL A   1      43.133  23.263  27.415  1.00  0.00    -0.014 A 
BRANCH  47  48
ATOM     48  C   UNL A   1      43.598  24.610  27.821  1.00  0.00     0.031 A 
ATOM     49  C   UNL A   1      45.033  25.026  27.772  1.00  0.00     0.074 A 
ATOM     50  C   UNL A   1      42.653  25.485  28.208  1.00  0.00     0.049 A 
ATOM     51  N   UNL A   1      45.542  26.224  27.920  1.00  0.00    -0.248 NA
ATOM     52  C   UNL A   1      46.028  23.970  27.546  1.00  0.00     0.031 C 
ATOM     53  C   UNL A   1      41.231  25.164  28.337  1.00  0.00     0.029 A 
ATOM     54  N   UNL A   1      42.729  26.814  28.534  1.00  0.00    -0.354 N 
ATOM     55  C   UNL A   1      46.914  26.076  27.781  1.00  0.00     0.074 A 
ATOM     56  C   UNL A   1      47.162  24.660  27.592  1.00  0.00     0.031 C 
ATOM     57  C   UNL A   1      40.560  26.275  28.665  1.00  0.00     0.029 A 
ATOM     58  C   UNL A   1      41.505  27.380  28.791  1.00  0.00     0.049 A 
ATOM     59  H   UNL A   1      43.576  27.313  28.578  1.00  0.00     0.167 HD
ATOM     60  C   UNL A   1      47.867  27.042  27.793  1.00  0.00     0.037 A 
ATOM     61  C   UNL A   1      41.174  28.652  29.077  1.00  0.00     0.037 A 
ATOM     62  C   UNL A   1      47.599  28.446  28.007  1.00  0.00     0.049 A 
ATOM     63  C   UNL A   1      42.246  29.699  29.100  1.00  0.00     0.074 A 
ATOM     64  C   UNL A   1      48.486  29.508  27.977  1.00  0.00     0.029 A 
ATOM     65  N   UNL A   1      46.353  28.980  28.313  1.00  0.00    -0.354 N 
ATOM     66  N   UNL A   1      43.528  29.570  28.857  1.00  0.00    -0.248 NA
ATOM     67  C   UNL A   1      41.829  31.068  29.426  1.00  0.00     0.031 C 
ATOM     68  C   UNL A   1      47.794  30.671  28.334  1.00  0.00     0.029 A 
ATOM     69  C   UNL A   1      46.460  30.349  28.519  1.00  0.00     0.049 A 
ATOM     70  H   UNL A   1      45.518  28.463  28.376  1.00  0.00     0.167 HD
ATOM     71  C   UNL A   1      44.071  30.839  28.990  1.00  0.00     0.074 A 
ATOM     72  C   UNL A   1      42.973  31.729  29.312  1.00  0.00     0.031 C 
ATOM     73  C   UNL A   1      45.364  31.227  28.861  1.00  0.00     0.037 A 
BRANCH  60  74
ATOM     74  C   UNL A   1      49.295  26.624  27.569  1.00  0.00     0.064 A 
ATOM     75  C   UNL A   1      49.839  26.532  26.278  1.00  0.00     0.173 A 
ATOM     76  C   UNL A   1      50.150  26.381  28.655  1.00  0.00     0.173 A 
ATOM     77  F   UNL A   1      49.069  26.761  25.203  1.00  0.00    -0.203 F 
ATOM     78  C   UNL A   1      51.174  26.186  26.083  1.00  0.00     0.198 A 
ATOM     79  C   UNL A   1      51.494  26.066  28.457  1.00  0.00     0.198 A 
ATOM     80  F   UNL A   1      49.691  26.471  29.912  1.00  0.00    -0.203 F 
ATOM     81  F   UNL A   1      51.660  26.069  24.839  1.00  0.00    -0.200 F 
ATOM     82  C   UNL A   1      52.003  25.961  27.172  1.00  0.00     0.200 A 
ATOM     83  F   UNL A   1      52.297  25.872  29.512  1.00  0.00    -0.200 F 
ATOM     84  F   UNL A   1      53.290  25.643  26.983  1.00  0.00    -0.200 F 
ENDBRANCH  60  74
BRANCH  61  85
ATOM     85  C   UNL A   1      39.744  28.982  29.298  1.00  0.00     0.064 A 
ATOM     86  C   UNL A   1      38.904  29.295  28.222  1.00  0.00     0.173 A 
ATOM     87  C   UNL A   1      39.169  28.891  30.575  1.00  0.00     0.173 A 
ATOM     88  F   UNL A   1      39.412  29.402  26.985  1.00  0.00    -0.203 F 
ATOM     89  C   UNL A   1      37.540  29.500  28.413  1.00  0.00     0.198 A 
ATOM     90  C   UNL A   1      37.800  29.066  30.760  1.00  0.00     0.198 A 
ATOM     91  F   UNL A   1      39.930  28.577  31.633  1.00  0.00    -0.203 F 
ATOM     92  F   UNL A   1      36.759  29.809  27.370  1.00  0.00    -0.200 F 
ATOM     93  C   UNL A   1      36.987  29.371  29.679  1.00  0.00     0.200 A 
ATOM     94  F   UNL A   1      37.267  28.914  31.980  1.00  0.00    -0.200 F 
ATOM     95  F   UNL A   1      35.669  29.534  29.856  1.00  0.00    -0.200 F 
ENDBRANCH  61  85
BRANCH  73  96
ATOM     96  C   UNL A   1      45.676  32.681  29.078  1.00  0.00     0.064 A 
ATOM     97  C   UNL A   1      46.090  33.163  30.330  1.00  0.00     0.173 A 
ATOM     98  C   UNL A   1      45.623  33.592  28.012  1.00  0.00     0.173 A 
ATOM     99  F   UNL A   1      46.141  32.338  31.387  1.00  0.00    -0.203 F 
ATOM    100  C   UNL A   1      46.427  34.502  30.508  1.00  0.00     0.198 A 
ATOM    101  C   UNL A   1      45.993  34.923  28.185  1.00  0.00     0.198 A 
ATOM    102  F   UNL A   1      45.238  33.186  26.793  1.00  0.00    -0.203 F 
ATOM    103  F   UNL A   1      46.782  34.946  31.722  1.00  0.00    -0.200 F 
ATOM    104  C   UNL A   1      46.389  35.379  29.434  1.00  0.00     0.200 A 
ATOM    105  F   UNL A   1      45.970  35.766  27.143  1.00  0.00    -0.200 F 
ATOM    106  F   UNL A   1      46.730  36.664  29.603  1.00  0.00    -0.200 F 
ENDBRANCH  73  96
ENDBRANCH  47  48
ENDBRANCH  40  42
ENDBRANCH  39  40
ENDBRANCH  38  39
ENDBRANCH  37  38
ENDBRANCH  36  37
ENDBRANCH  35  36
ENDBRANCH   1  35
TORSDOF 23
ENDMDL
MODEL 2
REMARK VINA RESULT:     -10.5      0.757      6.828
REMARK SMILES CC[C@@H](C)[C@@H](NC(=O)Cn1nc(-c2ccc3ccccc3c2)ccc1=O)C(=O)OCCOCCOCCOC(=O)c1ccc(-c2c3nc(c(-c4c(F)c(F)c(F)c(F)c4F)c4ccc([nH]4)c(-c4c(F)c(F)c(F)c(F)c4F)c4nc(c(-c5c(F)c(F)c(F)c(F)c5F)c5ccc2[nH]5)C=C4)C=C3)cc1
REMARK SMILES IDX 33 1 32 2 31 3 30 4 29 5 27 6 28 7 5 8 3 9 4 10 2 11 1 12
REMARK SMILES IDX 6 13 7 14 8 16 9 17 10 18 11 19 25 20 12 21 24 22 26 23
REMARK SMILES IDX 23 24 13 25 14 26 22 27 15 28 21 29 16 30 20 31 17 32 19 33
REMARK SMILES IDX 18 34 34 35 35 36 36 37 37 38 38 39 39 40 40 41 41 42 42 43
REMARK SMILES IDX 103 44 43 45 102 46 44 47 45 48 46 49 96 50 47 51 101 52
REMARK SMILES IDX 95 53 97 54 48 55 100 56 94 57 93 58 49 60 81 61 61 62 80 63
REMARK SMILES IDX 62 64 65 65 79 66 98 67 63 68 64 69 78 71 99 72 66 73 50 74
REMARK SMILES IDX 51 75 59 76 52 77 53 78 57 79 60 80 54 81 55 82 58 83 56 84
REMARK SMILES IDX 82 85 83 86 91 87 84 88 85 89 89 90 92 91 86 92 87 93 90 94
REMARK SMILES IDX 88 95 67 96 68 97 76 98 69 99 70 100 74 101 77 102 71 103
REMARK SMILES IDX 72 104 75 105 73 106
REMARK H PARENT 6 15 97 59 65 70
REMARK Flexibility Score: inf
ROOT
ATOM      1  C   UNL A   1      37.449  23.702  25.841  1.00  0.00     0.188 C 
ENDROOT
BRANCH   1   2
ATOM      2  O   UNL A   1      36.172  23.472  25.257  1.00  0.00    -0.376 OA
BRANCH   2   3
ATOM      3  C   UNL A   1      35.087  23.120  26.107  1.00  0.00     0.202 C 
BRANCH   3   4
ATOM      4  C   UNL A   1      33.921  24.110  26.189  1.00  0.00     0.261 C 
BRANCH   4   5
ATOM      5  O   UNL A   1      33.230  24.422  24.949  1.00  0.00    -0.462 OA
BRANCH   5   6
ATOM      6  C   UNL A   1      31.943  24.851  25.056  1.00  0.00     0.328 C 
ATOM      7  O   UNL A   1      30.988  24.082  25.146  1.00  0.00    -0.250 OA
BRANCH   6   8
ATOM      8  C   UNL A   1      31.721  26.380  24.859  1.00  0.00     0.195 C 
BRANCH   8   9
ATOM      9  C   UNL A   1      31.147  27.060  23.572  1.00  0.00     0.019 C 
ATOM     10  C   UNL A   1      29.614  27.054  23.505  1.00  0.00     0.010 C 
BRANCH   9  11
ATOM     11  C   UNL A   1      31.693  26.362  22.284  1.00  0.00     0.002 C 
ATOM     12  C   UNL A   1      33.186  26.561  22.032  1.00  0.00     0.004 C 
ENDBRANCH   9  11
ENDBRANCH   8   9
BRANCH   8  13
ATOM     13  N   UNL A   1      31.303  27.044  26.105  1.00  0.00    -0.341 N 
ATOM     14  C   UNL A   1      31.779  28.089  26.833  1.00  0.00     0.242 C 
ATOM     15  H   UNL A   1      30.498  26.640  26.502  1.00  0.00     0.164 HD
ATOM     16  O   UNL A   1      31.324  28.190  27.980  1.00  0.00    -0.273 OA
BRANCH  14  17
ATOM     17  C   UNL A   1      32.629  29.219  26.253  1.00  0.00     0.248 C 
BRANCH  17  18
ATOM     18  N   UNL A   1      32.657  30.563  26.812  1.00  0.00    -0.220 N 
ATOM     19  N   UNL A   1      33.621  30.887  27.734  1.00  0.00    -0.169 NA
ATOM     20  C   UNL A   1      31.711  31.467  26.338  1.00  0.00     0.267 A 
ATOM     21  C   UNL A   1      33.685  32.121  28.128  1.00  0.00     0.091 A 
ATOM     22  C   UNL A   1      31.786  32.840  26.875  1.00  0.00     0.075 A 
ATOM     23  O   UNL A   1      30.846  31.205  25.504  1.00  0.00    -0.268 OA
ATOM     24  C   UNL A   1      32.745  33.187  27.733  1.00  0.00     0.036 A 
BRANCH  21  25
ATOM     25  C   UNL A   1      34.812  32.557  28.984  1.00  0.00     0.003 A 
ATOM     26  C   UNL A   1      34.579  32.723  30.349  1.00  0.00     0.011 A 
ATOM     27  C   UNL A   1      36.037  32.932  28.440  1.00  0.00     0.019 A 
ATOM     28  C   UNL A   1      35.562  33.232  31.190  1.00  0.00     0.009 A 
ATOM     29  C   UNL A   1      37.036  33.472  29.273  1.00  0.00    -0.018 A 
ATOM     30  C   UNL A   1      36.792  33.623  30.663  1.00  0.00    -0.018 A 
ATOM     31  C   UNL A   1      38.263  33.907  28.755  1.00  0.00     0.009 A 
ATOM     32  C   UNL A   1      37.770  34.193  31.489  1.00  0.00     0.009 A 
ATOM     33  C   UNL A   1      39.225  34.485  29.589  1.00  0.00     0.001 A 
ATOM     34  C   UNL A   1      38.980  34.626  30.952  1.00  0.00     0.001 A 
ENDBRANCH  21  25
ENDBRANCH  17  18
ENDBRANCH  14  17
ENDBRANCH   8  13
ENDBRANCH   6   8
ENDBRANCH   5   6
ENDBRANCH   4   5
ENDBRANCH   3   4
ENDBRANCH   2   3
ENDBRANCH   1   2
BRANCH   1  35
ATOM     35  C   UNL A   1      38.336  22.480  26.119  1.00  0.00     0.188 C 
BRANCH  35  36
ATOM     36  O   UNL A   1      38.299  21.541  25.066  1.00  0.00    -0.376 OA
BRANCH  36  37
ATOM     37  C   UNL A   1      38.061  20.178  25.319  1.00  0.00     0.202 C 
BRANCH  37  38
ATOM     38  C   UNL A   1      39.249  19.219  25.388  1.00  0.00     0.261 C 
BRANCH  38  39
ATOM     39  O   UNL A   1      40.147  19.398  26.488  1.00  0.00    -0.460 OA
BRANCH  39  40
ATOM     40  C   UNL A   1      41.479  19.404  26.247  1.00  0.00     0.338 C 
ATOM     41  O   UNL A   1      42.142  18.510  25.748  1.00  0.00    -0.246 OA
BRANCH  40  42
ATOM     42  C   UNL A   1      41.921  20.807  26.441  1.00  0.00     0.060 A 
ATOM     43  C   UNL A   1      42.130  21.633  25.334  1.00  0.00     0.016 A 
ATOM     44  C   UNL A   1      42.252  21.256  27.729  1.00  0.00     0.016 A 
ATOM     45  C   UNL A   1      42.675  22.904  25.513  1.00  0.00     0.010 A 
ATOM     46  C   UNL A   1      42.802  22.531  27.906  1.00  0.00     0.010 A 
ATOM     47  C   UNL A   1      43.001  23.367  26.800  1.00  0.00    -0.014 A 
BRANCH  47  48
ATOM     48  C   UNL A   1      43.326  24.803  26.972  1.00  0.00     0.031 A 
ATOM     49  C   UNL A   1      42.338  25.809  27.468  1.00  0.00     0.074 A 
ATOM     50  C   UNL A   1      44.590  25.174  26.696  1.00  0.00     0.049 A 
ATOM     51  N   UNL A   1      42.550  27.048  27.837  1.00  0.00    -0.248 NA
ATOM     52  C   UNL A   1      40.935  25.384  27.548  1.00  0.00     0.031 C 
ATOM     53  C   UNL A   1      45.616  24.279  26.160  1.00  0.00     0.029 A 
ATOM     54  N   UNL A   1      45.234  26.373  26.850  1.00  0.00    -0.354 N 
ATOM     55  C   UNL A   1      41.314  27.549  28.218  1.00  0.00     0.074 A 
ATOM     56  C   UNL A   1      40.347  26.494  27.982  1.00  0.00     0.031 C 
ATOM     57  C   UNL A   1      46.775  24.944  26.077  1.00  0.00     0.029 A 
ATOM     58  C   UNL A   1      46.568  26.316  26.531  1.00  0.00     0.049 A 
ATOM     59  H   UNL A   1      44.786  27.193  27.159  1.00  0.00     0.167 HD
ATOM     60  C   UNL A   1      41.027  28.771  28.734  1.00  0.00     0.037 A 
ATOM     61  C   UNL A   1      47.526  27.257  26.613  1.00  0.00     0.037 A 
ATOM     62  C   UNL A   1      42.003  29.816  28.939  1.00  0.00     0.049 A 
ATOM     63  C   UNL A   1      47.182  28.604  27.171  1.00  0.00     0.074 A 
ATOM     64  C   UNL A   1      41.824  31.065  29.510  1.00  0.00     0.029 A 
ATOM     65  N   UNL A   1      43.338  29.743  28.560  1.00  0.00    -0.354 N 
ATOM     66  N   UNL A   1      46.034  29.035  27.633  1.00  0.00    -0.248 NA
ATOM     67  C   UNL A   1      48.265  29.593  27.230  1.00  0.00     0.031 C 
ATOM     68  C   UNL A   1      43.028  31.771  29.413  1.00  0.00     0.029 A 
ATOM     69  C   UNL A   1      43.980  30.941  28.844  1.00  0.00     0.049 A 
ATOM     70  H   UNL A   1      43.766  28.957  28.149  1.00  0.00     0.167 HD
ATOM     71  C   UNL A   1      46.254  30.341  28.048  1.00  0.00     0.074 A 
ATOM     72  C   UNL A   1      47.655  30.622  27.803  1.00  0.00     0.031 C 
ATOM     73  C   UNL A   1      45.372  31.223  28.578  1.00  0.00     0.037 A 
BRANCH  60  74
ATOM     74  C   UNL A   1      39.599  29.055  29.115  1.00  0.00     0.064 A 
ATOM     75  C   UNL A   1      38.637  29.400  28.152  1.00  0.00     0.173 A 
ATOM     76  C   UNL A   1      39.169  28.911  30.444  1.00  0.00     0.173 A 
ATOM     77  F   UNL A   1      38.991  29.545  26.866  1.00  0.00    -0.203 F 
ATOM     78  C   UNL A   1      37.309  29.619  28.509  1.00  0.00     0.198 A 
ATOM     79  C   UNL A   1      37.832  29.100  30.792  1.00  0.00     0.198 A 
ATOM     80  F   UNL A   1      40.039  28.565  31.404  1.00  0.00    -0.203 F 
ATOM     81  F   UNL A   1      36.418  29.985  27.577  1.00  0.00    -0.200 F 
ATOM     82  C   UNL A   1      36.905  29.461  29.827  1.00  0.00     0.200 A 
ATOM     83  F   UNL A   1      37.441  28.922  32.061  1.00  0.00    -0.200 F 
ATOM     84  F   UNL A   1      35.624  29.657  30.165  1.00  0.00    -0.200 F 
ENDBRANCH  60  74
BRANCH  61  85
ATOM     85  C   UNL A   1      48.908  26.901  26.205  1.00  0.00     0.064 A 
ATOM     86  C   UNL A   1      49.775  26.251  27.092  1.00  0.00     0.173 A 
ATOM     87  C   UNL A   1      49.352  27.113  24.891  1.00  0.00     0.173 A 
ATOM     88  F   UNL A   1      49.396  26.035  28.361  1.00  0.00    -0.203 F 
ATOM     89  C   UNL A   1      51.033  25.820  26.679  1.00  0.00     0.198 A 
ATOM     90  C   UNL A   1      50.598  26.655  24.471  1.00  0.00     0.198 A 
ATOM     91  F   UNL A   1      48.550  27.716  24.001  1.00  0.00    -0.203 F 
ATOM     92  F   UNL A   1      51.849  25.210  27.549  1.00  0.00    -0.200 F 
ATOM     93  C   UNL A   1      51.438  26.010  25.366  1.00  0.00     0.200 A 
ATOM     94  F   UNL A   1      50.973  26.817  23.194  1.00  0.00    -0.200 F 
ATOM     95  F   UNL A   1      52.634  25.565  24.961  1.00  0.00    -0.200 F 
ENDBRANCH  61  85
BRANCH  73  96
ATOM     96  C   UNL A   1      45.886  32.593  28.924  1.00  0.00     0.064 A 
ATOM     97  C   UNL A   1      46.464  32.863  30.174  1.00  0.00     0.173 A 
ATOM     98  C   UNL A   1      45.860  33.628  27.978  1.00  0.00     0.173 A 
ATOM     99  F   UNL A   1      46.499  31.914  31.122  1.00  0.00    -0.203 F 
ATOM    100  C   UNL A   1      46.985  34.121  30.467  1.00  0.00     0.198 A 
ATOM    101  C   UNL A   1      46.411  34.875  28.261  1.00  0.00     0.198 A 
ATOM    102  F   UNL A   1      45.322  33.424  26.766  1.00  0.00    -0.203 F 
ATOM    103  F   UNL A   1      47.497  34.367  31.681  1.00  0.00    -0.200 F 
ATOM    104  C   UNL A   1      46.968  35.122  29.507  1.00  0.00     0.200 A 
ATOM    105  F   UNL A   1      46.408  35.837  27.328  1.00  0.00    -0.200 F 
ATOM    106  F   UNL A   1      47.486  36.327  29.784  1.00  0.00    -0.200 F 
ENDBRANCH  73  96
ENDBRANCH  47  48
ENDBRANCH  40  42
ENDBRANCH  39  40
ENDBRANCH  38  39
ENDBRANCH  37  38
ENDBRANCH  36  37
ENDBRANCH  35  36
ENDBRANCH   1  35
TORSDOF 23
ENDMDL
MODEL 3
REMARK VINA RESULT:     -10.4      2.231      7.500
REMARK SMILES CC[C@@H](C)[C@@H](NC(=O)Cn1nc(-c2ccc3ccccc3c2)ccc1=O)C(=O)OCCOCCOCCOC(=O)c1ccc(-c2c3nc(c(-c4c(F)c(F)c(F)c(F)c4F)c4ccc([nH]4)c(-c4c(F)c(F)c(F)c(F)c4F)c4nc(c(-c5c(F)c(F)c(F)c(F)c5F)c5ccc2[nH]5)C=C4)C=C3)cc1
REMARK SMILES IDX 33 1 32 2 31 3 30 4 29 5 27 6 28 7 5 8 3 9 4 10 2 11 1 12
REMARK SMILES IDX 6 13 7 14 8 16 9 17 10 18 11 19 25 20 12 21 24 22 26 23
REMARK SMILES IDX 23 24 13 25 14 26 22 27 15 28 21 29 16 30 20 31 17 32 19 33
REMARK SMILES IDX 18 34 34 35 35 36 36 37 37 38 38 39 39 40 40 41 41 42 42 43
REMARK SMILES IDX 103 44 43 45 102 46 44 47 45 48 46 49 96 50 47 51 101 52
REMARK SMILES IDX 95 53 97 54 48 55 100 56 94 57 93 58 49 60 81 61 61 62 80 63
REMARK SMILES IDX 62 64 65 65 79 66 98 67 63 68 64 69 78 71 99 72 66 73 50 74
REMARK SMILES IDX 51 75 59 76 52 77 53 78 57 79 60 80 54 81 55 82 58 83 56 84
REMARK SMILES IDX 82 85 83 86 91 87 84 88 85 89 89 90 92 91 86 92 87 93 90 94
REMARK SMILES IDX 88 95 67 96 68 97 76 98 69 99 70 100 74 101 77 102 71 103
REMARK SMILES IDX 72 104 75 105 73 106
REMARK H PARENT 6 15 97 59 65 70
REMARK Flexibility Score: inf
ROOT
ATOM      1  C   UNL A   1      32.872  19.667  25.033  1.00  0.00     0.188 C 
ENDROOT
BRANCH   1   2
ATOM      2  O   UNL A   1      32.809  20.752  25.951  1.00  0.00    -0.376 OA
BRANCH   2   3
ATOM      3  C   UNL A   1      31.615  21.523  26.015  1.00  0.00     0.202 C 
BRANCH   3   4
ATOM      4  C   UNL A   1      31.648  22.908  25.360  1.00  0.00     0.261 C 
BRANCH   4   5
ATOM      5  O   UNL A   1      31.580  22.956  23.909  1.00  0.00    -0.462 OA
BRANCH   5   6
ATOM      6  C   UNL A   1      32.764  23.000  23.241  1.00  0.00     0.328 C 
ATOM      7  O   UNL A   1      33.266  22.013  22.705  1.00  0.00    -0.250 OA
BRANCH   6   8
ATOM      8  C   UNL A   1      33.559  24.334  23.360  1.00  0.00     0.195 C 
BRANCH   8   9
ATOM      9  C   UNL A   1      34.814  24.571  24.264  1.00  0.00     0.019 C 
ATOM     10  C   UNL A   1      35.977  23.617  23.963  1.00  0.00     0.010 C 
BRANCH   9  11
ATOM     11  C   UNL A   1      34.445  24.425  25.776  1.00  0.00     0.002 C 
ATOM     12  C   UNL A   1      35.172  23.299  26.507  1.00  0.00     0.004 C 
ENDBRANCH   9  11
ENDBRANCH   8   9
BRANCH   8  13
ATOM     13  N   UNL A   1      33.617  25.061  22.080  1.00  0.00    -0.341 N 
ATOM     14  C   UNL A   1      32.738  25.825  21.379  1.00  0.00     0.242 C 
ATOM     15  H   UNL A   1      34.488  24.972  21.630  1.00  0.00     0.164 HD
ATOM     16  O   UNL A   1      33.048  26.047  20.201  1.00  0.00    -0.273 OA
BRANCH  14  17
ATOM     17  C   UNL A   1      31.566  26.576  22.008  1.00  0.00     0.248 C 
BRANCH  17  18
ATOM     18  N   UNL A   1      31.379  26.701  23.447  1.00  0.00    -0.220 N 
ATOM     19  N   UNL A   1      32.214  27.522  24.164  1.00  0.00    -0.169 NA
ATOM     20  C   UNL A   1      30.320  25.998  24.012  1.00  0.00     0.267 A 
ATOM     21  C   UNL A   1      31.951  27.695  25.422  1.00  0.00     0.091 A 
ATOM     22  C   UNL A   1      30.111  26.177  25.463  1.00  0.00     0.075 A 
ATOM     23  O   UNL A   1      29.551  25.267  23.391  1.00  0.00    -0.268 OA
ATOM     24  C   UNL A   1      30.880  27.008  26.167  1.00  0.00     0.036 A 
BRANCH  21  25
ATOM     25  C   UNL A   1      32.713  28.703  26.195  1.00  0.00     0.003 A 
ATOM     26  C   UNL A   1      32.124  29.948  26.416  1.00  0.00     0.011 A 
ATOM     27  C   UNL A   1      34.032  28.483  26.576  1.00  0.00     0.019 A 
ATOM     28  C   UNL A   1      32.825  30.975  27.039  1.00  0.00     0.009 A 
ATOM     29  C   UNL A   1      34.765  29.519  27.188  1.00  0.00    -0.018 A 
ATOM     30  C   UNL A   1      34.152  30.777  27.420  1.00  0.00    -0.018 A 
ATOM     31  C   UNL A   1      36.111  29.353  27.540  1.00  0.00     0.009 A 
ATOM     32  C   UNL A   1      34.889  31.822  27.994  1.00  0.00     0.009 A 
ATOM     33  C   UNL A   1      36.838  30.406  28.102  1.00  0.00     0.001 A 
ATOM     34  C   UNL A   1      36.228  31.637  28.330  1.00  0.00     0.001 A 
ENDBRANCH  21  25
ENDBRANCH  17  18
ENDBRANCH  14  17
ENDBRANCH   8  13
ENDBRANCH   6   8
ENDBRANCH   5   6
ENDBRANCH   4   5
ENDBRANCH   3   4
ENDBRANCH   2   3
ENDBRANCH   1   2
BRANCH   1  35
ATOM     35  C   UNL A   1      34.260  19.203  24.571  1.00  0.00     0.188 C 
BRANCH  35  36
ATOM     36  O   UNL A   1      35.294  20.013  25.088  1.00  0.00    -0.376 OA
BRANCH  36  37
ATOM     37  C   UNL A   1      36.644  19.650  24.933  1.00  0.00     0.202 C 
BRANCH  37  38
ATOM     38  C   UNL A   1      37.673  20.737  24.627  1.00  0.00     0.261 C 
BRANCH  38  39
ATOM     39  O   UNL A   1      38.129  21.513  25.739  1.00  0.00    -0.460 OA
BRANCH  39  40
ATOM     40  C   UNL A   1      39.333  21.226  26.285  1.00  0.00     0.338 C 
ATOM     41  O   UNL A   1      39.918  20.155  26.260  1.00  0.00    -0.246 OA
BRANCH  40  42
ATOM     42  C   UNL A   1      39.929  22.530  26.667  1.00  0.00     0.060 A 
ATOM     43  C   UNL A   1      40.962  22.577  27.608  1.00  0.00     0.016 A 
ATOM     44  C   UNL A   1      39.365  23.719  26.179  1.00  0.00     0.016 A 
ATOM     45  C   UNL A   1      41.426  23.810  28.063  1.00  0.00     0.010 A 
ATOM     46  C   UNL A   1      39.830  24.955  26.640  1.00  0.00     0.010 A 
ATOM     47  C   UNL A   1      40.874  25.007  27.573  1.00  0.00    -0.014 A 
BRANCH  47  48
ATOM     48  C   UNL A   1      41.565  26.282  27.882  1.00  0.00     0.031 A 
ATOM     49  C   UNL A   1      40.982  27.329  28.775  1.00  0.00     0.074 A 
ATOM     50  C   UNL A   1      42.788  26.451  27.347  1.00  0.00     0.049 A 
ATOM     51  N   UNL A   1      41.562  28.394  29.270  1.00  0.00    -0.248 NA
ATOM     52  C   UNL A   1      39.571  27.177  29.151  1.00  0.00     0.031 C 
ATOM     53  C   UNL A   1      43.425  25.512  26.424  1.00  0.00     0.029 A 
ATOM     54  N   UNL A   1      43.719  27.441  27.517  1.00  0.00    -0.354 N 
ATOM     55  C   UNL A   1      40.597  29.032  30.037  1.00  0.00     0.074 A 
ATOM     56  C   UNL A   1      39.378  28.260  29.896  1.00  0.00     0.031 C 
ATOM     57  C   UNL A   1      44.662  25.942  26.147  1.00  0.00     0.029 A 
ATOM     58  C   UNL A   1      44.896  27.197  26.855  1.00  0.00     0.049 A 
ATOM     59  H   UNL A   1      43.561  28.247  28.061  1.00  0.00     0.167 HD
ATOM     60  C   UNL A   1      40.734  30.146  30.799  1.00  0.00     0.037 A 
ATOM     61  C   UNL A   1      46.047  27.894  26.833  1.00  0.00     0.037 A 
ATOM     62  C   UNL A   1      41.953  30.913  30.907  1.00  0.00     0.049 A 
ATOM     63  C   UNL A   1      46.168  29.131  27.670  1.00  0.00     0.074 A 
ATOM     64  C   UNL A   1      42.210  32.020  31.697  1.00  0.00     0.029 A 
ATOM     65  N   UNL A   1      43.114  30.667  30.183  1.00  0.00    -0.354 N 
ATOM     66  N   UNL A   1      45.288  29.666  28.481  1.00  0.00    -0.248 NA
ATOM     67  C   UNL A   1      47.443  29.855  27.601  1.00  0.00     0.031 C 
ATOM     68  C   UNL A   1      43.497  32.484  31.403  1.00  0.00     0.029 A 
ATOM     69  C   UNL A   1      44.072  31.628  30.478  1.00  0.00     0.049 A 
ATOM     70  H   UNL A   1      43.239  29.920  29.554  1.00  0.00     0.167 HD
ATOM     71  C   UNL A   1      45.902  30.784  29.027  1.00  0.00     0.074 A 
ATOM     72  C   UNL A   1      47.240  30.835  28.472  1.00  0.00     0.031 C 
ATOM     73  C   UNL A   1      45.397  31.686  29.905  1.00  0.00     0.037 A 
BRANCH  60  74
ATOM     74  C   UNL A   1      39.536  30.612  31.583  1.00  0.00     0.064 A 
ATOM     75  C   UNL A   1      39.255  30.108  32.863  1.00  0.00     0.173 A 
ATOM     76  C   UNL A   1      38.702  31.625  31.084  1.00  0.00     0.173 A 
ATOM     77  F   UNL A   1      40.023  29.144  33.392  1.00  0.00    -0.203 F 
ATOM     78  C   UNL A   1      38.169  30.577  33.597  1.00  0.00     0.198 A 
ATOM     79  C   UNL A   1      37.635  32.115  31.835  1.00  0.00     0.198 A 
ATOM     80  F   UNL A   1      38.933  32.158  29.874  1.00  0.00    -0.203 F 
ATOM     81  F   UNL A   1      37.899  30.052  34.801  1.00  0.00    -0.200 F 
ATOM     82  C   UNL A   1      37.365  31.585  33.088  1.00  0.00     0.200 A 
ATOM     83  F   UNL A   1      36.875  33.106  31.350  1.00  0.00    -0.200 F 
ATOM     84  F   UNL A   1      36.330  32.047  33.802  1.00  0.00    -0.200 F 
ENDBRANCH  60  74
BRANCH  61  85
ATOM     85  C   UNL A   1      47.178  27.374  26.024  1.00  0.00     0.064 A 
ATOM     86  C   UNL A   1      47.333  27.747  24.682  1.00  0.00     0.173 A 
ATOM     87  C   UNL A   1      48.177  26.578  26.604  1.00  0.00     0.173 A 
ATOM     88  F   UNL A   1      46.398  28.500  24.084  1.00  0.00    -0.203 F 
ATOM     89  C   UNL A   1      48.449  27.347  23.953  1.00  0.00     0.198 A 
ATOM     90  C   UNL A   1      49.307  26.205  25.882  1.00  0.00     0.198 A 
ATOM     91  F   UNL A   1      48.080  26.211  27.890  1.00  0.00    -0.203 F 
ATOM     92  F   UNL A   1      48.571  27.707  22.668  1.00  0.00    -0.200 F 
ATOM     93  C   UNL A   1      49.442  26.589  24.557  1.00  0.00     0.200 A 
ATOM     94  F   UNL A   1      50.275  25.494  26.477  1.00  0.00    -0.200 F 
ATOM     95  F   UNL A   1      50.532  26.234  23.863  1.00  0.00    -0.200 F 
ENDBRANCH  61  85
BRANCH  73  96
ATOM     96  C   UNL A   1      46.288  32.822  30.320  1.00  0.00     0.064 A 
ATOM     97  C   UNL A   1      47.168  32.704  31.407  1.00  0.00     0.173 A 
ATOM     98  C   UNL A   1      46.313  34.018  29.586  1.00  0.00     0.173 A 
ATOM     99  F   UNL A   1      47.173  31.589  32.153  1.00  0.00    -0.203 F 
ATOM    100  C   UNL A   1      48.027  33.745  31.752  1.00  0.00     0.198 A 
ATOM    101  C   UNL A   1      47.197  35.043  29.912  1.00  0.00     0.198 A 
ATOM    102  F   UNL A   1      45.496  34.184  28.535  1.00  0.00    -0.203 F 
ATOM    103  F   UNL A   1      48.830  33.623  32.818  1.00  0.00    -0.200 F 
ATOM    104  C   UNL A   1      48.049  34.908  30.998  1.00  0.00     0.200 A 
ATOM    105  F   UNL A   1      47.228  36.162  29.173  1.00  0.00    -0.200 F 
ATOM    106  F   UNL A   1      48.890  35.902  31.320  1.00  0.00    -0.200 F 
ENDBRANCH  73  96
ENDBRANCH  47  48
ENDBRANCH  40  42
ENDBRANCH  39  40
ENDBRANCH  38  39
ENDBRANCH  37  38
ENDBRANCH  36  37
ENDBRANCH  35  36
ENDBRANCH   1  35
TORSDOF 23
ENDMDL
