MODEL 1
REMARK VINA RESULT:     -10.9      0.000      0.000
REMARK SMILES CCc1ccc(C(=O)OCCOCCOCCOC(=O)c2ccc(-c3c4nc(c(-c5c(F)c(F)c(F)c(F)c5F)c5ccc([nH]5)c(-c5c(F)c(F)c(F)c(F)c5F)c5nc(c(-c6c(F)c(F)c(F)c(F)c6F)c6ccc3[nH]6)C=C5)C=C4)cc2)cc1S(=O)(=O)Nc1ccc(F)c(F)c1F
REMARK SMILES IDX 13 1 12 2 11 3 10 4 9 5 7 6 8 7 6 8 3 9 4 10 85 11 5 12
REMARK SMILES IDX 84 13 2 14 1 15 86 16 87 17 88 18 89 19 90 21 91 22 97 23
REMARK SMILES IDX 92 24 95 25 98 26 93 27 96 28 94 29 14 30 15 31 16 32 17 33
REMARK SMILES IDX 18 34 19 35 20 36 21 37 22 38 83 39 23 40 82 41 24 42 25 43
REMARK SMILES IDX 26 44 76 45 27 46 81 47 75 48 77 49 28 50 80 51 74 52 73 53
REMARK SMILES IDX 29 55 61 56 41 57 60 58 42 59 45 60 59 61 78 62 43 63 44 64
REMARK SMILES IDX 58 66 79 67 46 68 30 69 31 70 39 71 32 72 33 73 37 74 40 75
REMARK SMILES IDX 34 76 35 77 38 78 36 79 62 80 63 81 71 82 64 83 65 84 69 85
REMARK SMILES IDX 72 86 66 87 67 88 70 89 68 90 47 91 48 92 56 93 49 94 50 95
REMARK SMILES IDX 54 96 57 97 51 98 52 99 55 100 53 101
REMARK H PARENT 89 20 77 54 45 65
REMARK Flexibility Score: inf
ROOT
ATOM      1  C   UNL A   1      40.114  22.484  26.359  1.00  0.00     0.188 C 
ENDROOT
BRANCH   1   2
ATOM      2  O   UNL A   1      38.735  22.713  26.534  1.00  0.00    -0.376 OA
BRANCH   2   3
ATOM      3  C   UNL A   1      37.852  22.271  25.513  1.00  0.00     0.202 C 
BRANCH   3   4
ATOM      4  C   UNL A   1      36.328  22.104  25.730  1.00  0.00     0.261 C 
BRANCH   4   5
ATOM      5  O   UNL A   1      35.450  22.621  24.714  1.00  0.00    -0.460 OA
BRANCH   5   6
ATOM      6  C   UNL A   1      34.372  21.876  24.365  1.00  0.00     0.338 C 
ATOM      7  O   UNL A   1      34.246  20.670  24.466  1.00  0.00    -0.246 OA
BRANCH   6   8
ATOM      8  C   UNL A   1      33.247  22.801  24.098  1.00  0.00     0.061 A 
ATOM      9  C   UNL A   1      31.166  24.687  24.063  1.00  0.00    -0.028 A 
ATOM     10  C   UNL A   1      31.027  23.445  24.725  1.00  0.00     0.006 A 
ATOM     11  C   UNL A   1      32.261  24.863  23.199  1.00  0.00     0.091 A 
ATOM     12  C   UNL A   1      32.043  22.501  24.724  1.00  0.00     0.016 A 
ATOM     13  C   UNL A   1      33.345  23.946  23.295  1.00  0.00     0.038 A 
BRANCH   9  14
ATOM     14  C   UNL A   1      30.165  25.720  24.493  1.00  0.00     0.033 C 
ATOM     15  C   UNL A   1      30.085  25.891  26.003  1.00  0.00     0.009 C 
ENDBRANCH   9  14
BRANCH  11  16
ATOM     16  S   UNL A   1      32.456  26.060  21.861  1.00  0.00     0.262 S 
ATOM     17  O   UNL A   1      33.631  25.616  21.136  1.00  0.00    -0.201 OA
ATOM     18  O   UNL A   1      31.167  26.119  21.204  1.00  0.00    -0.201 OA
BRANCH  16  19
ATOM     19  N   UNL A   1      32.849  27.613  22.323  1.00  0.00    -0.277 N 
ATOM     20  H   UNL A   1      33.349  28.137  21.656  1.00  0.00     0.180 HD
BRANCH  19  21
ATOM     21  C   UNL A   1      32.565  28.288  23.539  1.00  0.00     0.088 A 
ATOM     22  C   UNL A   1      31.515  29.185  23.728  1.00  0.00     0.033 A 
ATOM     23  C   UNL A   1      33.360  27.919  24.640  1.00  0.00     0.185 A 
ATOM     24  C   UNL A   1      31.176  29.573  25.036  1.00  0.00     0.045 A 
ATOM     25  C   UNL A   1      32.986  28.250  25.932  1.00  0.00     0.196 A 
ATOM     26  F   UNL A   1      34.399  27.089  24.446  1.00  0.00    -0.201 F 
ATOM     27  C   UNL A   1      31.879  29.058  26.128  1.00  0.00     0.162 A 
ATOM     28  F   UNL A   1      33.622  27.698  26.975  1.00  0.00    -0.200 F 
ATOM     29  F   UNL A   1      31.449  29.315  27.370  1.00  0.00    -0.204 F 
ENDBRANCH  19  21
ENDBRANCH  16  19
ENDBRANCH  11  16
ENDBRANCH   6   8
ENDBRANCH   5   6
ENDBRANCH   4   5
ENDBRANCH   3   4
ENDBRANCH   2   3
ENDBRANCH   1   2
BRANCH   1  30
ATOM     30  C   UNL A   1      40.754  21.697  27.522  1.00  0.00     0.188 C 
BRANCH  30  31
ATOM     31  O   UNL A   1      40.789  20.279  27.493  1.00  0.00    -0.376 OA
BRANCH  31  32
ATOM     32  C   UNL A   1      41.096  19.597  26.283  1.00  0.00     0.202 C 
BRANCH  32  33
ATOM     33  C   UNL A   1      42.517  19.091  25.974  1.00  0.00     0.261 C 
BRANCH  33  34
ATOM     34  O   UNL A   1      43.049  19.420  24.684  1.00  0.00    -0.460 OA
BRANCH  34  35
ATOM     35  C   UNL A   1      44.401  19.507  24.616  1.00  0.00     0.338 C 
ATOM     36  O   UNL A   1      45.194  18.641  24.308  1.00  0.00    -0.246 OA
BRANCH  35  37
ATOM     37  C   UNL A   1      44.792  20.908  24.853  1.00  0.00     0.060 A 
ATOM     38  C   UNL A   1      45.332  21.266  26.096  1.00  0.00     0.016 A 
ATOM     39  C   UNL A   1      44.563  21.869  23.871  1.00  0.00     0.016 A 
ATOM     40  C   UNL A   1      45.646  22.599  26.364  1.00  0.00     0.010 A 
ATOM     41  C   UNL A   1      44.853  23.205  24.149  1.00  0.00     0.010 A 
ATOM     42  C   UNL A   1      45.375  23.578  25.401  1.00  0.00    -0.014 A 
BRANCH  42  43
ATOM     43  C   UNL A   1      45.461  25.018  25.734  1.00  0.00     0.031 A 
ATOM     44  C   UNL A   1      46.799  25.691  25.634  1.00  0.00     0.074 A 
ATOM     45  C   UNL A   1      44.389  25.696  26.177  1.00  0.00     0.049 A 
ATOM     46  N   UNL A   1      47.175  26.866  26.067  1.00  0.00    -0.248 NA
ATOM     47  C   UNL A   1      47.861  24.924  24.965  1.00  0.00     0.031 C 
ATOM     48  C   UNL A   1      43.029  25.167  26.261  1.00  0.00     0.029 A 
ATOM     49  N   UNL A   1      44.288  26.972  26.674  1.00  0.00    -0.354 N 
ATOM     50  C   UNL A   1      48.523  26.967  25.749  1.00  0.00     0.074 A 
ATOM     51  C   UNL A   1      48.902  25.731  25.100  1.00  0.00     0.031 C 
ATOM     52  C   UNL A   1      42.234  26.100  26.813  1.00  0.00     0.029 A 
ATOM     53  C   UNL A   1      43.041  27.268  27.168  1.00  0.00     0.049 A 
ATOM     54  H   UNL A   1      45.036  27.612  26.676  1.00  0.00     0.167 HD
ATOM     55  C   UNL A   1      49.365  28.000  25.984  1.00  0.00     0.037 A 
ATOM     56  C   UNL A   1      42.618  28.338  27.869  1.00  0.00     0.037 A 
ATOM     57  C   UNL A   1      48.976  29.221  26.636  1.00  0.00     0.049 A 
ATOM     58  C   UNL A   1      43.596  29.441  28.198  1.00  0.00     0.074 A 
ATOM     59  C   UNL A   1      49.749  30.334  26.914  1.00  0.00     0.029 A 
ATOM     60  N   UNL A   1      47.704  29.485  27.124  1.00  0.00    -0.354 N 
ATOM     61  N   UNL A   1      44.867  29.539  27.891  1.00  0.00    -0.248 NA
ATOM     62  C   UNL A   1      43.081  30.579  28.973  1.00  0.00     0.031 C 
ATOM     63  C   UNL A   1      48.962  31.244  27.626  1.00  0.00     0.029 A 
ATOM     64  C   UNL A   1      47.678  30.733  27.722  1.00  0.00     0.049 A 
ATOM     65  H   UNL A   1      46.935  28.874  27.055  1.00  0.00     0.167 HD
ATOM     66  C   UNL A   1      45.289  30.766  28.391  1.00  0.00     0.074 A 
ATOM     67  C   UNL A   1      44.141  31.374  29.028  1.00  0.00     0.031 C 
ATOM     68  C   UNL A   1      46.516  31.339  28.320  1.00  0.00     0.037 A 
BRANCH  55  69
ATOM     69  C   UNL A   1      50.799  27.837  25.571  1.00  0.00     0.064 A 
ATOM     70  C   UNL A   1      51.223  28.076  24.256  1.00  0.00     0.173 A 
ATOM     71  C   UNL A   1      51.768  27.466  26.515  1.00  0.00     0.173 A 
ATOM     72  F   UNL A   1      50.335  28.420  23.311  1.00  0.00    -0.203 F 
ATOM     73  C   UNL A   1      52.560  27.923  23.896  1.00  0.00     0.198 A 
ATOM     74  C   UNL A   1      53.108  27.348  26.159  1.00  0.00     0.198 A 
ATOM     75  F   UNL A   1      51.418  27.228  27.788  1.00  0.00    -0.203 F 
ATOM     76  F   UNL A   1      52.933  28.107  22.621  1.00  0.00    -0.200 F 
ATOM     77  C   UNL A   1      53.502  27.568  24.849  1.00  0.00     0.200 A 
ATOM     78  F   UNL A   1      54.020  27.019  27.086  1.00  0.00    -0.200 F 
ATOM     79  F   UNL A   1      54.790  27.431  24.503  1.00  0.00    -0.200 F 
ENDBRANCH  55  69
BRANCH  56  80
ATOM     80  C   UNL A   1      41.207  28.415  28.333  1.00  0.00     0.064 A 
ATOM     81  C   UNL A   1      40.838  27.942  29.600  1.00  0.00     0.173 A 
ATOM     82  C   UNL A   1      40.195  28.940  27.516  1.00  0.00     0.173 A 
ATOM     83  F   UNL A   1      41.766  27.408  30.410  1.00  0.00    -0.203 F 
ATOM     84  C   UNL A   1      39.511  27.969  30.023  1.00  0.00     0.198 A 
ATOM     85  C   UNL A   1      38.872  28.998  27.952  1.00  0.00     0.198 A 
ATOM     86  F   UNL A   1      40.491  29.406  26.294  1.00  0.00    -0.203 F 
ATOM     87  F   UNL A   1      39.181  27.461  31.218  1.00  0.00    -0.200 F 
ATOM     88  C   UNL A   1      38.530  28.503  29.202  1.00  0.00     0.200 A 
ATOM     89  F   UNL A   1      37.930  29.527  27.160  1.00  0.00    -0.200 F 
ATOM     90  F   UNL A   1      37.254  28.532  29.609  1.00  0.00    -0.200 F 
ENDBRANCH  56  80
BRANCH  68  91
ATOM     91  C   UNL A   1      46.676  32.731  28.864  1.00  0.00     0.064 A 
ATOM     92  C   UNL A   1      47.097  32.974  30.178  1.00  0.00     0.173 A 
ATOM     93  C   UNL A   1      46.495  33.837  28.016  1.00  0.00     0.173 A 
ATOM     94  F   UNL A   1      47.273  31.955  31.031  1.00  0.00    -0.203 F 
ATOM     95  C   UNL A   1      47.321  34.275  30.627  1.00  0.00     0.198 A 
ATOM     96  C   UNL A   1      46.750  35.130  28.458  1.00  0.00     0.198 A 
ATOM     97  F   UNL A   1      46.099  33.656  26.746  1.00  0.00    -0.203 F 
ATOM     98  F   UNL A   1      47.692  34.489  31.896  1.00  0.00    -0.200 F 
ATOM     99  C   UNL A   1      47.159  35.349  29.763  1.00  0.00     0.200 A 
ATOM    100  F   UNL A   1      46.612  36.164  27.616  1.00  0.00    -0.200 F 
ATOM    101  F   UNL A   1      47.400  36.597  30.191  1.00  0.00    -0.200 F 
ENDBRANCH  68  91
ENDBRANCH  42  43
ENDBRANCH  35  37
ENDBRANCH  34  35
ENDBRANCH  33  34
ENDBRANCH  32  33
ENDBRANCH  31  32
ENDBRANCH  30  31
ENDBRANCH   1  30
TORSDOF 21
ENDMDL
MODEL 2
REMARK VINA RESULT:     -10.4      4.054      9.923
REMARK SMILES CCc1ccc(C(=O)OCCOCCOCCOC(=O)c2ccc(-c3c4nc(c(-c5c(F)c(F)c(F)c(F)c5F)c5ccc([nH]5)c(-c5c(F)c(F)c(F)c(F)c5F)c5nc(c(-c6c(F)c(F)c(F)c(F)c6F)c6ccc3[nH]6)C=C5)C=C4)cc2)cc1S(=O)(=O)Nc1ccc(F)c(F)c1F
REMARK SMILES IDX 13 1 12 2 11 3 10 4 9 5 7 6 8 7 6 8 3 9 4 10 85 11 5 12
REMARK SMILES IDX 84 13 2 14 1 15 86 16 87 17 88 18 89 19 90 21 91 22 97 23
REMARK SMILES IDX 92 24 95 25 98 26 93 27 96 28 94 29 14 30 15 31 16 32 17 33
REMARK SMILES IDX 18 34 19 35 20 36 21 37 22 38 83 39 23 40 82 41 24 42 25 43
REMARK SMILES IDX 26 44 76 45 27 46 81 47 75 48 77 49 28 50 80 51 74 52 73 53
REMARK SMILES IDX 29 55 61 56 41 57 60 58 42 59 45 60 59 61 78 62 43 63 44 64
REMARK SMILES IDX 58 66 79 67 46 68 30 69 31 70 39 71 32 72 33 73 37 74 40 75
REMARK SMILES IDX 34 76 35 77 38 78 36 79 62 80 63 81 71 82 64 83 65 84 69 85
REMARK SMILES IDX 72 86 66 87 67 88 70 89 68 90 47 91 48 92 56 93 49 94 50 95
REMARK SMILES IDX 54 96 57 97 51 98 52 99 55 100 53 101
REMARK H PARENT 89 20 77 54 45 65
REMARK Flexibility Score: inf
ROOT
ATOM      1  C   UNL A   1      34.604  35.051  28.968  1.00  0.00     0.188 C 
ENDROOT
BRANCH   1   2
ATOM      2  O   UNL A   1      34.386  34.156  27.901  1.00  0.00    -0.376 OA
BRANCH   2   3
ATOM      3  C   UNL A   1      33.955  32.841  28.214  1.00  0.00     0.202 C 
BRANCH   3   4
ATOM      4  C   UNL A   1      34.630  31.572  27.637  1.00  0.00     0.261 C 
BRANCH   4   5
ATOM      5  O   UNL A   1      33.834  30.717  26.798  1.00  0.00    -0.460 OA
BRANCH   5   6
ATOM      6  C   UNL A   1      34.007  29.376  26.908  1.00  0.00     0.338 C 
ATOM      7  O   UNL A   1      34.827  28.793  27.592  1.00  0.00    -0.246 OA
BRANCH   6   8
ATOM      8  C   UNL A   1      32.844  28.713  26.274  1.00  0.00     0.061 A 
ATOM      9  C   UNL A   1      30.869  27.550  24.651  1.00  0.00    -0.028 A 
ATOM     10  C   UNL A   1      31.041  28.951  24.716  1.00  0.00     0.006 A 
ATOM     11  C   UNL A   1      31.524  26.753  25.608  1.00  0.00     0.091 A 
ATOM     12  C   UNL A   1      31.999  29.531  25.535  1.00  0.00     0.016 A 
ATOM     13  C   UNL A   1      32.581  27.339  26.358  1.00  0.00     0.038 A 
BRANCH   9  14
ATOM     14  C   UNL A   1      30.094  27.087  23.451  1.00  0.00     0.033 C 
ATOM     15  C   UNL A   1      28.920  27.991  23.106  1.00  0.00     0.009 C 
ENDBRANCH   9  14
BRANCH  11  16
ATOM     16  S   UNL A   1      31.136  25.065  26.120  1.00  0.00     0.262 S 
ATOM     17  O   UNL A   1      32.130  24.746  27.126  1.00  0.00    -0.201 OA
ATOM     18  O   UNL A   1      29.728  25.078  26.459  1.00  0.00    -0.201 OA
BRANCH  16  19
ATOM     19  N   UNL A   1      31.357  23.883  24.966  1.00  0.00    -0.277 N 
ATOM     20  H   UNL A   1      30.556  23.650  24.444  1.00  0.00     0.180 HD
BRANCH  19  21
ATOM     21  C   UNL A   1      32.534  23.165  24.628  1.00  0.00     0.088 A 
ATOM     22  C   UNL A   1      33.704  23.736  24.130  1.00  0.00     0.033 A 
ATOM     23  C   UNL A   1      32.515  21.790  24.930  1.00  0.00     0.185 A 
ATOM     24  C   UNL A   1      34.878  22.965  24.094  1.00  0.00     0.045 A 
ATOM     25  C   UNL A   1      33.686  21.050  24.955  1.00  0.00     0.196 A 
ATOM     26  F   UNL A   1      31.374  21.233  25.367  1.00  0.00    -0.201 F 
ATOM     27  C   UNL A   1      34.871  21.648  24.559  1.00  0.00     0.162 A 
ATOM     28  F   UNL A   1      33.685  19.811  25.467  1.00  0.00    -0.200 F 
ATOM     29  F   UNL A   1      36.026  20.979  24.663  1.00  0.00    -0.204 F 
ENDBRANCH  19  21
ENDBRANCH  16  19
ENDBRANCH  11  16
ENDBRANCH   6   8
ENDBRANCH   5   6
ENDBRANCH   4   5
ENDBRANCH   3   4
ENDBRANCH   2   3
ENDBRANCH   1   2
BRANCH   1  30
ATOM     30  C   UNL A   1      33.320  35.390  29.752  1.00  0.00     0.188 C 
BRANCH  30  31
ATOM     31  O   UNL A   1      33.108  34.849  31.047  1.00  0.00    -0.376 OA
BRANCH  31  32
ATOM     32  C   UNL A   1      34.218  34.522  31.874  1.00  0.00     0.202 C 
BRANCH  32  33
ATOM     33  C   UNL A   1      34.322  33.166  32.596  1.00  0.00     0.261 C 
BRANCH  33  34
ATOM     34  O   UNL A   1      35.266  32.227  32.067  1.00  0.00    -0.460 OA
BRANCH  34  35
ATOM     35  C   UNL A   1      36.373  32.022  32.825  1.00  0.00     0.338 C 
ATOM     36  O   UNL A   1      36.512  32.214  34.015  1.00  0.00    -0.246 OA
BRANCH  35  37
ATOM     37  C   UNL A   1      37.400  31.378  31.988  1.00  0.00     0.060 A 
ATOM     38  C   UNL A   1      38.407  30.619  32.602  1.00  0.00     0.016 A 
ATOM     39  C   UNL A   1      37.400  31.579  30.609  1.00  0.00     0.016 A 
ATOM     40  C   UNL A   1      39.426  30.058  31.834  1.00  0.00     0.010 A 
ATOM     41  C   UNL A   1      38.434  31.039  29.845  1.00  0.00     0.010 A 
ATOM     42  C   UNL A   1      39.461  30.295  30.455  1.00  0.00    -0.014 A 
BRANCH  42  43
ATOM     43  C   UNL A   1      40.648  29.929  29.649  1.00  0.00     0.031 A 
ATOM     44  C   UNL A   1      40.699  28.557  29.042  1.00  0.00     0.074 A 
ATOM     45  C   UNL A   1      41.685  30.773  29.513  1.00  0.00     0.049 A 
ATOM     46  N   UNL A   1      41.700  27.930  28.485  1.00  0.00    -0.248 NA
ATOM     47  C   UNL A   1      39.448  27.784  29.086  1.00  0.00     0.031 C 
ATOM     48  C   UNL A   1      41.726  32.148  30.006  1.00  0.00     0.029 A 
ATOM     49  N   UNL A   1      42.920  30.577  28.946  1.00  0.00    -0.354 N 
ATOM     50  C   UNL A   1      41.210  26.678  28.136  1.00  0.00     0.074 A 
ATOM     51  C   UNL A   1      39.826  26.630  28.558  1.00  0.00     0.031 C 
ATOM     52  C   UNL A   1      42.943  32.663  29.752  1.00  0.00     0.029 A 
ATOM     53  C   UNL A   1      43.777  31.636  29.127  1.00  0.00     0.049 A 
ATOM     54  H   UNL A   1      43.168  29.759  28.458  1.00  0.00     0.167 HD
ATOM     55  C   UNL A   1      41.860  25.662  27.524  1.00  0.00     0.037 A 
ATOM     56  C   UNL A   1      45.094  31.740  28.863  1.00  0.00     0.037 A 
ATOM     57  C   UNL A   1      43.238  25.721  27.116  1.00  0.00     0.049 A 
ATOM     58  C   UNL A   1      45.822  30.563  28.260  1.00  0.00     0.074 A 
ATOM     59  C   UNL A   1      43.991  24.751  26.479  1.00  0.00     0.029 A 
ATOM     60  N   UNL A   1      44.075  26.809  27.317  1.00  0.00    -0.354 N 
ATOM     61  N   UNL A   1      45.357  29.384  27.925  1.00  0.00    -0.248 NA
ATOM     62  C   UNL A   1      47.261  30.730  28.002  1.00  0.00     0.031 C 
ATOM     63  C   UNL A   1      45.298  25.228  26.352  1.00  0.00     0.029 A 
ATOM     64  C   UNL A   1      45.341  26.525  26.838  1.00  0.00     0.049 A 
ATOM     65  H   UNL A   1      43.806  27.657  27.739  1.00  0.00     0.167 HD
ATOM     66  C   UNL A   1      46.428  28.689  27.375  1.00  0.00     0.074 A 
ATOM     67  C   UNL A   1      47.570  29.576  27.427  1.00  0.00     0.031 C 
ATOM     68  C   UNL A   1      46.459  27.434  26.864  1.00  0.00     0.037 A 
BRANCH  55  69
ATOM     69  C   UNL A   1      41.103  24.386  27.297  1.00  0.00     0.064 A 
ATOM     70  C   UNL A   1      40.034  24.310  26.392  1.00  0.00     0.173 A 
ATOM     71  C   UNL A   1      41.475  23.214  27.971  1.00  0.00     0.173 A 
ATOM     72  F   UNL A   1      39.629  25.406  25.731  1.00  0.00    -0.203 F 
ATOM     73  C   UNL A   1      39.348  23.114  26.193  1.00  0.00     0.198 A 
ATOM     74  C   UNL A   1      40.809  22.013  27.744  1.00  0.00     0.198 A 
ATOM     75  F   UNL A   1      42.492  23.229  28.846  1.00  0.00    -0.203 F 
ATOM     76  F   UNL A   1      38.295  23.079  25.363  1.00  0.00    -0.200 F 
ATOM     77  C   UNL A   1      39.741  21.966  26.862  1.00  0.00     0.200 A 
ATOM     78  F   UNL A   1      41.201  20.900  28.381  1.00  0.00    -0.200 F 
ATOM     79  F   UNL A   1      39.086  20.814  26.662  1.00  0.00    -0.200 F 
ENDBRANCH  55  69
BRANCH  56  80
ATOM     80  C   UNL A   1      45.822  32.995  29.186  1.00  0.00     0.064 A 
ATOM     81  C   UNL A   1      45.949  34.020  28.238  1.00  0.00     0.173 A 
ATOM     82  C   UNL A   1      46.426  33.190  30.438  1.00  0.00     0.173 A 
ATOM     83  F   UNL A   1      45.411  33.872  27.018  1.00  0.00    -0.203 F 
ATOM     84  C   UNL A   1      46.669  35.179  28.519  1.00  0.00     0.198 A 
ATOM     85  C   UNL A   1      47.119  34.364  30.730  1.00  0.00     0.198 A 
ATOM     86  F   UNL A   1      46.337  32.242  31.382  1.00  0.00    -0.203 F 
ATOM     87  F   UNL A   1      46.818  36.118  27.575  1.00  0.00    -0.200 F 
ATOM     88  C   UNL A   1      47.248  35.353  29.768  1.00  0.00     0.200 A 
ATOM     89  F   UNL A   1      47.664  34.533  31.942  1.00  0.00    -0.200 F 
ATOM     90  F   UNL A   1      47.938  36.468  30.039  1.00  0.00    -0.200 F 
ENDBRANCH  56  80
BRANCH  68  91
ATOM     91  C   UNL A   1      47.740  26.959  26.236  1.00  0.00     0.064 A 
ATOM     92  C   UNL A   1      48.033  27.175  24.883  1.00  0.00     0.173 A 
ATOM     93  C   UNL A   1      48.728  26.360  27.036  1.00  0.00     0.173 A 
ATOM     94  F   UNL A   1      47.119  27.731  24.074  1.00  0.00    -0.203 F 
ATOM     95  C   UNL A   1      49.266  26.800  24.351  1.00  0.00     0.198 A 
ATOM     96  C   UNL A   1      49.968  26.017  26.509  1.00  0.00     0.198 A 
ATOM     97  F   UNL A   1      48.499  26.138  28.340  1.00  0.00    -0.203 F 
ATOM     98  F   UNL A   1      49.514  26.986  23.048  1.00  0.00    -0.200 F 
ATOM     99  C   UNL A   1      50.235  26.233  25.166  1.00  0.00     0.200 A 
ATOM    100  F   UNL A   1      50.909  25.488  27.302  1.00  0.00    -0.200 F 
ATOM    101  F   UNL A   1      51.428  25.897  24.656  1.00  0.00    -0.200 F 
ENDBRANCH  68  91
ENDBRANCH  42  43
ENDBRANCH  35  37
ENDBRANCH  34  35
ENDBRANCH  33  34
ENDBRANCH  32  33
ENDBRANCH  31  32
ENDBRANCH  30  31
ENDBRANCH   1  30
TORSDOF 21
ENDMDL
MODEL 3
REMARK VINA RESULT:     -10.4      3.896      8.801
REMARK SMILES CCc1ccc(C(=O)OCCOCCOCCOC(=O)c2ccc(-c3c4nc(c(-c5c(F)c(F)c(F)c(F)c5F)c5ccc([nH]5)c(-c5c(F)c(F)c(F)c(F)c5F)c5nc(c(-c6c(F)c(F)c(F)c(F)c6F)c6ccc3[nH]6)C=C5)C=C4)cc2)cc1S(=O)(=O)Nc1ccc(F)c(F)c1F
REMARK SMILES IDX 13 1 12 2 11 3 10 4 9 5 7 6 8 7 6 8 3 9 4 10 85 11 5 12
REMARK SMILES IDX 84 13 2 14 1 15 86 16 87 17 88 18 89 19 90 21 91 22 97 23
REMARK SMILES IDX 92 24 95 25 98 26 93 27 96 28 94 29 14 30 15 31 16 32 17 33
REMARK SMILES IDX 18 34 19 35 20 36 21 37 22 38 83 39 23 40 82 41 24 42 25 43
REMARK SMILES IDX 26 44 76 45 27 46 81 47 75 48 77 49 28 50 80 51 74 52 73 53
REMARK SMILES IDX 29 55 61 56 41 57 60 58 42 59 45 60 59 61 78 62 43 63 44 64
REMARK SMILES IDX 58 66 79 67 46 68 30 69 31 70 39 71 32 72 33 73 37 74 40 75
REMARK SMILES IDX 34 76 35 77 38 78 36 79 62 80 63 81 71 82 64 83 65 84 69 85
REMARK SMILES IDX 72 86 66 87 67 88 70 89 68 90 47 91 48 92 56 93 49 94 50 95
REMARK SMILES IDX 54 96 57 97 51 98 52 99 55 100 53 101
REMARK H PARENT 89 20 77 54 45 65
REMARK Flexibility Score: inf
ROOT
ATOM      1  C   UNL A   1      36.768  30.090  30.188  1.00  0.00     0.188 C 
ENDROOT
BRANCH   1   2
ATOM      2  O   UNL A   1      36.854  30.708  28.925  1.00  0.00    -0.376 OA
BRANCH   2   3
ATOM      3  C   UNL A   1      36.308  30.020  27.810  1.00  0.00     0.202 C 
BRANCH   3   4
ATOM      4  C   UNL A   1      34.785  29.837  27.593  1.00  0.00     0.261 C 
BRANCH   4   5
ATOM      5  O   UNL A   1      34.363  28.841  26.645  1.00  0.00    -0.460 OA
BRANCH   5   6
ATOM      6  C   UNL A   1      33.113  28.328  26.775  1.00  0.00     0.338 C 
ATOM      7  O   UNL A   1      32.158  28.845  27.323  1.00  0.00    -0.246 OA
BRANCH   6   8
ATOM      8  C   UNL A   1      33.012  27.147  25.888  1.00  0.00     0.061 A 
ATOM      9  C   UNL A   1      33.302  24.856  24.289  1.00  0.00    -0.028 A 
ATOM     10  C   UNL A   1      33.799  26.114  23.876  1.00  0.00     0.006 A 
ATOM     11  C   UNL A   1      32.430  24.814  25.391  1.00  0.00     0.091 A 
ATOM     12  C   UNL A   1      33.636  27.252  24.651  1.00  0.00     0.016 A 
ATOM     13  C   UNL A   1      32.365  25.954  26.239  1.00  0.00     0.038 A 
BRANCH   9  14
ATOM     14  C   UNL A   1      33.902  23.694  23.551  1.00  0.00     0.033 C 
ATOM     15  C   UNL A   1      35.423  23.718  23.520  1.00  0.00     0.009 C 
ENDBRANCH   9  14
BRANCH  11  16
ATOM     16  S   UNL A   1      31.256  23.518  25.846  1.00  0.00     0.262 S 
ATOM     17  O   UNL A   1      30.443  24.108  26.892  1.00  0.00    -0.201 OA
ATOM     18  O   UNL A   1      30.653  23.089  24.602  1.00  0.00    -0.201 OA
BRANCH  16  19
ATOM     19  N   UNL A   1      31.906  22.167  26.574  1.00  0.00    -0.277 N 
ATOM     20  H   UNL A   1      31.429  21.850  27.374  1.00  0.00     0.180 HD
BRANCH  19  21
ATOM     21  C   UNL A   1      33.048  21.408  26.205  1.00  0.00     0.088 A 
ATOM     22  C   UNL A   1      33.034  20.306  25.353  1.00  0.00     0.033 A 
ATOM     23  C   UNL A   1      34.282  21.901  26.671  1.00  0.00     0.185 A 
ATOM     24  C   UNL A   1      34.251  19.813  24.853  1.00  0.00     0.045 A 
ATOM     25  C   UNL A   1      35.477  21.457  26.128  1.00  0.00     0.196 A 
ATOM     26  F   UNL A   1      34.291  22.936  27.527  1.00  0.00    -0.201 F 
ATOM     27  C   UNL A   1      35.456  20.429  25.201  1.00  0.00     0.162 A 
ATOM     28  F   UNL A   1      36.620  22.097  26.413  1.00  0.00    -0.200 F 
ATOM     29  F   UNL A   1      36.590  20.048  24.598  1.00  0.00    -0.204 F 
ENDBRANCH  19  21
ENDBRANCH  16  19
ENDBRANCH  11  16
ENDBRANCH   6   8
ENDBRANCH   5   6
ENDBRANCH   4   5
ENDBRANCH   3   4
ENDBRANCH   2   3
ENDBRANCH   1   2
BRANCH   1  30
ATOM     30  C   UNL A   1      35.903  30.876  31.195  1.00  0.00     0.188 C 
BRANCH  30  31
ATOM     31  O   UNL A   1      35.078  31.942  30.750  1.00  0.00    -0.376 OA
BRANCH  31  32
ATOM     32  C   UNL A   1      35.190  33.228  31.348  1.00  0.00     0.202 C 
BRANCH  32  33
ATOM     33  C   UNL A   1      35.316  33.408  32.872  1.00  0.00     0.261 C 
BRANCH  33  34
ATOM     34  O   UNL A   1      36.576  33.058  33.458  1.00  0.00    -0.460 OA
BRANCH  34  35
ATOM     35  C   UNL A   1      37.640  33.784  33.033  1.00  0.00     0.338 C 
ATOM     36  O   UNL A   1      37.904  34.942  33.282  1.00  0.00    -0.246 OA
BRANCH  35  37
ATOM     37  C   UNL A   1      38.549  32.892  32.292  1.00  0.00     0.060 A 
ATOM     38  C   UNL A   1      39.208  31.863  32.978  1.00  0.00     0.016 A 
ATOM     39  C   UNL A   1      38.793  33.118  30.939  1.00  0.00     0.016 A 
ATOM     40  C   UNL A   1      40.124  31.051  32.308  1.00  0.00     0.010 A 
ATOM     41  C   UNL A   1      39.728  32.323  30.277  1.00  0.00     0.010 A 
ATOM     42  C   UNL A   1      40.411  31.301  30.962  1.00  0.00    -0.014 A 
BRANCH  42  43
ATOM     43  C   UNL A   1      41.545  30.630  30.288  1.00  0.00     0.031 A 
ATOM     44  C   UNL A   1      42.794  31.425  30.037  1.00  0.00     0.074 A 
ATOM     45  C   UNL A   1      41.445  29.363  29.850  1.00  0.00     0.049 A 
ATOM     46  N   UNL A   1      43.827  31.139  29.289  1.00  0.00    -0.248 NA
ATOM     47  C   UNL A   1      42.877  32.728  30.715  1.00  0.00     0.031 C 
ATOM     48  C   UNL A   1      40.309  28.475  30.084  1.00  0.00     0.029 A 
ATOM     49  N   UNL A   1      42.306  28.618  29.082  1.00  0.00    -0.354 N 
ATOM     50  C   UNL A   1      44.670  32.238  29.383  1.00  0.00     0.074 A 
ATOM     51  C   UNL A   1      44.023  33.201  30.248  1.00  0.00     0.031 C 
ATOM     52  C   UNL A   1      40.527  27.313  29.442  1.00  0.00     0.029 A 
ATOM     53  C   UNL A   1      41.791  27.400  28.711  1.00  0.00     0.049 A 
ATOM     54  H   UNL A   1      43.205  28.927  28.824  1.00  0.00     0.167 HD
ATOM     55  C   UNL A   1      45.874  32.425  28.794  1.00  0.00     0.037 A 
ATOM     56  C   UNL A   1      42.266  26.486  27.841  1.00  0.00     0.037 A 
ATOM     57  C   UNL A   1      46.504  31.462  27.931  1.00  0.00     0.049 A 
ATOM     58  C   UNL A   1      43.569  26.753  27.127  1.00  0.00     0.074 A 
ATOM     59  C   UNL A   1      47.727  31.548  27.291  1.00  0.00     0.029 A 
ATOM     60  N   UNL A   1      45.951  30.240  27.576  1.00  0.00    -0.354 N 
ATOM     61  N   UNL A   1      44.369  27.788  27.222  1.00  0.00    -0.248 NA
ATOM     62  C   UNL A   1      44.034  25.726  26.183  1.00  0.00     0.031 C 
ATOM     63  C   UNL A   1      47.887  30.407  26.501  1.00  0.00     0.029 A 
ATOM     64  C   UNL A   1      46.799  29.574  26.709  1.00  0.00     0.049 A 
ATOM     65  H   UNL A   1      45.085  29.899  27.895  1.00  0.00     0.167 HD
ATOM     66  C   UNL A   1      45.450  27.516  26.390  1.00  0.00     0.074 A 
ATOM     67  C   UNL A   1      45.201  26.222  25.794  1.00  0.00     0.031 C 
ATOM     68  C   UNL A   1      46.553  28.268  26.152  1.00  0.00     0.037 A 
BRANCH  55  69
ATOM     69  C   UNL A   1      46.570  33.734  29.030  1.00  0.00     0.064 A 
ATOM     70  C   UNL A   1      46.398  34.830  28.172  1.00  0.00     0.173 A 
ATOM     71  C   UNL A   1      47.397  33.903  30.151  1.00  0.00     0.173 A 
ATOM     72  F   UNL A   1      45.627  34.718  27.079  1.00  0.00    -0.203 F 
ATOM     73  C   UNL A   1      47.050  36.037  28.413  1.00  0.00     0.198 A 
ATOM     74  C   UNL A   1      48.020  35.121  30.407  1.00  0.00     0.198 A 
ATOM     75  F   UNL A   1      47.595  32.888  31.005  1.00  0.00    -0.203 F 
ATOM     76  F   UNL A   1      46.911  37.054  27.551  1.00  0.00    -0.200 F 
ATOM     77  C   UNL A   1      47.853  36.184  29.533  1.00  0.00     0.200 A 
ATOM     78  F   UNL A   1      48.783  35.265  31.499  1.00  0.00    -0.200 F 
ATOM     79  F   UNL A   1      48.472  37.349  29.769  1.00  0.00    -0.200 F 
ENDBRANCH  55  69
BRANCH  56  80
ATOM     80  C   UNL A   1      41.498  25.242  27.573  1.00  0.00     0.064 A 
ATOM     81  C   UNL A   1      40.385  25.252  26.720  1.00  0.00     0.173 A 
ATOM     82  C   UNL A   1      41.841  24.024  28.179  1.00  0.00     0.173 A 
ATOM     83  F   UNL A   1      40.001  26.397  26.136  1.00  0.00    -0.203 F 
ATOM     84  C   UNL A   1      39.634  24.099  26.501  1.00  0.00     0.198 A 
ATOM     85  C   UNL A   1      41.109  22.864  27.934  1.00  0.00     0.198 A 
ATOM     86  F   UNL A   1      42.895  23.958  29.006  1.00  0.00    -0.203 F 
ATOM     87  F   UNL A   1      38.545  24.151  25.722  1.00  0.00    -0.200 F 
ATOM     88  C   UNL A   1      40.000  22.905  27.102  1.00  0.00     0.200 A 
ATOM     89  F   UNL A   1      41.474  21.710  28.507  1.00  0.00    -0.200 F 
ATOM     90  F   UNL A   1      39.279  21.796  26.890  1.00  0.00    -0.200 F 
ENDBRANCH  56  80
BRANCH  68  91
ATOM     91  C   UNL A   1      47.627  27.686  25.275  1.00  0.00     0.064 A 
ATOM     92  C   UNL A   1      47.609  27.827  23.881  1.00  0.00     0.173 A 
ATOM     93  C   UNL A   1      48.740  27.060  25.859  1.00  0.00     0.173 A 
ATOM     94  F   UNL A   1      46.563  28.405  23.273  1.00  0.00    -0.203 F 
ATOM     95  C   UNL A   1      48.664  27.352  23.102  1.00  0.00     0.198 A 
ATOM     96  C   UNL A   1      49.805  26.618  25.082  1.00  0.00     0.198 A 
ATOM     97  F   UNL A   1      48.809  26.908  27.191  1.00  0.00    -0.203 F 
ATOM     98  F   UNL A   1      48.613  27.468  21.769  1.00  0.00    -0.200 F 
ATOM     99  C   UNL A   1      49.765  26.760  23.705  1.00  0.00     0.200 A 
ATOM    100  F   UNL A   1      50.876  26.064  25.667  1.00  0.00    -0.200 F 
ATOM    101  F   UNL A   1      50.788  26.328  22.954  1.00  0.00    -0.200 F 
ENDBRANCH  68  91
ENDBRANCH  42  43
ENDBRANCH  35  37
ENDBRANCH  34  35
ENDBRANCH  33  34
ENDBRANCH  32  33
ENDBRANCH  31  32
ENDBRANCH  30  31
ENDBRANCH   1  30
TORSDOF 21
ENDMDL
