MODEL 1
REMARK VINA RESULT:      -9.7      0.000      0.000
REMARK SMILES CC[C@@H](C)[C@H](NC(=O)[C@@H](C)NC(N)=O)C(=O)OCCOCCOCCOC(=O)c1ccc(-c2c3nc(c(-c4c(F)c(F)c(F)c(F)c4F)c4ccc([nH]4)c(-c4c(F)c(F)c(F)c(F)c4F)c4nc(c(-c5c(F)c(F)c(F)c(F)c5F)c5ccc2[nH]5)C=C4)C=C3)cc1
REMARK SMILES IDX 21 1 20 2 19 3 18 4 17 5 15 6 16 7 5 8 3 9 4 10 2 11 1 12
REMARK SMILES IDX 6 13 7 14 8 16 9 17 10 18 11 19 12 20 13 22 14 23 22 26
REMARK SMILES IDX 23 27 24 28 25 29 26 30 27 31 28 32 29 33 30 34 91 35 31 36
REMARK SMILES IDX 90 37 32 38 33 39 34 40 84 41 35 42 89 43 83 44 85 45 36 46
REMARK SMILES IDX 88 47 82 48 81 49 37 51 69 52 49 53 68 54 50 55 53 56 67 57
REMARK SMILES IDX 86 58 51 59 52 60 66 62 87 63 54 64 38 65 39 66 47 67 40 68
REMARK SMILES IDX 41 69 45 70 48 71 42 72 43 73 46 74 44 75 70 76 71 77 79 78
REMARK SMILES IDX 72 79 73 80 77 81 80 82 74 83 75 84 78 85 76 86 55 87 56 88
REMARK SMILES IDX 64 89 57 90 58 91 62 92 65 93 59 94 60 95 63 96 61 97
REMARK H PARENT 6 15 11 21 13 24 13 25 85 50 53 61
REMARK Flexibility Score: inf
ROOT
ATOM      1  C   UNL A   1      32.074  29.846  26.277  1.00  0.00     0.188 C 
ENDROOT
BRANCH   1   2
ATOM      2  O   UNL A   1      31.862  28.446  26.168  1.00  0.00    -0.376 OA
BRANCH   2   3
ATOM      3  C   UNL A   1      32.862  27.608  26.755  1.00  0.00     0.202 C 
BRANCH   3   4
ATOM      4  C   UNL A   1      32.601  26.098  26.612  1.00  0.00     0.261 C 
BRANCH   4   5
ATOM      5  O   UNL A   1      32.319  25.751  25.234  1.00  0.00    -0.462 OA
BRANCH   5   6
ATOM      6  C   UNL A   1      31.419  24.773  25.014  1.00  0.00     0.328 C 
ATOM      7  O   UNL A   1      30.588  24.412  25.843  1.00  0.00    -0.250 OA
BRANCH   6   8
ATOM      8  C   UNL A   1      31.529  24.117  23.615  1.00  0.00     0.195 C 
BRANCH   8   9
ATOM      9  C   UNL A   1      32.678  23.069  23.527  1.00  0.00     0.019 C 
ATOM     10  C   UNL A   1      33.207  22.877  22.101  1.00  0.00     0.010 C 
BRANCH   9  11
ATOM     11  C   UNL A   1      32.262  21.755  24.189  1.00  0.00     0.002 C 
ATOM     12  C   UNL A   1      32.305  20.508  23.330  1.00  0.00     0.004 C 
ENDBRANCH   9  11
ENDBRANCH   8   9
BRANCH   8  13
ATOM     13  N   UNL A   1      31.314  24.829  22.317  1.00  0.00    -0.341 N 
ATOM     14  C   UNL A   1      31.496  26.037  21.728  1.00  0.00     0.243 C 
ATOM     15  H   UNL A   1      30.900  24.212  21.671  1.00  0.00     0.164 HD
ATOM     16  O   UNL A   1      31.786  25.948  20.523  1.00  0.00    -0.273 OA
BRANCH  14  17
ATOM     17  C   UNL A   1      31.417  27.455  22.355  1.00  0.00     0.170 C 
ATOM     18  C   UNL A   1      30.076  27.759  22.976  1.00  0.00     0.041 C 
BRANCH  17  19
ATOM     19  N   UNL A   1      32.501  27.869  23.228  1.00  0.00    -0.327 N 
ATOM     20  C   UNL A   1      33.693  28.286  22.715  1.00  0.00     0.312 C 
ATOM     21  H   UNL A   1      32.374  27.846  24.204  1.00  0.00     0.166 HD
ATOM     22  N   UNL A   1      34.413  29.004  23.606  1.00  0.00    -0.352 N 
ATOM     23  O   UNL A   1      34.071  28.134  21.564  1.00  0.00    -0.249 OA
ATOM     24  H   UNL A   1      34.088  29.113  24.528  1.00  0.00     0.161 HD
ATOM     25  H   UNL A   1      35.262  29.419  23.331  1.00  0.00     0.161 HD
ENDBRANCH  17  19
ENDBRANCH  14  17
ENDBRANCH   8  13
ENDBRANCH   6   8
ENDBRANCH   5   6
ENDBRANCH   4   5
ENDBRANCH   3   4
ENDBRANCH   2   3
ENDBRANCH   1   2
BRANCH   1  26
ATOM     26  C   UNL A   1      31.168  30.700  25.406  1.00  0.00     0.188 C 
BRANCH  26  27
ATOM     27  O   UNL A   1      30.951  32.031  25.859  1.00  0.00    -0.376 OA
BRANCH  27  28
ATOM     28  C   UNL A   1      31.531  32.326  27.130  1.00  0.00     0.202 C 
BRANCH  28  29
ATOM     29  C   UNL A   1      32.266  33.676  27.167  1.00  0.00     0.261 C 
BRANCH  29  30
ATOM     30  O   UNL A   1      32.959  33.841  28.417  1.00  0.00    -0.460 OA
BRANCH  30  31
ATOM     31  C   UNL A   1      34.130  34.525  28.349  1.00  0.00     0.338 C 
ATOM     32  O   UNL A   1      34.272  35.729  28.212  1.00  0.00    -0.246 OA
BRANCH  31  33
ATOM     33  C   UNL A   1      35.242  33.611  28.714  1.00  0.00     0.060 A 
ATOM     34  C   UNL A   1      34.917  32.285  29.042  1.00  0.00     0.016 A 
ATOM     35  C   UNL A   1      36.583  34.000  28.628  1.00  0.00     0.016 A 
ATOM     36  C   UNL A   1      35.923  31.357  29.316  1.00  0.00     0.010 A 
ATOM     37  C   UNL A   1      37.590  33.080  28.924  1.00  0.00     0.010 A 
ATOM     38  C   UNL A   1      37.261  31.768  29.311  1.00  0.00    -0.014 A 
BRANCH  38  39
ATOM     39  C   UNL A   1      38.280  30.951  30.010  1.00  0.00     0.031 A 
ATOM     40  C   UNL A   1      38.494  31.246  31.470  1.00  0.00     0.074 A 
ATOM     41  C   UNL A   1      38.999  30.000  29.391  1.00  0.00     0.049 A 
ATOM     42  N   UNL A   1      39.390  30.776  32.297  1.00  0.00    -0.248 NA
ATOM     43  C   UNL A   1      37.570  32.222  32.074  1.00  0.00     0.031 C 
ATOM     44  C   UNL A   1      38.851  29.592  27.996  1.00  0.00     0.029 A 
ATOM     45  N   UNL A   1      40.018  29.213  29.867  1.00  0.00    -0.354 N 
ATOM     46  C   UNL A   1      39.141  31.405  33.509  1.00  0.00     0.074 A 
ATOM     47  C   UNL A   1      38.036  32.311  33.308  1.00  0.00     0.031 C 
ATOM     48  C   UNL A   1      39.767  28.646  27.721  1.00  0.00     0.029 A 
ATOM     49  C   UNL A   1      40.585  28.406  28.911  1.00  0.00     0.049 A 
ATOM     50  H   UNL A   1      40.315  29.225  30.806  1.00  0.00     0.167 HD
ATOM     51  C   UNL A   1      39.776  31.238  34.691  1.00  0.00     0.037 A 
ATOM     52  C   UNL A   1      41.659  27.596  28.990  1.00  0.00     0.037 A 
ATOM     53  C   UNL A   1      40.885  30.347  34.886  1.00  0.00     0.049 A 
ATOM     54  C   UNL A   1      42.400  27.480  30.301  1.00  0.00     0.074 A 
ATOM     55  C   UNL A   1      41.606  30.105  36.039  1.00  0.00     0.029 A 
ATOM     56  N   UNL A   1      41.436  29.555  33.889  1.00  0.00    -0.354 N 
ATOM     57  N   UNL A   1      42.155  28.066  31.449  1.00  0.00    -0.248 NA
ATOM     58  C   UNL A   1      43.569  26.587  30.327  1.00  0.00     0.031 C 
ATOM     59  C   UNL A   1      42.626  29.198  35.730  1.00  0.00     0.029 A 
ATOM     60  C   UNL A   1      42.503  28.835  34.397  1.00  0.00     0.049 A 
ATOM     61  H   UNL A   1      41.116  29.512  32.959  1.00  0.00     0.167 HD
ATOM     62  C   UNL A   1      43.117  27.595  32.335  1.00  0.00     0.074 A 
ATOM     63  C   UNL A   1      43.942  26.663  31.597  1.00  0.00     0.031 C 
ATOM     64  C   UNL A   1      43.300  27.902  33.644  1.00  0.00     0.037 A 
BRANCH  51  65
ATOM     65  C   UNL A   1      39.299  32.066  35.847  1.00  0.00     0.064 A 
ATOM     66  C   UNL A   1      38.392  31.558  36.791  1.00  0.00     0.173 A 
ATOM     67  C   UNL A   1      39.748  33.384  36.009  1.00  0.00     0.173 A 
ATOM     68  F   UNL A   1      37.911  30.312  36.663  1.00  0.00    -0.203 F 
ATOM     69  C   UNL A   1      37.931  32.351  37.838  1.00  0.00     0.198 A 
ATOM     70  C   UNL A   1      39.310  34.163  37.076  1.00  0.00     0.198 A 
ATOM     71  F   UNL A   1      40.610  33.918  35.131  1.00  0.00    -0.203 F 
ATOM     72  F   UNL A   1      37.023  31.865  38.695  1.00  0.00    -0.200 F 
ATOM     73  C   UNL A   1      38.396  33.650  37.984  1.00  0.00     0.200 A 
ATOM     74  F   UNL A   1      39.764  35.416  37.220  1.00  0.00    -0.200 F 
ATOM     75  F   UNL A   1      37.955  34.411  38.995  1.00  0.00    -0.200 F 
ENDBRANCH  51  65
BRANCH  52  76
ATOM     76  C   UNL A   1      42.120  26.843  27.792  1.00  0.00     0.064 A 
ATOM     77  C   UNL A   1      41.718  25.520  27.567  1.00  0.00     0.173 A 
ATOM     78  C   UNL A   1      43.001  27.420  26.865  1.00  0.00     0.173 A 
ATOM     79  F   UNL A   1      40.901  24.911  28.440  1.00  0.00    -0.203 F 
ATOM     80  C   UNL A   1      42.193  24.796  26.473  1.00  0.00     0.198 A 
ATOM     81  C   UNL A   1      43.454  26.706  25.757  1.00  0.00     0.198 A 
ATOM     82  F   UNL A   1      43.426  28.681  27.037  1.00  0.00    -0.203 F 
ATOM     83  F   UNL A   1      41.831  23.516  26.311  1.00  0.00    -0.200 F 
ATOM     84  C   UNL A   1      43.055  25.392  25.566  1.00  0.00     0.200 A 
ATOM     85  F   UNL A   1      44.281  27.288  24.879  1.00  0.00    -0.200 F 
ATOM     86  F   UNL A   1      43.511  24.696  24.515  1.00  0.00    -0.200 F 
ENDBRANCH  52  76
BRANCH  64  87
ATOM     87  C   UNL A   1      44.406  27.197  34.374  1.00  0.00     0.064 A 
ATOM     88  C   UNL A   1      44.197  25.972  35.025  1.00  0.00     0.173 A 
ATOM     89  C   UNL A   1      45.705  27.726  34.369  1.00  0.00     0.173 A 
ATOM     90  F   UNL A   1      42.970  25.431  35.068  1.00  0.00    -0.203 F 
ATOM     91  C   UNL A   1      45.245  25.315  35.664  1.00  0.00     0.198 A 
ATOM     92  C   UNL A   1      46.757  27.051  34.981  1.00  0.00     0.198 A 
ATOM     93  F   UNL A   1      45.960  28.889  33.751  1.00  0.00    -0.203 F 
ATOM     94  F   UNL A   1      45.015  24.167  36.316  1.00  0.00    -0.200 F 
ATOM     95  C   UNL A   1      46.525  25.850  35.634  1.00  0.00     0.200 A 
ATOM     96  F   UNL A   1      47.995  27.560  34.937  1.00  0.00    -0.200 F 
ATOM     97  F   UNL A   1      47.535  25.209  36.239  1.00  0.00    -0.200 F 
ENDBRANCH  64  87
ENDBRANCH  38  39
ENDBRANCH  31  33
ENDBRANCH  30  31
ENDBRANCH  29  30
ENDBRANCH  28  29
ENDBRANCH  27  28
ENDBRANCH  26  27
ENDBRANCH   1  26
TORSDOF 22
ENDMDL
MODEL 2
REMARK VINA RESULT:      -9.7      3.408      8.583
REMARK SMILES CC[C@@H](C)[C@H](NC(=O)[C@@H](C)NC(N)=O)C(=O)OCCOCCOCCOC(=O)c1ccc(-c2c3nc(c(-c4c(F)c(F)c(F)c(F)c4F)c4ccc([nH]4)c(-c4c(F)c(F)c(F)c(F)c4F)c4nc(c(-c5c(F)c(F)c(F)c(F)c5F)c5ccc2[nH]5)C=C4)C=C3)cc1
REMARK SMILES IDX 21 1 20 2 19 3 18 4 17 5 15 6 16 7 5 8 3 9 4 10 2 11 1 12
REMARK SMILES IDX 6 13 7 14 8 16 9 17 10 18 11 19 12 20 13 22 14 23 22 26
REMARK SMILES IDX 23 27 24 28 25 29 26 30 27 31 28 32 29 33 30 34 91 35 31 36
REMARK SMILES IDX 90 37 32 38 33 39 34 40 84 41 35 42 89 43 83 44 85 45 36 46
REMARK SMILES IDX 88 47 82 48 81 49 37 51 69 52 49 53 68 54 50 55 53 56 67 57
REMARK SMILES IDX 86 58 51 59 52 60 66 62 87 63 54 64 38 65 39 66 47 67 40 68
REMARK SMILES IDX 41 69 45 70 48 71 42 72 43 73 46 74 44 75 70 76 71 77 79 78
REMARK SMILES IDX 72 79 73 80 77 81 80 82 74 83 75 84 78 85 76 86 55 87 56 88
REMARK SMILES IDX 64 89 57 90 58 91 62 92 65 93 59 94 60 95 63 96 61 97
REMARK H PARENT 6 15 11 21 13 24 13 25 85 50 53 61
REMARK Flexibility Score: inf
ROOT
ATOM      1  C   UNL A   1      39.647  21.814  26.565  1.00  0.00     0.188 C 
ENDROOT
BRANCH   1   2
ATOM      2  O   UNL A   1      38.663  22.018  25.562  1.00  0.00    -0.376 OA
BRANCH   2   3
ATOM      3  C   UNL A   1      37.394  21.394  25.785  1.00  0.00     0.202 C 
BRANCH   3   4
ATOM      4  C   UNL A   1      36.565  21.150  24.511  1.00  0.00     0.261 C 
BRANCH   4   5
ATOM      5  O   UNL A   1      35.402  22.012  24.480  1.00  0.00    -0.462 OA
BRANCH   5   6
ATOM      6  C   UNL A   1      35.398  23.013  23.579  1.00  0.00     0.328 C 
ATOM      7  O   UNL A   1      36.260  23.157  22.715  1.00  0.00    -0.250 OA
BRANCH   6   8
ATOM      8  C   UNL A   1      34.212  23.997  23.733  1.00  0.00     0.195 C 
BRANCH   8   9
ATOM      9  C   UNL A   1      33.063  23.426  24.617  1.00  0.00     0.019 C 
ATOM     10  C   UNL A   1      31.686  23.528  23.950  1.00  0.00     0.010 C 
BRANCH   9  11
ATOM     11  C   UNL A   1      33.095  24.050  26.012  1.00  0.00     0.002 C 
ATOM     12  C   UNL A   1      33.434  23.132  27.168  1.00  0.00     0.004 C 
ENDBRANCH   9  11
ENDBRANCH   8   9
BRANCH   8  13
ATOM     13  N   UNL A   1      33.699  24.895  22.651  1.00  0.00    -0.341 N 
ATOM     14  C   UNL A   1      33.383  26.192  22.412  1.00  0.00     0.243 C 
ATOM     15  H   UNL A   1      33.535  24.365  21.838  1.00  0.00     0.164 HD
ATOM     16  O   UNL A   1      33.647  26.548  21.251  1.00  0.00    -0.273 OA
BRANCH  14  17
ATOM     17  C   UNL A   1      32.783  27.249  23.378  1.00  0.00     0.170 C 
ATOM     18  C   UNL A   1      33.643  27.505  24.592  1.00  0.00     0.041 C 
BRANCH  17  19
ATOM     19  N   UNL A   1      32.307  28.495  22.804  1.00  0.00    -0.327 N 
ATOM     20  C   UNL A   1      30.998  28.651  22.459  1.00  0.00     0.312 C 
ATOM     21  H   UNL A   1      32.938  29.237  22.663  1.00  0.00     0.166 HD
ATOM     22  N   UNL A   1      30.650  29.952  22.339  1.00  0.00    -0.352 N 
ATOM     23  O   UNL A   1      30.173  27.757  22.349  1.00  0.00    -0.249 OA
ATOM     24  H   UNL A   1      31.332  30.655  22.432  1.00  0.00     0.161 HD
ATOM     25  H   UNL A   1      29.713  30.195  22.160  1.00  0.00     0.161 HD
ENDBRANCH  17  19
ENDBRANCH  14  17
ENDBRANCH   8  13
ENDBRANCH   6   8
ENDBRANCH   5   6
ENDBRANCH   4   5
ENDBRANCH   3   4
ENDBRANCH   2   3
ENDBRANCH   1   2
BRANCH   1  26
ATOM     26  C   UNL A   1      41.083  21.865  26.072  1.00  0.00     0.188 C 
BRANCH  26  27
ATOM     27  O   UNL A   1      41.725  20.606  25.904  1.00  0.00    -0.376 OA
BRANCH  27  28
ATOM     28  C   UNL A   1      43.149  20.675  25.819  1.00  0.00     0.202 C 
BRANCH  28  29
ATOM     29  C   UNL A   1      43.658  21.950  25.127  1.00  0.00     0.261 C 
BRANCH  29  30
ATOM     30  O   UNL A   1      44.155  22.889  26.097  1.00  0.00    -0.460 OA
BRANCH  30  31
ATOM     31  C   UNL A   1      44.312  24.161  25.651  1.00  0.00     0.338 C 
ATOM     32  O   UNL A   1      44.820  24.516  24.600  1.00  0.00    -0.246 OA
BRANCH  31  33
ATOM     33  C   UNL A   1      43.545  25.079  26.533  1.00  0.00     0.060 A 
ATOM     34  C   UNL A   1      43.780  26.457  26.403  1.00  0.00     0.016 A 
ATOM     35  C   UNL A   1      42.536  24.620  27.386  1.00  0.00     0.016 A 
ATOM     36  C   UNL A   1      43.036  27.375  27.145  1.00  0.00     0.010 A 
ATOM     37  C   UNL A   1      41.805  25.534  28.147  1.00  0.00     0.010 A 
ATOM     38  C   UNL A   1      42.082  26.911  28.061  1.00  0.00    -0.014 A 
BRANCH  38  39
ATOM     39  C   UNL A   1      41.614  27.804  29.145  1.00  0.00     0.031 A 
ATOM     40  C   UNL A   1      42.360  27.731  30.449  1.00  0.00     0.074 A 
ATOM     41  C   UNL A   1      40.569  28.637  28.999  1.00  0.00     0.049 A 
ATOM     42  N   UNL A   1      42.103  28.304  31.595  1.00  0.00    -0.248 NA
ATOM     43  C   UNL A   1      43.560  26.876  30.459  1.00  0.00     0.031 C 
ATOM     44  C   UNL A   1      39.798  28.831  27.774  1.00  0.00     0.029 A 
ATOM     45  N   UNL A   1      39.969  29.468  29.912  1.00  0.00    -0.354 N 
ATOM     46  C   UNL A   1      43.100  27.871  32.458  1.00  0.00     0.074 A 
ATOM     47  C   UNL A   1      43.948  26.966  31.719  1.00  0.00     0.031 C 
ATOM     48  C   UNL A   1      38.807  29.707  28.019  1.00  0.00     0.029 A 
ATOM     49  C   UNL A   1      38.856  30.109  29.426  1.00  0.00     0.049 A 
ATOM     50  H   UNL A   1      40.303  29.593  30.830  1.00  0.00     0.167 HD
ATOM     51  C   UNL A   1      43.296  28.204  33.753  1.00  0.00     0.037 A 
ATOM     52  C   UNL A   1      37.969  30.902  30.059  1.00  0.00     0.037 A 
ATOM     53  C   UNL A   1      42.444  29.093  34.490  1.00  0.00     0.049 A 
ATOM     54  C   UNL A   1      38.164  31.201  31.527  1.00  0.00     0.074 A 
ATOM     55  C   UNL A   1      42.546  29.493  35.809  1.00  0.00     0.029 A 
ATOM     56  N   UNL A   1      41.320  29.714  33.964  1.00  0.00    -0.354 N 
ATOM     57  N   UNL A   1      39.115  30.801  32.337  1.00  0.00    -0.248 NA
ATOM     58  C   UNL A   1      37.161  32.065  32.168  1.00  0.00     0.031 C 
ATOM     59  C   UNL A   1      41.456  30.323  36.095  1.00  0.00     0.029 A 
ATOM     60  C   UNL A   1      40.708  30.482  34.938  1.00  0.00     0.049 A 
ATOM     61  H   UNL A   1      41.005  29.621  33.036  1.00  0.00     0.167 HD
ATOM     62  C   UNL A   1      38.842  31.383  33.569  1.00  0.00     0.074 A 
ATOM     63  C   UNL A   1      37.643  32.176  33.398  1.00  0.00     0.031 C 
ATOM     64  C   UNL A   1      39.522  31.275  34.738  1.00  0.00     0.037 A 
BRANCH  51  65
ATOM     65  C   UNL A   1      44.462  27.571  34.453  1.00  0.00     0.064 A 
ATOM     66  C   UNL A   1      44.344  26.334  35.107  1.00  0.00     0.173 A 
ATOM     67  C   UNL A   1      45.709  28.211  34.476  1.00  0.00     0.173 A 
ATOM     68  F   UNL A   1      43.165  25.696  35.137  1.00  0.00    -0.203 F 
ATOM     69  C   UNL A   1      45.426  25.776  35.782  1.00  0.00     0.198 A 
ATOM     70  C   UNL A   1      46.797  27.635  35.126  1.00  0.00     0.198 A 
ATOM     71  F   UNL A   1      45.871  29.397  33.873  1.00  0.00    -0.203 F 
ATOM     72  F   UNL A   1      45.277  24.622  36.447  1.00  0.00    -0.200 F 
ATOM     73  C   UNL A   1      46.653  26.423  35.785  1.00  0.00     0.200 A 
ATOM     74  F   UNL A   1      47.984  28.258  35.122  1.00  0.00    -0.200 F 
ATOM     75  F   UNL A   1      47.695  25.884  36.432  1.00  0.00    -0.200 F 
ENDBRANCH  51  65
BRANCH  52  76
ATOM     76  C   UNL A   1      36.799  31.455  29.325  1.00  0.00     0.064 A 
ATOM     77  C   UNL A   1      36.728  32.813  28.989  1.00  0.00     0.173 A 
ATOM     78  C   UNL A   1      35.709  30.642  28.974  1.00  0.00     0.173 A 
ATOM     79  F   UNL A   1      37.729  33.639  29.329  1.00  0.00    -0.203 F 
ATOM     80  C   UNL A   1      35.608  33.343  28.348  1.00  0.00     0.198 A 
ATOM     81  C   UNL A   1      34.602  31.166  28.309  1.00  0.00     0.198 A 
ATOM     82  F   UNL A   1      35.719  29.336  29.280  1.00  0.00    -0.203 F 
ATOM     83  F   UNL A   1      35.547  34.655  28.085  1.00  0.00    -0.200 F 
ATOM     84  C   UNL A   1      34.549  32.518  28.003  1.00  0.00     0.200 A 
ATOM     85  F   UNL A   1      33.584  30.364  27.971  1.00  0.00    -0.200 F 
ATOM     86  F   UNL A   1      33.473  33.026  27.388  1.00  0.00    -0.200 F 
ENDBRANCH  52  76
BRANCH  64  87
ATOM     87  C   UNL A   1      39.016  32.062  35.911  1.00  0.00     0.064 A 
ATOM     88  C   UNL A   1      38.190  31.485  36.887  1.00  0.00     0.173 A 
ATOM     89  C   UNL A   1      39.414  33.395  36.092  1.00  0.00     0.173 A 
ATOM     90  F   UNL A   1      37.773  30.217  36.754  1.00  0.00    -0.203 F 
ATOM     91  C   UNL A   1      37.762  32.221  37.988  1.00  0.00     0.198 A 
ATOM     92  C   UNL A   1      39.010  34.119  37.210  1.00  0.00     0.198 A 
ATOM     93  F   UNL A   1      40.212  33.990  35.194  1.00  0.00    -0.203 F 
ATOM     94  F   UNL A   1      36.939  31.663  38.887  1.00  0.00    -0.200 F 
ATOM     95  C   UNL A   1      38.179  33.534  38.153  1.00  0.00     0.200 A 
ATOM     96  F   UNL A   1      39.428  35.381  37.376  1.00  0.00    -0.200 F 
ATOM     97  F   UNL A   1      37.777  34.237  39.221  1.00  0.00    -0.200 F 
ENDBRANCH  64  87
ENDBRANCH  38  39
ENDBRANCH  31  33
ENDBRANCH  30  31
ENDBRANCH  29  30
ENDBRANCH  28  29
ENDBRANCH  27  28
ENDBRANCH  26  27
ENDBRANCH   1  26
TORSDOF 22
ENDMDL
MODEL 3
REMARK VINA RESULT:      -9.6      3.403      5.168
REMARK SMILES CC[C@@H](C)[C@H](NC(=O)[C@@H](C)NC(N)=O)C(=O)OCCOCCOCCOC(=O)c1ccc(-c2c3nc(c(-c4c(F)c(F)c(F)c(F)c4F)c4ccc([nH]4)c(-c4c(F)c(F)c(F)c(F)c4F)c4nc(c(-c5c(F)c(F)c(F)c(F)c5F)c5ccc2[nH]5)C=C4)C=C3)cc1
REMARK SMILES IDX 21 1 20 2 19 3 18 4 17 5 15 6 16 7 5 8 3 9 4 10 2 11 1 12
REMARK SMILES IDX 6 13 7 14 8 16 9 17 10 18 11 19 12 20 13 22 14 23 22 26
REMARK SMILES IDX 23 27 24 28 25 29 26 30 27 31 28 32 29 33 30 34 91 35 31 36
REMARK SMILES IDX 90 37 32 38 33 39 34 40 84 41 35 42 89 43 83 44 85 45 36 46
REMARK SMILES IDX 88 47 82 48 81 49 37 51 69 52 49 53 68 54 50 55 53 56 67 57
REMARK SMILES IDX 86 58 51 59 52 60 66 62 87 63 54 64 38 65 39 66 47 67 40 68
REMARK SMILES IDX 41 69 45 70 48 71 42 72 43 73 46 74 44 75 70 76 71 77 79 78
REMARK SMILES IDX 72 79 73 80 77 81 80 82 74 83 75 84 78 85 76 86 55 87 56 88
REMARK SMILES IDX 64 89 57 90 58 91 62 92 65 93 59 94 60 95 63 96 61 97
REMARK H PARENT 6 15 11 21 13 24 13 25 85 50 53 61
REMARK Flexibility Score: inf
ROOT
ATOM      1  C   UNL A   1      31.501  28.816  22.783  1.00  0.00     0.188 C 
ENDROOT
BRANCH   1   2
ATOM      2  O   UNL A   1      30.875  27.635  22.302  1.00  0.00    -0.376 OA
BRANCH   2   3
ATOM      3  C   UNL A   1      31.236  26.417  22.960  1.00  0.00     0.202 C 
BRANCH   3   4
ATOM      4  C   UNL A   1      32.436  25.680  22.337  1.00  0.00     0.261 C 
BRANCH   4   5
ATOM      5  O   UNL A   1      33.674  26.082  22.972  1.00  0.00    -0.462 OA
BRANCH   5   6
ATOM      6  C   UNL A   1      33.755  25.946  24.310  1.00  0.00     0.328 C 
ATOM      7  O   UNL A   1      33.637  26.880  25.099  1.00  0.00    -0.250 OA
BRANCH   6   8
ATOM      8  C   UNL A   1      34.034  24.497  24.781  1.00  0.00     0.195 C 
BRANCH   8   9
ATOM      9  C   UNL A   1      35.500  24.044  24.513  1.00  0.00     0.019 C 
ATOM     10  C   UNL A   1      35.597  22.886  23.512  1.00  0.00     0.010 C 
BRANCH   9  11
ATOM     11  C   UNL A   1      36.224  23.755  25.828  1.00  0.00     0.002 C 
ATOM     12  C   UNL A   1      37.736  23.673  25.777  1.00  0.00     0.004 C 
ENDBRANCH   9  11
ENDBRANCH   8   9
BRANCH   8  13
ATOM     13  N   UNL A   1      33.064  23.362  24.676  1.00  0.00    -0.341 N 
ATOM     14  C   UNL A   1      32.649  22.258  25.346  1.00  0.00     0.243 C 
ATOM     15  H   UNL A   1      32.555  23.444  23.838  1.00  0.00     0.164 HD
ATOM     16  O   UNL A   1      31.432  22.041  25.212  1.00  0.00    -0.273 OA
BRANCH  14  17
ATOM     17  C   UNL A   1      33.467  21.289  26.242  1.00  0.00     0.170 C 
ATOM     18  C   UNL A   1      33.887  21.903  27.555  1.00  0.00     0.041 C 
BRANCH  17  19
ATOM     19  N   UNL A   1      32.947  19.948  26.437  1.00  0.00    -0.327 N 
ATOM     20  C   UNL A   1      33.229  18.952  25.549  1.00  0.00     0.312 C 
ATOM     21  H   UNL A   1      32.382  19.755  27.220  1.00  0.00     0.166 HD
ATOM     22  N   UNL A   1      33.030  17.724  26.076  1.00  0.00    -0.352 N 
ATOM     23  O   UNL A   1      33.697  19.100  24.431  1.00  0.00    -0.249 OA
ATOM     24  H   UNL A   1      32.651  17.630  26.979  1.00  0.00     0.161 HD
ATOM     25  H   UNL A   1      33.264  16.922  25.555  1.00  0.00     0.161 HD
ENDBRANCH  17  19
ENDBRANCH  14  17
ENDBRANCH   8  13
ENDBRANCH   6   8
ENDBRANCH   5   6
ENDBRANCH   4   5
ENDBRANCH   3   4
ENDBRANCH   2   3
ENDBRANCH   1   2
BRANCH   1  26
ATOM     26  C   UNL A   1      31.076  29.242  24.178  1.00  0.00     0.188 C 
BRANCH  26  27
ATOM     27  O   UNL A   1      32.120  29.700  25.029  1.00  0.00    -0.376 OA
BRANCH  27  28
ATOM     28  C   UNL A   1      31.782  29.729  26.416  1.00  0.00     0.202 C 
BRANCH  28  29
ATOM     29  C   UNL A   1      32.561  30.789  27.212  1.00  0.00     0.261 C 
BRANCH  29  30
ATOM     30  O   UNL A   1      33.962  30.464  27.252  1.00  0.00    -0.460 OA
BRANCH  30  31
ATOM     31  C   UNL A   1      34.688  31.124  28.190  1.00  0.00     0.338 C 
ATOM     32  O   UNL A   1      34.300  32.015  28.928  1.00  0.00    -0.246 OA
BRANCH  31  33
ATOM     33  C   UNL A   1      35.990  30.432  28.365  1.00  0.00     0.060 A 
ATOM     34  C   UNL A   1      36.225  29.781  29.587  1.00  0.00     0.016 A 
ATOM     35  C   UNL A   1      36.918  30.319  27.325  1.00  0.00     0.016 A 
ATOM     36  C   UNL A   1      37.394  29.047  29.785  1.00  0.00     0.010 A 
ATOM     37  C   UNL A   1      38.100  29.604  27.527  1.00  0.00     0.010 A 
ATOM     38  C   UNL A   1      38.361  29.002  28.772  1.00  0.00    -0.014 A 
BRANCH  38  39
ATOM     39  C   UNL A   1      39.753  28.622  29.106  1.00  0.00     0.031 A 
ATOM     40  C   UNL A   1      40.558  29.627  29.886  1.00  0.00     0.074 A 
ATOM     41  C   UNL A   1      40.296  27.452  28.731  1.00  0.00     0.049 A 
ATOM     42  N   UNL A   1      41.822  29.614  30.213  1.00  0.00    -0.248 NA
ATOM     43  C   UNL A   1      39.827  30.820  30.348  1.00  0.00     0.031 C 
ATOM     44  C   UNL A   1      39.607  26.383  28.015  1.00  0.00     0.029 A 
ATOM     45  N   UNL A   1      41.576  26.980  28.894  1.00  0.00    -0.354 N 
ATOM     46  C   UNL A   1      42.037  30.797  30.908  1.00  0.00     0.074 A 
ATOM     47  C   UNL A   1      40.786  31.519  30.930  1.00  0.00     0.031 C 
ATOM     48  C   UNL A   1      40.479  25.387  27.776  1.00  0.00     0.029 A 
ATOM     49  C   UNL A   1      41.795  25.765  28.293  1.00  0.00     0.049 A 
ATOM     50  H   UNL A   1      42.271  27.468  29.393  1.00  0.00     0.167 HD
ATOM     51  C   UNL A   1      43.176  31.242  31.483  1.00  0.00     0.037 A 
ATOM     52  C   UNL A   1      42.937  25.062  28.157  1.00  0.00     0.037 A 
ATOM     53  C   UNL A   1      44.422  30.530  31.448  1.00  0.00     0.049 A 
ATOM     54  C   UNL A   1      44.216  25.613  28.743  1.00  0.00     0.074 A 
ATOM     55  C   UNL A   1      45.640  30.891  31.992  1.00  0.00     0.029 A 
ATOM     56  N   UNL A   1      44.606  29.306  30.821  1.00  0.00    -0.354 N 
ATOM     57  N   UNL A   1      44.413  26.725  29.409  1.00  0.00    -0.248 NA
ATOM     58  C   UNL A   1      45.433  24.808  28.556  1.00  0.00     0.031 C 
ATOM     59  C   UNL A   1      46.575  29.906  31.655  1.00  0.00     0.029 A 
ATOM     60  C   UNL A   1      45.924  28.906  30.949  1.00  0.00     0.049 A 
ATOM     61  H   UNL A   1      43.904  28.798  30.354  1.00  0.00     0.167 HD
ATOM     62  C   UNL A   1      45.762  26.740  29.745  1.00  0.00     0.074 A 
ATOM     63  C   UNL A   1      46.335  25.519  29.219  1.00  0.00     0.031 C 
ATOM     64  C   UNL A   1      46.466  27.677  30.428  1.00  0.00     0.037 A 
BRANCH  51  65
ATOM     65  C   UNL A   1      43.122  32.576  32.167  1.00  0.00     0.064 A 
ATOM     66  C   UNL A   1      43.351  33.771  31.468  1.00  0.00     0.173 A 
ATOM     67  C   UNL A   1      42.845  32.658  33.539  1.00  0.00     0.173 A 
ATOM     68  F   UNL A   1      43.648  33.741  30.160  1.00  0.00    -0.203 F 
ATOM     69  C   UNL A   1      43.332  34.998  32.124  1.00  0.00     0.198 A 
ATOM     70  C   UNL A   1      42.796  33.890  34.186  1.00  0.00     0.198 A 
ATOM     71  F   UNL A   1      42.626  31.545  34.254  1.00  0.00    -0.203 F 
ATOM     72  F   UNL A   1      43.609  36.122  31.449  1.00  0.00    -0.200 F 
ATOM     73  C   UNL A   1      43.047  35.058  33.481  1.00  0.00     0.200 A 
ATOM     74  F   UNL A   1      42.514  33.947  35.495  1.00  0.00    -0.200 F 
ATOM     75  F   UNL A   1      43.026  36.240  34.110  1.00  0.00    -0.200 F 
ENDBRANCH  51  65
BRANCH  52  76
ATOM     76  C   UNL A   1      42.939  23.772  27.416  1.00  0.00     0.064 A 
ATOM     77  C   UNL A   1      43.347  23.703  26.077  1.00  0.00     0.173 A 
ATOM     78  C   UNL A   1      42.499  22.585  28.022  1.00  0.00     0.173 A 
ATOM     79  F   UNL A   1      43.746  24.815  25.442  1.00  0.00    -0.203 F 
ATOM     80  C   UNL A   1      43.297  22.504  25.367  1.00  0.00     0.198 A 
ATOM     81  C   UNL A   1      42.477  21.381  27.320  1.00  0.00     0.198 A 
ATOM     82  F   UNL A   1      42.089  22.594  29.299  1.00  0.00    -0.203 F 
ATOM     83  F   UNL A   1      43.645  22.479  24.073  1.00  0.00    -0.200 F 
ATOM     84  C   UNL A   1      42.869  21.343  25.991  1.00  0.00     0.200 A 
ATOM     85  F   UNL A   1      42.068  20.260  27.929  1.00  0.00    -0.200 F 
ATOM     86  F   UNL A   1      42.821  20.191  25.308  1.00  0.00    -0.200 F 
ENDBRANCH  52  76
BRANCH  64  87
ATOM     87  C   UNL A   1      47.919  27.403  30.685  1.00  0.00     0.064 A 
ATOM     88  C   UNL A   1      48.344  26.649  31.789  1.00  0.00     0.173 A 
ATOM     89  C   UNL A   1      48.893  27.852  29.780  1.00  0.00     0.173 A 
ATOM     90  F   UNL A   1      47.453  26.208  32.689  1.00  0.00    -0.203 F 
ATOM     91  C   UNL A   1      49.694  26.374  31.988  1.00  0.00     0.198 A 
ATOM     92  C   UNL A   1      50.238  27.548  29.966  1.00  0.00     0.198 A 
ATOM     93  F   UNL A   1      48.537  28.567  28.703  1.00  0.00    -0.203 F 
ATOM     94  F   UNL A   1      50.083  25.688  33.072  1.00  0.00    -0.200 F 
ATOM     95  C   UNL A   1      50.639  26.815  31.073  1.00  0.00     0.200 A 
ATOM     96  F   UNL A   1      51.146  27.961  29.072  1.00  0.00    -0.200 F 
ATOM     97  F   UNL A   1      51.936  26.538  31.260  1.00  0.00    -0.200 F 
ENDBRANCH  64  87
ENDBRANCH  38  39
ENDBRANCH  31  33
ENDBRANCH  30  31
ENDBRANCH  29  30
ENDBRANCH  28  29
ENDBRANCH  27  28
ENDBRANCH  26  27
ENDBRANCH   1  26
TORSDOF 22
ENDMDL
