MODEL 1
REMARK VINA RESULT:     -11.9      0.000      0.000
REMARK SMILES COc1cc2c(CC(=O)OCCOCCOCCOC(=O)c3ccc(-c4c5nc(c(-c6c(F)c(F)c(F)c(F)c6F)c6ccc([nH]6)c(-c6c(F)c(F)c(F)c(F)c6F)c6nc(c(-c7c(F)c(F)c(F)c(F)c7F)c7ccc4[nH]7)C=C6)C=C5)cc3)c(C)n(C(=O)c3ccc(Cl)cc3)c2cc1Cl
REMARK SMILES IDX 14 1 13 2 12 3 11 4 10 5 8 6 9 7 7 8 6 9 3 10 4 11 99 12
REMARK SMILES IDX 5 13 98 14 100 15 97 16 85 17 87 18 86 19 2 20 1 21 88 22
REMARK SMILES IDX 89 23 90 24 91 25 96 26 92 27 95 28 93 29 94 30 15 31 16 32
REMARK SMILES IDX 17 33 18 34 19 35 20 36 21 37 22 38 23 39 84 40 24 41 83 42
REMARK SMILES IDX 25 43 26 44 27 45 77 46 28 47 82 48 76 49 78 50 29 51 81 52
REMARK SMILES IDX 75 53 74 54 30 56 62 57 42 58 61 59 43 60 46 61 60 62 79 63
REMARK SMILES IDX 44 64 45 65 59 67 80 68 47 69 31 70 32 71 40 72 33 73 34 74
REMARK SMILES IDX 38 75 41 76 35 77 36 78 39 79 37 80 63 81 64 82 72 83 65 84
REMARK SMILES IDX 66 85 70 86 73 87 67 88 68 89 71 90 69 91 48 92 49 93 57 94
REMARK SMILES IDX 50 95 51 96 55 97 58 98 52 99 53 100 56 101 54 102
REMARK H PARENT 78 55 46 66
REMARK Flexibility Score: inf
ROOT
ATOM      1  C   UNL A   1      36.030  21.871  25.491  1.00  0.00     0.188 C 
ENDROOT
BRANCH   1   2
ATOM      2  O   UNL A   1      35.038  22.705  24.931  1.00  0.00    -0.376 OA
BRANCH   2   3
ATOM      3  C   UNL A   1      34.537  22.328  23.660  1.00  0.00     0.202 C 
BRANCH   3   4
ATOM      4  C   UNL A   1      33.512  23.293  23.045  1.00  0.00     0.261 C 
BRANCH   4   5
ATOM      5  O   UNL A   1      34.161  24.428  22.406  1.00  0.00    -0.463 OA
BRANCH   5   6
ATOM      6  C   UNL A   1      33.369  25.491  22.110  1.00  0.00     0.310 C 
ATOM      7  O   UNL A   1      33.621  26.262  21.185  1.00  0.00    -0.252 OA
BRANCH   6   8
ATOM      8  C   UNL A   1      32.009  25.518  22.808  1.00  0.00     0.160 C 
BRANCH   8   9
ATOM      9  C   UNL A   1      31.576  26.541  23.834  1.00  0.00    -0.008 A 
ATOM     10  C   UNL A   1      29.403  29.495  22.505  1.00  0.00     0.138 A 
ATOM     11  C   UNL A   1      29.876  28.174  22.644  1.00  0.00     0.058 A 
ATOM     12  C   UNL A   1      29.720  30.383  23.503  1.00  0.00     0.085 A 
ATOM     13  C   UNL A   1      30.748  27.706  23.641  1.00  0.00     0.008 A 
ATOM     14  C   UNL A   1      30.505  29.939  24.586  1.00  0.00     0.051 A 
ATOM     15  Cl  UNL A   1      29.197  32.026  23.552  1.00  0.00    -0.080 Cl
ATOM     16  C   UNL A   1      30.998  28.601  24.669  1.00  0.00     0.058 A 
ATOM     17  C   UNL A   1      32.229  26.742  25.044  1.00  0.00     0.028 A 
ATOM     18  N   UNL A   1      31.701  27.886  25.650  1.00  0.00    -0.280 N 
ATOM     19  C   UNL A   1      33.338  25.897  25.579  1.00  0.00     0.065 C 
BRANCH  10  20
ATOM     20  O   UNL A   1      28.754  29.668  21.323  1.00  0.00    -0.495 OA
ATOM     21  C   UNL A   1      28.011  30.819  20.972  1.00  0.00     0.278 C 
ENDBRANCH  10  20
BRANCH  18  22
ATOM     22  C   UNL A   1      31.812  28.267  27.016  1.00  0.00     0.262 C 
ATOM     23  O   UNL A   1      31.062  27.810  27.845  1.00  0.00    -0.268 OA
BRANCH  22  24
ATOM     24  C   UNL A   1      32.816  29.263  27.443  1.00  0.00     0.040 A 
ATOM     25  C   UNL A   1      32.448  30.613  27.499  1.00  0.00     0.015 A 
ATOM     26  C   UNL A   1      34.152  28.862  27.527  1.00  0.00     0.015 A 
ATOM     27  C   UNL A   1      33.446  31.584  27.575  1.00  0.00     0.021 A 
ATOM     28  C   UNL A   1      35.144  29.842  27.590  1.00  0.00     0.021 A 
ATOM     29  C   UNL A   1      34.787  31.195  27.597  1.00  0.00     0.041 A 
ATOM     30  Cl  UNL A   1      36.017  32.395  27.563  1.00  0.00    -0.084 Cl
ENDBRANCH  22  24
ENDBRANCH  18  22
ENDBRANCH   8   9
ENDBRANCH   6   8
ENDBRANCH   5   6
ENDBRANCH   4   5
ENDBRANCH   3   4
ENDBRANCH   2   3
ENDBRANCH   1   2
BRANCH   1  31
ATOM     31  C   UNL A   1      37.494  22.089  25.082  1.00  0.00     0.188 C 
BRANCH  31  32
ATOM     32  O   UNL A   1      38.472  22.330  26.059  1.00  0.00    -0.376 OA
BRANCH  32  33
ATOM     33  C   UNL A   1      39.592  21.464  26.081  1.00  0.00     0.202 C 
BRANCH  33  34
ATOM     34  C   UNL A   1      40.630  21.549  27.235  1.00  0.00     0.261 C 
BRANCH  34  35
ATOM     35  O   UNL A   1      42.017  21.641  26.798  1.00  0.00    -0.460 OA
BRANCH  35  36
ATOM     36  C   UNL A   1      42.382  22.798  26.160  1.00  0.00     0.338 C 
ATOM     37  O   UNL A   1      42.552  22.907  24.956  1.00  0.00    -0.246 OA
BRANCH  36  38
ATOM     38  C   UNL A   1      42.167  23.993  27.054  1.00  0.00     0.060 A 
ATOM     39  C   UNL A   1      42.753  24.224  28.292  1.00  0.00     0.016 A 
ATOM     40  C   UNL A   1      41.217  24.922  26.622  1.00  0.00     0.016 A 
ATOM     41  C   UNL A   1      42.280  25.296  29.093  1.00  0.00     0.010 A 
ATOM     42  C   UNL A   1      40.688  25.935  27.426  1.00  0.00     0.010 A 
ATOM     43  C   UNL A   1      41.195  26.124  28.696  1.00  0.00    -0.014 A 
BRANCH  43  44
ATOM     44  C   UNL A   1      40.951  27.430  29.354  1.00  0.00     0.031 A 
ATOM     45  C   UNL A   1      41.896  28.412  28.798  1.00  0.00     0.074 A 
ATOM     46  C   UNL A   1      39.999  27.934  30.183  1.00  0.00     0.049 A 
ATOM     47  N   UNL A   1      43.086  28.603  29.256  1.00  0.00    -0.248 NA
ATOM     48  C   UNL A   1      41.621  29.077  27.515  1.00  0.00     0.031 C 
ATOM     49  C   UNL A   1      38.755  27.324  30.613  1.00  0.00     0.029 A 
ATOM     50  N   UNL A   1      39.945  29.157  30.827  1.00  0.00    -0.354 N 
ATOM     51  C   UNL A   1      43.570  29.661  28.520  1.00  0.00     0.074 A 
ATOM     52  C   UNL A   1      42.783  29.711  27.315  1.00  0.00     0.031 C 
ATOM     53  C   UNL A   1      37.962  28.221  31.250  1.00  0.00     0.029 A 
ATOM     54  C   UNL A   1      38.737  29.428  31.480  1.00  0.00     0.049 A 
ATOM     55  H   UNL A   1      40.700  29.790  30.825  1.00  0.00     0.167 HD
ATOM     56  C   UNL A   1      44.262  30.629  29.175  1.00  0.00     0.037 A 
ATOM     57  C   UNL A   1      38.419  30.493  32.266  1.00  0.00     0.037 A 
ATOM     58  C   UNL A   1      44.579  30.215  30.524  1.00  0.00     0.049 A 
ATOM     59  C   UNL A   1      39.680  30.988  32.858  1.00  0.00     0.074 A 
ATOM     60  C   UNL A   1      45.438  29.330  31.141  1.00  0.00     0.029 A 
ATOM     61  N   UNL A   1      43.588  30.492  31.424  1.00  0.00    -0.354 N 
ATOM     62  N   UNL A   1      40.367  30.333  33.751  1.00  0.00    -0.248 NA
ATOM     63  C   UNL A   1      40.337  32.153  32.276  1.00  0.00     0.031 C 
ATOM     64  C   UNL A   1      44.907  29.073  32.444  1.00  0.00     0.029 A 
ATOM     65  C   UNL A   1      43.750  29.823  32.607  1.00  0.00     0.049 A 
ATOM     66  H   UNL A   1      42.842  31.107  31.241  1.00  0.00     0.167 HD
ATOM     67  C   UNL A   1      41.662  30.728  33.515  1.00  0.00     0.074 A 
ATOM     68  C   UNL A   1      41.569  31.964  32.751  1.00  0.00     0.031 C 
ATOM     69  C   UNL A   1      42.676  29.823  33.574  1.00  0.00     0.037 A 
BRANCH  56  70
ATOM     70  C   UNL A   1      44.199  32.092  28.827  1.00  0.00     0.064 A 
ATOM     71  C   UNL A   1      45.399  32.753  28.507  1.00  0.00     0.173 A 
ATOM     72  C   UNL A   1      43.087  32.926  29.071  1.00  0.00     0.173 A 
ATOM     73  F   UNL A   1      46.529  32.055  28.319  1.00  0.00    -0.203 F 
ATOM     74  C   UNL A   1      45.480  34.145  28.457  1.00  0.00     0.198 A 
ATOM     75  C   UNL A   1      43.156  34.312  28.959  1.00  0.00     0.198 A 
ATOM     76  F   UNL A   1      41.929  32.454  29.548  1.00  0.00    -0.203 F 
ATOM     77  F   UNL A   1      46.667  34.733  28.255  1.00  0.00    -0.200 F 
ATOM     78  C   UNL A   1      44.358  34.923  28.671  1.00  0.00     0.200 A 
ATOM     79  F   UNL A   1      42.065  35.048  29.211  1.00  0.00    -0.200 F 
ATOM     80  F   UNL A   1      44.441  36.259  28.657  1.00  0.00    -0.200 F 
ENDBRANCH  56  70
BRANCH  57  81
ATOM     81  C   UNL A   1      37.143  31.207  32.552  1.00  0.00     0.064 A 
ATOM     82  C   UNL A   1      36.974  31.939  33.748  1.00  0.00     0.173 A 
ATOM     83  C   UNL A   1      36.227  31.486  31.525  1.00  0.00     0.173 A 
ATOM     84  F   UNL A   1      37.805  31.752  34.784  1.00  0.00    -0.203 F 
ATOM     85  C   UNL A   1      36.011  32.947  33.874  1.00  0.00     0.198 A 
ATOM     86  C   UNL A   1      35.258  32.489  31.655  1.00  0.00     0.198 A 
ATOM     87  F   UNL A   1      36.324  30.864  30.341  1.00  0.00    -0.203 F 
ATOM     88  F   UNL A   1      35.957  33.685  34.991  1.00  0.00    -0.200 F 
ATOM     89  C   UNL A   1      35.170  33.238  32.816  1.00  0.00     0.200 A 
ATOM     90  F   UNL A   1      34.462  32.783  30.617  1.00  0.00    -0.200 F 
ATOM     91  F   UNL A   1      34.310  34.263  32.899  1.00  0.00    -0.200 F 
ENDBRANCH  57  81
BRANCH  69  92
ATOM     92  C   UNL A   1      42.596  28.732  34.588  1.00  0.00     0.064 A 
ATOM     93  C   UNL A   1      41.839  27.558  34.467  1.00  0.00     0.173 A 
ATOM     94  C   UNL A   1      43.405  28.871  35.726  1.00  0.00     0.173 A 
ATOM     95  F   UNL A   1      41.075  27.336  33.388  1.00  0.00    -0.203 F 
ATOM     96  C   UNL A   1      41.896  26.568  35.451  1.00  0.00     0.198 A 
ATOM     97  C   UNL A   1      43.483  27.871  36.688  1.00  0.00     0.198 A 
ATOM     98  F   UNL A   1      44.153  29.974  35.887  1.00  0.00    -0.203 F 
ATOM     99  F   UNL A   1      41.165  25.450  35.326  1.00  0.00    -0.200 F 
ATOM    100  C   UNL A   1      42.727  26.720  36.552  1.00  0.00     0.200 A 
ATOM    101  F   UNL A   1      44.311  28.015  37.732  1.00  0.00    -0.200 F 
ATOM    102  F   UNL A   1      42.816  25.749  37.472  1.00  0.00    -0.200 F 
ENDBRANCH  69  92
ENDBRANCH  43  44
ENDBRANCH  36  38
ENDBRANCH  35  36
ENDBRANCH  34  35
ENDBRANCH  33  34
ENDBRANCH  32  33
ENDBRANCH  31  32
ENDBRANCH   1  31
TORSDOF 21
ENDMDL
MODEL 2
REMARK VINA RESULT:     -11.7      3.203      5.716
REMARK SMILES COc1cc2c(CC(=O)OCCOCCOCCOC(=O)c3ccc(-c4c5nc(c(-c6c(F)c(F)c(F)c(F)c6F)c6ccc([nH]6)c(-c6c(F)c(F)c(F)c(F)c6F)c6nc(c(-c7c(F)c(F)c(F)c(F)c7F)c7ccc4[nH]7)C=C6)C=C5)cc3)c(C)n(C(=O)c3ccc(Cl)cc3)c2cc1Cl
REMARK SMILES IDX 14 1 13 2 12 3 11 4 10 5 8 6 9 7 7 8 6 9 3 10 4 11 99 12
REMARK SMILES IDX 5 13 98 14 100 15 97 16 85 17 87 18 86 19 2 20 1 21 88 22
REMARK SMILES IDX 89 23 90 24 91 25 96 26 92 27 95 28 93 29 94 30 15 31 16 32
REMARK SMILES IDX 17 33 18 34 19 35 20 36 21 37 22 38 23 39 84 40 24 41 83 42
REMARK SMILES IDX 25 43 26 44 27 45 77 46 28 47 82 48 76 49 78 50 29 51 81 52
REMARK SMILES IDX 75 53 74 54 30 56 62 57 42 58 61 59 43 60 46 61 60 62 79 63
REMARK SMILES IDX 44 64 45 65 59 67 80 68 47 69 31 70 32 71 40 72 33 73 34 74
REMARK SMILES IDX 38 75 41 76 35 77 36 78 39 79 37 80 63 81 64 82 72 83 65 84
REMARK SMILES IDX 66 85 70 86 73 87 67 88 68 89 71 90 69 91 48 92 49 93 57 94
REMARK SMILES IDX 50 95 51 96 55 97 58 98 52 99 53 100 56 101 54 102
REMARK H PARENT 78 55 46 66
REMARK Flexibility Score: inf
ROOT
ATOM      1  C   UNL A   1      41.750  19.646  27.045  1.00  0.00     0.188 C 
ENDROOT
BRANCH   1   2
ATOM      2  O   UNL A   1      40.416  19.959  26.708  1.00  0.00    -0.376 OA
BRANCH   2   3
ATOM      3  C   UNL A   1      40.159  21.298  26.318  1.00  0.00     0.202 C 
BRANCH   3   4
ATOM      4  C   UNL A   1      38.688  21.623  26.015  1.00  0.00     0.261 C 
BRANCH   4   5
ATOM      5  O   UNL A   1      38.514  23.020  25.641  1.00  0.00    -0.463 OA
BRANCH   5   6
ATOM      6  C   UNL A   1      37.307  23.361  25.121  1.00  0.00     0.310 C 
ATOM      7  O   UNL A   1      37.079  23.333  23.913  1.00  0.00    -0.252 OA
BRANCH   6   8
ATOM      8  C   UNL A   1      36.169  23.514  26.132  1.00  0.00     0.160 C 
BRANCH   8   9
ATOM      9  C   UNL A   1      34.724  23.146  25.881  1.00  0.00    -0.008 A 
ATOM     10  C   UNL A   1      34.066  19.493  24.681  1.00  0.00     0.138 A 
ATOM     11  C   UNL A   1      34.648  20.548  25.414  1.00  0.00     0.058 A 
ATOM     12  C   UNL A   1      32.867  19.747  24.062  1.00  0.00     0.085 A 
ATOM     13  C   UNL A   1      34.184  21.874  25.470  1.00  0.00     0.008 A 
ATOM     14  C   UNL A   1      32.300  21.032  24.175  1.00  0.00     0.051 A 
ATOM     15  Cl  UNL A   1      31.965  18.582  23.164  1.00  0.00    -0.080 Cl
ATOM     16  C   UNL A   1      32.942  22.085  24.895  1.00  0.00     0.058 A 
ATOM     17  C   UNL A   1      33.726  24.077  25.622  1.00  0.00     0.028 A 
ATOM     18  N   UNL A   1      32.569  23.394  25.236  1.00  0.00    -0.280 N 
ATOM     19  C   UNL A   1      33.885  25.560  25.703  1.00  0.00     0.065 C 
BRANCH  10  20
ATOM     20  O   UNL A   1      34.871  18.398  24.664  1.00  0.00    -0.495 OA
ATOM     21  C   UNL A   1      34.768  17.337  23.735  1.00  0.00     0.278 C 
ENDBRANCH  10  20
BRANCH  18  22
ATOM     22  C   UNL A   1      31.238  23.896  25.214  1.00  0.00     0.262 C 
ATOM     23  O   UNL A   1      30.375  23.382  25.886  1.00  0.00    -0.268 OA
BRANCH  22  24
ATOM     24  C   UNL A   1      30.873  25.026  24.335  1.00  0.00     0.040 A 
ATOM     25  C   UNL A   1      31.416  25.083  23.046  1.00  0.00     0.015 A 
ATOM     26  C   UNL A   1      30.209  26.118  24.902  1.00  0.00     0.015 A 
ATOM     27  C   UNL A   1      31.351  26.282  22.336  1.00  0.00     0.021 A 
ATOM     28  C   UNL A   1      30.161  27.316  24.189  1.00  0.00     0.021 A 
ATOM     29  C   UNL A   1      30.744  27.396  22.920  1.00  0.00     0.041 A 
ATOM     30  Cl  UNL A   1      30.776  28.904  22.095  1.00  0.00    -0.084 Cl
ENDBRANCH  22  24
ENDBRANCH  18  22
ENDBRANCH   8   9
ENDBRANCH   6   8
ENDBRANCH   5   6
ENDBRANCH   4   5
ENDBRANCH   3   4
ENDBRANCH   2   3
ENDBRANCH   1   2
BRANCH   1  31
ATOM     31  C   UNL A   1      42.580  18.801  26.067  1.00  0.00     0.188 C 
BRANCH  31  32
ATOM     32  O   UNL A   1      43.767  18.188  26.494  1.00  0.00    -0.376 OA
BRANCH  32  33
ATOM     33  C   UNL A   1      44.823  18.097  25.555  1.00  0.00     0.202 C 
BRANCH  33  34
ATOM     34  C   UNL A   1      46.090  18.985  25.705  1.00  0.00     0.261 C 
BRANCH  34  35
ATOM     35  O   UNL A   1      46.444  19.745  24.513  1.00  0.00    -0.460 OA
BRANCH  35  36
ATOM     36  C   UNL A   1      45.416  20.375  23.861  1.00  0.00     0.338 C 
ATOM     37  O   UNL A   1      44.643  19.830  23.089  1.00  0.00    -0.246 OA
BRANCH  36  38
ATOM     38  C   UNL A   1      45.111  21.706  24.500  1.00  0.00     0.060 A 
ATOM     39  C   UNL A   1      45.833  22.883  24.357  1.00  0.00     0.016 A 
ATOM     40  C   UNL A   1      44.035  21.728  25.391  1.00  0.00     0.016 A 
ATOM     41  C   UNL A   1      45.528  23.988  25.195  1.00  0.00     0.010 A 
ATOM     42  C   UNL A   1      43.769  22.778  26.273  1.00  0.00     0.010 A 
ATOM     43  C   UNL A   1      44.535  23.926  26.210  1.00  0.00    -0.014 A 
BRANCH  43  44
ATOM     44  C   UNL A   1      43.988  25.161  26.820  1.00  0.00     0.031 A 
ATOM     45  C   UNL A   1      44.842  26.291  26.418  1.00  0.00     0.074 A 
ATOM     46  C   UNL A   1      42.852  25.491  27.488  1.00  0.00     0.049 A 
ATOM     47  N   UNL A   1      45.900  26.655  27.058  1.00  0.00    -0.248 NA
ATOM     48  C   UNL A   1      44.668  26.936  25.108  1.00  0.00     0.031 C 
ATOM     49  C   UNL A   1      41.668  24.684  27.717  1.00  0.00     0.029 A 
ATOM     50  N   UNL A   1      42.506  26.675  28.114  1.00  0.00    -0.354 N 
ATOM     51  C   UNL A   1      46.320  27.793  26.407  1.00  0.00     0.074 A 
ATOM     52  C   UNL A   1      45.732  27.748  25.092  1.00  0.00     0.031 C 
ATOM     53  C   UNL A   1      40.654  25.432  28.220  1.00  0.00     0.029 A 
ATOM     54  C   UNL A   1      41.183  26.739  28.568  1.00  0.00     0.049 A 
ATOM     55  H   UNL A   1      43.142  27.418  28.230  1.00  0.00     0.167 HD
ATOM     56  C   UNL A   1      46.741  28.841  27.161  1.00  0.00     0.037 A 
ATOM     57  C   UNL A   1      40.583  27.722  29.293  1.00  0.00     0.037 A 
ATOM     58  C   UNL A   1      46.905  28.450  28.544  1.00  0.00     0.049 A 
ATOM     59  C   UNL A   1      41.642  28.393  30.076  1.00  0.00     0.074 A 
ATOM     60  C   UNL A   1      47.786  27.695  29.290  1.00  0.00     0.029 A 
ATOM     61  N   UNL A   1      45.754  28.548  29.276  1.00  0.00    -0.354 N 
ATOM     62  N   UNL A   1      42.277  27.832  31.067  1.00  0.00    -0.248 NA
ATOM     63  C   UNL A   1      42.190  29.660  29.604  1.00  0.00     0.031 C 
ATOM     64  C   UNL A   1      47.106  27.327  30.492  1.00  0.00     0.029 A 
ATOM     65  C   UNL A   1      45.833  27.883  30.470  1.00  0.00     0.049 A 
ATOM     66  H   UNL A   1      44.958  29.043  28.977  1.00  0.00     0.167 HD
ATOM     67  C   UNL A   1      43.514  28.430  31.037  1.00  0.00     0.074 A 
ATOM     68  C   UNL A   1      43.347  29.654  30.267  1.00  0.00     0.031 C 
ATOM     69  C   UNL A   1      44.636  27.694  31.256  1.00  0.00     0.037 A 
BRANCH  56  70
ATOM     70  C   UNL A   1      46.502  30.284  26.806  1.00  0.00     0.064 A 
ATOM     71  C   UNL A   1      47.599  31.165  26.826  1.00  0.00     0.173 A 
ATOM     72  C   UNL A   1      45.230  30.892  26.734  1.00  0.00     0.173 A 
ATOM     73  F   UNL A   1      48.847  30.692  26.957  1.00  0.00    -0.203 F 
ATOM     74  C   UNL A   1      47.430  32.550  26.797  1.00  0.00     0.198 A 
ATOM     75  C   UNL A   1      45.068  32.271  26.641  1.00  0.00     0.198 A 
ATOM     76  F   UNL A   1      44.096  30.197  26.875  1.00  0.00    -0.203 F 
ATOM     77  F   UNL A   1      48.496  33.351  26.928  1.00  0.00    -0.200 F 
ATOM     78  C   UNL A   1      46.167  33.102  26.693  1.00  0.00     0.200 A 
ATOM     79  F   UNL A   1      43.832  32.787  26.583  1.00  0.00    -0.200 F 
ATOM     80  F   UNL A   1      46.000  34.430  26.700  1.00  0.00    -0.200 F 
ENDBRANCH  56  70
BRANCH  57  81
ATOM     81  C   UNL A   1      39.182  28.221  29.374  1.00  0.00     0.064 A 
ATOM     82  C   UNL A   1      38.480  28.221  30.600  1.00  0.00     0.173 A 
ATOM     83  C   UNL A   1      38.644  29.028  28.357  1.00  0.00     0.173 A 
ATOM     84  F   UNL A   1      38.920  27.491  31.636  1.00  0.00    -0.203 F 
ATOM     85  C   UNL A   1      37.371  29.044  30.823  1.00  0.00     0.198 A 
ATOM     86  C   UNL A   1      37.528  29.844  28.579  1.00  0.00     0.198 A 
ATOM     87  F   UNL A   1      39.254  29.117  27.167  1.00  0.00    -0.203 F 
ATOM     88  F   UNL A   1      36.802  29.087  32.036  1.00  0.00    -0.200 F 
ATOM     89  C   UNL A   1      36.911  29.874  29.818  1.00  0.00     0.200 A 
ATOM     90  F   UNL A   1      37.102  30.666  27.608  1.00  0.00    -0.200 F 
ATOM     91  F   UNL A   1      35.907  30.732  30.056  1.00  0.00    -0.200 F 
ENDBRANCH  57  81
BRANCH  69  92
ATOM     92  C   UNL A   1      44.573  26.579  32.246  1.00  0.00     0.064 A 
ATOM     93  C   UNL A   1      44.590  26.723  33.641  1.00  0.00     0.173 A 
ATOM     94  C   UNL A   1      44.414  25.285  31.727  1.00  0.00     0.173 A 
ATOM     95  F   UNL A   1      44.696  27.932  34.210  1.00  0.00    -0.203 F 
ATOM     96  C   UNL A   1      44.453  25.610  34.475  1.00  0.00     0.198 A 
ATOM     97  C   UNL A   1      44.247  24.184  32.558  1.00  0.00     0.198 A 
ATOM     98  F   UNL A   1      44.387  25.094  30.398  1.00  0.00    -0.203 F 
ATOM     99  F   UNL A   1      44.474  25.759  35.807  1.00  0.00    -0.200 F 
ATOM    100  C   UNL A   1      44.269  24.346  33.932  1.00  0.00     0.200 A 
ATOM    101  F   UNL A   1      44.041  22.972  32.024  1.00  0.00    -0.200 F 
ATOM    102  F   UNL A   1      44.091  23.285  34.733  1.00  0.00    -0.200 F 
ENDBRANCH  69  92
ENDBRANCH  43  44
ENDBRANCH  36  38
ENDBRANCH  35  36
ENDBRANCH  34  35
ENDBRANCH  33  34
ENDBRANCH  32  33
ENDBRANCH  31  32
ENDBRANCH   1  31
TORSDOF 21
ENDMDL
MODEL 3
REMARK VINA RESULT:     -11.4      3.616      6.071
REMARK SMILES COc1cc2c(CC(=O)OCCOCCOCCOC(=O)c3ccc(-c4c5nc(c(-c6c(F)c(F)c(F)c(F)c6F)c6ccc([nH]6)c(-c6c(F)c(F)c(F)c(F)c6F)c6nc(c(-c7c(F)c(F)c(F)c(F)c7F)c7ccc4[nH]7)C=C6)C=C5)cc3)c(C)n(C(=O)c3ccc(Cl)cc3)c2cc1Cl
REMARK SMILES IDX 14 1 13 2 12 3 11 4 10 5 8 6 9 7 7 8 6 9 3 10 4 11 99 12
REMARK SMILES IDX 5 13 98 14 100 15 97 16 85 17 87 18 86 19 2 20 1 21 88 22
REMARK SMILES IDX 89 23 90 24 91 25 96 26 92 27 95 28 93 29 94 30 15 31 16 32
REMARK SMILES IDX 17 33 18 34 19 35 20 36 21 37 22 38 23 39 84 40 24 41 83 42
REMARK SMILES IDX 25 43 26 44 27 45 77 46 28 47 82 48 76 49 78 50 29 51 81 52
REMARK SMILES IDX 75 53 74 54 30 56 62 57 42 58 61 59 43 60 46 61 60 62 79 63
REMARK SMILES IDX 44 64 45 65 59 67 80 68 47 69 31 70 32 71 40 72 33 73 34 74
REMARK SMILES IDX 38 75 41 76 35 77 36 78 39 79 37 80 63 81 64 82 72 83 65 84
REMARK SMILES IDX 66 85 70 86 73 87 67 88 68 89 71 90 69 91 48 92 49 93 57 94
REMARK SMILES IDX 50 95 51 96 55 97 58 98 52 99 53 100 56 101 54 102
REMARK H PARENT 78 55 46 66
REMARK Flexibility Score: inf
ROOT
ATOM      1  C   UNL A   1      41.506  19.914  26.968  1.00  0.00     0.188 C 
ENDROOT
BRANCH   1   2
ATOM      2  O   UNL A   1      40.205  20.394  26.708  1.00  0.00    -0.376 OA
BRANCH   2   3
ATOM      3  C   UNL A   1      40.100  21.748  26.300  1.00  0.00     0.202 C 
BRANCH   3   4
ATOM      4  C   UNL A   1      38.843  22.485  26.788  1.00  0.00     0.261 C 
BRANCH   4   5
ATOM      5  O   UNL A   1      38.569  23.668  25.984  1.00  0.00    -0.463 OA
BRANCH   5   6
ATOM      6  C   UNL A   1      37.423  23.654  25.256  1.00  0.00     0.310 C 
ATOM      7  O   UNL A   1      37.425  23.646  24.026  1.00  0.00    -0.252 OA
BRANCH   6   8
ATOM      8  C   UNL A   1      36.143  23.371  26.043  1.00  0.00     0.160 C 
BRANCH   8   9
ATOM      9  C   UNL A   1      34.822  22.950  25.437  1.00  0.00    -0.008 A 
ATOM     10  C   UNL A   1      31.703  25.038  26.501  1.00  0.00     0.138 A 
ATOM     11  C   UNL A   1      33.034  24.770  26.119  1.00  0.00     0.058 A 
ATOM     12  C   UNL A   1      30.770  24.063  26.248  1.00  0.00     0.085 A 
ATOM     13  C   UNL A   1      33.524  23.552  25.618  1.00  0.00     0.008 A 
ATOM     14  C   UNL A   1      31.188  22.859  25.647  1.00  0.00     0.051 A 
ATOM     15  Cl  UNL A   1      29.085  24.211  26.587  1.00  0.00    -0.080 Cl
ATOM     16  C   UNL A   1      32.555  22.611  25.311  1.00  0.00     0.058 A 
ATOM     17  C   UNL A   1      34.579  21.682  24.924  1.00  0.00     0.028 A 
ATOM     18  N   UNL A   1      33.215  21.571  24.640  1.00  0.00    -0.280 N 
ATOM     19  C   UNL A   1      35.603  20.608  24.751  1.00  0.00     0.065 C 
BRANCH  10  20
ATOM     20  O   UNL A   1      31.602  26.233  27.141  1.00  0.00    -0.495 OA
ATOM     21  C   UNL A   1      31.467  27.484  26.496  1.00  0.00     0.278 C 
ENDBRANCH  10  20
BRANCH  18  22
ATOM     22  C   UNL A   1      32.584  20.610  23.801  1.00  0.00     0.262 C 
ATOM     23  O   UNL A   1      32.004  20.955  22.799  1.00  0.00    -0.268 OA
BRANCH  22  24
ATOM     24  C   UNL A   1      32.586  19.178  24.161  1.00  0.00     0.040 A 
ATOM     25  C   UNL A   1      32.512  18.820  25.513  1.00  0.00     0.015 A 
ATOM     26  C   UNL A   1      32.916  18.247  23.172  1.00  0.00     0.015 A 
ATOM     27  C   UNL A   1      32.839  17.518  25.888  1.00  0.00     0.021 A 
ATOM     28  C   UNL A   1      33.255  16.950  23.559  1.00  0.00     0.021 A 
ATOM     29  C   UNL A   1      33.231  16.597  24.913  1.00  0.00     0.041 A 
ATOM     30  Cl  UNL A   1      33.754  15.031  25.391  1.00  0.00    -0.084 Cl
ENDBRANCH  22  24
ENDBRANCH  18  22
ENDBRANCH   8   9
ENDBRANCH   6   8
ENDBRANCH   5   6
ENDBRANCH   4   5
ENDBRANCH   3   4
ENDBRANCH   2   3
ENDBRANCH   1   2
BRANCH   1  31
ATOM     31  C   UNL A   1      42.275  19.214  25.837  1.00  0.00     0.188 C 
BRANCH  31  32
ATOM     32  O   UNL A   1      43.164  18.169  26.129  1.00  0.00    -0.376 OA
BRANCH  32  33
ATOM     33  C   UNL A   1      44.336  18.078  25.340  1.00  0.00     0.202 C 
BRANCH  33  34
ATOM     34  C   UNL A   1      45.626  18.839  25.756  1.00  0.00     0.261 C 
BRANCH  34  35
ATOM     35  O   UNL A   1      46.157  19.735  24.736  1.00  0.00    -0.460 OA
BRANCH  35  36
ATOM     36  C   UNL A   1      45.239  20.362  23.934  1.00  0.00     0.338 C 
ATOM     37  O   UNL A   1      44.564  19.807  23.082  1.00  0.00    -0.246 OA
BRANCH  36  38
ATOM     38  C   UNL A   1      44.882  21.718  24.488  1.00  0.00     0.060 A 
ATOM     39  C   UNL A   1      45.091  22.948  23.879  1.00  0.00     0.016 A 
ATOM     40  C   UNL A   1      44.359  21.735  25.784  1.00  0.00     0.016 A 
ATOM     41  C   UNL A   1      44.886  24.136  24.629  1.00  0.00     0.010 A 
ATOM     42  C   UNL A   1      44.224  22.889  26.560  1.00  0.00     0.010 A 
ATOM     43  C   UNL A   1      44.514  24.117  26.001  1.00  0.00    -0.014 A 
BRANCH  43  44
ATOM     44  C   UNL A   1      43.965  25.327  26.659  1.00  0.00     0.031 A 
ATOM     45  C   UNL A   1      44.811  26.475  26.294  1.00  0.00     0.074 A 
ATOM     46  C   UNL A   1      42.832  25.627  27.346  1.00  0.00     0.049 A 
ATOM     47  N   UNL A   1      45.872  26.821  26.940  1.00  0.00    -0.248 NA
ATOM     48  C   UNL A   1      44.627  27.166  25.009  1.00  0.00     0.031 C 
ATOM     49  C   UNL A   1      41.652  24.807  27.552  1.00  0.00     0.029 A 
ATOM     50  N   UNL A   1      42.484  26.786  28.017  1.00  0.00    -0.354 N 
ATOM     51  C   UNL A   1      46.283  27.984  26.328  1.00  0.00     0.074 A 
ATOM     52  C   UNL A   1      45.686  27.984  25.017  1.00  0.00     0.031 C 
ATOM     53  C   UNL A   1      40.639  25.530  28.089  1.00  0.00     0.029 A 
ATOM     54  C   UNL A   1      41.164  26.826  28.482  1.00  0.00     0.049 A 
ATOM     55  H   UNL A   1      43.118  27.526  28.156  1.00  0.00     0.167 HD
ATOM     56  C   UNL A   1      46.703  29.005  27.118  1.00  0.00     0.037 A 
ATOM     57  C   UNL A   1      40.564  27.779  29.246  1.00  0.00     0.037 A 
ATOM     58  C   UNL A   1      46.878  28.564  28.485  1.00  0.00     0.049 A 
ATOM     59  C   UNL A   1      41.625  28.427  30.046  1.00  0.00     0.074 A 
ATOM     60  C   UNL A   1      47.767  27.787  29.197  1.00  0.00     0.029 A 
ATOM     61  N   UNL A   1      45.732  28.630  29.227  1.00  0.00    -0.354 N 
ATOM     62  N   UNL A   1      42.269  27.833  31.011  1.00  0.00    -0.248 NA
ATOM     63  C   UNL A   1      42.164  29.712  29.617  1.00  0.00     0.031 C 
ATOM     64  C   UNL A   1      47.096  27.372  30.389  1.00  0.00     0.029 A 
ATOM     65  C   UNL A   1      45.821  27.923  30.396  1.00  0.00     0.049 A 
ATOM     66  H   UNL A   1      44.931  29.132  28.951  1.00  0.00     0.167 HD
ATOM     67  C   UNL A   1      43.503  28.438  30.996  1.00  0.00     0.074 A 
ATOM     68  C   UNL A   1      43.325  29.688  30.273  1.00  0.00     0.031 C 
ATOM     69  C   UNL A   1      44.629  27.699  31.181  1.00  0.00     0.037 A 
BRANCH  56  70
ATOM     70  C   UNL A   1      46.456  30.459  26.818  1.00  0.00     0.064 A 
ATOM     71  C   UNL A   1      47.545  31.346  26.880  1.00  0.00     0.173 A 
ATOM     72  C   UNL A   1      45.180  31.060  26.760  1.00  0.00     0.173 A 
ATOM     73  F   UNL A   1      48.797  30.878  27.001  1.00  0.00    -0.203 F 
ATOM     74  C   UNL A   1      47.366  32.731  26.903  1.00  0.00     0.198 A 
ATOM     75  C   UNL A   1      45.007  32.440  26.720  1.00  0.00     0.198 A 
ATOM     76  F   UNL A   1      44.050  30.351  26.867  1.00  0.00    -0.203 F 
ATOM     77  F   UNL A   1      48.425  33.534  27.072  1.00  0.00    -0.200 F 
ATOM     78  C   UNL A   1      46.100  33.277  26.812  1.00  0.00     0.200 A 
ATOM     79  F   UNL A   1      43.768  32.949  26.673  1.00  0.00    -0.200 F 
ATOM     80  F   UNL A   1      45.922  34.603  26.869  1.00  0.00    -0.200 F 
ENDBRANCH  56  70
BRANCH  57  81
ATOM     81  C   UNL A   1      39.161  28.269  29.353  1.00  0.00     0.064 A 
ATOM     82  C   UNL A   1      38.469  28.223  30.584  1.00  0.00     0.173 A 
ATOM     83  C   UNL A   1      38.612  29.107  28.368  1.00  0.00     0.173 A 
ATOM     84  F   UNL A   1      38.919  27.460  31.590  1.00  0.00    -0.203 F 
ATOM     85  C   UNL A   1      37.357  29.033  30.842  1.00  0.00     0.198 A 
ATOM     86  C   UNL A   1      37.494  29.910  28.626  1.00  0.00     0.198 A 
ATOM     87  F   UNL A   1      39.214  29.240  27.178  1.00  0.00    -0.203 F 
ATOM     88  F   UNL A   1      36.797  29.032  32.060  1.00  0.00    -0.200 F 
ATOM     89  C   UNL A   1      36.886  29.895  29.870  1.00  0.00     0.200 A 
ATOM     90  F   UNL A   1      37.057  30.762  27.687  1.00  0.00    -0.200 F 
ATOM     91  F   UNL A   1      35.880  30.738  30.144  1.00  0.00    -0.200 F 
ENDBRANCH  57  81
BRANCH  69  92
ATOM     92  C   UNL A   1      44.577  26.548  32.130  1.00  0.00     0.064 A 
ATOM     93  C   UNL A   1      44.608  26.641  33.529  1.00  0.00     0.173 A 
ATOM     94  C   UNL A   1      44.417  25.274  31.565  1.00  0.00     0.173 A 
ATOM     95  F   UNL A   1      44.717  27.829  34.141  1.00  0.00    -0.203 F 
ATOM     96  C   UNL A   1      44.481  25.498  34.322  1.00  0.00     0.198 A 
ATOM     97  C   UNL A   1      44.259  24.143  32.357  1.00  0.00     0.198 A 
ATOM     98  F   UNL A   1      44.377  25.132  30.230  1.00  0.00    -0.203 F 
ATOM     99  F   UNL A   1      44.514  25.598  35.660  1.00  0.00    -0.200 F 
ATOM    100  C   UNL A   1      44.293  24.254  33.735  1.00  0.00     0.200 A 
ATOM    101  F   UNL A   1      44.050  22.951  31.780  1.00  0.00    -0.200 F 
ATOM    102  F   UNL A   1      44.125  23.164  34.499  1.00  0.00    -0.200 F 
ENDBRANCH  69  92
ENDBRANCH  43  44
ENDBRANCH  36  38
ENDBRANCH  35  36
ENDBRANCH  34  35
ENDBRANCH  33  34
ENDBRANCH  32  33
ENDBRANCH  31  32
ENDBRANCH   1  31
TORSDOF 21
ENDMDL
