MODEL 1
REMARK VINA RESULT:     -12.0      0.000      0.000
REMARK SMILES O=C(OCCOCCOCCOC(=O)c1ccccc1/N=C/c1coc2ccccc2c1=O)c1ccc(-c2c3nc(c(-c4c(F)c(F)c(F)c(F)c4F)c4ccc([nH]4)c(-c4c(F)c(F)c(F)c(F)c4F)c4nc(c(-c5c(F)c(F)c(F)c(F)c5F)c5ccc2[nH]5)C=C4)C=C3)cc1
REMARK SMILES IDX 7 1 6 2 5 3 4 4 3 5 2 6 1 7 34 8 35 9 96 10 36 11 95 12
REMARK SMILES IDX 37 13 38 14 39 15 89 16 40 17 94 18 88 19 90 20 41 21 93 22
REMARK SMILES IDX 87 23 86 24 42 26 74 27 54 28 73 29 55 30 58 31 72 32 91 33
REMARK SMILES IDX 56 34 57 35 71 37 92 38 59 39 43 40 44 41 52 42 45 43 46 44
REMARK SMILES IDX 50 45 53 46 47 47 48 48 51 49 49 50 75 51 76 52 84 53 77 54
REMARK SMILES IDX 78 55 82 56 85 57 79 58 80 59 83 60 81 61 60 62 61 63 69 64
REMARK SMILES IDX 62 65 63 66 67 67 70 68 64 69 65 70 68 71 66 72 8 73 9 74
REMARK SMILES IDX 10 75 11 76 12 77 13 78 14 79 15 80 16 81 20 82 17 83 19 84
REMARK SMILES IDX 18 85 21 86 22 87 23 88 24 89 32 90 25 91 31 92 33 93 26 94
REMARK SMILES IDX 30 95 27 96 29 97 28 98
REMARK H PARENT 90 25 58 36
REMARK Flexibility Score: inf
ROOT
ATOM      1  C   UNL A   1      32.339  30.224  27.091  1.00  0.00     0.188 C 
ENDROOT
BRANCH   1   2
ATOM      2  O   UNL A   1      31.562  30.952  26.121  1.00  0.00    -0.376 OA
BRANCH   2   3
ATOM      3  C   UNL A   1      31.336  32.312  26.492  1.00  0.00     0.202 C 
BRANCH   3   4
ATOM      4  C   UNL A   1      32.485  32.927  27.297  1.00  0.00     0.261 C 
BRANCH   4   5
ATOM      5  O   UNL A   1      32.148  34.229  27.800  1.00  0.00    -0.460 OA
BRANCH   5   6
ATOM      6  C   UNL A   1      32.914  35.013  28.603  1.00  0.00     0.338 C 
ATOM      7  O   UNL A   1      32.506  36.123  28.937  1.00  0.00    -0.246 OA
BRANCH   6   8
ATOM      8  C   UNL A   1      34.164  34.508  29.238  1.00  0.00     0.060 A 
ATOM      9  C   UNL A   1      35.445  34.633  28.695  1.00  0.00     0.016 A 
ATOM     10  C   UNL A   1      34.030  33.915  30.505  1.00  0.00     0.016 A 
ATOM     11  C   UNL A   1      36.542  34.033  29.321  1.00  0.00     0.010 A 
ATOM     12  C   UNL A   1      35.138  33.378  31.168  1.00  0.00     0.010 A 
ATOM     13  C   UNL A   1      36.396  33.381  30.552  1.00  0.00    -0.014 A 
BRANCH  13  14
ATOM     14  C   UNL A   1      37.539  32.650  31.153  1.00  0.00     0.031 A 
ATOM     15  C   UNL A   1      38.007  32.988  32.537  1.00  0.00     0.074 A 
ATOM     16  C   UNL A   1      38.138  31.642  30.495  1.00  0.00     0.049 A 
ATOM     17  N   UNL A   1      38.987  32.463  33.228  1.00  0.00    -0.248 NA
ATOM     18  C   UNL A   1      37.274  34.052  33.238  1.00  0.00     0.031 C 
ATOM     19  C   UNL A   1      37.771  31.186  29.160  1.00  0.00     0.029 A 
ATOM     20  N   UNL A   1      39.168  30.812  30.868  1.00  0.00    -0.354 N 
ATOM     21  C   UNL A   1      38.994  33.133  34.439  1.00  0.00     0.074 A 
ATOM     22  C   UNL A   1      37.937  34.123  34.381  1.00  0.00     0.031 C 
ATOM     23  C   UNL A   1      38.545  30.139  28.848  1.00  0.00     0.029 A 
ATOM     24  C   UNL A   1      39.478  29.867  29.924  1.00  0.00     0.049 A 
ATOM     25  H   UNL A   1      39.639  30.887  31.730  1.00  0.00     0.167 HD
ATOM     26  C   UNL A   1      39.800  32.936  35.509  1.00  0.00     0.037 A 
ATOM     27  C   UNL A   1      40.400  28.889  29.893  1.00  0.00     0.037 A 
ATOM     28  C   UNL A   1      40.853  31.961  35.580  1.00  0.00     0.049 A 
ATOM     29  C   UNL A   1      41.309  28.717  31.064  1.00  0.00     0.074 A 
ATOM     30  C   UNL A   1      41.743  31.720  36.613  1.00  0.00     0.029 A 
ATOM     31  N   UNL A   1      41.160  31.057  34.573  1.00  0.00    -0.354 N 
ATOM     32  N   UNL A   1      41.328  29.386  32.187  1.00  0.00    -0.248 NA
ATOM     33  C   UNL A   1      42.332  27.669  30.959  1.00  0.00     0.031 C 
ATOM     34  C   UNL A   1      42.603  30.685  36.222  1.00  0.00     0.029 A 
ATOM     35  C   UNL A   1      42.232  30.265  34.956  1.00  0.00     0.049 A 
ATOM     36  H   UNL A   1      40.686  30.989  33.713  1.00  0.00     0.167 HD
ATOM     37  C   UNL A   1      42.365  28.848  32.927  1.00  0.00     0.074 A 
ATOM     38  C   UNL A   1      42.937  27.777  32.134  1.00  0.00     0.031 C 
ATOM     39  C   UNL A   1      42.806  29.219  34.152  1.00  0.00     0.037 A 
BRANCH  26  40
ATOM     40  C   UNL A   1      39.570  33.839  36.681  1.00  0.00     0.064 A 
ATOM     41  C   UNL A   1      40.208  35.084  36.776  1.00  0.00     0.173 A 
ATOM     42  C   UNL A   1      38.746  33.431  37.738  1.00  0.00     0.173 A 
ATOM     43  F   UNL A   1      41.030  35.499  35.800  1.00  0.00    -0.203 F 
ATOM     44  C   UNL A   1      40.048  35.881  37.907  1.00  0.00     0.198 A 
ATOM     45  C   UNL A   1      38.575  34.239  38.859  1.00  0.00     0.198 A 
ATOM     46  F   UNL A   1      38.128  32.243  37.694  1.00  0.00    -0.203 F 
ATOM     47  F   UNL A   1      40.708  37.043  38.004  1.00  0.00    -0.200 F 
ATOM     48  C   UNL A   1      39.232  35.457  38.946  1.00  0.00     0.200 A 
ATOM     49  F   UNL A   1      37.792  33.827  39.865  1.00  0.00    -0.200 F 
ATOM     50  F   UNL A   1      39.093  36.217  40.041  1.00  0.00    -0.200 F 
ENDBRANCH  26  40
BRANCH  27  51
ATOM     51  C   UNL A   1      40.507  28.004  28.703  1.00  0.00     0.064 A 
ATOM     52  C   UNL A   1      39.815  26.788  28.641  1.00  0.00     0.173 A 
ATOM     53  C   UNL A   1      41.280  28.377  27.593  1.00  0.00     0.173 A 
ATOM     54  F   UNL A   1      39.081  26.382  29.687  1.00  0.00    -0.203 F 
ATOM     55  C   UNL A   1      39.890  25.977  27.510  1.00  0.00     0.198 A 
ATOM     56  C   UNL A   1      41.341  27.572  26.459  1.00  0.00     0.198 A 
ATOM     57  F   UNL A   1      41.947  29.540  27.599  1.00  0.00    -0.203 F 
ATOM     58  F   UNL A   1      39.230  24.811  27.477  1.00  0.00    -0.200 F 
ATOM     59  C   UNL A   1      40.649  26.371  26.418  1.00  0.00     0.200 A 
ATOM     60  F   UNL A   1      42.046  27.974  25.392  1.00  0.00    -0.200 F 
ATOM     61  F   UNL A   1      40.697  25.606  25.320  1.00  0.00    -0.200 F 
ENDBRANCH  27  51
BRANCH  39  62
ATOM     62  C   UNL A   1      43.971  28.455  34.693  1.00  0.00     0.064 A 
ATOM     63  C   UNL A   1      45.287  28.871  34.445  1.00  0.00     0.173 A 
ATOM     64  C   UNL A   1      43.773  27.287  35.442  1.00  0.00     0.173 A 
ATOM     65  F   UNL A   1      45.519  29.967  33.707  1.00  0.00    -0.203 F 
ATOM     66  C   UNL A   1      46.367  28.129  34.911  1.00  0.00     0.198 A 
ATOM     67  C   UNL A   1      44.856  26.558  35.921  1.00  0.00     0.198 A 
ATOM     68  F   UNL A   1      42.531  26.847  35.693  1.00  0.00    -0.203 F 
ATOM     69  F   UNL A   1      47.618  28.518  34.625  1.00  0.00    -0.200 F 
ATOM     70  C   UNL A   1      46.151  26.976  35.650  1.00  0.00     0.200 A 
ATOM     71  F   UNL A   1      44.648  25.441  36.631  1.00  0.00    -0.200 F 
ATOM     72  F   UNL A   1      47.194  26.257  36.089  1.00  0.00    -0.200 F 
ENDBRANCH  39  62
ENDBRANCH  13  14
ENDBRANCH   6   8
ENDBRANCH   5   6
ENDBRANCH   4   5
ENDBRANCH   3   4
ENDBRANCH   2   3
ENDBRANCH   1   2
BRANCH   1  73
ATOM     73  C   UNL A   1      33.315  29.291  26.374  1.00  0.00     0.188 C 
BRANCH  73  74
ATOM     74  O   UNL A   1      33.123  27.902  26.662  1.00  0.00    -0.376 OA
BRANCH  74  75
ATOM     75  C   UNL A   1      34.037  26.995  26.058  1.00  0.00     0.202 C 
BRANCH  75  76
ATOM     76  C   UNL A   1      33.605  26.348  24.740  1.00  0.00     0.261 C 
BRANCH  76  77
ATOM     77  O   UNL A   1      33.897  27.088  23.547  1.00  0.00    -0.460 OA
BRANCH  77  78
ATOM     78  C   UNL A   1      33.131  26.737  22.485  1.00  0.00     0.340 C 
ATOM     79  O   UNL A   1      33.508  26.446  21.360  1.00  0.00    -0.246 OA
BRANCH  78  80
ATOM     80  C   UNL A   1      31.717  26.915  22.810  1.00  0.00     0.085 A 
ATOM     81  C   UNL A   1      31.184  28.215  22.767  1.00  0.00     0.018 A 
ATOM     82  C   UNL A   1      30.934  25.817  23.200  1.00  0.00     0.077 A 
ATOM     83  C   UNL A   1      29.861  28.443  23.143  1.00  0.00     0.001 A 
ATOM     84  C   UNL A   1      29.623  26.094  23.633  1.00  0.00     0.029 A 
ATOM     85  C   UNL A   1      29.088  27.385  23.603  1.00  0.00     0.002 A 
BRANCH  82  86
ATOM     86  N   UNL A   1      31.134  24.468  22.856  1.00  0.00    -0.255 NA
ATOM     87  C   UNL A   1      31.588  23.521  23.612  1.00  0.00     0.127 C 
BRANCH  87  88
ATOM     88  C   UNL A   1      32.559  22.605  22.936  1.00  0.00     0.076 A 
ATOM     89  C   UNL A   1      33.544  23.241  22.274  1.00  0.00     0.209 A 
ATOM     90  C   UNL A   1      33.061  21.500  23.813  1.00  0.00     0.201 A 
ATOM     91  O   UNL A   1      34.894  23.003  22.552  1.00  0.00    -0.463 OA
ATOM     92  C   UNL A   1      34.214  21.963  24.603  1.00  0.00     0.065 A 
ATOM     93  O   UNL A   1      32.475  20.446  23.996  1.00  0.00    -0.288 OA
ATOM     94  C   UNL A   1      35.097  22.801  23.911  1.00  0.00     0.137 A 
ATOM     95  C   UNL A   1      34.126  21.993  25.991  1.00  0.00     0.016 A 
ATOM     96  C   UNL A   1      35.950  23.651  24.602  1.00  0.00     0.048 A 
ATOM     97  C   UNL A   1      34.891  22.939  26.671  1.00  0.00     0.001 A 
ATOM     98  C   UNL A   1      35.815  23.743  25.989  1.00  0.00     0.004 A 
ENDBRANCH  87  88
ENDBRANCH  82  86
ENDBRANCH  78  80
ENDBRANCH  77  78
ENDBRANCH  76  77
ENDBRANCH  75  76
ENDBRANCH  74  75
ENDBRANCH  73  74
ENDBRANCH   1  73
TORSDOF 19
ENDMDL
MODEL 2
REMARK VINA RESULT:     -11.7      1.878      7.503
REMARK SMILES O=C(OCCOCCOCCOC(=O)c1ccccc1/N=C/c1coc2ccccc2c1=O)c1ccc(-c2c3nc(c(-c4c(F)c(F)c(F)c(F)c4F)c4ccc([nH]4)c(-c4c(F)c(F)c(F)c(F)c4F)c4nc(c(-c5c(F)c(F)c(F)c(F)c5F)c5ccc2[nH]5)C=C4)C=C3)cc1
REMARK SMILES IDX 7 1 6 2 5 3 4 4 3 5 2 6 1 7 34 8 35 9 96 10 36 11 95 12
REMARK SMILES IDX 37 13 38 14 39 15 89 16 40 17 94 18 88 19 90 20 41 21 93 22
REMARK SMILES IDX 87 23 86 24 42 26 74 27 54 28 73 29 55 30 58 31 72 32 91 33
REMARK SMILES IDX 56 34 57 35 71 37 92 38 59 39 43 40 44 41 52 42 45 43 46 44
REMARK SMILES IDX 50 45 53 46 47 47 48 48 51 49 49 50 75 51 76 52 84 53 77 54
REMARK SMILES IDX 78 55 82 56 85 57 79 58 80 59 83 60 81 61 60 62 61 63 69 64
REMARK SMILES IDX 62 65 63 66 67 67 70 68 64 69 65 70 68 71 66 72 8 73 9 74
REMARK SMILES IDX 10 75 11 76 12 77 13 78 14 79 15 80 16 81 20 82 17 83 19 84
REMARK SMILES IDX 18 85 21 86 22 87 23 88 24 89 32 90 25 91 31 92 33 93 26 94
REMARK SMILES IDX 30 95 27 96 29 97 28 98
REMARK H PARENT 90 25 58 36
REMARK Flexibility Score: inf
ROOT
ATOM      1  C   UNL A   1      28.896  32.366  23.472  1.00  0.00     0.188 C 
ENDROOT
BRANCH   1   2
ATOM      2  O   UNL A   1      29.609  31.591  24.453  1.00  0.00    -0.376 OA
BRANCH   2   3
ATOM      3  C   UNL A   1      30.422  32.391  25.314  1.00  0.00     0.202 C 
BRANCH   3   4
ATOM      4  C   UNL A   1      31.047  31.604  26.470  1.00  0.00     0.261 C 
BRANCH   4   5
ATOM      5  O   UNL A   1      32.482  31.642  26.427  1.00  0.00    -0.460 OA
BRANCH   5   6
ATOM      6  C   UNL A   1      33.301  32.355  27.244  1.00  0.00     0.338 C 
ATOM      7  O   UNL A   1      32.975  33.488  27.592  1.00  0.00    -0.246 OA
BRANCH   6   8
ATOM      8  C   UNL A   1      34.506  31.749  27.877  1.00  0.00     0.060 A 
ATOM      9  C   UNL A   1      34.647  30.398  28.200  1.00  0.00     0.016 A 
ATOM     10  C   UNL A   1      35.594  32.608  28.106  1.00  0.00     0.016 A 
ATOM     11  C   UNL A   1      35.779  29.946  28.887  1.00  0.00     0.010 A 
ATOM     12  C   UNL A   1      36.758  32.144  28.727  1.00  0.00     0.010 A 
ATOM     13  C   UNL A   1      36.836  30.819  29.175  1.00  0.00    -0.014 A 
BRANCH  13  14
ATOM     14  C   UNL A   1      37.980  30.361  30.003  1.00  0.00     0.031 A 
ATOM     15  C   UNL A   1      39.022  29.459  29.413  1.00  0.00     0.074 A 
ATOM     16  C   UNL A   1      38.132  30.786  31.269  1.00  0.00     0.049 A 
ATOM     17  N   UNL A   1      40.090  28.954  29.977  1.00  0.00    -0.248 NA
ATOM     18  C   UNL A   1      38.844  29.079  28.005  1.00  0.00     0.031 C 
ATOM     19  C   UNL A   1      37.216  31.685  31.960  1.00  0.00     0.029 A 
ATOM     20  N   UNL A   1      39.119  30.531  32.190  1.00  0.00    -0.354 N 
ATOM     21  C   UNL A   1      40.708  28.193  28.998  1.00  0.00     0.074 A 
ATOM     22  C   UNL A   1      39.882  28.281  27.811  1.00  0.00     0.031 C 
ATOM     23  C   UNL A   1      37.709  31.927  33.181  1.00  0.00     0.029 A 
ATOM     24  C   UNL A   1      38.939  31.187  33.380  1.00  0.00     0.049 A 
ATOM     25  H   UNL A   1      39.883  29.935  32.013  1.00  0.00     0.167 HD
ATOM     26  C   UNL A   1      41.864  27.493  29.076  1.00  0.00     0.037 A 
ATOM     27  C   UNL A   1      39.656  31.209  34.517  1.00  0.00     0.037 A 
ATOM     28  C   UNL A   1      42.692  27.396  30.248  1.00  0.00     0.049 A 
ATOM     29  C   UNL A   1      40.904  30.395  34.599  1.00  0.00     0.074 A 
ATOM     30  C   UNL A   1      43.861  26.676  30.424  1.00  0.00     0.029 A 
ATOM     31  N   UNL A   1      42.438  28.043  31.449  1.00  0.00    -0.354 N 
ATOM     32  N   UNL A   1      41.454  29.649  33.677  1.00  0.00    -0.248 NA
ATOM     33  C   UNL A   1      41.623  30.411  35.880  1.00  0.00     0.031 C 
ATOM     34  C   UNL A   1      44.304  26.870  31.740  1.00  0.00     0.029 A 
ATOM     35  C   UNL A   1      43.423  27.730  32.373  1.00  0.00     0.049 A 
ATOM     36  H   UNL A   1      41.671  28.636  31.619  1.00  0.00     0.167 HD
ATOM     37  C   UNL A   1      42.582  29.101  34.260  1.00  0.00     0.074 A 
ATOM     38  C   UNL A   1      42.653  29.621  35.611  1.00  0.00     0.031 C 
ATOM     39  C   UNL A   1      43.472  28.235  33.720  1.00  0.00     0.037 A 
BRANCH  26  40
ATOM     40  C   UNL A   1      42.269  26.752  27.841  1.00  0.00     0.064 A 
ATOM     41  C   UNL A   1      41.786  25.463  27.574  1.00  0.00     0.173 A 
ATOM     42  C   UNL A   1      43.186  27.316  26.945  1.00  0.00     0.173 A 
ATOM     43  F   UNL A   1      40.930  24.873  28.423  1.00  0.00    -0.203 F 
ATOM     44  C   UNL A   1      42.230  24.752  26.463  1.00  0.00     0.198 A 
ATOM     45  C   UNL A   1      43.614  26.610  25.825  1.00  0.00     0.198 A 
ATOM     46  F   UNL A   1      43.684  28.541  27.168  1.00  0.00    -0.203 F 
ATOM     47  F   UNL A   1      41.799  23.500  26.254  1.00  0.00    -0.200 F 
ATOM     48  C   UNL A   1      43.143  25.326  25.590  1.00  0.00     0.200 A 
ATOM     49  F   UNL A   1      44.501  27.161  24.985  1.00  0.00    -0.200 F 
ATOM     50  F   UNL A   1      43.583  24.634  24.530  1.00  0.00    -0.200 F 
ENDBRANCH  26  40
BRANCH  27  51
ATOM     51  C   UNL A   1      39.199  32.028  35.671  1.00  0.00     0.064 A 
ATOM     52  C   UNL A   1      38.375  31.482  36.664  1.00  0.00     0.173 A 
ATOM     53  C   UNL A   1      39.607  33.362  35.817  1.00  0.00     0.173 A 
ATOM     54  F   UNL A   1      37.944  30.218  36.555  1.00  0.00    -0.203 F 
ATOM     55  C   UNL A   1      37.976  32.242  37.762  1.00  0.00     0.198 A 
ATOM     56  C   UNL A   1      39.219  34.114  36.922  1.00  0.00     0.198 A 
ATOM     57  F   UNL A   1      40.410  33.923  34.901  1.00  0.00    -0.203 F 
ATOM     58  F   UNL A   1      37.176  31.704  38.694  1.00  0.00    -0.200 F 
ATOM     59  C   UNL A   1      38.402  33.555  37.893  1.00  0.00     0.200 A 
ATOM     60  F   UNL A   1      39.663  35.371  37.064  1.00  0.00    -0.200 F 
ATOM     61  F   UNL A   1      38.043  34.276  38.964  1.00  0.00    -0.200 F 
ENDBRANCH  27  51
BRANCH  39  62
ATOM     62  C   UNL A   1      44.590  27.799  34.610  1.00  0.00     0.064 A 
ATOM     63  C   UNL A   1      45.793  28.518  34.668  1.00  0.00     0.173 A 
ATOM     64  C   UNL A   1      44.470  26.642  35.392  1.00  0.00     0.173 A 
ATOM     65  F   UNL A   1      45.958  29.615  33.912  1.00  0.00    -0.203 F 
ATOM     66  C   UNL A   1      46.846  28.081  35.462  1.00  0.00     0.198 A 
ATOM     67  C   UNL A   1      45.521  26.217  36.199  1.00  0.00     0.198 A 
ATOM     68  F   UNL A   1      43.342  25.918  35.359  1.00  0.00    -0.203 F 
ATOM     69  F   UNL A   1      48.004  28.756  35.469  1.00  0.00    -0.200 F 
ATOM     70  C   UNL A   1      46.709  26.933  36.229  1.00  0.00     0.200 A 
ATOM     71  F   UNL A   1      45.390  25.106  36.935  1.00  0.00    -0.200 F 
ATOM     72  F   UNL A   1      47.730  26.507  36.985  1.00  0.00    -0.200 F 
ENDBRANCH  39  62
ENDBRANCH  13  14
ENDBRANCH   6   8
ENDBRANCH   5   6
ENDBRANCH   4   5
ENDBRANCH   3   4
ENDBRANCH   2   3
ENDBRANCH   1   2
BRANCH   1  73
ATOM     73  C   UNL A   1      27.918  31.466  22.716  1.00  0.00     0.188 C 
BRANCH  73  74
ATOM     74  O   UNL A   1      27.272  30.481  23.531  1.00  0.00    -0.376 OA
BRANCH  74  75
ATOM     75  C   UNL A   1      27.356  29.133  23.087  1.00  0.00     0.202 C 
BRANCH  75  76
ATOM     76  C   UNL A   1      28.727  28.638  22.621  1.00  0.00     0.261 C 
BRANCH  76  77
ATOM     77  O   UNL A   1      29.687  28.374  23.653  1.00  0.00    -0.460 OA
BRANCH  77  78
ATOM     78  C   UNL A   1      30.643  27.483  23.293  1.00  0.00     0.340 C 
ATOM     79  O   UNL A   1      30.569  26.618  22.434  1.00  0.00    -0.246 OA
BRANCH  78  80
ATOM     80  C   UNL A   1      31.775  27.570  24.214  1.00  0.00     0.085 A 
ATOM     81  C   UNL A   1      32.422  28.810  24.358  1.00  0.00     0.018 A 
ATOM     82  C   UNL A   1      32.227  26.426  24.894  1.00  0.00     0.077 A 
ATOM     83  C   UNL A   1      33.553  28.921  25.165  1.00  0.00     0.001 A 
ATOM     84  C   UNL A   1      33.407  26.562  25.649  1.00  0.00     0.029 A 
ATOM     85  C   UNL A   1      34.063  27.790  25.790  1.00  0.00     0.002 A 
BRANCH  82  86
ATOM     86  N   UNL A   1      31.471  25.292  25.240  1.00  0.00    -0.255 NA
ATOM     87  C   UNL A   1      31.368  24.741  26.407  1.00  0.00     0.127 C 
BRANCH  87  88
ATOM     88  C   UNL A   1      31.403  23.246  26.386  1.00  0.00     0.076 A 
ATOM     89  C   UNL A   1      31.179  22.708  25.173  1.00  0.00     0.209 A 
ATOM     90  C   UNL A   1      32.596  22.659  27.076  1.00  0.00     0.201 A 
ATOM     91  O   UNL A   1      32.096  21.841  24.567  1.00  0.00    -0.463 OA
ATOM     92  C   UNL A   1      33.737  22.591  26.147  1.00  0.00     0.065 A 
ATOM     93  O   UNL A   1      32.669  22.462  28.278  1.00  0.00    -0.288 OA
ATOM     94  C   UNL A   1      33.402  22.228  24.837  1.00  0.00     0.137 A 
ATOM     95  C   UNL A   1      34.890  23.317  26.425  1.00  0.00     0.016 A 
ATOM     96  C   UNL A   1      34.247  22.542  23.781  1.00  0.00     0.048 A 
ATOM     97  C   UNL A   1      35.667  23.741  25.348  1.00  0.00     0.001 A 
ATOM     98  C   UNL A   1      35.366  23.337  24.040  1.00  0.00     0.004 A 
ENDBRANCH  87  88
ENDBRANCH  82  86
ENDBRANCH  78  80
ENDBRANCH  77  78
ENDBRANCH  76  77
ENDBRANCH  75  76
ENDBRANCH  74  75
ENDBRANCH  73  74
ENDBRANCH   1  73
TORSDOF 19
ENDMDL
MODEL 3
REMARK VINA RESULT:     -11.7      1.953      7.703
REMARK SMILES O=C(OCCOCCOCCOC(=O)c1ccccc1/N=C/c1coc2ccccc2c1=O)c1ccc(-c2c3nc(c(-c4c(F)c(F)c(F)c(F)c4F)c4ccc([nH]4)c(-c4c(F)c(F)c(F)c(F)c4F)c4nc(c(-c5c(F)c(F)c(F)c(F)c5F)c5ccc2[nH]5)C=C4)C=C3)cc1
REMARK SMILES IDX 7 1 6 2 5 3 4 4 3 5 2 6 1 7 34 8 35 9 96 10 36 11 95 12
REMARK SMILES IDX 37 13 38 14 39 15 89 16 40 17 94 18 88 19 90 20 41 21 93 22
REMARK SMILES IDX 87 23 86 24 42 26 74 27 54 28 73 29 55 30 58 31 72 32 91 33
REMARK SMILES IDX 56 34 57 35 71 37 92 38 59 39 43 40 44 41 52 42 45 43 46 44
REMARK SMILES IDX 50 45 53 46 47 47 48 48 51 49 49 50 75 51 76 52 84 53 77 54
REMARK SMILES IDX 78 55 82 56 85 57 79 58 80 59 83 60 81 61 60 62 61 63 69 64
REMARK SMILES IDX 62 65 63 66 67 67 70 68 64 69 65 70 68 71 66 72 8 73 9 74
REMARK SMILES IDX 10 75 11 76 12 77 13 78 14 79 15 80 16 81 20 82 17 83 19 84
REMARK SMILES IDX 18 85 21 86 22 87 23 88 24 89 32 90 25 91 31 92 33 93 26 94
REMARK SMILES IDX 30 95 27 96 29 97 28 98
REMARK H PARENT 90 25 58 36
REMARK Flexibility Score: inf
ROOT
ATOM      1  C   UNL A   1      29.289  30.018  23.244  1.00  0.00     0.188 C 
ENDROOT
BRANCH   1   2
ATOM      2  O   UNL A   1      29.849  30.916  24.221  1.00  0.00    -0.376 OA
BRANCH   2   3
ATOM      3  C   UNL A   1      30.942  30.346  24.943  1.00  0.00     0.202 C 
BRANCH   3   4
ATOM      4  C   UNL A   1      31.404  31.199  26.128  1.00  0.00     0.261 C 
BRANCH   4   5
ATOM      5  O   UNL A   1      32.807  31.032  26.390  1.00  0.00    -0.460 OA
BRANCH   5   6
ATOM      6  C   UNL A   1      33.564  31.760  27.253  1.00  0.00     0.338 C 
ATOM      7  O   UNL A   1      33.172  32.864  27.621  1.00  0.00    -0.246 OA
BRANCH   6   8
ATOM      8  C   UNL A   1      34.778  31.194  27.906  1.00  0.00     0.060 A 
ATOM      9  C   UNL A   1      34.951  29.852  28.249  1.00  0.00     0.016 A 
ATOM     10  C   UNL A   1      35.841  32.085  28.134  1.00  0.00     0.016 A 
ATOM     11  C   UNL A   1      36.087  29.440  28.953  1.00  0.00     0.010 A 
ATOM     12  C   UNL A   1      37.010  31.659  28.773  1.00  0.00     0.010 A 
ATOM     13  C   UNL A   1      37.118  30.344  29.241  1.00  0.00    -0.014 A 
BRANCH  13  14
ATOM     14  C   UNL A   1      38.264  29.927  30.086  1.00  0.00     0.031 A 
ATOM     15  C   UNL A   1      39.318  29.016  29.530  1.00  0.00     0.074 A 
ATOM     16  C   UNL A   1      38.408  30.398  31.337  1.00  0.00     0.049 A 
ATOM     17  N   UNL A   1      40.390  28.543  30.114  1.00  0.00    -0.248 NA
ATOM     18  C   UNL A   1      39.147  28.586  28.136  1.00  0.00     0.031 C 
ATOM     19  C   UNL A   1      37.481  31.310  31.994  1.00  0.00     0.029 A 
ATOM     20  N   UNL A   1      39.397  30.186  32.269  1.00  0.00    -0.354 N 
ATOM     21  C   UNL A   1      41.018  27.756  29.164  1.00  0.00     0.074 A 
ATOM     22  C   UNL A   1      40.194  27.792  27.972  1.00  0.00     0.031 C 
ATOM     23  C   UNL A   1      37.968  31.600  33.208  1.00  0.00     0.029 A 
ATOM     24  C   UNL A   1      39.206  30.881  33.434  1.00  0.00     0.049 A 
ATOM     25  H   UNL A   1      40.167  29.592  32.114  1.00  0.00     0.167 HD
ATOM     26  C   UNL A   1      42.182  27.071  29.269  1.00  0.00     0.037 A 
ATOM     27  C   UNL A   1      39.920  30.950  34.572  1.00  0.00     0.037 A 
ATOM     28  C   UNL A   1      43.007  27.024  30.444  1.00  0.00     0.049 A 
ATOM     29  C   UNL A   1      41.177  30.153  34.685  1.00  0.00     0.074 A 
ATOM     30  C   UNL A   1      44.184  26.323  30.648  1.00  0.00     0.029 A 
ATOM     31  N   UNL A   1      42.744  27.709  31.621  1.00  0.00    -0.354 N 
ATOM     32  N   UNL A   1      41.737  29.381  33.790  1.00  0.00    -0.248 NA
ATOM     33  C   UNL A   1      41.892  30.222  35.966  1.00  0.00     0.031 C 
ATOM     34  C   UNL A   1      44.621  26.568  31.957  1.00  0.00     0.029 A 
ATOM     35  C   UNL A   1      43.730  27.440  32.559  1.00  0.00     0.049 A 
ATOM     36  H   UNL A   1      41.970  28.300  31.769  1.00  0.00     0.167 HD
ATOM     37  C   UNL A   1      42.869  28.866  34.395  1.00  0.00     0.074 A 
ATOM     38  C   UNL A   1      42.931  29.433  35.727  1.00  0.00     0.031 C 
ATOM     39  C   UNL A   1      43.770  27.992  33.887  1.00  0.00     0.037 A 
BRANCH  26  40
ATOM     40  C   UNL A   1      42.598  26.292  28.061  1.00  0.00     0.064 A 
ATOM     41  C   UNL A   1      43.452  26.845  27.096  1.00  0.00     0.173 A 
ATOM     42  C   UNL A   1      42.096  25.002  27.843  1.00  0.00     0.173 A 
ATOM     43  F   UNL A   1      43.930  28.090  27.250  1.00  0.00    -0.203 F 
ATOM     44  C   UNL A   1      43.770  26.140  25.938  1.00  0.00     0.198 A 
ATOM     45  C   UNL A   1      42.430  24.293  26.693  1.00  0.00     0.198 A 
ATOM     46  F   UNL A   1      41.266  24.440  28.734  1.00  0.00    -0.203 F 
ATOM     47  F   UNL A   1      44.543  26.706  25.002  1.00  0.00    -0.200 F 
ATOM     48  C   UNL A   1      43.258  24.865  25.739  1.00  0.00     0.200 A 
ATOM     49  F   UNL A   1      41.932  23.065  26.497  1.00  0.00    -0.200 F 
ATOM     50  F   UNL A   1      43.550  24.195  24.615  1.00  0.00    -0.200 F 
ENDBRANCH  26  40
BRANCH  27  51
ATOM     51  C   UNL A   1      39.451  31.804  35.695  1.00  0.00     0.064 A 
ATOM     52  C   UNL A   1      39.906  33.121  35.841  1.00  0.00     0.173 A 
ATOM     53  C   UNL A   1      38.513  31.327  36.623  1.00  0.00     0.173 A 
ATOM     54  F   UNL A   1      40.817  33.612  34.990  1.00  0.00    -0.203 F 
ATOM     55  C   UNL A   1      39.438  33.931  36.875  1.00  0.00     0.198 A 
ATOM     56  C   UNL A   1      38.038  32.142  37.646  1.00  0.00     0.198 A 
ATOM     57  F   UNL A   1      38.036  30.078  36.514  1.00  0.00    -0.203 F 
ATOM     58  F   UNL A   1      39.896  35.184  37.004  1.00  0.00    -0.200 F 
ATOM     59  C   UNL A   1      38.501  33.442  37.773  1.00  0.00     0.200 A 
ATOM     60  F   UNL A   1      37.104  31.679  38.489  1.00  0.00    -0.200 F 
ATOM     61  F   UNL A   1      38.029  34.230  38.749  1.00  0.00    -0.200 F 
ENDBRANCH  27  51
BRANCH  39  62
ATOM     62  C   UNL A   1      44.890  27.599  34.794  1.00  0.00     0.064 A 
ATOM     63  C   UNL A   1      44.782  26.484  35.637  1.00  0.00     0.173 A 
ATOM     64  C   UNL A   1      46.069  28.356  34.840  1.00  0.00     0.173 A 
ATOM     65  F   UNL A   1      43.658  25.751  35.644  1.00  0.00    -0.203 F 
ATOM     66  C   UNL A   1      45.810  26.151  36.513  1.00  0.00     0.198 A 
ATOM     67  C   UNL A   1      47.102  28.009  35.705  1.00  0.00     0.198 A 
ATOM     68  F   UNL A   1      46.210  29.436  34.059  1.00  0.00    -0.203 F 
ATOM     69  F   UNL A   1      45.670  25.109  37.344  1.00  0.00    -0.200 F 
ATOM     70  C   UNL A   1      46.969  26.912  36.544  1.00  0.00     0.200 A 
ATOM     71  F   UNL A   1      48.220  28.747  35.740  1.00  0.00    -0.200 F 
ATOM     72  F   UNL A   1      47.954  26.597  37.397  1.00  0.00    -0.200 F 
ENDBRANCH  39  62
ENDBRANCH  13  14
ENDBRANCH   6   8
ENDBRANCH   5   6
ENDBRANCH   4   5
ENDBRANCH   3   4
ENDBRANCH   2   3
ENDBRANCH   1   2
BRANCH   1  73
ATOM     73  C   UNL A   1      30.413  29.264  22.533  1.00  0.00     0.188 C 
BRANCH  73  74
ATOM     74  O   UNL A   1      30.253  27.841  22.520  1.00  0.00    -0.376 OA
BRANCH  74  75
ATOM     75  C   UNL A   1      29.322  27.297  23.447  1.00  0.00     0.202 C 
BRANCH  75  76
ATOM     76  C   UNL A   1      29.710  25.986  24.134  1.00  0.00     0.261 C 
BRANCH  76  77
ATOM     77  O   UNL A   1      29.457  25.911  25.543  1.00  0.00    -0.460 OA
BRANCH  77  78
ATOM     78  C   UNL A   1      30.318  25.105  26.211  1.00  0.00     0.340 C 
ATOM     79  O   UNL A   1      30.047  24.120  26.881  1.00  0.00    -0.246 OA
BRANCH  78  80
ATOM     80  C   UNL A   1      31.663  25.674  26.173  1.00  0.00     0.085 A 
ATOM     81  C   UNL A   1      31.794  27.074  26.199  1.00  0.00     0.018 A 
ATOM     82  C   UNL A   1      32.786  24.837  26.066  1.00  0.00     0.077 A 
ATOM     83  C   UNL A   1      33.053  27.662  26.087  1.00  0.00     0.001 A 
ATOM     84  C   UNL A   1      34.033  25.467  25.892  1.00  0.00     0.029 A 
ATOM     85  C   UNL A   1      34.172  26.858  25.906  1.00  0.00     0.002 A 
BRANCH  82  86
ATOM     86  N   UNL A   1      32.891  23.501  26.492  1.00  0.00    -0.255 NA
ATOM     87  C   UNL A   1      33.876  22.952  27.128  1.00  0.00     0.127 C 
BRANCH  87  88
ATOM     88  C   UNL A   1      34.232  21.582  26.645  1.00  0.00     0.076 A 
ATOM     89  C   UNL A   1      33.170  20.808  26.354  1.00  0.00     0.209 A 
ATOM     90  C   UNL A   1      35.277  21.571  25.572  1.00  0.00     0.201 A 
ATOM     91  O   UNL A   1      33.001  20.231  25.091  1.00  0.00    -0.463 OA
ATOM     92  C   UNL A   1      34.651  21.756  24.252  1.00  0.00     0.065 A 
ATOM     93  O   UNL A   1      36.479  21.612  25.780  1.00  0.00    -0.288 OA
ATOM     94  C   UNL A   1      33.430  21.089  24.087  1.00  0.00     0.137 A 
ATOM     95  C   UNL A   1      34.973  22.875  23.491  1.00  0.00     0.016 A 
ATOM     96  C   UNL A   1      32.528  21.501  23.115  1.00  0.00     0.048 A 
ATOM     97  C   UNL A   1      34.009  23.361  22.609  1.00  0.00     0.001 A 
ATOM     98  C   UNL A   1      32.809  22.668  22.401  1.00  0.00     0.004 A 
ENDBRANCH  87  88
ENDBRANCH  82  86
ENDBRANCH  78  80
ENDBRANCH  77  78
ENDBRANCH  76  77
ENDBRANCH  75  76
ENDBRANCH  74  75
ENDBRANCH  73  74
ENDBRANCH   1  73
TORSDOF 19
ENDMDL
