MODEL 1
REMARK VINA RESULT:     -11.2      0.000      0.000
REMARK SMILES CNC(=O)[C@H](C)S(=O)(=O)c1cc(C(=O)OCCOCCOCCOC(=O)c2ccc(-c3c4nc(c(-c5c(F)c(F)c(F)c(F)c5F)c5ccc([nH]5)c(-c5c(F)c(F)c(F)c(F)c5F)c5nc(c(-c6c(F)c(F)c(F)c(F)c6F)c6ccc3[nH]6)C=C5)C=C4)cc2)c(C)cc1C
REMARK SMILES IDX 19 1 18 2 17 3 16 4 15 5 13 6 14 7 12 8 10 9 11 10 93 11
REMARK SMILES IDX 92 12 94 13 90 14 91 15 7 16 8 17 9 18 5 19 6 20 3 21 1 22
REMARK SMILES IDX 2 23 4 25 20 26 21 27 22 28 23 29 24 30 25 31 26 32 27 33
REMARK SMILES IDX 28 34 89 35 29 36 88 37 30 38 31 39 32 40 82 41 33 42 87 43
REMARK SMILES IDX 81 44 83 45 34 46 86 47 80 48 79 49 35 51 67 52 47 53 66 54
REMARK SMILES IDX 48 55 51 56 65 57 84 58 49 59 50 60 64 62 85 63 52 64 36 65
REMARK SMILES IDX 37 66 45 67 38 68 39 69 43 70 46 71 40 72 41 73 44 74 42 75
REMARK SMILES IDX 68 76 69 77 77 78 70 79 71 80 75 81 78 82 72 83 73 84 76 85
REMARK SMILES IDX 74 86 53 87 54 88 62 89 55 90 56 91 60 92 63 93 57 94 58 95
REMARK SMILES IDX 61 96 59 97
REMARK H PARENT 2 24 83 50 51 61
REMARK Flexibility Score: inf
ROOT
ATOM      1  C   UNL A   1      40.515  20.697  26.772  1.00  0.00     0.188 C 
ENDROOT
BRANCH   1   2
ATOM      2  O   UNL A   1      39.921  21.498  25.769  1.00  0.00    -0.376 OA
BRANCH   2   3
ATOM      3  C   UNL A   1      38.534  21.794  25.828  1.00  0.00     0.202 C 
BRANCH   3   4
ATOM      4  C   UNL A   1      38.010  23.229  25.982  1.00  0.00     0.261 C 
BRANCH   4   5
ATOM      5  O   UNL A   1      36.582  23.347  25.968  1.00  0.00    -0.460 OA
BRANCH   5   6
ATOM      6  C   UNL A   1      36.032  23.687  24.780  1.00  0.00     0.338 C 
ATOM      7  O   UNL A   1      36.557  23.553  23.684  1.00  0.00    -0.246 OA
BRANCH   6   8
ATOM      8  C   UNL A   1      34.597  24.051  24.913  1.00  0.00     0.064 A 
ATOM      9  C   UNL A   1      33.067  25.826  25.639  1.00  0.00     0.071 A 
ATOM     10  C   UNL A   1      34.361  25.367  25.348  1.00  0.00     0.036 A 
ATOM     11  C   UNL A   1      31.988  24.940  25.567  1.00  0.00    -0.032 A 
ATOM     12  C   UNL A   1      32.222  23.667  25.011  1.00  0.00     0.009 A 
ATOM     13  C   UNL A   1      30.584  25.255  26.002  1.00  0.00     0.046 C 
ATOM     14  C   UNL A   1      33.505  23.223  24.629  1.00  0.00    -0.036 A 
ATOM     15  C   UNL A   1      33.599  21.875  23.977  1.00  0.00     0.045 C 
BRANCH   9  16
ATOM     16  S   UNL A   1      32.886  27.588  25.886  1.00  0.00     0.190 S 
ATOM     17  O   UNL A   1      34.193  28.213  25.774  1.00  0.00    -0.223 OA
ATOM     18  O   UNL A   1      32.187  27.729  27.153  1.00  0.00    -0.223 OA
BRANCH  16  19
ATOM     19  C   UNL A   1      31.878  28.220  24.561  1.00  0.00     0.199 C 
ATOM     20  C   UNL A   1      31.298  29.589  24.919  1.00  0.00     0.036 C 
BRANCH  19  21
ATOM     21  C   UNL A   1      32.667  28.304  23.277  1.00  0.00     0.238 C 
ATOM     22  C   UNL A   1      31.606  26.266  22.186  1.00  0.00     0.142 C 
ATOM     23  N   UNL A   1      32.464  27.427  22.256  1.00  0.00    -0.358 N 
ATOM     24  H   UNL A   1      32.983  27.612  21.440  1.00  0.00     0.163 HD
ATOM     25  O   UNL A   1      33.508  29.188  23.097  1.00  0.00    -0.274 OA
ENDBRANCH  19  21
ENDBRANCH  16  19
ENDBRANCH   9  16
ENDBRANCH   6   8
ENDBRANCH   5   6
ENDBRANCH   4   5
ENDBRANCH   3   4
ENDBRANCH   2   3
ENDBRANCH   1   2
BRANCH   1  26
ATOM     26  C   UNL A   1      41.421  19.509  26.383  1.00  0.00     0.188 C 
BRANCH  26  27
ATOM     27  O   UNL A   1      42.245  19.608  25.246  1.00  0.00    -0.376 OA
BRANCH  27  28
ATOM     28  C   UNL A   1      43.645  19.788  25.381  1.00  0.00     0.202 C 
BRANCH  28  29
ATOM     29  C   UNL A   1      44.357  21.138  25.583  1.00  0.00     0.261 C 
BRANCH  29  30
ATOM     30  O   UNL A   1      43.622  22.192  26.206  1.00  0.00    -0.460 OA
BRANCH  30  31
ATOM     31  C   UNL A   1      43.242  23.201  25.386  1.00  0.00     0.338 C 
ATOM     32  O   UNL A   1      43.183  23.189  24.165  1.00  0.00    -0.246 OA
BRANCH  31  33
ATOM     33  C   UNL A   1      42.740  24.311  26.210  1.00  0.00     0.060 A 
ATOM     34  C   UNL A   1      43.297  25.590  26.061  1.00  0.00     0.016 A 
ATOM     35  C   UNL A   1      41.736  24.074  27.146  1.00  0.00     0.016 A 
ATOM     36  C   UNL A   1      42.850  26.642  26.861  1.00  0.00     0.010 A 
ATOM     37  C   UNL A   1      41.314  25.118  27.967  1.00  0.00     0.010 A 
ATOM     38  C   UNL A   1      41.885  26.398  27.844  1.00  0.00    -0.014 A 
BRANCH  38  39
ATOM     39  C   UNL A   1      41.600  27.401  28.895  1.00  0.00     0.031 A 
ATOM     40  C   UNL A   1      42.426  27.355  30.148  1.00  0.00     0.074 A 
ATOM     41  C   UNL A   1      40.594  28.283  28.772  1.00  0.00     0.049 A 
ATOM     42  N   UNL A   1      42.244  27.970  31.288  1.00  0.00    -0.248 NA
ATOM     43  C   UNL A   1      43.603  26.472  30.115  1.00  0.00     0.031 C 
ATOM     44  C   UNL A   1      39.752  28.440  27.592  1.00  0.00     0.029 A 
ATOM     45  N   UNL A   1      40.095  29.193  29.670  1.00  0.00    -0.354 N 
ATOM     46  C   UNL A   1      43.263  27.522  32.117  1.00  0.00     0.074 A 
ATOM     47  C   UNL A   1      44.051  26.578  31.356  1.00  0.00     0.031 C 
ATOM     48  C   UNL A   1      38.829  29.386  27.840  1.00  0.00     0.029 A 
ATOM     49  C   UNL A   1      38.979  29.853  29.218  1.00  0.00     0.049 A 
ATOM     50  H   UNL A   1      40.499  29.358  30.553  1.00  0.00     0.167 HD
ATOM     51  C   UNL A   1      43.509  27.864  33.403  1.00  0.00     0.037 A 
ATOM     52  C   UNL A   1      38.151  30.699  29.863  1.00  0.00     0.037 A 
ATOM     53  C   UNL A   1      42.712  28.798  34.152  1.00  0.00     0.049 A 
ATOM     54  C   UNL A   1      38.407  31.016  31.318  1.00  0.00     0.074 A 
ATOM     55  C   UNL A   1      42.877  29.218  35.460  1.00  0.00     0.029 A 
ATOM     56  N   UNL A   1      41.592  29.451  33.658  1.00  0.00    -0.354 N 
ATOM     57  N   UNL A   1      39.371  30.594  32.102  1.00  0.00    -0.248 NA
ATOM     58  C   UNL A   1      37.452  31.916  31.982  1.00  0.00     0.031 C 
ATOM     59  C   UNL A   1      41.821  30.078  35.776  1.00  0.00     0.029 A 
ATOM     60  C   UNL A   1      41.044  30.255  34.641  1.00  0.00     0.049 A 
ATOM     61  H   UNL A   1      41.240  29.356  32.743  1.00  0.00     0.167 HD
ATOM     62  C   UNL A   1      39.162  31.205  33.332  1.00  0.00     0.074 A 
ATOM     63  C   UNL A   1      37.981  32.030  33.193  1.00  0.00     0.031 C 
ATOM     64  C   UNL A   1      39.886  31.098  34.474  1.00  0.00     0.037 A 
BRANCH  51  65
ATOM     65  C   UNL A   1      44.656  27.187  34.093  1.00  0.00     0.064 A 
ATOM     66  C   UNL A   1      45.930  27.771  34.162  1.00  0.00     0.173 A 
ATOM     67  C   UNL A   1      44.473  25.941  34.713  1.00  0.00     0.173 A 
ATOM     68  F   UNL A   1      46.164  28.954  33.574  1.00  0.00    -0.203 F 
ATOM     69  C   UNL A   1      46.984  27.119  34.799  1.00  0.00     0.198 A 
ATOM     70  C   UNL A   1      45.518  25.309  35.379  1.00  0.00     0.198 A 
ATOM     71  F   UNL A   1      43.275  25.338  34.678  1.00  0.00    -0.203 F 
ATOM     72  F   UNL A   1      48.205  27.670  34.805  1.00  0.00    -0.200 F 
ATOM     73  C   UNL A   1      46.775  25.894  35.413  1.00  0.00     0.200 A 
ATOM     74  F   UNL A   1      45.311  24.132  35.985  1.00  0.00    -0.200 F 
ATOM     75  F   UNL A   1      47.788  25.271  36.033  1.00  0.00    -0.200 F 
ENDBRANCH  51  65
BRANCH  52  76
ATOM     76  C   UNL A   1      36.982  31.291  29.156  1.00  0.00     0.064 A 
ATOM     77  C   UNL A   1      36.976  32.643  28.785  1.00  0.00     0.173 A 
ATOM     78  C   UNL A   1      35.841  30.531  28.860  1.00  0.00     0.173 A 
ATOM     79  F   UNL A   1      38.033  33.419  29.066  1.00  0.00    -0.203 F 
ATOM     80  C   UNL A   1      35.866  33.217  28.166  1.00  0.00     0.198 A 
ATOM     81  C   UNL A   1      34.746  31.097  28.210  1.00  0.00     0.198 A 
ATOM     82  F   UNL A   1      35.792  29.234  29.193  1.00  0.00    -0.203 F 
ATOM     83  F   UNL A   1      35.868  34.525  27.874  1.00  0.00    -0.200 F 
ATOM     84  C   UNL A   1      34.755  32.443  27.873  1.00  0.00     0.200 A 
ATOM     85  F   UNL A   1      33.680  30.340  27.914  1.00  0.00    -0.200 F 
ATOM     86  F   UNL A   1      33.689  32.993  27.275  1.00  0.00    -0.200 F 
ENDBRANCH  52  76
BRANCH  64  87
ATOM     87  C   UNL A   1      39.486  31.949  35.645  1.00  0.00     0.064 A 
ATOM     88  C   UNL A   1      39.956  33.259  35.814  1.00  0.00     0.173 A 
ATOM     89  C   UNL A   1      38.541  31.466  36.566  1.00  0.00     0.173 A 
ATOM     90  F   UNL A   1      40.868  33.763  34.970  1.00  0.00    -0.203 F 
ATOM     91  C   UNL A   1      39.505  34.049  36.869  1.00  0.00     0.198 A 
ATOM     92  C   UNL A   1      38.068  32.270  37.599  1.00  0.00     0.198 A 
ATOM     93  F   UNL A   1      38.053  30.223  36.444  1.00  0.00    -0.203 F 
ATOM     94  F   UNL A   1      39.993  35.286  37.033  1.00  0.00    -0.200 F 
ATOM     95  C   UNL A   1      38.553  33.559  37.752  1.00  0.00     0.200 A 
ATOM     96  F   UNL A   1      37.134  31.801  38.437  1.00  0.00    -0.200 F 
ATOM     97  F   UNL A   1      38.104  34.330  38.753  1.00  0.00    -0.200 F 
ENDBRANCH  64  87
ENDBRANCH  38  39
ENDBRANCH  31  33
ENDBRANCH  30  31
ENDBRANCH  29  30
ENDBRANCH  28  29
ENDBRANCH  27  28
ENDBRANCH  26  27
ENDBRANCH   1  26
TORSDOF 20
ENDMDL
MODEL 2
REMARK VINA RESULT:     -10.8      3.496      9.582
REMARK SMILES CNC(=O)[C@H](C)S(=O)(=O)c1cc(C(=O)OCCOCCOCCOC(=O)c2ccc(-c3c4nc(c(-c5c(F)c(F)c(F)c(F)c5F)c5ccc([nH]5)c(-c5c(F)c(F)c(F)c(F)c5F)c5nc(c(-c6c(F)c(F)c(F)c(F)c6F)c6ccc3[nH]6)C=C5)C=C4)cc2)c(C)cc1C
REMARK SMILES IDX 19 1 18 2 17 3 16 4 15 5 13 6 14 7 12 8 10 9 11 10 93 11
REMARK SMILES IDX 92 12 94 13 90 14 91 15 7 16 8 17 9 18 5 19 6 20 3 21 1 22
REMARK SMILES IDX 2 23 4 25 20 26 21 27 22 28 23 29 24 30 25 31 26 32 27 33
REMARK SMILES IDX 28 34 89 35 29 36 88 37 30 38 31 39 32 40 82 41 33 42 87 43
REMARK SMILES IDX 81 44 83 45 34 46 86 47 80 48 79 49 35 51 67 52 47 53 66 54
REMARK SMILES IDX 48 55 51 56 65 57 84 58 49 59 50 60 64 62 85 63 52 64 36 65
REMARK SMILES IDX 37 66 45 67 38 68 39 69 43 70 46 71 40 72 41 73 44 74 42 75
REMARK SMILES IDX 68 76 69 77 77 78 70 79 71 80 75 81 78 82 72 83 73 84 76 85
REMARK SMILES IDX 74 86 53 87 54 88 62 89 55 90 56 91 60 92 63 93 57 94 58 95
REMARK SMILES IDX 61 96 59 97
REMARK H PARENT 2 24 83 50 51 61
REMARK Flexibility Score: inf
ROOT
ATOM      1  C   UNL A   1      34.624  32.926  28.985  1.00  0.00     0.188 C 
ENDROOT
BRANCH   1   2
ATOM      2  O   UNL A   1      34.263  31.585  28.719  1.00  0.00    -0.376 OA
BRANCH   2   3
ATOM      3  C   UNL A   1      34.490  31.032  27.432  1.00  0.00     0.202 C 
BRANCH   3   4
ATOM      4  C   UNL A   1      33.524  30.022  26.794  1.00  0.00     0.261 C 
BRANCH   4   5
ATOM      5  O   UNL A   1      33.299  28.840  27.573  1.00  0.00    -0.460 OA
BRANCH   5   6
ATOM      6  C   UNL A   1      32.182  28.140  27.268  1.00  0.00     0.338 C 
ATOM      7  O   UNL A   1      31.132  28.160  27.894  1.00  0.00    -0.246 OA
BRANCH   6   8
ATOM      8  C   UNL A   1      32.277  27.490  25.935  1.00  0.00     0.064 A 
ATOM      9  C   UNL A   1      33.132  25.516  24.756  1.00  0.00     0.071 A 
ATOM     10  C   UNL A   1      32.860  26.211  25.945  1.00  0.00     0.036 A 
ATOM     11  C   UNL A   1      32.888  26.132  23.525  1.00  0.00    -0.032 A 
ATOM     12  C   UNL A   1      32.190  27.356  23.532  1.00  0.00     0.009 A 
ATOM     13  C   UNL A   1      33.278  25.569  22.187  1.00  0.00     0.046 C 
ATOM     14  C   UNL A   1      31.829  28.024  24.721  1.00  0.00    -0.036 A 
ATOM     15  C   UNL A   1      31.020  29.280  24.585  1.00  0.00     0.045 C 
BRANCH   9  16
ATOM     16  S   UNL A   1      33.587  23.795  24.927  1.00  0.00     0.190 S 
ATOM     17  O   UNL A   1      33.754  23.494  26.339  1.00  0.00    -0.223 OA
ATOM     18  O   UNL A   1      34.746  23.616  24.068  1.00  0.00    -0.223 OA
BRANCH  16  19
ATOM     19  C   UNL A   1      32.228  22.812  24.330  1.00  0.00     0.199 C 
ATOM     20  C   UNL A   1      32.604  22.086  23.038  1.00  0.00     0.036 C 
BRANCH  19  21
ATOM     21  C   UNL A   1      31.778  21.822  25.376  1.00  0.00     0.238 C 
ATOM     22  C   UNL A   1      30.281  23.444  26.641  1.00  0.00     0.142 C 
ATOM     23  N   UNL A   1      30.885  22.165  26.345  1.00  0.00    -0.358 N 
ATOM     24  H   UNL A   1      30.608  21.427  26.935  1.00  0.00     0.163 HD
ATOM     25  O   UNL A   1      32.184  20.658  25.375  1.00  0.00    -0.274 OA
ENDBRANCH  19  21
ENDBRANCH  16  19
ENDBRANCH   9  16
ENDBRANCH   6   8
ENDBRANCH   5   6
ENDBRANCH   4   5
ENDBRANCH   3   4
ENDBRANCH   2   3
ENDBRANCH   1   2
BRANCH   1  26
ATOM     26  C   UNL A   1      33.838  34.087  28.338  1.00  0.00     0.188 C 
BRANCH  26  27
ATOM     27  O   UNL A   1      34.392  35.382  28.333  1.00  0.00    -0.376 OA
BRANCH  27  28
ATOM     28  C   UNL A   1      33.630  36.495  28.770  1.00  0.00     0.202 C 
BRANCH  28  29
ATOM     29  C   UNL A   1      32.527  36.457  29.843  1.00  0.00     0.261 C 
BRANCH  29  30
ATOM     30  O   UNL A   1      32.810  37.053  31.110  1.00  0.00    -0.460 OA
BRANCH  30  31
ATOM     31  C   UNL A   1      32.539  36.281  32.189  1.00  0.00     0.338 C 
ATOM     32  O   UNL A   1      31.524  36.280  32.872  1.00  0.00    -0.246 OA
BRANCH  31  33
ATOM     33  C   UNL A   1      33.617  35.292  32.341  1.00  0.00     0.060 A 
ATOM     34  C   UNL A   1      33.323  34.022  32.860  1.00  0.00     0.016 A 
ATOM     35  C   UNL A   1      34.921  35.637  31.993  1.00  0.00     0.016 A 
ATOM     36  C   UNL A   1      34.344  33.089  33.038  1.00  0.00     0.010 A 
ATOM     37  C   UNL A   1      35.945  34.716  32.204  1.00  0.00     0.010 A 
ATOM     38  C   UNL A   1      35.665  33.449  32.748  1.00  0.00    -0.014 A 
BRANCH  38  39
ATOM     39  C   UNL A   1      36.798  32.607  33.193  1.00  0.00     0.031 A 
ATOM     40  C   UNL A   1      37.413  32.910  34.529  1.00  0.00     0.074 A 
ATOM     41  C   UNL A   1      37.313  31.647  32.407  1.00  0.00     0.049 A 
ATOM     42  N   UNL A   1      38.528  32.472  35.051  1.00  0.00    -0.248 NA
ATOM     43  C   UNL A   1      36.676  33.859  35.379  1.00  0.00     0.031 C 
ATOM     44  C   UNL A   1      36.780  31.244  31.111  1.00  0.00     0.029 A 
ATOM     45  N   UNL A   1      38.421  30.856  32.580  1.00  0.00    -0.354 N 
ATOM     46  C   UNL A   1      38.644  33.117  36.274  1.00  0.00     0.074 A 
ATOM     47  C   UNL A   1      37.495  33.983  36.412  1.00  0.00     0.031 C 
ATOM     48  C   UNL A   1      37.569  30.285  30.595  1.00  0.00     0.029 A 
ATOM     49  C   UNL A   1      38.695  30.054  31.499  1.00  0.00     0.049 A 
ATOM     50  H   UNL A   1      38.967  30.862  33.400  1.00  0.00     0.167 HD
ATOM     51  C   UNL A   1      39.631  33.002  37.193  1.00  0.00     0.037 A 
ATOM     52  C   UNL A   1      39.759  29.262  31.253  1.00  0.00     0.037 A 
ATOM     53  C   UNL A   1      40.774  32.142  37.041  1.00  0.00     0.049 A 
ATOM     54  C   UNL A   1      40.880  29.199  32.265  1.00  0.00     0.074 A 
ATOM     55  C   UNL A   1      41.829  31.947  37.913  1.00  0.00     0.029 A 
ATOM     56  N   UNL A   1      41.014  31.340  35.934  1.00  0.00    -0.354 N 
ATOM     57  N   UNL A   1      40.989  29.808  33.422  1.00  0.00    -0.248 NA
ATOM     58  C   UNL A   1      42.032  28.349  31.930  1.00  0.00     0.031 C 
ATOM     59  C   UNL A   1      42.737  31.074  37.308  1.00  0.00     0.029 A 
ATOM     60  C   UNL A   1      42.210  30.664  36.093  1.00  0.00     0.049 A 
ATOM     61  H   UNL A   1      40.420  31.264  35.152  1.00  0.00     0.167 HD
ATOM     62  C   UNL A   1      42.195  29.385  33.967  1.00  0.00     0.074 A 
ATOM     63  C   UNL A   1      42.783  28.466  33.016  1.00  0.00     0.031 C 
ATOM     64  C   UNL A   1      42.763  29.723  35.151  1.00  0.00     0.037 A 
BRANCH  51  65
ATOM     65  C   UNL A   1      39.539  33.860  38.420  1.00  0.00     0.064 A 
ATOM     66  C   UNL A   1      38.820  33.458  39.555  1.00  0.00     0.173 A 
ATOM     67  C   UNL A   1      40.199  35.098  38.468  1.00  0.00     0.173 A 
ATOM     68  F   UNL A   1      38.157  32.292  39.558  1.00  0.00    -0.203 F 
ATOM     69  C   UNL A   1      38.739  34.277  40.680  1.00  0.00     0.198 A 
ATOM     70  C   UNL A   1      40.147  35.897  39.606  1.00  0.00     0.198 A 
ATOM     71  F   UNL A   1      40.903  35.531  37.410  1.00  0.00    -0.203 F 
ATOM     72  F   UNL A   1      38.001  33.897  41.732  1.00  0.00    -0.200 F 
ATOM     73  C   UNL A   1      39.409  35.491  40.706  1.00  0.00     0.200 A 
ATOM     74  F   UNL A   1      40.808  37.063  39.635  1.00  0.00    -0.200 F 
ATOM     75  F   UNL A   1      39.338  36.274  41.793  1.00  0.00    -0.200 F 
ENDBRANCH  51  65
BRANCH  52  76
ATOM     76  C   UNL A   1      39.839  28.483  29.988  1.00  0.00     0.064 A 
ATOM     77  C   UNL A   1      39.281  27.200  29.896  1.00  0.00     0.173 A 
ATOM     78  C   UNL A   1      40.495  28.988  28.855  1.00  0.00     0.173 A 
ATOM     79  F   UNL A   1      38.664  26.662  30.958  1.00  0.00    -0.203 F 
ATOM     80  C   UNL A   1      39.394  26.444  28.730  1.00  0.00     0.198 A 
ATOM     81  C   UNL A   1      40.576  28.246  27.678  1.00  0.00     0.198 A 
ATOM     82  F   UNL A   1      41.048  30.209  28.886  1.00  0.00    -0.203 F 
ATOM     83  F   UNL A   1      38.899  25.200  28.692  1.00  0.00    -0.200 F 
ATOM     84  C   UNL A   1      40.035  26.970  27.620  1.00  0.00     0.200 A 
ATOM     85  F   UNL A   1      41.184  28.765  26.602  1.00  0.00    -0.200 F 
ATOM     86  F   UNL A   1      40.142  26.245  26.498  1.00  0.00    -0.200 F 
ENDBRANCH  52  76
BRANCH  64  87
ATOM     87  C   UNL A   1      44.045  29.042  35.539  1.00  0.00     0.064 A 
ATOM     88  C   UNL A   1      44.064  27.832  36.245  1.00  0.00     0.173 A 
ATOM     89  C   UNL A   1      45.273  29.573  35.112  1.00  0.00     0.173 A 
ATOM     90  F   UNL A   1      42.920  27.289  36.687  1.00  0.00    -0.203 F 
ATOM     91  C   UNL A   1      45.267  27.185  36.522  1.00  0.00     0.198 A 
ATOM     92  C   UNL A   1      46.470  28.907  35.360  1.00  0.00     0.198 A 
ATOM     93  F   UNL A   1      45.309  30.724  34.424  1.00  0.00    -0.203 F 
ATOM     94  F   UNL A   1      45.266  26.047  37.229  1.00  0.00    -0.200 F 
ATOM     95  C   UNL A   1      46.466  27.716  36.069  1.00  0.00     0.200 A 
ATOM     96  F   UNL A   1      47.624  29.412  34.904  1.00  0.00    -0.200 F 
ATOM     97  F   UNL A   1      47.619  27.079  36.317  1.00  0.00    -0.200 F 
ENDBRANCH  64  87
ENDBRANCH  38  39
ENDBRANCH  31  33
ENDBRANCH  30  31
ENDBRANCH  29  30
ENDBRANCH  28  29
ENDBRANCH  27  28
ENDBRANCH  26  27
ENDBRANCH   1  26
TORSDOF 20
ENDMDL
MODEL 3
REMARK VINA RESULT:     -10.6      4.493      8.453
REMARK SMILES CNC(=O)[C@H](C)S(=O)(=O)c1cc(C(=O)OCCOCCOCCOC(=O)c2ccc(-c3c4nc(c(-c5c(F)c(F)c(F)c(F)c5F)c5ccc([nH]5)c(-c5c(F)c(F)c(F)c(F)c5F)c5nc(c(-c6c(F)c(F)c(F)c(F)c6F)c6ccc3[nH]6)C=C5)C=C4)cc2)c(C)cc1C
REMARK SMILES IDX 19 1 18 2 17 3 16 4 15 5 13 6 14 7 12 8 10 9 11 10 93 11
REMARK SMILES IDX 92 12 94 13 90 14 91 15 7 16 8 17 9 18 5 19 6 20 3 21 1 22
REMARK SMILES IDX 2 23 4 25 20 26 21 27 22 28 23 29 24 30 25 31 26 32 27 33
REMARK SMILES IDX 28 34 89 35 29 36 88 37 30 38 31 39 32 40 82 41 33 42 87 43
REMARK SMILES IDX 81 44 83 45 34 46 86 47 80 48 79 49 35 51 67 52 47 53 66 54
REMARK SMILES IDX 48 55 51 56 65 57 84 58 49 59 50 60 64 62 85 63 52 64 36 65
REMARK SMILES IDX 37 66 45 67 38 68 39 69 43 70 46 71 40 72 41 73 44 74 42 75
REMARK SMILES IDX 68 76 69 77 77 78 70 79 71 80 75 81 78 82 72 83 73 84 76 85
REMARK SMILES IDX 74 86 53 87 54 88 62 89 55 90 56 91 60 92 63 93 57 94 58 95
REMARK SMILES IDX 61 96 59 97
REMARK H PARENT 2 24 83 50 51 61
REMARK Flexibility Score: inf
ROOT
ATOM      1  C   UNL A   1      33.287  19.029  24.963  1.00  0.00     0.188 C 
ENDROOT
BRANCH   1   2
ATOM      2  O   UNL A   1      32.649  19.787  23.954  1.00  0.00    -0.376 OA
BRANCH   2   3
ATOM      3  C   UNL A   1      32.784  21.200  23.936  1.00  0.00     0.202 C 
BRANCH   3   4
ATOM      4  C   UNL A   1      32.157  22.068  22.836  1.00  0.00     0.261 C 
BRANCH   4   5
ATOM      5  O   UNL A   1      33.080  22.930  22.158  1.00  0.00    -0.460 OA
BRANCH   5   6
ATOM      6  C   UNL A   1      34.190  23.266  22.854  1.00  0.00     0.338 C 
ATOM      7  O   UNL A   1      35.288  22.738  22.749  1.00  0.00    -0.246 OA
BRANCH   6   8
ATOM      8  C   UNL A   1      34.005  24.522  23.627  1.00  0.00     0.064 A 
ATOM      9  C   UNL A   1      33.125  26.809  23.500  1.00  0.00     0.071 A 
ATOM     10  C   UNL A   1      33.281  25.524  22.956  1.00  0.00     0.036 A 
ATOM     11  C   UNL A   1      33.760  27.132  24.703  1.00  0.00    -0.032 A 
ATOM     12  C   UNL A   1      34.373  26.086  25.421  1.00  0.00     0.009 A 
ATOM     13  C   UNL A   1      33.807  28.505  25.310  1.00  0.00     0.046 C 
ATOM     14  C   UNL A   1      34.460  24.767  24.927  1.00  0.00    -0.036 A 
ATOM     15  C   UNL A   1      35.069  23.734  25.829  1.00  0.00     0.045 C 
BRANCH   9  16
ATOM     16  S   UNL A   1      31.938  27.875  22.691  1.00  0.00     0.190 S 
ATOM     17  O   UNL A   1      31.404  27.183  21.530  1.00  0.00    -0.223 OA
ATOM     18  O   UNL A   1      32.642  29.125  22.455  1.00  0.00    -0.223 OA
BRANCH  16  19
ATOM     19  C   UNL A   1      30.588  28.139  23.822  1.00  0.00     0.199 C 
ATOM     20  C   UNL A   1      30.710  27.228  25.043  1.00  0.00     0.036 C 
BRANCH  19  21
ATOM     21  C   UNL A   1      30.520  29.585  24.251  1.00  0.00     0.238 C 
ATOM     22  C   UNL A   1      29.238  30.401  22.211  1.00  0.00     0.142 C 
ATOM     23  N   UNL A   1      29.872  30.521  23.504  1.00  0.00    -0.358 N 
ATOM     24  H   UNL A   1      29.830  31.418  23.908  1.00  0.00     0.163 HD
ATOM     25  O   UNL A   1      31.028  29.965  25.308  1.00  0.00    -0.274 OA
ENDBRANCH  19  21
ENDBRANCH  16  19
ENDBRANCH   9  16
ENDBRANCH   6   8
ENDBRANCH   5   6
ENDBRANCH   4   5
ENDBRANCH   3   4
ENDBRANCH   2   3
ENDBRANCH   1   2
BRANCH   1  26
ATOM     26  C   UNL A   1      34.439  18.067  24.603  1.00  0.00     0.188 C 
BRANCH  26  27
ATOM     27  O   UNL A   1      35.767  18.536  24.626  1.00  0.00    -0.376 OA
BRANCH  27  28
ATOM     28  C   UNL A   1      36.055  19.873  25.001  1.00  0.00     0.202 C 
BRANCH  28  29
ATOM     29  C   UNL A   1      37.356  20.630  24.681  1.00  0.00     0.261 C 
BRANCH  29  30
ATOM     30  O   UNL A   1      37.842  21.559  25.651  1.00  0.00    -0.460 OA
BRANCH  30  31
ATOM     31  C   UNL A   1      39.085  21.309  26.125  1.00  0.00     0.338 C 
ATOM     32  O   UNL A   1      39.733  20.277  26.017  1.00  0.00    -0.246 OA
BRANCH  31  33
ATOM     33  C   UNL A   1      39.636  22.555  26.679  1.00  0.00     0.060 A 
ATOM     34  C   UNL A   1      39.138  23.789  26.235  1.00  0.00     0.016 A 
ATOM     35  C   UNL A   1      40.663  22.495  27.618  1.00  0.00     0.016 A 
ATOM     36  C   UNL A   1      39.677  24.977  26.730  1.00  0.00     0.010 A 
ATOM     37  C   UNL A   1      41.223  23.682  28.087  1.00  0.00     0.010 A 
ATOM     38  C   UNL A   1      40.749  24.925  27.628  1.00  0.00    -0.014 A 
BRANCH  38  39
ATOM     39  C   UNL A   1      41.533  26.140  27.947  1.00  0.00     0.031 A 
ATOM     40  C   UNL A   1      40.845  27.237  28.706  1.00  0.00     0.074 A 
ATOM     41  C   UNL A   1      42.796  26.295  27.516  1.00  0.00     0.049 A 
ATOM     42  N   UNL A   1      41.231  28.467  28.924  1.00  0.00    -0.248 NA
ATOM     43  C   UNL A   1      39.530  26.903  29.275  1.00  0.00     0.031 C 
ATOM     44  C   UNL A   1      43.572  25.288  26.801  1.00  0.00     0.029 A 
ATOM     45  N   UNL A   1      43.635  27.379  27.595  1.00  0.00    -0.354 N 
ATOM     46  C   UNL A   1      40.192  29.063  29.624  1.00  0.00     0.074 A 
ATOM     47  C   UNL A   1      39.157  28.066  29.786  1.00  0.00     0.031 C 
ATOM     48  C   UNL A   1      44.776  25.804  26.496  1.00  0.00     0.029 A 
ATOM     49  C   UNL A   1      44.827  27.197  26.938  1.00  0.00     0.049 A 
ATOM     50  H   UNL A   1      43.404  28.207  28.076  1.00  0.00     0.167 HD
ATOM     51  C   UNL A   1      40.108  30.334  30.082  1.00  0.00     0.037 A 
ATOM     52  C   UNL A   1      45.822  28.072  26.687  1.00  0.00     0.037 A 
ATOM     53  C   UNL A   1      41.142  31.319  29.907  1.00  0.00     0.049 A 
ATOM     54  C   UNL A   1      45.678  29.503  27.150  1.00  0.00     0.074 A 
ATOM     55  C   UNL A   1      41.160  32.634  30.335  1.00  0.00     0.029 A 
ATOM     56  N   UNL A   1      42.338  31.096  29.242  1.00  0.00    -0.354 N 
ATOM     57  N   UNL A   1      44.697  30.066  27.814  1.00  0.00    -0.248 NA
ATOM     58  C   UNL A   1      46.776  30.424  26.817  1.00  0.00     0.031 C 
ATOM     59  C   UNL A   1      42.341  33.224  29.875  1.00  0.00     0.029 A 
ATOM     60  C   UNL A   1      43.094  32.255  29.230  1.00  0.00     0.049 A 
ATOM     61  H   UNL A   1      42.610  30.239  28.838  1.00  0.00     0.167 HD
ATOM     62  C   UNL A   1      45.075  31.389  28.011  1.00  0.00     0.074 A 
ATOM     63  C   UNL A   1      46.377  31.547  27.399  1.00  0.00     0.031 C 
ATOM     64  C   UNL A   1      44.406  32.383  28.647  1.00  0.00     0.037 A 
BRANCH  51  65
ATOM     65  C   UNL A   1      38.839  30.741  30.769  1.00  0.00     0.064 A 
ATOM     66  C   UNL A   1      38.712  30.721  32.166  1.00  0.00     0.173 A 
ATOM     67  C   UNL A   1      37.737  31.180  30.018  1.00  0.00     0.173 A 
ATOM     68  F   UNL A   1      39.729  30.296  32.931  1.00  0.00    -0.203 F 
ATOM     69  C   UNL A   1      37.520  31.094  32.783  1.00  0.00     0.198 A 
ATOM     70  C   UNL A   1      36.560  31.586  30.640  1.00  0.00     0.198 A 
ATOM     71  F   UNL A   1      37.805  31.221  28.679  1.00  0.00    -0.203 F 
ATOM     72  F   UNL A   1      37.403  31.013  34.116  1.00  0.00    -0.200 F 
ATOM     73  C   UNL A   1      36.449  31.533  32.020  1.00  0.00     0.200 A 
ATOM     74  F   UNL A   1      35.531  32.025  29.901  1.00  0.00    -0.200 F 
ATOM     75  F   UNL A   1      35.305  31.899  32.616  1.00  0.00    -0.200 F 
ENDBRANCH  51  65
BRANCH  52  76
ATOM     76  C   UNL A   1      47.032  27.639  25.937  1.00  0.00     0.064 A 
ATOM     77  C   UNL A   1      48.156  27.142  26.612  1.00  0.00     0.173 A 
ATOM     78  C   UNL A   1      47.104  27.735  24.539  1.00  0.00     0.173 A 
ATOM     79  F   UNL A   1      48.148  27.052  27.950  1.00  0.00    -0.203 F 
ATOM     80  C   UNL A   1      49.312  26.780  25.921  1.00  0.00     0.198 A 
ATOM     81  C   UNL A   1      48.246  27.339  23.847  1.00  0.00     0.198 A 
ATOM     82  F   UNL A   1      46.058  28.203  23.843  1.00  0.00    -0.203 F 
ATOM     83  F   UNL A   1      50.390  26.361  26.598  1.00  0.00    -0.200 F 
ATOM     84  C   UNL A   1      49.354  26.872  24.539  1.00  0.00     0.200 A 
ATOM     85  F   UNL A   1      48.276  27.415  22.508  1.00  0.00    -0.200 F 
ATOM     86  F   UNL A   1      50.463  26.521  23.874  1.00  0.00    -0.200 F 
ENDBRANCH  52  76
BRANCH  64  87
ATOM     87  C   UNL A   1      45.093  33.712  28.796  1.00  0.00     0.064 A 
ATOM     88  C   UNL A   1      46.012  33.967  29.823  1.00  0.00     0.173 A 
ATOM     89  C   UNL A   1      44.887  34.714  27.834  1.00  0.00     0.173 A 
ATOM     90  F   UNL A   1      46.235  33.048  30.774  1.00  0.00    -0.203 F 
ATOM     91  C   UNL A   1      46.690  35.182  29.888  1.00  0.00     0.198 A 
ATOM     92  C   UNL A   1      45.591  35.914  27.883  1.00  0.00     0.198 A 
ATOM     93  F   UNL A   1      44.024  34.516  26.826  1.00  0.00    -0.203 F 
ATOM     94  F   UNL A   1      47.538  35.420  30.897  1.00  0.00    -0.200 F 
ATOM     95  C   UNL A   1      46.488  36.148  28.912  1.00  0.00     0.200 A 
ATOM     96  F   UNL A   1      45.409  36.836  26.928  1.00  0.00    -0.200 F 
ATOM     97  F   UNL A   1      47.159  37.307  28.966  1.00  0.00    -0.200 F 
ENDBRANCH  64  87
ENDBRANCH  38  39
ENDBRANCH  31  33
ENDBRANCH  30  31
ENDBRANCH  29  30
ENDBRANCH  28  29
ENDBRANCH  27  28
ENDBRANCH  26  27
ENDBRANCH   1  26
TORSDOF 20
ENDMDL
