MODEL 1
REMARK VINA RESULT:     -10.7      0.000      0.000
REMARK SMILES C=Cc1cccc(-c2ccc([C@@H](C)C(=O)OCCOCCOCCOC(=O)c3ccc(-c4c5nc(c(-c6c(F)c(F)c(F)c(F)c6F)c6ccc([nH]6)c(-c6c(F)c(F)c(F)c(F)c6F)c6nc(c(-c7c(F)c(F)c(F)c(F)c7F)c7ccc4[nH]7)C=C6)C=C5)cc3)cc2)c1
REMARK SMILES IDX 20 1 19 2 18 3 17 4 16 5 14 6 15 7 12 8 13 9 11 10 8 11 9 12
REMARK SMILES IDX 92 13 10 14 91 15 7 16 3 17 4 18 93 19 5 20 6 21 2 22 1 23
REMARK SMILES IDX 21 24 22 25 23 26 24 27 25 28 26 29 27 30 28 31 29 32 90 33
REMARK SMILES IDX 30 34 89 35 31 36 32 37 33 38 83 39 34 40 88 41 82 42 84 43
REMARK SMILES IDX 35 44 87 45 81 46 80 47 36 49 68 50 48 51 67 52 49 53 52 54
REMARK SMILES IDX 66 55 85 56 50 57 51 58 65 60 86 61 53 62 37 63 38 64 46 65
REMARK SMILES IDX 39 66 40 67 44 68 47 69 41 70 42 71 45 72 43 73 69 74 70 75
REMARK SMILES IDX 78 76 71 77 72 78 76 79 79 80 73 81 74 82 77 83 75 84 54 85
REMARK SMILES IDX 55 86 63 87 56 88 57 89 61 90 64 91 58 92 59 93 62 94 60 95
REMARK H PARENT 84 48 52 59
REMARK Flexibility Score: inf
ROOT
ATOM      1  C   UNL A   1      35.643  32.975  28.074  1.00  0.00     0.188 C 
ENDROOT
BRANCH   1   2
ATOM      2  O   UNL A   1      36.122  31.713  27.626  1.00  0.00    -0.376 OA
BRANCH   2   3
ATOM      3  C   UNL A   1      35.611  30.523  28.213  1.00  0.00     0.202 C 
BRANCH   3   4
ATOM      4  C   UNL A   1      34.892  29.514  27.302  1.00  0.00     0.261 C 
BRANCH   4   5
ATOM      5  O   UNL A   1      33.480  29.747  27.096  1.00  0.00    -0.463 OA
BRANCH   5   6
ATOM      6  C   UNL A   1      32.925  29.186  25.991  1.00  0.00     0.313 C 
ATOM      7  O   UNL A   1      33.189  29.552  24.847  1.00  0.00    -0.252 OA
BRANCH   6   8
ATOM      8  C   UNL A   1      31.938  28.036  26.229  1.00  0.00     0.126 C 
ATOM      9  C   UNL A   1      31.339  28.187  27.626  1.00  0.00     0.025 C 
BRANCH   8  10
ATOM     10  C   UNL A   1      32.334  26.584  25.968  1.00  0.00    -0.034 A 
ATOM     11  C   UNL A   1      32.963  23.839  25.443  1.00  0.00    -0.018 A 
ATOM     12  C   UNL A   1      33.964  24.820  25.538  1.00  0.00     0.009 A 
ATOM     13  C   UNL A   1      31.638  24.251  25.633  1.00  0.00     0.009 A 
ATOM     14  C   UNL A   1      33.661  26.167  25.806  1.00  0.00     0.005 A 
ATOM     15  C   UNL A   1      31.329  25.595  25.899  1.00  0.00     0.005 A 
BRANCH  11  16
ATOM     16  C   UNL A   1      33.305  22.423  25.202  1.00  0.00    -0.018 A 
ATOM     17  C   UNL A   1      34.941  20.601  25.001  1.00  0.00    -0.026 A 
ATOM     18  C   UNL A   1      33.898  19.704  24.739  1.00  0.00     0.008 A 
ATOM     19  C   UNL A   1      34.636  21.958  25.218  1.00  0.00     0.016 A 
ATOM     20  C   UNL A   1      32.577  20.144  24.713  1.00  0.00     0.001 A 
ATOM     21  C   UNL A   1      32.287  21.490  24.943  1.00  0.00     0.009 A 
BRANCH  17  22
ATOM     22  C   UNL A   1      36.313  20.075  24.991  1.00  0.00     0.000 C 
ATOM     23  C   UNL A   1      37.403  20.798  24.702  1.00  0.00     0.009 C 
ENDBRANCH  17  22
ENDBRANCH  11  16
ENDBRANCH   8  10
ENDBRANCH   6   8
ENDBRANCH   5   6
ENDBRANCH   4   5
ENDBRANCH   3   4
ENDBRANCH   2   3
ENDBRANCH   1   2
BRANCH   1  24
ATOM     24  C   UNL A   1      34.700  33.043  29.283  1.00  0.00     0.188 C 
BRANCH  24  25
ATOM     25  O   UNL A   1      33.573  33.870  29.094  1.00  0.00    -0.376 OA
BRANCH  25  26
ATOM     26  C   UNL A   1      33.826  35.250  28.919  1.00  0.00     0.202 C 
BRANCH  26  27
ATOM     27  C   UNL A   1      32.812  36.163  29.619  1.00  0.00     0.261 C 
BRANCH  27  28
ATOM     28  O   UNL A   1      33.134  36.529  30.975  1.00  0.00    -0.460 OA
BRANCH  28  29
ATOM     29  C   UNL A   1      32.698  35.705  31.958  1.00  0.00     0.338 C 
ATOM     30  O   UNL A   1      31.545  35.442  32.237  1.00  0.00    -0.246 OA
BRANCH  29  31
ATOM     31  C   UNL A   1      33.881  35.007  32.517  1.00  0.00     0.060 A 
ATOM     32  C   UNL A   1      35.146  35.605  32.409  1.00  0.00     0.016 A 
ATOM     33  C   UNL A   1      33.741  33.770  33.148  1.00  0.00     0.016 A 
ATOM     34  C   UNL A   1      36.278  34.950  32.908  1.00  0.00     0.010 A 
ATOM     35  C   UNL A   1      34.876  33.108  33.628  1.00  0.00     0.010 A 
ATOM     36  C   UNL A   1      36.154  33.679  33.485  1.00  0.00    -0.014 A 
BRANCH  36  37
ATOM     37  C   UNL A   1      37.359  32.856  33.769  1.00  0.00     0.031 A 
ATOM     38  C   UNL A   1      38.113  33.112  35.046  1.00  0.00     0.074 A 
ATOM     39  C   UNL A   1      37.792  31.911  32.916  1.00  0.00     0.049 A 
ATOM     40  N   UNL A   1      39.243  32.602  35.468  1.00  0.00    -0.248 NA
ATOM     41  C   UNL A   1      37.509  34.085  35.971  1.00  0.00     0.031 C 
ATOM     42  C   UNL A   1      37.134  31.530  31.669  1.00  0.00     0.029 A 
ATOM     43  N   UNL A   1      38.907  31.109  32.969  1.00  0.00    -0.354 N 
ATOM     44  C   UNL A   1      39.490  33.199  36.698  1.00  0.00     0.074 A 
ATOM     45  C   UNL A   1      38.410  34.131  36.941  1.00  0.00     0.031 C 
ATOM     46  C   UNL A   1      37.867  30.578  31.065  1.00  0.00     0.029 A 
ATOM     47  C   UNL A   1      39.064  30.310  31.863  1.00  0.00     0.049 A 
ATOM     48  H   UNL A   1      39.533  31.106  33.728  1.00  0.00     0.167 HD
ATOM     49  C   UNL A   1      40.518  32.985  37.553  1.00  0.00     0.037 A 
ATOM     50  C   UNL A   1      40.073  29.484  31.522  1.00  0.00     0.037 A 
ATOM     51  C   UNL A   1      41.596  32.062  37.309  1.00  0.00     0.049 A 
ATOM     52  C   UNL A   1      41.255  29.328  32.447  1.00  0.00     0.074 A 
ATOM     53  C   UNL A   1      42.678  31.765  38.121  1.00  0.00     0.029 A 
ATOM     54  N   UNL A   1      41.735  31.295  36.162  1.00  0.00    -0.354 N 
ATOM     55  N   UNL A   1      41.471  29.877  33.618  1.00  0.00    -0.248 NA
ATOM     56  C   UNL A   1      42.334  28.434  32.001  1.00  0.00     0.031 C 
ATOM     57  C   UNL A   1      43.502  30.865  37.439  1.00  0.00     0.029 A 
ATOM     58  C   UNL A   1      42.900  30.547  36.233  1.00  0.00     0.049 A 
ATOM     59  H   UNL A   1      41.100  31.284  35.410  1.00  0.00     0.167 HD
ATOM     60  C   UNL A   1      42.688  29.369  34.063  1.00  0.00     0.074 A 
ATOM     61  C   UNL A   1      43.158  28.459  33.040  1.00  0.00     0.031 C 
ATOM     62  C   UNL A   1      43.353  29.631  35.215  1.00  0.00     0.037 A 
BRANCH  49  63
ATOM     63  C   UNL A   1      40.542  33.789  38.822  1.00  0.00     0.064 A 
ATOM     64  C   UNL A   1      39.826  33.392  39.962  1.00  0.00     0.173 A 
ATOM     65  C   UNL A   1      41.311  34.959  38.905  1.00  0.00     0.173 A 
ATOM     66  F   UNL A   1      39.064  32.288  39.932  1.00  0.00    -0.203 F 
ATOM     67  C   UNL A   1      39.855  34.154  41.127  1.00  0.00     0.198 A 
ATOM     68  C   UNL A   1      41.365  35.701  40.082  1.00  0.00     0.198 A 
ATOM     69  F   UNL A   1      42.017  35.382  37.846  1.00  0.00    -0.203 F 
ATOM     70  F   UNL A   1      39.120  33.786  42.185  1.00  0.00    -0.200 F 
ATOM     71  C   UNL A   1      40.630  35.303  41.189  1.00  0.00     0.200 A 
ATOM     72  F   UNL A   1      42.125  36.803  40.144  1.00  0.00    -0.200 F 
ATOM     73  F   UNL A   1      40.661  36.032  42.313  1.00  0.00    -0.200 F 
ENDBRANCH  49  63
BRANCH  50  74
ATOM     74  C   UNL A   1      40.027  28.740  30.233  1.00  0.00     0.064 A 
ATOM     75  C   UNL A   1      39.429  27.475  30.149  1.00  0.00     0.173 A 
ATOM     76  C   UNL A   1      40.610  29.260  29.067  1.00  0.00     0.173 A 
ATOM     77  F   UNL A   1      38.885  26.918  31.243  1.00  0.00    -0.203 F 
ATOM     78  C   UNL A   1      39.433  26.751  28.958  1.00  0.00     0.198 A 
ATOM     79  C   UNL A   1      40.587  28.550  27.869  1.00  0.00     0.198 A 
ATOM     80  F   UNL A   1      41.206  30.462  29.094  1.00  0.00    -0.203 F 
ATOM     81  F   UNL A   1      38.903  25.520  28.923  1.00  0.00    -0.200 F 
ATOM     82  C   UNL A   1      40.005  27.292  27.818  1.00  0.00     0.200 A 
ATOM     83  F   UNL A   1      41.134  29.079  26.768  1.00  0.00    -0.200 F 
ATOM     84  F   UNL A   1      40.010  26.596  26.673  1.00  0.00    -0.200 F 
ENDBRANCH  50  74
BRANCH  62  85
ATOM     85  C   UNL A   1      44.637  28.889  35.465  1.00  0.00     0.064 A 
ATOM     86  C   UNL A   1      45.882  29.410  35.085  1.00  0.00     0.173 A 
ATOM     87  C   UNL A   1      44.621  27.656  36.137  1.00  0.00     0.173 A 
ATOM     88  F   UNL A   1      45.956  30.578  34.430  1.00  0.00    -0.203 F 
ATOM     89  C   UNL A   1      47.061  28.711  35.342  1.00  0.00     0.198 A 
ATOM     90  C   UNL A   1      45.802  26.977  36.423  1.00  0.00     0.198 A 
ATOM     91  F   UNL A   1      43.458  27.115  36.531  1.00  0.00    -0.203 F 
ATOM     92  F   UNL A   1      48.235  29.205  34.924  1.00  0.00    -0.200 F 
ATOM     93  C   UNL A   1      47.020  27.500  36.018  1.00  0.00     0.200 A 
ATOM     94  F   UNL A   1      45.762  25.817  37.093  1.00  0.00    -0.200 F 
ATOM     95  F   UNL A   1      48.156  26.836  36.273  1.00  0.00    -0.200 F 
ENDBRANCH  62  85
ENDBRANCH  36  37
ENDBRANCH  29  31
ENDBRANCH  28  29
ENDBRANCH  27  28
ENDBRANCH  26  27
ENDBRANCH  25  26
ENDBRANCH  24  25
ENDBRANCH   1  24
TORSDOF 20
ENDMDL
MODEL 2
REMARK VINA RESULT:     -10.4      0.822      2.356
REMARK SMILES C=Cc1cccc(-c2ccc([C@@H](C)C(=O)OCCOCCOCCOC(=O)c3ccc(-c4c5nc(c(-c6c(F)c(F)c(F)c(F)c6F)c6ccc([nH]6)c(-c6c(F)c(F)c(F)c(F)c6F)c6nc(c(-c7c(F)c(F)c(F)c(F)c7F)c7ccc4[nH]7)C=C6)C=C5)cc3)cc2)c1
REMARK SMILES IDX 20 1 19 2 18 3 17 4 16 5 14 6 15 7 12 8 13 9 11 10 8 11 9 12
REMARK SMILES IDX 92 13 10 14 91 15 7 16 3 17 4 18 93 19 5 20 6 21 2 22 1 23
REMARK SMILES IDX 21 24 22 25 23 26 24 27 25 28 26 29 27 30 28 31 29 32 90 33
REMARK SMILES IDX 30 34 89 35 31 36 32 37 33 38 83 39 34 40 88 41 82 42 84 43
REMARK SMILES IDX 35 44 87 45 81 46 80 47 36 49 68 50 48 51 67 52 49 53 52 54
REMARK SMILES IDX 66 55 85 56 50 57 51 58 65 60 86 61 53 62 37 63 38 64 46 65
REMARK SMILES IDX 39 66 40 67 44 68 47 69 41 70 42 71 45 72 43 73 69 74 70 75
REMARK SMILES IDX 78 76 71 77 72 78 76 79 79 80 73 81 74 82 77 83 75 84 54 85
REMARK SMILES IDX 55 86 63 87 56 88 57 89 61 90 64 91 58 92 59 93 62 94 60 95
REMARK H PARENT 84 48 52 59
REMARK Flexibility Score: inf
ROOT
ATOM      1  C   UNL A   1      34.756  33.535  28.017  1.00  0.00     0.188 C 
ENDROOT
BRANCH   1   2
ATOM      2  O   UNL A   1      35.317  32.308  27.566  1.00  0.00    -0.376 OA
BRANCH   2   3
ATOM      3  C   UNL A   1      34.849  31.082  28.117  1.00  0.00     0.202 C 
BRANCH   3   4
ATOM      4  C   UNL A   1      34.295  30.019  27.154  1.00  0.00     0.261 C 
BRANCH   4   5
ATOM      5  O   UNL A   1      32.979  30.281  26.618  1.00  0.00    -0.463 OA
BRANCH   5   6
ATOM      6  C   UNL A   1      32.507  29.398  25.701  1.00  0.00     0.313 C 
ATOM      7  O   UNL A   1      32.589  29.580  24.488  1.00  0.00    -0.252 OA
BRANCH   6   8
ATOM      8  C   UNL A   1      31.863  28.119  26.252  1.00  0.00     0.126 C 
ATOM      9  C   UNL A   1      31.523  28.337  27.725  1.00  0.00     0.025 C 
BRANCH   8  10
ATOM     10  C   UNL A   1      32.512  26.751  26.046  1.00  0.00    -0.034 A 
ATOM     11  C   UNL A   1      33.839  24.242  25.665  1.00  0.00    -0.018 A 
ATOM     12  C   UNL A   1      32.509  24.313  26.113  1.00  0.00     0.009 A 
ATOM     13  C   UNL A   1      34.492  25.449  25.393  1.00  0.00     0.009 A 
ATOM     14  C   UNL A   1      31.850  25.543  26.291  1.00  0.00     0.005 A 
ATOM     15  C   UNL A   1      33.839  26.681  25.572  1.00  0.00     0.005 A 
BRANCH  11  16
ATOM     16  C   UNL A   1      34.499  22.939  25.445  1.00  0.00    -0.018 A 
ATOM     17  C   UNL A   1      34.419  20.533  24.955  1.00  0.00    -0.026 A 
ATOM     18  C   UNL A   1      35.816  20.479  25.026  1.00  0.00     0.008 A 
ATOM     19  C   UNL A   1      33.770  21.762  25.178  1.00  0.00     0.016 A 
ATOM     20  C   UNL A   1      36.554  21.630  25.294  1.00  0.00     0.001 A 
ATOM     21  C   UNL A   1      35.900  22.845  25.500  1.00  0.00     0.009 A 
BRANCH  17  22
ATOM     22  C   UNL A   1      33.699  19.279  24.692  1.00  0.00     0.000 C 
ATOM     23  C   UNL A   1      32.633  19.167  23.888  1.00  0.00     0.009 C 
ENDBRANCH  17  22
ENDBRANCH  11  16
ENDBRANCH   8  10
ENDBRANCH   6   8
ENDBRANCH   5   6
ENDBRANCH   4   5
ENDBRANCH   3   4
ENDBRANCH   2   3
ENDBRANCH   1   2
BRANCH   1  24
ATOM     24  C   UNL A   1      33.368  33.540  28.672  1.00  0.00     0.188 C 
BRANCH  24  25
ATOM     25  O   UNL A   1      32.657  34.748  28.515  1.00  0.00    -0.376 OA
BRANCH  25  26
ATOM     26  C   UNL A   1      33.323  35.928  28.917  1.00  0.00     0.202 C 
BRANCH  26  27
ATOM     27  C   UNL A   1      32.579  36.729  29.994  1.00  0.00     0.261 C 
BRANCH  27  28
ATOM     28  O   UNL A   1      33.177  36.716  31.305  1.00  0.00    -0.460 OA
BRANCH  28  29
ATOM     29  C   UNL A   1      32.818  35.710  32.138  1.00  0.00     0.338 C 
ATOM     30  O   UNL A   1      31.714  35.493  32.594  1.00  0.00    -0.246 OA
BRANCH  29  31
ATOM     31  C   UNL A   1      33.972  34.782  32.245  1.00  0.00     0.060 A 
ATOM     32  C   UNL A   1      33.816  33.568  32.929  1.00  0.00     0.016 A 
ATOM     33  C   UNL A   1      35.200  35.111  31.670  1.00  0.00     0.016 A 
ATOM     34  C   UNL A   1      34.899  32.691  33.062  1.00  0.00     0.010 A 
ATOM     35  C   UNL A   1      36.286  34.243  31.820  1.00  0.00     0.010 A 
ATOM     36  C   UNL A   1      36.152  33.044  32.543  1.00  0.00    -0.014 A 
BRANCH  36  37
ATOM     37  C   UNL A   1      37.366  32.267  32.905  1.00  0.00     0.031 A 
ATOM     38  C   UNL A   1      38.072  32.602  34.192  1.00  0.00     0.074 A 
ATOM     39  C   UNL A   1      37.849  31.293  32.114  1.00  0.00     0.049 A 
ATOM     40  N   UNL A   1      39.199  32.142  34.673  1.00  0.00    -0.248 NA
ATOM     41  C   UNL A   1      37.415  33.602  35.048  1.00  0.00     0.031 C 
ATOM     42  C   UNL A   1      37.242  30.837  30.866  1.00  0.00     0.029 A 
ATOM     43  N   UNL A   1      38.980  30.523  32.240  1.00  0.00    -0.354 N 
ATOM     44  C   UNL A   1      39.391  32.803  35.879  1.00  0.00     0.074 A 
ATOM     45  C   UNL A   1      38.282  33.718  36.043  1.00  0.00     0.031 C 
ATOM     46  C   UNL A   1      38.016  29.875  30.333  1.00  0.00     0.029 A 
ATOM     47  C   UNL A   1      39.193  29.677  31.180  1.00  0.00     0.049 A 
ATOM     48  H   UNL A   1      39.582  30.572  33.018  1.00  0.00     0.167 HD
ATOM     49  C   UNL A   1      40.396  32.656  36.776  1.00  0.00     0.037 A 
ATOM     50  C   UNL A   1      40.232  28.860  30.911  1.00  0.00     0.037 A 
ATOM     51  C   UNL A   1      41.503  31.750  36.612  1.00  0.00     0.049 A 
ATOM     52  C   UNL A   1      41.386  28.779  31.880  1.00  0.00     0.074 A 
ATOM     53  C   UNL A   1      42.564  31.520  37.470  1.00  0.00     0.029 A 
ATOM     54  N   UNL A   1      41.698  30.933  35.509  1.00  0.00    -0.354 N 
ATOM     55  N   UNL A   1      41.551  29.389  33.029  1.00  0.00    -0.248 NA
ATOM     56  C   UNL A   1      42.501  27.893  31.512  1.00  0.00     0.031 C 
ATOM     57  C   UNL A   1      43.432  30.610  36.860  1.00  0.00     0.029 A 
ATOM     58  C   UNL A   1      42.877  30.219  35.652  1.00  0.00     0.049 A 
ATOM     59  H   UNL A   1      41.088  30.870  34.738  1.00  0.00     0.167 HD
ATOM     60  C   UNL A   1      42.764  28.934  33.536  1.00  0.00     0.074 A 
ATOM     61  C   UNL A   1      43.289  27.988  32.574  1.00  0.00     0.031 C 
ATOM     62  C   UNL A   1      43.385  29.267  34.695  1.00  0.00     0.037 A 
BRANCH  49  63
ATOM     63  C   UNL A   1      40.359  33.520  38.004  1.00  0.00     0.064 A 
ATOM     64  C   UNL A   1      41.132  34.686  38.112  1.00  0.00     0.173 A 
ATOM     65  C   UNL A   1      39.519  33.189  39.078  1.00  0.00     0.173 A 
ATOM     66  F   UNL A   1      41.962  35.041  37.119  1.00  0.00    -0.203 F 
ATOM     67  C   UNL A   1      41.089  35.470  39.262  1.00  0.00     0.198 A 
ATOM     68  C   UNL A   1      39.453  33.994  40.213  1.00  0.00     0.198 A 
ATOM     69  F   UNL A   1      38.755  32.087  39.026  1.00  0.00    -0.203 F 
ATOM     70  F   UNL A   1      41.878  36.549  39.365  1.00  0.00    -0.200 F 
ATOM     71  C   UNL A   1      40.244  35.129  40.308  1.00  0.00     0.200 A 
ATOM     72  F   UNL A   1      38.625  33.669  41.216  1.00  0.00    -0.200 F 
ATOM     73  F   UNL A   1      40.200  35.888  41.411  1.00  0.00    -0.200 F 
ENDBRANCH  49  63
BRANCH  50  74
ATOM     74  C   UNL A   1      40.246  28.055  29.659  1.00  0.00     0.064 A 
ATOM     75  C   UNL A   1      40.906  28.515  28.511  1.00  0.00     0.173 A 
ATOM     76  C   UNL A   1      39.571  26.827  29.572  1.00  0.00     0.173 A 
ATOM     77  F   UNL A   1      41.539  29.698  28.532  1.00  0.00    -0.203 F 
ATOM     78  C   UNL A   1      40.875  27.790  27.321  1.00  0.00     0.198 A 
ATOM     79  C   UNL A   1      39.566  26.088  28.391  1.00  0.00     0.198 A 
ATOM     80  F   UNL A   1      38.913  26.346  30.638  1.00  0.00    -0.203 F 
ATOM     81  F   UNL A   1      41.468  28.282  26.224  1.00  0.00    -0.200 F 
ATOM     82  C   UNL A   1      40.211  26.575  27.264  1.00  0.00     0.200 A 
ATOM     83  F   UNL A   1      38.929  24.911  28.342  1.00  0.00    -0.200 F 
ATOM     84  F   UNL A   1      40.180  25.879  26.119  1.00  0.00    -0.200 F 
ENDBRANCH  50  74
BRANCH  62  85
ATOM     85  C   UNL A   1      44.678  28.571  35.020  1.00  0.00     0.064 A 
ATOM     86  C   UNL A   1      44.714  27.374  35.751  1.00  0.00     0.173 A 
ATOM     87  C   UNL A   1      45.896  29.089  34.553  1.00  0.00     0.173 A 
ATOM     88  F   UNL A   1      43.580  26.841  36.231  1.00  0.00    -0.203 F 
ATOM     89  C   UNL A   1      45.923  26.738  36.025  1.00  0.00     0.198 A 
ATOM     90  C   UNL A   1      47.099  28.433  34.798  1.00  0.00     0.198 A 
ATOM     91  F   UNL A   1      45.920  30.226  33.841  1.00  0.00    -0.203 F 
ATOM     92  F   UNL A   1      45.937  25.623  36.768  1.00  0.00    -0.200 F 
ATOM     93  C   UNL A   1      47.113  27.263  35.542  1.00  0.00     0.200 A 
ATOM     94  F   UNL A   1      48.245  28.932  34.315  1.00  0.00    -0.200 F 
ATOM     95  F   UNL A   1      48.273  26.643  35.799  1.00  0.00    -0.200 F 
ENDBRANCH  62  85
ENDBRANCH  36  37
ENDBRANCH  29  31
ENDBRANCH  28  29
ENDBRANCH  27  28
ENDBRANCH  26  27
ENDBRANCH  25  26
ENDBRANCH  24  25
ENDBRANCH   1  24
TORSDOF 20
ENDMDL
MODEL 3
REMARK VINA RESULT:      -9.6      6.146     11.829
REMARK SMILES C=Cc1cccc(-c2ccc([C@@H](C)C(=O)OCCOCCOCCOC(=O)c3ccc(-c4c5nc(c(-c6c(F)c(F)c(F)c(F)c6F)c6ccc([nH]6)c(-c6c(F)c(F)c(F)c(F)c6F)c6nc(c(-c7c(F)c(F)c(F)c(F)c7F)c7ccc4[nH]7)C=C6)C=C5)cc3)cc2)c1
REMARK SMILES IDX 20 1 19 2 18 3 17 4 16 5 14 6 15 7 12 8 13 9 11 10 8 11 9 12
REMARK SMILES IDX 92 13 10 14 91 15 7 16 3 17 4 18 93 19 5 20 6 21 2 22 1 23
REMARK SMILES IDX 21 24 22 25 23 26 24 27 25 28 26 29 27 30 28 31 29 32 90 33
REMARK SMILES IDX 30 34 89 35 31 36 32 37 33 38 83 39 34 40 88 41 82 42 84 43
REMARK SMILES IDX 35 44 87 45 81 46 80 47 36 49 68 50 48 51 67 52 49 53 52 54
REMARK SMILES IDX 66 55 85 56 50 57 51 58 65 60 86 61 53 62 37 63 38 64 46 65
REMARK SMILES IDX 39 66 40 67 44 68 47 69 41 70 42 71 45 72 43 73 69 74 70 75
REMARK SMILES IDX 78 76 71 77 72 78 76 79 79 80 73 81 74 82 77 83 75 84 54 85
REMARK SMILES IDX 55 86 63 87 56 88 57 89 61 90 64 91 58 92 59 93 62 94 60 95
REMARK H PARENT 84 48 52 59
REMARK Flexibility Score: inf
ROOT
ATOM      1  C   UNL A   1      48.697  27.448  24.675  1.00  0.00     0.188 C 
ENDROOT
BRANCH   1   2
ATOM      2  O   UNL A   1      47.656  26.545  25.027  1.00  0.00    -0.376 OA
BRANCH   2   3
ATOM      3  C   UNL A   1      46.302  26.914  24.793  1.00  0.00     0.202 C 
BRANCH   3   4
ATOM      4  C   UNL A   1      45.265  26.605  25.886  1.00  0.00     0.261 C 
BRANCH   4   5
ATOM      5  O   UNL A   1      44.396  25.479  25.627  1.00  0.00    -0.463 OA
BRANCH   5   6
ATOM      6  C   UNL A   1      43.072  25.664  25.864  1.00  0.00     0.313 C 
ATOM      7  O   UNL A   1      42.207  25.513  25.003  1.00  0.00    -0.252 OA
BRANCH   6   8
ATOM      8  C   UNL A   1      42.682  26.067  27.292  1.00  0.00     0.126 C 
ATOM      9  C   UNL A   1      42.484  24.800  28.121  1.00  0.00     0.025 C 
BRANCH   8  10
ATOM     10  C   UNL A   1      41.555  27.063  27.556  1.00  0.00    -0.034 A 
ATOM     11  C   UNL A   1      39.378  28.842  28.105  1.00  0.00    -0.018 A 
ATOM     12  C   UNL A   1      40.667  29.321  27.817  1.00  0.00     0.009 A 
ATOM     13  C   UNL A   1      39.189  27.455  28.097  1.00  0.00     0.009 A 
ATOM     14  C   UNL A   1      41.736  28.451  27.537  1.00  0.00     0.005 A 
ATOM     15  C   UNL A   1      40.254  26.582  27.819  1.00  0.00     0.005 A 
BRANCH  11  16
ATOM     16  C   UNL A   1      38.258  29.773  28.356  1.00  0.00    -0.018 A 
ATOM     17  C   UNL A   1      35.903  30.430  28.121  1.00  0.00    -0.026 A 
ATOM     18  C   UNL A   1      36.158  31.584  28.871  1.00  0.00     0.008 A 
ATOM     19  C   UNL A   1      36.960  29.538  27.857  1.00  0.00     0.016 A 
ATOM     20  C   UNL A   1      37.434  31.836  29.368  1.00  0.00     0.001 A 
ATOM     21  C   UNL A   1      38.471  30.937  29.112  1.00  0.00     0.009 A 
BRANCH  17  22
ATOM     22  C   UNL A   1      34.539  30.235  27.608  1.00  0.00     0.000 C 
ATOM     23  C   UNL A   1      34.019  29.052  27.258  1.00  0.00     0.009 C 
ENDBRANCH  17  22
ENDBRANCH  11  16
ENDBRANCH   8  10
ENDBRANCH   6   8
ENDBRANCH   5   6
ENDBRANCH   4   5
ENDBRANCH   3   4
ENDBRANCH   2   3
ENDBRANCH   1   2
BRANCH   1  24
ATOM     24  C   UNL A   1      50.040  26.900  24.173  1.00  0.00     0.188 C 
BRANCH  24  25
ATOM     25  O   UNL A   1      51.167  27.439  24.827  1.00  0.00    -0.376 OA
BRANCH  25  26
ATOM     26  C   UNL A   1      52.431  27.026  24.346  1.00  0.00     0.202 C 
BRANCH  26  27
ATOM     27  C   UNL A   1      52.807  25.590  24.736  1.00  0.00     0.261 C 
BRANCH  27  28
ATOM     28  O   UNL A   1      52.221  25.102  25.958  1.00  0.00    -0.460 OA
BRANCH  28  29
ATOM     29  C   UNL A   1      52.647  25.662  27.115  1.00  0.00     0.338 C 
ATOM     30  O   UNL A   1      53.789  25.948  27.415  1.00  0.00    -0.246 OA
BRANCH  29  31
ATOM     31  C   UNL A   1      51.446  26.062  27.890  1.00  0.00     0.060 A 
ATOM     32  C   UNL A   1      50.215  25.450  27.613  1.00  0.00     0.016 A 
ATOM     33  C   UNL A   1      51.538  27.034  28.886  1.00  0.00     0.016 A 
ATOM     34  C   UNL A   1      49.066  25.832  28.315  1.00  0.00     0.010 A 
ATOM     35  C   UNL A   1      50.386  27.429  29.573  1.00  0.00     0.010 A 
ATOM     36  C   UNL A   1      49.138  26.854  29.272  1.00  0.00    -0.014 A 
BRANCH  36  37
ATOM     37  C   UNL A   1      47.899  27.459  29.827  1.00  0.00     0.031 A 
ATOM     38  C   UNL A   1      47.220  26.767  30.978  1.00  0.00     0.074 A 
ATOM     39  C   UNL A   1      47.372  28.588  29.322  1.00  0.00     0.049 A 
ATOM     40  N   UNL A   1      46.081  27.038  31.564  1.00  0.00    -0.248 NA
ATOM     41  C   UNL A   1      47.923  25.601  31.538  1.00  0.00     0.031 C 
ATOM     42  C   UNL A   1      47.949  29.382  28.241  1.00  0.00     0.029 A 
ATOM     43  N   UNL A   1      46.214  29.253  29.649  1.00  0.00    -0.354 N 
ATOM     44  C   UNL A   1      45.927  26.074  32.552  1.00  0.00     0.074 A 
ATOM     45  C   UNL A   1      47.071  25.192  32.466  1.00  0.00     0.031 C 
ATOM     46  C   UNL A   1      47.133  30.420  27.982  1.00  0.00     0.029 A 
ATOM     47  C   UNL A   1      45.959  30.341  28.851  1.00  0.00     0.049 A 
ATOM     48  H   UNL A   1      45.623  28.975  30.386  1.00  0.00     0.167 HD
ATOM     49  C   UNL A   1      44.926  25.938  33.455  1.00  0.00     0.037 A 
ATOM     50  C   UNL A   1      44.888  31.158  28.809  1.00  0.00     0.037 A 
ATOM     51  C   UNL A   1      43.784  26.811  33.537  1.00  0.00     0.049 A 
ATOM     52  C   UNL A   1      43.741  30.934  29.765  1.00  0.00     0.074 A 
ATOM     53  C   UNL A   1      42.724  26.764  34.426  1.00  0.00     0.029 A 
ATOM     54  N   UNL A   1      43.548  27.883  32.691  1.00  0.00    -0.354 N 
ATOM     55  N   UNL A   1      43.611  30.035  30.710  1.00  0.00    -0.248 NA
ATOM     56  C   UNL A   1      42.590  31.842  29.645  1.00  0.00     0.031 C 
ATOM     57  C   UNL A   1      41.817  27.769  34.079  1.00  0.00     0.029 A 
ATOM     58  C   UNL A   1      42.344  28.488  33.019  1.00  0.00     0.049 A 
ATOM     59  H   UNL A   1      44.146  28.173  31.965  1.00  0.00     0.167 HD
ATOM     60  C   UNL A   1      42.387  30.291  31.320  1.00  0.00     0.074 A 
ATOM     61  C   UNL A   1      41.817  31.437  30.644  1.00  0.00     0.031 C 
ATOM     62  C   UNL A   1      41.791  29.638  32.349  1.00  0.00     0.037 A 
BRANCH  49  63
ATOM     63  C   UNL A   1      45.009  24.781  34.410  1.00  0.00     0.064 A 
ATOM     64  C   UNL A   1      44.563  23.498  34.057  1.00  0.00     0.173 A 
ATOM     65  C   UNL A   1      45.564  24.954  35.686  1.00  0.00     0.173 A 
ATOM     66  F   UNL A   1      44.011  23.281  32.853  1.00  0.00    -0.203 F 
ATOM     67  C   UNL A   1      44.641  22.439  34.958  1.00  0.00     0.198 A 
ATOM     68  C   UNL A   1      45.672  23.886  36.573  1.00  0.00     0.198 A 
ATOM     69  F   UNL A   1      46.009  26.159  36.074  1.00  0.00    -0.203 F 
ATOM     70  F   UNL A   1      44.159  21.236  34.620  1.00  0.00    -0.200 F 
ATOM     71  C   UNL A   1      45.202  22.632  36.212  1.00  0.00     0.200 A 
ATOM     72  F   UNL A   1      46.228  24.071  37.779  1.00  0.00    -0.200 F 
ATOM     73  F   UNL A   1      45.283  21.611  37.077  1.00  0.00    -0.200 F 
ENDBRANCH  49  63
BRANCH  50  74
ATOM     74  C   UNL A   1      44.830  32.266  27.816  1.00  0.00     0.064 A 
ATOM     75  C   UNL A   1      44.164  32.106  26.593  1.00  0.00     0.173 A 
ATOM     76  C   UNL A   1      45.469  33.493  28.053  1.00  0.00     0.173 A 
ATOM     77  F   UNL A   1      43.566  30.940  26.304  1.00  0.00    -0.203 F 
ATOM     78  C   UNL A   1      44.156  33.121  25.638  1.00  0.00     0.198 A 
ATOM     79  C   UNL A   1      45.434  34.518  27.110  1.00  0.00     0.198 A 
ATOM     80  F   UNL A   1      46.130  33.695  29.202  1.00  0.00    -0.203 F 
ATOM     81  F   UNL A   1      43.559  32.919  24.454  1.00  0.00    -0.200 F 
ATOM     82  C   UNL A   1      44.785  34.328  25.899  1.00  0.00     0.200 A 
ATOM     83  F   UNL A   1      46.036  35.686  27.370  1.00  0.00    -0.200 F 
ATOM     84  F   UNL A   1      44.777  35.303  24.981  1.00  0.00    -0.200 F 
ENDBRANCH  50  74
BRANCH  62  85
ATOM     85  C   UNL A   1      40.476  30.173  32.847  1.00  0.00     0.064 A 
ATOM     86  C   UNL A   1      40.405  31.202  33.797  1.00  0.00     0.173 A 
ATOM     87  C   UNL A   1      39.269  29.674  32.330  1.00  0.00     0.173 A 
ATOM     88  F   UNL A   1      41.526  31.708  34.332  1.00  0.00    -0.203 F 
ATOM     89  C   UNL A   1      39.175  31.693  34.231  1.00  0.00     0.198 A 
ATOM     90  C   UNL A   1      38.043  30.190  32.740  1.00  0.00     0.198 A 
ATOM     91  F   UNL A   1      39.279  28.695  31.413  1.00  0.00    -0.203 F 
ATOM     92  F   UNL A   1      39.130  32.642  35.176  1.00  0.00    -0.200 F 
ATOM     93  C   UNL A   1      37.996  31.193  33.696  1.00  0.00     0.200 A 
ATOM     94  F   UNL A   1      36.907  29.717  32.209  1.00  0.00    -0.200 F 
ATOM     95  F   UNL A   1      36.815  31.673  34.108  1.00  0.00    -0.200 F 
ENDBRANCH  62  85
ENDBRANCH  36  37
ENDBRANCH  29  31
ENDBRANCH  28  29
ENDBRANCH  27  28
ENDBRANCH  26  27
ENDBRANCH  25  26
ENDBRANCH  24  25
ENDBRANCH   1  24
TORSDOF 20
ENDMDL
