MODEL 1
REMARK VINA RESULT:     -12.4      0.000      0.000
REMARK SMILES CC(C)(C)OC(=O)N1CCC(c2c(C(=O)OCCOCCOCCOC(=O)c3ccc(-c4c5nc(c(-c6c(F)c(F)c(F)c(F)c6F)c6ccc([nH]6)c(-c6c(F)c(F)c(F)c(F)c6F)c6nc(c(-c7c(F)c(F)c(F)c(F)c7F)c7ccc4[nH]7)C=C6)C=C5)cc3)cnn2-c2ccccc2)CC1
REMARK SMILES IDX 20 1 19 2 18 3 17 4 16 5 14 6 15 7 13 8 12 9 93 10 91 11
REMARK SMILES IDX 92 12 11 13 6 14 7 15 8 16 9 17 101 18 10 19 100 20 5 21
REMARK SMILES IDX 2 22 1 23 3 24 4 25 94 26 95 27 99 28 96 29 98 30 97 31
REMARK SMILES IDX 21 32 22 33 23 34 24 35 25 36 26 37 27 38 28 39 29 40 90 41
REMARK SMILES IDX 30 42 89 43 31 44 32 45 33 46 83 47 34 48 88 49 82 50 84 51
REMARK SMILES IDX 35 52 87 53 81 54 80 55 36 57 68 58 48 59 67 60 49 61 52 62
REMARK SMILES IDX 66 63 85 64 50 65 51 66 65 68 86 69 53 70 37 71 38 72 46 73
REMARK SMILES IDX 39 74 40 75 44 76 47 77 41 78 42 79 45 80 43 81 69 82 70 83
REMARK SMILES IDX 78 84 71 85 72 86 76 87 79 88 73 89 74 90 77 91 75 92 54 93
REMARK SMILES IDX 55 94 63 95 56 96 57 97 61 98 64 99 58 100 59 101 62 102
REMARK SMILES IDX 60 103
REMARK H PARENT 84 56 52 67
REMARK Flexibility Score: inf
ROOT
ATOM      1  C   UNL A   1      40.733  21.187  26.623  1.00  0.00     0.188 C 
ENDROOT
BRANCH   1   2
ATOM      2  O   UNL A   1      39.601  21.977  26.926  1.00  0.00    -0.376 OA
BRANCH   2   3
ATOM      3  C   UNL A   1      39.399  23.086  26.061  1.00  0.00     0.202 C 
BRANCH   3   4
ATOM      4  C   UNL A   1      38.050  23.822  26.172  1.00  0.00     0.261 C 
BRANCH   4   5
ATOM      5  O   UNL A   1      37.103  23.660  25.096  1.00  0.00    -0.460 OA
BRANCH   5   6
ATOM      6  C   UNL A   1      35.821  23.278  25.363  1.00  0.00     0.341 C 
ATOM      7  O   UNL A   1      34.919  24.056  25.644  1.00  0.00    -0.246 OA
BRANCH   6   8
ATOM      8  C   UNL A   1      35.639  21.840  25.165  1.00  0.00     0.102 A 
ATOM      9  C   UNL A   1      34.465  21.118  24.872  1.00  0.00     0.062 A 
ATOM     10  N   UNL A   1      34.884  19.789  24.765  1.00  0.00    -0.237 N 
ATOM     11  C   UNL A   1      36.668  20.877  25.138  1.00  0.00     0.151 A 
ATOM     12  N   UNL A   1      36.213  19.643  24.965  1.00  0.00    -0.175 NA
BRANCH   9  13
ATOM     13  C   UNL A   1      33.059  21.680  24.627  1.00  0.00     0.043 C 
ATOM     14  C   UNL A   1      30.816  24.988  25.363  1.00  0.00     0.410 C 
ATOM     15  O   UNL A   1      30.998  25.289  26.526  1.00  0.00    -0.224 OA
ATOM     16  N   UNL A   1      30.989  23.696  24.891  1.00  0.00    -0.308 N 
ATOM     17  C   UNL A   1      31.056  22.626  25.854  1.00  0.00     0.124 C 
ATOM     18  C   UNL A   1      31.406  23.337  23.540  1.00  0.00     0.124 C 
ATOM     19  C   UNL A   1      32.484  22.143  25.975  1.00  0.00     0.032 C 
ATOM     20  C   UNL A   1      32.852  22.795  23.580  1.00  0.00     0.032 C 
BRANCH  14  21
ATOM     21  O   UNL A   1      30.338  25.832  24.409  1.00  0.00    -0.444 OA
BRANCH  21  22
ATOM     22  C   UNL A   1      31.185  26.912  23.922  1.00  0.00     0.106 C 
ATOM     23  C   UNL A   1      30.953  28.071  24.903  1.00  0.00     0.056 C 
ATOM     24  C   UNL A   1      30.736  27.335  22.522  1.00  0.00     0.056 C 
ATOM     25  C   UNL A   1      32.690  26.581  23.951  1.00  0.00     0.056 C 
ENDBRANCH  21  22
ENDBRANCH  14  21
ENDBRANCH   9  13
BRANCH  10  26
ATOM     26  C   UNL A   1      34.109  18.618  24.685  1.00  0.00     0.065 A 
ATOM     27  C   UNL A   1      34.540  17.606  23.822  1.00  0.00     0.028 A 
ATOM     28  C   UNL A   1      32.964  18.464  25.470  1.00  0.00     0.028 A 
ATOM     29  C   UNL A   1      33.878  16.381  23.827  1.00  0.00     0.002 A 
ATOM     30  C   UNL A   1      32.312  17.230  25.472  1.00  0.00     0.002 A 
ATOM     31  C   UNL A   1      32.781  16.186  24.668  1.00  0.00     0.000 A 
ENDBRANCH  10  26
ENDBRANCH   6   8
ENDBRANCH   5   6
ENDBRANCH   4   5
ENDBRANCH   3   4
ENDBRANCH   2   3
ENDBRANCH   1   2
BRANCH   1  32
ATOM     32  C   UNL A   1      40.427  19.724  26.247  1.00  0.00     0.188 C 
BRANCH  32  33
ATOM     33  O   UNL A   1      41.389  18.906  25.591  1.00  0.00    -0.376 OA
BRANCH  33  34
ATOM     34  C   UNL A   1      42.653  18.645  26.178  1.00  0.00     0.202 C 
BRANCH  34  35
ATOM     35  C   UNL A   1      43.907  18.802  25.323  1.00  0.00     0.261 C 
BRANCH  35  36
ATOM     36  O   UNL A   1      44.011  20.045  24.648  1.00  0.00    -0.460 OA
BRANCH  36  37
ATOM     37  C   UNL A   1      45.210  20.655  24.779  1.00  0.00     0.338 C 
ATOM     38  O   UNL A   1      46.290  20.133  24.992  1.00  0.00    -0.246 OA
BRANCH  37  39
ATOM     39  C   UNL A   1      45.005  22.109  24.718  1.00  0.00     0.060 A 
ATOM     40  C   UNL A   1      46.111  22.912  25.005  1.00  0.00     0.016 A 
ATOM     41  C   UNL A   1      43.700  22.621  24.692  1.00  0.00     0.016 A 
ATOM     42  C   UNL A   1      45.884  24.157  25.544  1.00  0.00     0.010 A 
ATOM     43  C   UNL A   1      43.473  23.855  25.247  1.00  0.00     0.010 A 
ATOM     44  C   UNL A   1      44.562  24.547  25.769  1.00  0.00    -0.014 A 
BRANCH  44  45
ATOM     45  C   UNL A   1      44.327  25.669  26.647  1.00  0.00     0.031 A 
ATOM     46  C   UNL A   1      45.258  26.799  26.468  1.00  0.00     0.074 A 
ATOM     47  C   UNL A   1      43.256  25.704  27.463  1.00  0.00     0.049 A 
ATOM     48  N   UNL A   1      46.144  27.237  27.297  1.00  0.00    -0.248 NA
ATOM     49  C   UNL A   1      45.287  27.441  25.146  1.00  0.00     0.031 C 
ATOM     50  C   UNL A   1      42.093  24.810  27.496  1.00  0.00     0.029 A 
ATOM     51  N   UNL A   1      42.945  26.640  28.393  1.00  0.00    -0.354 N 
ATOM     52  C   UNL A   1      46.743  28.319  26.662  1.00  0.00     0.074 A 
ATOM     53  C   UNL A   1      46.307  28.286  25.290  1.00  0.00     0.031 C 
ATOM     54  C   UNL A   1      41.114  25.386  28.233  1.00  0.00     0.029 A 
ATOM     55  C   UNL A   1      41.629  26.610  28.822  1.00  0.00     0.049 A 
ATOM     56  H   UNL A   1      43.602  27.289  28.734  1.00  0.00     0.167 HD
ATOM     57  C   UNL A   1      47.368  29.300  27.365  1.00  0.00     0.037 A 
ATOM     58  C   UNL A   1      41.013  27.601  29.515  1.00  0.00     0.037 A 
ATOM     59  C   UNL A   1      47.676  28.879  28.706  1.00  0.00     0.049 A 
ATOM     60  C   UNL A   1      42.078  28.452  30.115  1.00  0.00     0.074 A 
ATOM     61  C   UNL A   1      48.444  27.863  29.245  1.00  0.00     0.029 A 
ATOM     62  N   UNL A   1      46.857  29.300  29.726  1.00  0.00    -0.354 N 
ATOM     63  N   UNL A   1      42.883  28.049  31.061  1.00  0.00    -0.248 NA
ATOM     64  C   UNL A   1      42.562  29.578  29.324  1.00  0.00     0.031 C 
ATOM     65  C   UNL A   1      47.703  27.397  30.370  1.00  0.00     0.029 A 
ATOM     66  C   UNL A   1      46.561  28.191  30.478  1.00  0.00     0.049 A 
ATOM     67  H   UNL A   1      46.544  30.219  29.886  1.00  0.00     0.167 HD
ATOM     68  C   UNL A   1      44.121  28.581  30.729  1.00  0.00     0.074 A 
ATOM     69  C   UNL A   1      43.849  29.563  29.683  1.00  0.00     0.031 C 
ATOM     70  C   UNL A   1      45.284  27.980  31.117  1.00  0.00     0.037 A 
BRANCH  57  71
ATOM     71  C   UNL A   1      47.386  30.743  26.941  1.00  0.00     0.064 A 
ATOM     72  C   UNL A   1      48.599  31.454  26.969  1.00  0.00     0.173 A 
ATOM     73  C   UNL A   1      46.220  31.525  26.774  1.00  0.00     0.173 A 
ATOM     74  F   UNL A   1      49.761  30.812  27.155  1.00  0.00    -0.203 F 
ATOM     75  C   UNL A   1      48.634  32.848  26.894  1.00  0.00     0.198 A 
ATOM     76  C   UNL A   1      46.266  32.910  26.635  1.00  0.00     0.198 A 
ATOM     77  F   UNL A   1      44.991  31.003  26.853  1.00  0.00    -0.203 F 
ATOM     78  F   UNL A   1      49.800  33.492  27.048  1.00  0.00    -0.200 F 
ATOM     79  C   UNL A   1      47.469  33.575  26.728  1.00  0.00     0.200 A 
ATOM     80  F   UNL A   1      45.122  33.594  26.493  1.00  0.00    -0.200 F 
ATOM     81  F   UNL A   1      47.496  34.913  26.707  1.00  0.00    -0.200 F 
ENDBRANCH  57  71
BRANCH  58  82
ATOM     82  C   UNL A   1      39.620  28.073  29.330  1.00  0.00     0.064 A 
ATOM     83  C   UNL A   1      38.740  28.196  30.416  1.00  0.00     0.173 A 
ATOM     84  C   UNL A   1      39.206  28.665  28.119  1.00  0.00     0.173 A 
ATOM     85  F   UNL A   1      39.083  27.714  31.619  1.00  0.00    -0.203 F 
ATOM     86  C   UNL A   1      37.520  28.873  30.298  1.00  0.00     0.198 A 
ATOM     87  C   UNL A   1      37.988  29.333  28.000  1.00  0.00     0.198 A 
ATOM     88  F   UNL A   1      40.017  28.688  27.052  1.00  0.00    -0.203 F 
ATOM     89  F   UNL A   1      36.726  29.016  31.367  1.00  0.00    -0.200 F 
ATOM     90  C   UNL A   1      37.148  29.446  29.091  1.00  0.00     0.200 A 
ATOM     91  F   UNL A   1      37.662  29.919  26.838  1.00  0.00    -0.200 F 
ATOM     92  F   UNL A   1      36.006  30.141  28.991  1.00  0.00    -0.200 F 
ENDBRANCH  58  82
BRANCH  70  93
ATOM     93  C   UNL A   1      45.198  26.842  32.093  1.00  0.00     0.064 A 
ATOM     94  C   UNL A   1      44.905  25.518  31.721  1.00  0.00     0.173 A 
ATOM     95  C   UNL A   1      45.590  27.068  33.418  1.00  0.00     0.173 A 
ATOM     96  F   UNL A   1      44.622  25.207  30.450  1.00  0.00    -0.203 F 
ATOM     97  C   UNL A   1      44.966  24.477  32.646  1.00  0.00     0.198 A 
ATOM     98  C   UNL A   1      45.684  26.022  34.331  1.00  0.00     0.198 A 
ATOM     99  F   UNL A   1      45.937  28.303  33.813  1.00  0.00    -0.203 F 
ATOM    100  F   UNL A   1      44.679  23.222  32.267  1.00  0.00    -0.200 F 
ATOM    101  C   UNL A   1      45.363  24.729  33.948  1.00  0.00     0.200 A 
ATOM    102  F   UNL A   1      46.115  26.263  35.577  1.00  0.00    -0.200 F 
ATOM    103  F   UNL A   1      45.467  23.722  34.827  1.00  0.00    -0.200 F 
ENDBRANCH  70  93
ENDBRANCH  44  45
ENDBRANCH  37  39
ENDBRANCH  36  37
ENDBRANCH  35  36
ENDBRANCH  34  35
ENDBRANCH  33  34
ENDBRANCH  32  33
ENDBRANCH   1  32
TORSDOF 21
ENDMDL
MODEL 2
REMARK VINA RESULT:     -12.0      2.616      3.623
REMARK SMILES CC(C)(C)OC(=O)N1CCC(c2c(C(=O)OCCOCCOCCOC(=O)c3ccc(-c4c5nc(c(-c6c(F)c(F)c(F)c(F)c6F)c6ccc([nH]6)c(-c6c(F)c(F)c(F)c(F)c6F)c6nc(c(-c7c(F)c(F)c(F)c(F)c7F)c7ccc4[nH]7)C=C6)C=C5)cc3)cnn2-c2ccccc2)CC1
REMARK SMILES IDX 20 1 19 2 18 3 17 4 16 5 14 6 15 7 13 8 12 9 93 10 91 11
REMARK SMILES IDX 92 12 11 13 6 14 7 15 8 16 9 17 101 18 10 19 100 20 5 21
REMARK SMILES IDX 2 22 1 23 3 24 4 25 94 26 95 27 99 28 96 29 98 30 97 31
REMARK SMILES IDX 21 32 22 33 23 34 24 35 25 36 26 37 27 38 28 39 29 40 90 41
REMARK SMILES IDX 30 42 89 43 31 44 32 45 33 46 83 47 34 48 88 49 82 50 84 51
REMARK SMILES IDX 35 52 87 53 81 54 80 55 36 57 68 58 48 59 67 60 49 61 52 62
REMARK SMILES IDX 66 63 85 64 50 65 51 66 65 68 86 69 53 70 37 71 38 72 46 73
REMARK SMILES IDX 39 74 40 75 44 76 47 77 41 78 42 79 45 80 43 81 69 82 70 83
REMARK SMILES IDX 78 84 71 85 72 86 76 87 79 88 73 89 74 90 77 91 75 92 54 93
REMARK SMILES IDX 55 94 63 95 56 96 57 97 61 98 64 99 58 100 59 101 62 102
REMARK SMILES IDX 60 103
REMARK H PARENT 84 56 52 67
REMARK Flexibility Score: inf
ROOT
ATOM      1  C   UNL A   1      40.879  21.179  27.282  1.00  0.00     0.188 C 
ENDROOT
BRANCH   1   2
ATOM      2  O   UNL A   1      39.629  21.826  27.158  1.00  0.00    -0.376 OA
BRANCH   2   3
ATOM      3  C   UNL A   1      39.689  23.138  26.616  1.00  0.00     0.202 C 
BRANCH   3   4
ATOM      4  C   UNL A   1      38.348  23.863  26.391  1.00  0.00     0.261 C 
BRANCH   4   5
ATOM      5  O   UNL A   1      37.546  23.461  25.262  1.00  0.00    -0.460 OA
BRANCH   5   6
ATOM      6  C   UNL A   1      36.236  23.122  25.437  1.00  0.00     0.341 C 
ATOM      7  O   UNL A   1      35.345  23.929  25.666  1.00  0.00    -0.246 OA
BRANCH   6   8
ATOM      8  C   UNL A   1      36.018  21.694  25.207  1.00  0.00     0.102 A 
ATOM      9  C   UNL A   1      34.822  21.006  24.924  1.00  0.00     0.062 A 
ATOM     10  N   UNL A   1      35.209  19.670  24.775  1.00  0.00    -0.237 N 
ATOM     11  C   UNL A   1      37.024  20.710  25.134  1.00  0.00     0.151 A 
ATOM     12  N   UNL A   1      36.538  19.491  24.941  1.00  0.00    -0.175 NA
BRANCH   9  13
ATOM     13  C   UNL A   1      33.423  21.603  24.724  1.00  0.00     0.043 C 
ATOM     14  C   UNL A   1      31.263  24.929  25.614  1.00  0.00     0.410 C 
ATOM     15  O   UNL A   1      31.474  25.187  26.783  1.00  0.00    -0.224 OA
ATOM     16  N   UNL A   1      31.402  23.650  25.095  1.00  0.00    -0.308 N 
ATOM     17  C   UNL A   1      31.463  22.548  26.021  1.00  0.00     0.124 C 
ATOM     18  C   UNL A   1      31.785  23.329  23.726  1.00  0.00     0.124 C 
ATOM     19  C   UNL A   1      32.883  22.032  26.098  1.00  0.00     0.032 C 
ATOM     20  C   UNL A   1      33.220  22.758  23.720  1.00  0.00     0.032 C 
BRANCH  14  21
ATOM     21  O   UNL A   1      30.786  25.815  24.698  1.00  0.00    -0.444 OA
BRANCH  21  22
ATOM     22  C   UNL A   1      31.587  26.978  24.345  1.00  0.00     0.106 C 
ATOM     23  C   UNL A   1      31.131  27.360  22.929  1.00  0.00     0.056 C 
ATOM     24  C   UNL A   1      33.070  26.599  24.314  1.00  0.00     0.056 C 
ATOM     25  C   UNL A   1      31.341  28.200  25.251  1.00  0.00     0.056 C 
ENDBRANCH  21  22
ENDBRANCH  14  21
ENDBRANCH   9  13
BRANCH  10  26
ATOM     26  C   UNL A   1      34.407  18.519  24.684  1.00  0.00     0.065 A 
ATOM     27  C   UNL A   1      33.260  18.455  25.482  1.00  0.00     0.028 A 
ATOM     28  C   UNL A   1      34.732  17.489  23.798  1.00  0.00     0.028 A 
ATOM     29  C   UNL A   1      32.371  17.398  25.311  1.00  0.00     0.002 A 
ATOM     30  C   UNL A   1      33.830  16.438  23.629  1.00  0.00     0.002 A 
ATOM     31  C   UNL A   1      32.644  16.405  24.369  1.00  0.00     0.000 A 
ENDBRANCH  10  26
ENDBRANCH   6   8
ENDBRANCH   5   6
ENDBRANCH   4   5
ENDBRANCH   3   4
ENDBRANCH   2   3
ENDBRANCH   1   2
BRANCH   1  32
ATOM     32  C   UNL A   1      41.224  20.198  26.143  1.00  0.00     0.188 C 
BRANCH  32  33
ATOM     33  O   UNL A   1      42.526  20.148  25.571  1.00  0.00    -0.376 OA
BRANCH  33  34
ATOM     34  C   UNL A   1      43.514  21.105  25.914  1.00  0.00     0.202 C 
BRANCH  34  35
ATOM     35  C   UNL A   1      43.838  22.216  24.919  1.00  0.00     0.261 C 
BRANCH  35  36
ATOM     36  O   UNL A   1      42.904  23.284  24.900  1.00  0.00    -0.460 OA
BRANCH  36  37
ATOM     37  C   UNL A   1      43.420  24.485  25.240  1.00  0.00     0.338 C 
ATOM     38  O   UNL A   1      44.488  24.961  24.895  1.00  0.00    -0.246 OA
BRANCH  37  39
ATOM     39  C   UNL A   1      42.515  25.128  26.203  1.00  0.00     0.060 A 
ATOM     40  C   UNL A   1      41.584  26.033  25.684  1.00  0.00     0.016 A 
ATOM     41  C   UNL A   1      42.806  25.066  27.572  1.00  0.00     0.016 A 
ATOM     42  C   UNL A   1      41.161  27.062  26.493  1.00  0.00     0.010 A 
ATOM     43  C   UNL A   1      42.398  26.102  28.374  1.00  0.00     0.010 A 
ATOM     44  C   UNL A   1      41.681  27.140  27.787  1.00  0.00    -0.014 A 
BRANCH  44  45
ATOM     45  C   UNL A   1      41.531  28.385  28.502  1.00  0.00     0.031 A 
ATOM     46  C   UNL A   1      42.587  29.380  28.237  1.00  0.00     0.074 A 
ATOM     47  C   UNL A   1      40.435  28.635  29.243  1.00  0.00     0.049 A 
ATOM     48  N   UNL A   1      43.477  29.830  29.055  1.00  0.00    -0.248 NA
ATOM     49  C   UNL A   1      42.745  29.838  26.850  1.00  0.00     0.031 C 
ATOM     50  C   UNL A   1      39.181  27.877  29.320  1.00  0.00     0.029 A 
ATOM     51  N   UNL A   1      40.187  29.712  30.028  1.00  0.00    -0.354 N 
ATOM     52  C   UNL A   1      44.218  30.752  28.326  1.00  0.00     0.074 A 
ATOM     53  C   UNL A   1      43.843  30.585  26.946  1.00  0.00     0.031 C 
ATOM     54  C   UNL A   1      38.239  28.642  29.920  1.00  0.00     0.029 A 
ATOM     55  C   UNL A   1      38.856  29.873  30.380  1.00  0.00     0.049 A 
ATOM     56  H   UNL A   1      40.894  30.330  30.324  1.00  0.00     0.167 HD
ATOM     57  C   UNL A   1      44.914  31.748  28.936  1.00  0.00     0.037 A 
ATOM     58  C   UNL A   1      38.322  31.004  30.906  1.00  0.00     0.037 A 
ATOM     59  C   UNL A   1      45.114  31.476  30.335  1.00  0.00     0.049 A 
ATOM     60  C   UNL A   1      39.446  31.813  31.456  1.00  0.00     0.074 A 
ATOM     61  C   UNL A   1      45.742  30.466  31.041  1.00  0.00     0.029 A 
ATOM     62  N   UNL A   1      44.301  32.108  31.245  1.00  0.00    -0.354 N 
ATOM     63  N   UNL A   1      40.159  31.456  32.491  1.00  0.00    -0.248 NA
ATOM     64  C   UNL A   1      40.085  32.770  30.561  1.00  0.00     0.031 C 
ATOM     65  C   UNL A   1      44.905  30.230  32.171  1.00  0.00     0.029 A 
ATOM     66  C   UNL A   1      43.852  31.144  32.112  1.00  0.00     0.049 A 
ATOM     67  H   UNL A   1      44.083  33.068  31.270  1.00  0.00     0.167 HD
ATOM     68  C   UNL A   1      41.461  31.812  32.168  1.00  0.00     0.074 A 
ATOM     69  C   UNL A   1      41.345  32.671  30.993  1.00  0.00     0.031 C 
ATOM     70  C   UNL A   1      42.533  31.150  32.695  1.00  0.00     0.037 A 
BRANCH  57  71
ATOM     71  C   UNL A   1      45.109  33.113  28.336  1.00  0.00     0.064 A 
ATOM     72  C   UNL A   1      46.413  33.605  28.152  1.00  0.00     0.173 A 
ATOM     73  C   UNL A   1      44.070  34.062  28.194  1.00  0.00     0.173 A 
ATOM     74  F   UNL A   1      47.474  32.796  28.295  1.00  0.00    -0.203 F 
ATOM     75  C   UNL A   1      46.660  34.957  27.901  1.00  0.00     0.198 A 
ATOM     76  C   UNL A   1      44.317  35.395  27.881  1.00  0.00     0.198 A 
ATOM     77  F   UNL A   1      42.792  33.769  28.464  1.00  0.00    -0.203 F 
ATOM     78  F   UNL A   1      47.922  35.403  27.853  1.00  0.00    -0.200 F 
ATOM     79  C   UNL A   1      45.613  35.850  27.766  1.00  0.00     0.200 A 
ATOM     80  F   UNL A   1      43.288  36.247  27.773  1.00  0.00    -0.200 F 
ATOM     81  F   UNL A   1      45.849  37.155  27.577  1.00  0.00    -0.200 F 
ENDBRANCH  57  71
BRANCH  58  82
ATOM     82  C   UNL A   1      36.999  31.588  30.583  1.00  0.00     0.064 A 
ATOM     83  C   UNL A   1      36.030  31.800  31.576  1.00  0.00     0.173 A 
ATOM     84  C   UNL A   1      36.756  32.195  29.333  1.00  0.00     0.173 A 
ATOM     85  F   UNL A   1      36.213  31.308  32.809  1.00  0.00    -0.203 F 
ATOM     86  C   UNL A   1      34.889  32.575  31.334  1.00  0.00     0.198 A 
ATOM     87  C   UNL A   1      35.616  32.961  29.091  1.00  0.00     0.198 A 
ATOM     88  F   UNL A   1      37.666  32.135  28.351  1.00  0.00    -0.203 F 
ATOM     89  F   UNL A   1      34.010  32.799  32.320  1.00  0.00    -0.200 F 
ATOM     90  C   UNL A   1      34.687  33.160  30.093  1.00  0.00     0.200 A 
ATOM     91  F   UNL A   1      35.456  33.556  27.899  1.00  0.00    -0.200 F 
ATOM     92  F   UNL A   1      33.623  33.946  29.877  1.00  0.00    -0.200 F 
ENDBRANCH  58  82
BRANCH  70  93
ATOM     93  C   UNL A   1      42.279  30.164  33.799  1.00  0.00     0.064 A 
ATOM     94  C   UNL A   1      41.908  28.826  33.579  1.00  0.00     0.173 A 
ATOM     95  C   UNL A   1      42.585  30.540  35.113  1.00  0.00     0.173 A 
ATOM     96  F   UNL A   1      41.700  28.366  32.339  1.00  0.00    -0.203 F 
ATOM     97  C   UNL A   1      41.813  27.919  34.632  1.00  0.00     0.198 A 
ATOM     98  C   UNL A   1      42.523  29.624  36.159  1.00  0.00     0.198 A 
ATOM     99  F   UNL A   1      43.001  31.789  35.373  1.00  0.00    -0.203 F 
ATOM    100  F   UNL A   1      41.454  26.648  34.396  1.00  0.00    -0.200 F 
ATOM    101  C   UNL A   1      42.129  28.317  35.920  1.00  0.00     0.200 A 
ATOM    102  F   UNL A   1      42.876  30.001  37.396  1.00  0.00    -0.200 F 
ATOM    103  F   UNL A   1      42.082  27.434  36.928  1.00  0.00    -0.200 F 
ENDBRANCH  70  93
ENDBRANCH  44  45
ENDBRANCH  37  39
ENDBRANCH  36  37
ENDBRANCH  35  36
ENDBRANCH  34  35
ENDBRANCH  33  34
ENDBRANCH  32  33
ENDBRANCH   1  32
TORSDOF 21
ENDMDL
MODEL 3
REMARK VINA RESULT:     -11.6      3.517      7.619
REMARK SMILES CC(C)(C)OC(=O)N1CCC(c2c(C(=O)OCCOCCOCCOC(=O)c3ccc(-c4c5nc(c(-c6c(F)c(F)c(F)c(F)c6F)c6ccc([nH]6)c(-c6c(F)c(F)c(F)c(F)c6F)c6nc(c(-c7c(F)c(F)c(F)c(F)c7F)c7ccc4[nH]7)C=C6)C=C5)cc3)cnn2-c2ccccc2)CC1
REMARK SMILES IDX 20 1 19 2 18 3 17 4 16 5 14 6 15 7 13 8 12 9 93 10 91 11
REMARK SMILES IDX 92 12 11 13 6 14 7 15 8 16 9 17 101 18 10 19 100 20 5 21
REMARK SMILES IDX 2 22 1 23 3 24 4 25 94 26 95 27 99 28 96 29 98 30 97 31
REMARK SMILES IDX 21 32 22 33 23 34 24 35 25 36 26 37 27 38 28 39 29 40 90 41
REMARK SMILES IDX 30 42 89 43 31 44 32 45 33 46 83 47 34 48 88 49 82 50 84 51
REMARK SMILES IDX 35 52 87 53 81 54 80 55 36 57 68 58 48 59 67 60 49 61 52 62
REMARK SMILES IDX 66 63 85 64 50 65 51 66 65 68 86 69 53 70 37 71 38 72 46 73
REMARK SMILES IDX 39 74 40 75 44 76 47 77 41 78 42 79 45 80 43 81 69 82 70 83
REMARK SMILES IDX 78 84 71 85 72 86 76 87 79 88 73 89 74 90 77 91 75 92 54 93
REMARK SMILES IDX 55 94 63 95 56 96 57 97 61 98 64 99 58 100 59 101 62 102
REMARK SMILES IDX 60 103
REMARK H PARENT 84 56 52 67
REMARK Flexibility Score: inf
ROOT
ATOM      1  C   UNL A   1      40.673  21.274  27.168  1.00  0.00     0.188 C 
ENDROOT
BRANCH   1   2
ATOM      2  O   UNL A   1      39.462  21.845  26.713  1.00  0.00    -0.376 OA
BRANCH   2   3
ATOM      3  C   UNL A   1      39.375  23.256  26.864  1.00  0.00     0.202 C 
BRANCH   3   4
ATOM      4  C   UNL A   1      38.042  23.919  26.469  1.00  0.00     0.261 C 
BRANCH   4   5
ATOM      5  O   UNL A   1      37.435  23.523  25.223  1.00  0.00    -0.460 OA
BRANCH   5   6
ATOM      6  C   UNL A   1      36.108  23.209  25.175  1.00  0.00     0.341 C 
ATOM      7  O   UNL A   1      35.208  24.038  25.170  1.00  0.00    -0.246 OA
BRANCH   6   8
ATOM      8  C   UNL A   1      35.905  21.768  25.020  1.00  0.00     0.102 A 
ATOM      9  C   UNL A   1      34.709  21.048  24.837  1.00  0.00     0.062 A 
ATOM     10  N   UNL A   1      35.112  19.714  24.724  1.00  0.00    -0.237 N 
ATOM     11  C   UNL A   1      36.924  20.799  24.931  1.00  0.00     0.151 A 
ATOM     12  N   UNL A   1      36.452  19.565  24.820  1.00  0.00    -0.175 NA
BRANCH   9  13
ATOM     13  C   UNL A   1      33.289  21.613  24.693  1.00  0.00     0.043 C 
ATOM     14  C   UNL A   1      31.128  24.951  25.532  1.00  0.00     0.410 C 
ATOM     15  O   UNL A   1      31.406  25.278  26.669  1.00  0.00    -0.224 OA
ATOM     16  N   UNL A   1      31.257  23.647  25.077  1.00  0.00    -0.308 N 
ATOM     17  C   UNL A   1      31.397  22.600  26.057  1.00  0.00     0.124 C 
ATOM     18  C   UNL A   1      31.561  23.255  23.706  1.00  0.00     0.124 C 
ATOM     19  C   UNL A   1      32.828  22.110  26.072  1.00  0.00     0.032 C 
ATOM     20  C   UNL A   1      33.003  22.706  23.641  1.00  0.00     0.032 C 
BRANCH  14  21
ATOM     21  O   UNL A   1      30.579  25.777  24.601  1.00  0.00    -0.444 OA
BRANCH  21  22
ATOM     22  C   UNL A   1      31.376  26.865  24.053  1.00  0.00     0.106 C 
ATOM     23  C   UNL A   1      31.043  26.885  22.553  1.00  0.00     0.056 C 
ATOM     24  C   UNL A   1      32.865  26.565  24.237  1.00  0.00     0.056 C 
ATOM     25  C   UNL A   1      31.009  28.250  24.621  1.00  0.00     0.056 C 
ENDBRANCH  21  22
ENDBRANCH  14  21
ENDBRANCH   9  13
BRANCH  10  26
ATOM     26  C   UNL A   1      34.328  18.547  24.729  1.00  0.00     0.065 A 
ATOM     27  C   UNL A   1      33.052  18.617  25.296  1.00  0.00     0.028 A 
ATOM     28  C   UNL A   1      34.802  17.365  24.154  1.00  0.00     0.028 A 
ATOM     29  C   UNL A   1      32.199  17.523  25.188  1.00  0.00     0.002 A 
ATOM     30  C   UNL A   1      33.936  16.276  24.045  1.00  0.00     0.002 A 
ATOM     31  C   UNL A   1      32.632  16.363  24.543  1.00  0.00     0.000 A 
ENDBRANCH  10  26
ENDBRANCH   6   8
ENDBRANCH   5   6
ENDBRANCH   4   5
ENDBRANCH   3   4
ENDBRANCH   2   3
ENDBRANCH   1   2
BRANCH   1  32
ATOM     32  C   UNL A   1      41.868  21.426  26.207  1.00  0.00     0.188 C 
BRANCH  32  33
ATOM     33  O   UNL A   1      43.163  21.785  26.677  1.00  0.00    -0.376 OA
BRANCH  33  34
ATOM     34  C   UNL A   1      43.767  23.010  26.298  1.00  0.00     0.202 C 
BRANCH  34  35
ATOM     35  C   UNL A   1      43.034  23.916  25.312  1.00  0.00     0.261 C 
BRANCH  35  36
ATOM     36  O   UNL A   1      42.177  24.874  25.913  1.00  0.00    -0.460 OA
BRANCH  36  37
ATOM     37  C   UNL A   1      42.298  26.124  25.415  1.00  0.00     0.338 C 
ATOM     38  O   UNL A   1      43.090  26.517  24.577  1.00  0.00    -0.246 OA
BRANCH  37  39
ATOM     39  C   UNL A   1      41.359  27.004  26.125  1.00  0.00     0.060 A 
ATOM     40  C   UNL A   1      41.547  28.380  25.971  1.00  0.00     0.016 A 
ATOM     41  C   UNL A   1      40.548  26.473  27.138  1.00  0.00     0.016 A 
ATOM     42  C   UNL A   1      41.156  29.205  27.000  1.00  0.00     0.010 A 
ATOM     43  C   UNL A   1      40.175  27.294  28.172  1.00  0.00     0.010 A 
ATOM     44  C   UNL A   1      40.590  28.622  28.135  1.00  0.00    -0.014 A 
BRANCH  44  45
ATOM     45  C   UNL A   1      40.514  29.416  29.338  1.00  0.00     0.031 A 
ATOM     46  C   UNL A   1      39.319  30.275  29.435  1.00  0.00     0.074 A 
ATOM     47  C   UNL A   1      41.410  29.265  30.332  1.00  0.00     0.049 A 
ATOM     48  N   UNL A   1      39.265  31.564  29.422  1.00  0.00    -0.248 NA
ATOM     49  C   UNL A   1      38.010  29.609  29.421  1.00  0.00     0.031 C 
ATOM     50  C   UNL A   1      42.434  28.228  30.500  1.00  0.00     0.029 A 
ATOM     51  N   UNL A   1      41.517  29.985  31.476  1.00  0.00    -0.354 N 
ATOM     52  C   UNL A   1      37.918  31.880  29.555  1.00  0.00     0.074 A 
ATOM     53  C   UNL A   1      37.186  30.654  29.371  1.00  0.00     0.031 C 
ATOM     54  C   UNL A   1      42.888  28.258  31.776  1.00  0.00     0.029 A 
ATOM     55  C   UNL A   1      42.287  29.389  32.461  1.00  0.00     0.049 A 
ATOM     56  H   UNL A   1      41.081  30.860  31.597  1.00  0.00     0.167 HD
ATOM     57  C   UNL A   1      37.514  33.084  30.040  1.00  0.00     0.037 A 
ATOM     58  C   UNL A   1      42.309  29.763  33.765  1.00  0.00     0.037 A 
ATOM     59  C   UNL A   1      38.571  34.059  29.989  1.00  0.00     0.049 A 
ATOM     60  C   UNL A   1      41.767  31.149  33.839  1.00  0.00     0.074 A 
ATOM     61  C   UNL A   1      39.327  34.609  28.970  1.00  0.00     0.029 A 
ATOM     62  N   UNL A   1      39.258  34.337  31.147  1.00  0.00    -0.354 N 
ATOM     63  N   UNL A   1      42.375  32.194  33.345  1.00  0.00    -0.248 NA
ATOM     64  C   UNL A   1      40.328  31.297  34.027  1.00  0.00     0.031 C 
ATOM     65  C   UNL A   1      40.642  34.726  29.509  1.00  0.00     0.029 A 
ATOM     66  C   UNL A   1      40.593  34.293  30.834  1.00  0.00     0.049 A 
ATOM     67  H   UNL A   1      38.867  34.530  32.029  1.00  0.00     0.167 HD
ATOM     68  C   UNL A   1      41.365  32.964  32.784  1.00  0.00     0.074 A 
ATOM     69  C   UNL A   1      40.120  32.391  33.289  1.00  0.00     0.031 C 
ATOM     70  C   UNL A   1      41.607  33.807  31.738  1.00  0.00     0.037 A 
BRANCH  57  71
ATOM     71  C   UNL A   1      36.273  33.271  30.870  1.00  0.00     0.064 A 
ATOM     72  C   UNL A   1      35.207  34.029  30.354  1.00  0.00     0.173 A 
ATOM     73  C   UNL A   1      36.201  32.971  32.250  1.00  0.00     0.173 A 
ATOM     74  F   UNL A   1      35.193  34.395  29.064  1.00  0.00    -0.203 F 
ATOM     75  C   UNL A   1      34.177  34.499  31.172  1.00  0.00     0.198 A 
ATOM     76  C   UNL A   1      35.139  33.388  33.048  1.00  0.00     0.198 A 
ATOM     77  F   UNL A   1      37.200  32.368  32.904  1.00  0.00    -0.203 F 
ATOM     78  F   UNL A   1      33.247  35.319  30.662  1.00  0.00    -0.200 F 
ATOM     79  C   UNL A   1      34.144  34.179  32.517  1.00  0.00     0.200 A 
ATOM     80  F   UNL A   1      35.138  33.081  34.352  1.00  0.00    -0.200 F 
ATOM     81  F   UNL A   1      33.186  34.671  33.312  1.00  0.00    -0.200 F 
ENDBRANCH  57  71
BRANCH  58  82
ATOM     82  C   UNL A   1      42.368  28.863  34.941  1.00  0.00     0.064 A 
ATOM     83  C   UNL A   1      41.613  27.680  34.995  1.00  0.00     0.173 A 
ATOM     84  C   UNL A   1      43.368  29.012  35.923  1.00  0.00     0.173 A 
ATOM     85  F   UNL A   1      40.683  27.433  34.062  1.00  0.00    -0.203 F 
ATOM     86  C   UNL A   1      41.848  26.705  35.971  1.00  0.00     0.198 A 
ATOM     87  C   UNL A   1      43.597  28.043  36.900  1.00  0.00     0.198 A 
ATOM     88  F   UNL A   1      44.206  30.058  35.899  1.00  0.00    -0.203 F 
ATOM     89  F   UNL A   1      41.144  25.565  35.963  1.00  0.00    -0.200 F 
ATOM     90  C   UNL A   1      42.844  26.885  36.919  1.00  0.00     0.200 A 
ATOM     91  F   UNL A   1      44.592  28.212  37.783  1.00  0.00    -0.200 F 
ATOM     92  F   UNL A   1      43.106  25.928  37.821  1.00  0.00    -0.200 F 
ENDBRANCH  58  82
BRANCH  70  93
ATOM     93  C   UNL A   1      43.036  34.044  31.340  1.00  0.00     0.064 A 
ATOM     94  C   UNL A   1      43.721  33.261  30.396  1.00  0.00     0.173 A 
ATOM     95  C   UNL A   1      43.674  35.202  31.803  1.00  0.00     0.173 A 
ATOM     96  F   UNL A   1      43.137  32.197  29.831  1.00  0.00    -0.203 F 
ATOM     97  C   UNL A   1      45.002  33.603  29.966  1.00  0.00     0.198 A 
ATOM     98  C   UNL A   1      44.939  35.560  31.347  1.00  0.00     0.198 A 
ATOM     99  F   UNL A   1      43.042  36.018  32.661  1.00  0.00    -0.203 F 
ATOM    100  F   UNL A   1      45.638  32.836  29.066  1.00  0.00    -0.200 F 
ATOM    101  C   UNL A   1      45.606  34.756  30.435  1.00  0.00     0.200 A 
ATOM    102  F   UNL A   1      45.499  36.702  31.767  1.00  0.00    -0.200 F 
ATOM    103  F   UNL A   1      46.819  35.111  29.989  1.00  0.00    -0.200 F 
ENDBRANCH  70  93
ENDBRANCH  44  45
ENDBRANCH  37  39
ENDBRANCH  36  37
ENDBRANCH  35  36
ENDBRANCH  34  35
ENDBRANCH  33  34
ENDBRANCH  32  33
ENDBRANCH   1  32
TORSDOF 21
ENDMDL
