MODEL 1
REMARK VINA RESULT:     -10.2      0.000      0.000
REMARK SMILES CCCCCC(=O)N1CCC[C@H](C(=O)OCCOCCOCCOC(=O)c2ccc(-c3c4nc(c(-c5c(F)c(F)c(F)c(F)c5F)c5ccc([nH]5)c(-c5c(F)c(F)c(F)c(F)c5F)c5nc(c(-c6c(F)c(F)c(F)c(F)c6F)c6ccc3[nH]6)C=C5)C=C4)cc2)C1
REMARK SMILES IDX 18 1 17 2 16 3 15 4 13 5 14 6 12 7 8 8 9 9 90 10 10 11 11 12
REMARK SMILES IDX 6 13 7 14 5 15 4 16 3 17 2 18 1 19 19 20 20 21 21 22 22 23
REMARK SMILES IDX 23 24 24 25 25 26 26 27 27 28 28 29 89 30 29 31 88 32 30 33
REMARK SMILES IDX 31 34 32 35 82 36 33 37 87 38 81 39 83 40 34 41 86 42 80 43
REMARK SMILES IDX 79 44 35 46 67 47 47 48 66 49 48 50 51 51 65 52 84 53 49 54
REMARK SMILES IDX 50 55 64 57 85 58 52 59 36 60 37 61 45 62 38 63 39 64 43 65
REMARK SMILES IDX 46 66 40 67 41 68 44 69 42 70 68 71 69 72 77 73 70 74 71 75
REMARK SMILES IDX 75 76 78 77 72 78 73 79 76 80 74 81 53 82 54 83 62 84 55 85
REMARK SMILES IDX 56 86 60 87 63 88 57 89 58 90 61 91 59 92
REMARK H PARENT 83 45 51 56
REMARK Flexibility Score: inf
ROOT
ATOM      1  O   UNL A   1      37.721  22.983  25.897  1.00  0.00    -0.376 OA
ENDROOT
BRANCH   1   2
ATOM      2  C   UNL A   1      37.112  21.933  25.150  1.00  0.00     0.202 C 
BRANCH   2   3
ATOM      3  C   UNL A   1      36.019  22.250  24.116  1.00  0.00     0.261 C 
BRANCH   3   4
ATOM      4  O   UNL A   1      35.517  23.605  24.192  1.00  0.00    -0.463 OA
BRANCH   4   5
ATOM      5  C   UNL A   1      34.313  23.780  24.784  1.00  0.00     0.310 C 
ATOM      6  O   UNL A   1      34.036  24.739  25.502  1.00  0.00    -0.252 OA
BRANCH   5   7
ATOM      7  C   UNL A   1      33.281  22.690  24.513  1.00  0.00     0.119 C 
ATOM      8  N   UNL A   1      32.121  23.921  22.751  1.00  0.00    -0.342 N 
ATOM      9  C   UNL A   1      30.836  23.906  23.439  1.00  0.00     0.119 C 
ATOM     10  C   UNL A   1      32.932  22.747  23.026  1.00  0.00     0.134 C 
ATOM     11  C   UNL A   1      30.995  23.754  24.951  1.00  0.00     0.022 C 
ATOM     12  C   UNL A   1      31.980  22.644  25.318  1.00  0.00     0.019 C 
BRANCH   8  13
ATOM     13  C   UNL A   1      32.712  25.147  22.459  1.00  0.00     0.222 C 
ATOM     14  O   UNL A   1      33.928  25.246  22.279  1.00  0.00    -0.275 OA
BRANCH  13  15
ATOM     15  C   UNL A   1      31.845  26.400  22.561  1.00  0.00     0.100 C 
BRANCH  15  16
ATOM     16  C   UNL A   1      32.080  27.444  23.657  1.00  0.00     0.010 C 
BRANCH  16  17
ATOM     17  C   UNL A   1      31.581  27.190  25.091  1.00  0.00     0.000 C 
BRANCH  17  18
ATOM     18  C   UNL A   1      32.357  27.850  26.235  1.00  0.00    -0.003 C 
ATOM     19  C   UNL A   1      31.559  27.923  27.521  1.00  0.00     0.004 C 
ENDBRANCH  17  18
ENDBRANCH  16  17
ENDBRANCH  15  16
ENDBRANCH  13  15
ENDBRANCH   8  13
ENDBRANCH   5   7
ENDBRANCH   4   5
ENDBRANCH   3   4
ENDBRANCH   2   3
ENDBRANCH   1   2
BRANCH   1  20
ATOM     20  C   UNL A   1      38.972  22.717  26.485  1.00  0.00     0.188 C 
BRANCH  20  21
ATOM     21  C   UNL A   1      39.678  21.421  26.104  1.00  0.00     0.188 C 
BRANCH  21  22
ATOM     22  O   UNL A   1      40.836  20.976  26.769  1.00  0.00    -0.376 OA
BRANCH  22  23
ATOM     23  C   UNL A   1      42.023  20.585  26.098  1.00  0.00     0.202 C 
BRANCH  23  24
ATOM     24  C   UNL A   1      43.139  21.536  25.617  1.00  0.00     0.261 C 
BRANCH  24  25
ATOM     25  O   UNL A   1      42.767  22.725  24.924  1.00  0.00    -0.460 OA
BRANCH  25  26
ATOM     26  C   UNL A   1      43.632  23.770  25.019  1.00  0.00     0.338 C 
ATOM     27  O   UNL A   1      44.582  24.001  24.311  1.00  0.00    -0.246 OA
BRANCH  26  28
ATOM     28  C   UNL A   1      43.027  24.738  25.978  1.00  0.00     0.060 A 
ATOM     29  C   UNL A   1      43.547  26.041  26.010  1.00  0.00     0.016 A 
ATOM     30  C   UNL A   1      41.890  24.419  26.727  1.00  0.00     0.016 A 
ATOM     31  C   UNL A   1      42.959  27.016  26.820  1.00  0.00     0.010 A 
ATOM     32  C   UNL A   1      41.317  25.388  27.558  1.00  0.00     0.010 A 
ATOM     33  C   UNL A   1      41.870  26.680  27.636  1.00  0.00    -0.014 A 
BRANCH  33  34
ATOM     34  C   UNL A   1      41.472  27.581  28.747  1.00  0.00     0.031 A 
ATOM     35  C   UNL A   1      42.254  27.486  30.030  1.00  0.00     0.074 A 
ATOM     36  C   UNL A   1      40.464  28.466  28.638  1.00  0.00     0.049 A 
ATOM     37  N   UNL A   1      42.055  28.084  31.177  1.00  0.00    -0.248 NA
ATOM     38  C   UNL A   1      43.421  26.589  30.013  1.00  0.00     0.031 C 
ATOM     39  C   UNL A   1      39.662  28.702  27.442  1.00  0.00     0.029 A 
ATOM     40  N   UNL A   1      39.937  29.329  29.572  1.00  0.00    -0.354 N 
ATOM     41  C   UNL A   1      43.066  27.629  32.015  1.00  0.00     0.074 A 
ATOM     42  C   UNL A   1      43.857  26.685  31.259  1.00  0.00     0.031 C 
ATOM     43  C   UNL A   1      38.729  29.632  27.719  1.00  0.00     0.029 A 
ATOM     44  C   UNL A   1      38.844  30.029  29.123  1.00  0.00     0.049 A 
ATOM     45  H   UNL A   1      40.308  29.433  30.477  1.00  0.00     0.167 HD
ATOM     46  C   UNL A   1      43.320  27.976  33.297  1.00  0.00     0.037 A 
ATOM     47  C   UNL A   1      38.017  30.868  29.781  1.00  0.00     0.037 A 
ATOM     48  C   UNL A   1      42.535  28.912  34.055  1.00  0.00     0.049 A 
ATOM     49  C   UNL A   1      38.268  31.164  31.242  1.00  0.00     0.074 A 
ATOM     50  C   UNL A   1      42.713  29.324  35.364  1.00  0.00     0.029 A 
ATOM     51  N   UNL A   1      41.421  29.579  33.572  1.00  0.00    -0.354 N 
ATOM     52  N   UNL A   1      39.232  30.743  32.025  1.00  0.00    -0.248 NA
ATOM     53  C   UNL A   1      37.310  32.058  31.913  1.00  0.00     0.031 C 
ATOM     54  C   UNL A   1      41.675  30.200  35.690  1.00  0.00     0.029 A 
ATOM     55  C   UNL A   1      40.888  30.384  34.565  1.00  0.00     0.049 A 
ATOM     56  H   UNL A   1      41.061  29.494  32.660  1.00  0.00     0.167 HD
ATOM     57  C   UNL A   1      39.019  31.348  33.259  1.00  0.00     0.074 A 
ATOM     58  C   UNL A   1      37.843  32.179  33.120  1.00  0.00     0.031 C 
ATOM     59  C   UNL A   1      39.732  31.228  34.406  1.00  0.00     0.037 A 
BRANCH  46  60
ATOM     60  C   UNL A   1      44.490  27.324  33.974  1.00  0.00     0.064 A 
ATOM     61  C   UNL A   1      44.365  26.093  34.633  1.00  0.00     0.173 A 
ATOM     62  C   UNL A   1      45.761  27.915  33.916  1.00  0.00     0.173 A 
ATOM     63  F   UNL A   1      43.166  25.499  34.733  1.00  0.00    -0.203 F 
ATOM     64  C   UNL A   1      45.468  25.483  35.222  1.00  0.00     0.198 A 
ATOM     65  C   UNL A   1      46.867  27.286  34.478  1.00  0.00     0.198 A 
ATOM     66  F   UNL A   1      45.932  29.093  33.297  1.00  0.00    -0.203 F 
ATOM     67  F   UNL A   1      45.319  24.324  35.880  1.00  0.00    -0.200 F 
ATOM     68  C   UNL A   1      46.720  26.073  35.134  1.00  0.00     0.200 A 
ATOM     69  F   UNL A   1      48.078  27.852  34.382  1.00  0.00    -0.200 F 
ATOM     70  F   UNL A   1      47.785  25.476  35.686  1.00  0.00    -0.200 F 
ENDBRANCH  46  60
BRANCH  47  71
ATOM     71  C   UNL A   1      36.845  31.474  29.091  1.00  0.00     0.064 A 
ATOM     72  C   UNL A   1      36.800  32.846  28.800  1.00  0.00     0.173 A 
ATOM     73  C   UNL A   1      35.710  30.709  28.778  1.00  0.00     0.173 A 
ATOM     74  F   UNL A   1      37.845  33.629  29.110  1.00  0.00    -0.203 F 
ATOM     75  C   UNL A   1      35.657  33.433  28.260  1.00  0.00     0.198 A 
ATOM     76  C   UNL A   1      34.582  31.292  28.205  1.00  0.00     0.198 A 
ATOM     77  F   UNL A   1      35.692  29.394  29.041  1.00  0.00    -0.203 F 
ATOM     78  F   UNL A   1      35.617  34.758  28.064  1.00  0.00    -0.200 F 
ATOM     79  C   UNL A   1      34.550  32.655  27.959  1.00  0.00     0.200 A 
ATOM     80  F   UNL A   1      33.517  30.534  27.907  1.00  0.00    -0.200 F 
ATOM     81  F   UNL A   1      33.448  33.223  27.449  1.00  0.00    -0.200 F 
ENDBRANCH  47  71
BRANCH  59  82
ATOM     82  C   UNL A   1      39.306  32.054  35.587  1.00  0.00     0.064 A 
ATOM     83  C   UNL A   1      39.721  33.384  35.752  1.00  0.00     0.173 A 
ATOM     84  C   UNL A   1      38.427  31.520  36.542  1.00  0.00     0.173 A 
ATOM     85  F   UNL A   1      40.569  33.940  34.874  1.00  0.00    -0.203 F 
ATOM     86  C   UNL A   1      39.297  34.137  36.845  1.00  0.00     0.198 A 
ATOM     87  C   UNL A   1      37.976  32.286  37.614  1.00  0.00     0.198 A 
ATOM     88  F   UNL A   1      37.988  30.257  36.427  1.00  0.00    -0.203 F 
ATOM     89  F   UNL A   1      39.747  35.388  37.009  1.00  0.00    -0.200 F 
ATOM     90  C   UNL A   1      38.419  33.590  37.769  1.00  0.00     0.200 A 
ATOM     91  F   UNL A   1      37.113  31.763  38.495  1.00  0.00    -0.200 F 
ATOM     92  F   UNL A   1      38.003  34.320  38.814  1.00  0.00    -0.200 F 
ENDBRANCH  59  82
ENDBRANCH  33  34
ENDBRANCH  26  28
ENDBRANCH  25  26
ENDBRANCH  24  25
ENDBRANCH  23  24
ENDBRANCH  22  23
ENDBRANCH  21  22
ENDBRANCH  20  21
ENDBRANCH   1  20
TORSDOF 22
ENDMDL
MODEL 2
REMARK VINA RESULT:     -10.0      4.903      7.030
REMARK SMILES CCCCCC(=O)N1CCC[C@H](C(=O)OCCOCCOCCOC(=O)c2ccc(-c3c4nc(c(-c5c(F)c(F)c(F)c(F)c5F)c5ccc([nH]5)c(-c5c(F)c(F)c(F)c(F)c5F)c5nc(c(-c6c(F)c(F)c(F)c(F)c6F)c6ccc3[nH]6)C=C5)C=C4)cc2)C1
REMARK SMILES IDX 18 1 17 2 16 3 15 4 13 5 14 6 12 7 8 8 9 9 90 10 10 11 11 12
REMARK SMILES IDX 6 13 7 14 5 15 4 16 3 17 2 18 1 19 19 20 20 21 21 22 22 23
REMARK SMILES IDX 23 24 24 25 25 26 26 27 27 28 28 29 89 30 29 31 88 32 30 33
REMARK SMILES IDX 31 34 32 35 82 36 33 37 87 38 81 39 83 40 34 41 86 42 80 43
REMARK SMILES IDX 79 44 35 46 67 47 47 48 66 49 48 50 51 51 65 52 84 53 49 54
REMARK SMILES IDX 50 55 64 57 85 58 52 59 36 60 37 61 45 62 38 63 39 64 43 65
REMARK SMILES IDX 46 66 40 67 41 68 44 69 42 70 68 71 69 72 77 73 70 74 71 75
REMARK SMILES IDX 75 76 78 77 72 78 73 79 76 80 74 81 53 82 54 83 62 84 55 85
REMARK SMILES IDX 56 86 60 87 63 88 57 89 58 90 61 91 59 92
REMARK H PARENT 83 45 51 56
REMARK Flexibility Score: inf
ROOT
ATOM      1  O   UNL A   1      38.982  20.900  25.768  1.00  0.00    -0.376 OA
ENDROOT
BRANCH   1   2
ATOM      2  C   UNL A   1      37.869  21.559  25.168  1.00  0.00     0.202 C 
BRANCH   2   3
ATOM      3  C   UNL A   1      37.597  23.043  25.459  1.00  0.00     0.261 C 
BRANCH   3   4
ATOM      4  O   UNL A   1      36.282  23.489  25.048  1.00  0.00    -0.463 OA
BRANCH   4   5
ATOM      5  C   UNL A   1      35.800  22.985  23.888  1.00  0.00     0.310 C 
ATOM      6  O   UNL A   1      36.295  23.209  22.786  1.00  0.00    -0.252 OA
BRANCH   5   7
ATOM      7  C   UNL A   1      34.564  22.100  24.018  1.00  0.00     0.119 C 
ATOM      8  N   UNL A   1      32.961  23.925  23.760  1.00  0.00    -0.342 N 
ATOM      9  C   UNL A   1      32.327  23.694  25.053  1.00  0.00     0.119 C 
ATOM     10  C   UNL A   1      33.467  22.710  23.145  1.00  0.00     0.134 C 
ATOM     11  C   UNL A   1      33.264  22.992  26.035  1.00  0.00     0.022 C 
ATOM     12  C   UNL A   1      33.976  21.798  25.400  1.00  0.00     0.019 C 
BRANCH   8  13
ATOM     13  C   UNL A   1      33.566  25.155  23.519  1.00  0.00     0.222 C 
ATOM     14  O   UNL A   1      33.942  25.475  22.389  1.00  0.00    -0.275 OA
BRANCH  13  15
ATOM     15  C   UNL A   1      33.933  26.019  24.725  1.00  0.00     0.100 C 
BRANCH  15  16
ATOM     16  C   UNL A   1      33.125  27.269  25.084  1.00  0.00     0.010 C 
BRANCH  16  17
ATOM     17  C   UNL A   1      32.833  27.607  26.557  1.00  0.00     0.000 C 
BRANCH  17  18
ATOM     18  C   UNL A   1      33.795  28.567  27.265  1.00  0.00    -0.003 C 
ATOM     19  C   UNL A   1      33.832  29.940  26.623  1.00  0.00     0.004 C 
ENDBRANCH  17  18
ENDBRANCH  16  17
ENDBRANCH  15  16
ENDBRANCH  13  15
ENDBRANCH   8  13
ENDBRANCH   5   7
ENDBRANCH   4   5
ENDBRANCH   3   4
ENDBRANCH   2   3
ENDBRANCH   1   2
BRANCH   1  20
ATOM     20  C   UNL A   1      39.981  21.709  26.341  1.00  0.00     0.188 C 
BRANCH  20  21
ATOM     21  C   UNL A   1      41.435  21.375  26.027  1.00  0.00     0.188 C 
BRANCH  21  22
ATOM     22  O   UNL A   1      42.108  20.306  26.647  1.00  0.00    -0.376 OA
BRANCH  22  23
ATOM     23  C   UNL A   1      42.241  19.020  26.064  1.00  0.00     0.202 C 
BRANCH  23  24
ATOM     24  C   UNL A   1      43.523  18.453  25.419  1.00  0.00     0.261 C 
BRANCH  24  25
ATOM     25  O   UNL A   1      43.961  19.003  24.179  1.00  0.00    -0.460 OA
BRANCH  25  26
ATOM     26  C   UNL A   1      45.207  19.550  24.172  1.00  0.00     0.338 C 
ATOM     27  O   UNL A   1      46.194  19.117  23.629  1.00  0.00    -0.246 OA
BRANCH  26  28
ATOM     28  C   UNL A   1      45.069  20.931  24.717  1.00  0.00     0.060 A 
ATOM     29  C   UNL A   1      44.536  21.918  23.873  1.00  0.00     0.016 A 
ATOM     30  C   UNL A   1      45.323  21.222  26.060  1.00  0.00     0.016 A 
ATOM     31  C   UNL A   1      44.297  23.206  24.357  1.00  0.00     0.010 A 
ATOM     32  C   UNL A   1      45.107  22.518  26.539  1.00  0.00     0.010 A 
ATOM     33  C   UNL A   1      44.627  23.525  25.681  1.00  0.00    -0.014 A 
BRANCH  33  34
ATOM     34  C   UNL A   1      44.717  24.948  26.099  1.00  0.00     0.031 A 
ATOM     35  C   UNL A   1      46.070  25.606  26.026  1.00  0.00     0.074 A 
ATOM     36  C   UNL A   1      43.650  25.651  26.519  1.00  0.00     0.049 A 
ATOM     37  N   UNL A   1      46.442  26.797  26.418  1.00  0.00    -0.248 NA
ATOM     38  C   UNL A   1      47.151  24.804  25.429  1.00  0.00     0.031 C 
ATOM     39  C   UNL A   1      42.278  25.158  26.586  1.00  0.00     0.029 A 
ATOM     40  N   UNL A   1      43.567  26.943  26.984  1.00  0.00    -0.354 N 
ATOM     41  C   UNL A   1      47.797  26.882  26.122  1.00  0.00     0.074 A 
ATOM     42  C   UNL A   1      48.190  25.615  25.547  1.00  0.00     0.031 C 
ATOM     43  C   UNL A   1      41.490  26.128  27.086  1.00  0.00     0.029 A 
ATOM     44  C   UNL A   1      42.309  27.298  27.408  1.00  0.00     0.049 A 
ATOM     45  H   UNL A   1      44.337  27.555  27.011  1.00  0.00     0.167 HD
ATOM     46  C   UNL A   1      48.638  27.926  26.301  1.00  0.00     0.037 A 
ATOM     47  C   UNL A   1      41.881  28.424  28.016  1.00  0.00     0.037 A 
ATOM     48  C   UNL A   1      48.255  29.187  26.876  1.00  0.00     0.049 A 
ATOM     49  C   UNL A   1      42.864  29.539  28.292  1.00  0.00     0.074 A 
ATOM     50  C   UNL A   1      49.039  30.304  27.102  1.00  0.00     0.029 A 
ATOM     51  N   UNL A   1      46.977  29.496  27.317  1.00  0.00    -0.354 N 
ATOM     52  N   UNL A   1      44.139  29.619  27.997  1.00  0.00    -0.248 NA
ATOM     53  C   UNL A   1      42.342  30.726  28.989  1.00  0.00     0.031 C 
ATOM     54  C   UNL A   1      48.249  31.271  27.730  1.00  0.00     0.029 A 
ATOM     55  C   UNL A   1      46.959  30.780  27.835  1.00  0.00     0.049 A 
ATOM     56  H   UNL A   1      46.201  28.893  27.270  1.00  0.00     0.167 HD
ATOM     57  C   UNL A   1      44.558  30.871  28.434  1.00  0.00     0.074 A 
ATOM     58  C   UNL A   1      43.399  31.525  29.001  1.00  0.00     0.031 C 
ATOM     59  C   UNL A   1      45.791  31.431  28.372  1.00  0.00     0.037 A 
BRANCH  46  60
ATOM     60  C   UNL A   1      50.069  27.744  25.888  1.00  0.00     0.064 A 
ATOM     61  C   UNL A   1      51.074  27.464  26.825  1.00  0.00     0.173 A 
ATOM     62  C   UNL A   1      50.427  27.798  24.533  1.00  0.00     0.173 A 
ATOM     63  F   UNL A   1      50.785  27.422  28.134  1.00  0.00    -0.203 F 
ATOM     64  C   UNL A   1      52.390  27.259  26.420  1.00  0.00     0.198 A 
ATOM     65  C   UNL A   1      51.738  27.562  24.130  1.00  0.00     0.198 A 
ATOM     66  F   UNL A   1      49.502  28.063  23.599  1.00  0.00    -0.203 F 
ATOM     67  F   UNL A   1      53.342  27.031  27.336  1.00  0.00    -0.200 F 
ATOM     68  C   UNL A   1      52.719  27.297  25.074  1.00  0.00     0.200 A 
ATOM     69  F   UNL A   1      52.051  27.586  22.827  1.00  0.00    -0.200 F 
ATOM     70  F   UNL A   1      53.983  27.081  24.684  1.00  0.00    -0.200 F 
ENDBRANCH  46  60
BRANCH  47  71
ATOM     71  C   UNL A   1      40.461  28.562  28.444  1.00  0.00     0.064 A 
ATOM     72  C   UNL A   1      39.493  29.111  27.590  1.00  0.00     0.173 A 
ATOM     73  C   UNL A   1      40.058  28.221  29.745  1.00  0.00     0.173 A 
ATOM     74  F   UNL A   1      39.833  29.485  26.347  1.00  0.00    -0.203 F 
ATOM     75  C   UNL A   1      38.191  29.346  28.030  1.00  0.00     0.198 A 
ATOM     76  C   UNL A   1      38.747  28.424  30.171  1.00  0.00     0.198 A 
ATOM     77  F   UNL A   1      40.943  27.701  30.608  1.00  0.00    -0.203 F 
ATOM     78  F   UNL A   1      37.310  29.942  27.215  1.00  0.00    -0.200 F 
ATOM     79  C   UNL A   1      37.818  29.000  29.318  1.00  0.00     0.200 A 
ATOM     80  F   UNL A   1      38.388  28.079  31.415  1.00  0.00    -0.200 F 
ATOM     81  F   UNL A   1      36.570  29.236  29.744  1.00  0.00    -0.200 F 
ENDBRANCH  47  71
BRANCH  59  82
ATOM     82  C   UNL A   1      45.948  32.840  28.872  1.00  0.00     0.064 A 
ATOM     83  C   UNL A   1      45.755  33.950  28.037  1.00  0.00     0.173 A 
ATOM     84  C   UNL A   1      46.249  33.081  30.222  1.00  0.00     0.173 A 
ATOM     85  F   UNL A   1      45.477  33.776  26.736  1.00  0.00    -0.203 F 
ATOM     86  C   UNL A   1      45.886  35.247  28.527  1.00  0.00     0.198 A 
ATOM     87  C   UNL A   1      46.344  34.378  30.717  1.00  0.00     0.198 A 
ATOM     88  F   UNL A   1      46.431  32.056  31.068  1.00  0.00    -0.203 F 
ATOM     89  F   UNL A   1      45.748  36.292  27.699  1.00  0.00    -0.200 F 
ATOM     90  C   UNL A   1      46.172  35.460  29.868  1.00  0.00     0.200 A 
ATOM     91  F   UNL A   1      46.601  34.582  32.016  1.00  0.00    -0.200 F 
ATOM     92  F   UNL A   1      46.287  36.709  30.340  1.00  0.00    -0.200 F 
ENDBRANCH  59  82
ENDBRANCH  33  34
ENDBRANCH  26  28
ENDBRANCH  25  26
ENDBRANCH  24  25
ENDBRANCH  23  24
ENDBRANCH  22  23
ENDBRANCH  21  22
ENDBRANCH  20  21
ENDBRANCH   1  20
TORSDOF 22
ENDMDL
MODEL 3
REMARK VINA RESULT:     -10.0      5.201      7.755
REMARK SMILES CCCCCC(=O)N1CCC[C@H](C(=O)OCCOCCOCCOC(=O)c2ccc(-c3c4nc(c(-c5c(F)c(F)c(F)c(F)c5F)c5ccc([nH]5)c(-c5c(F)c(F)c(F)c(F)c5F)c5nc(c(-c6c(F)c(F)c(F)c(F)c6F)c6ccc3[nH]6)C=C5)C=C4)cc2)C1
REMARK SMILES IDX 18 1 17 2 16 3 15 4 13 5 14 6 12 7 8 8 9 9 90 10 10 11 11 12
REMARK SMILES IDX 6 13 7 14 5 15 4 16 3 17 2 18 1 19 19 20 20 21 21 22 22 23
REMARK SMILES IDX 23 24 24 25 25 26 26 27 27 28 28 29 89 30 29 31 88 32 30 33
REMARK SMILES IDX 31 34 32 35 82 36 33 37 87 38 81 39 83 40 34 41 86 42 80 43
REMARK SMILES IDX 79 44 35 46 67 47 47 48 66 49 48 50 51 51 65 52 84 53 49 54
REMARK SMILES IDX 50 55 64 57 85 58 52 59 36 60 37 61 45 62 38 63 39 64 43 65
REMARK SMILES IDX 46 66 40 67 41 68 44 69 42 70 68 71 69 72 77 73 70 74 71 75
REMARK SMILES IDX 75 76 78 77 72 78 73 79 76 80 74 81 53 82 54 83 62 84 55 85
REMARK SMILES IDX 56 86 60 87 63 88 57 89 58 90 61 91 59 92
REMARK H PARENT 83 45 51 56
REMARK Flexibility Score: inf
ROOT
ATOM      1  O   UNL A   1      38.922  21.196  25.738  1.00  0.00    -0.376 OA
ENDROOT
BRANCH   1   2
ATOM      2  C   UNL A   1      37.630  21.792  25.648  1.00  0.00     0.202 C 
BRANCH   2   3
ATOM      3  C   UNL A   1      37.479  23.322  25.649  1.00  0.00     0.261 C 
BRANCH   3   4
ATOM      4  O   UNL A   1      36.192  23.782  26.125  1.00  0.00    -0.463 OA
BRANCH   4   5
ATOM      5  C   UNL A   1      35.249  24.041  25.190  1.00  0.00     0.310 C 
ATOM      6  O   UNL A   1      35.384  23.790  23.995  1.00  0.00    -0.252 OA
BRANCH   5   7
ATOM      7  C   UNL A   1      33.968  24.688  25.709  1.00  0.00     0.119 C 
ATOM      8  N   UNL A   1      32.745  22.587  25.947  1.00  0.00    -0.342 N 
ATOM      9  C   UNL A   1      31.675  22.983  25.039  1.00  0.00     0.119 C 
ATOM     10  C   UNL A   1      33.317  23.704  26.680  1.00  0.00     0.134 C 
ATOM     11  C   UNL A   1      32.130  24.050  24.045  1.00  0.00     0.022 C 
ATOM     12  C   UNL A   1      32.902  25.181  24.726  1.00  0.00     0.019 C 
BRANCH   8  13
ATOM     13  C   UNL A   1      33.511  21.468  25.635  1.00  0.00     0.222 C 
ATOM     14  O   UNL A   1      34.410  21.076  26.383  1.00  0.00    -0.275 OA
BRANCH  13  15
ATOM     15  C   UNL A   1      33.344  20.854  24.246  1.00  0.00     0.100 C 
BRANCH  15  16
ATOM     16  C   UNL A   1      32.822  19.426  24.064  1.00  0.00     0.010 C 
BRANCH  16  17
ATOM     17  C   UNL A   1      32.868  18.428  25.236  1.00  0.00     0.000 C 
BRANCH  17  18
ATOM     18  C   UNL A   1      32.875  16.935  24.890  1.00  0.00    -0.003 C 
ATOM     19  C   UNL A   1      33.907  16.581  23.839  1.00  0.00     0.004 C 
ENDBRANCH  17  18
ENDBRANCH  16  17
ENDBRANCH  15  16
ENDBRANCH  13  15
ENDBRANCH   8  13
ENDBRANCH   5   7
ENDBRANCH   4   5
ENDBRANCH   3   4
ENDBRANCH   2   3
ENDBRANCH   1   2
BRANCH   1  20
ATOM     20  C   UNL A   1      39.924  21.921  26.409  1.00  0.00     0.188 C 
BRANCH  20  21
ATOM     21  C   UNL A   1      41.377  21.546  26.142  1.00  0.00     0.188 C 
BRANCH  21  22
ATOM     22  O   UNL A   1      41.980  20.421  26.733  1.00  0.00    -0.376 OA
BRANCH  22  23
ATOM     23  C   UNL A   1      42.031  19.144  26.117  1.00  0.00     0.202 C 
BRANCH  23  24
ATOM     24  C   UNL A   1      43.292  18.479  25.528  1.00  0.00     0.261 C 
BRANCH  24  25
ATOM     25  O   UNL A   1      43.766  18.925  24.259  1.00  0.00    -0.460 OA
BRANCH  25  26
ATOM     26  C   UNL A   1      45.036  19.413  24.230  1.00  0.00     0.338 C 
ATOM     27  O   UNL A   1      45.998  18.919  23.695  1.00  0.00    -0.246 OA
BRANCH  26  28
ATOM     28  C   UNL A   1      44.965  20.814  24.736  1.00  0.00     0.060 A 
ATOM     29  C   UNL A   1      44.434  21.792  23.882  1.00  0.00     0.016 A 
ATOM     30  C   UNL A   1      45.279  21.136  26.059  1.00  0.00     0.016 A 
ATOM     31  C   UNL A   1      44.256  23.102  24.333  1.00  0.00     0.010 A 
ATOM     32  C   UNL A   1      45.126  22.453  26.504  1.00  0.00     0.010 A 
ATOM     33  C   UNL A   1      44.647  23.450  25.633  1.00  0.00    -0.014 A 
BRANCH  33  34
ATOM     34  C   UNL A   1      44.801  24.880  26.002  1.00  0.00     0.031 A 
ATOM     35  C   UNL A   1      46.169  25.492  25.849  1.00  0.00     0.074 A 
ATOM     36  C   UNL A   1      43.776  25.630  26.447  1.00  0.00     0.049 A 
ATOM     37  N   UNL A   1      46.596  26.681  26.188  1.00  0.00    -0.248 NA
ATOM     38  C   UNL A   1      47.196  24.637  25.230  1.00  0.00     0.031 C 
ATOM     39  C   UNL A   1      42.394  25.184  26.591  1.00  0.00     0.029 A 
ATOM     40  N   UNL A   1      43.755  26.937  26.875  1.00  0.00    -0.354 N 
ATOM     41  C   UNL A   1      47.938  26.712  25.829  1.00  0.00     0.074 A 
ATOM     42  C   UNL A   1      48.264  25.417  25.277  1.00  0.00     0.031 C 
ATOM     43  C   UNL A   1      41.660  26.195  27.095  1.00  0.00     0.029 A 
ATOM     44  C   UNL A   1      42.529  27.346  27.344  1.00  0.00     0.049 A 
ATOM     45  H   UNL A   1      44.544  27.525  26.849  1.00  0.00     0.167 HD
ATOM     46  C   UNL A   1      48.818  27.733  25.938  1.00  0.00     0.037 A 
ATOM     47  C   UNL A   1      42.165  28.503  27.934  1.00  0.00     0.037 A 
ATOM     48  C   UNL A   1      48.501  29.022  26.490  1.00  0.00     0.049 A 
ATOM     49  C   UNL A   1      43.193  29.593  28.132  1.00  0.00     0.074 A 
ATOM     50  C   UNL A   1      49.329  30.119  26.646  1.00  0.00     0.029 A 
ATOM     51  N   UNL A   1      47.256  29.386  26.977  1.00  0.00    -0.354 N 
ATOM     52  N   UNL A   1      44.456  29.622  27.778  1.00  0.00    -0.248 NA
ATOM     53  C   UNL A   1      42.742  30.817  28.814  1.00  0.00     0.031 C 
ATOM     54  C   UNL A   1      48.600  31.130  27.278  1.00  0.00     0.029 A 
ATOM     55  C   UNL A   1      47.300  30.685  27.455  1.00  0.00     0.049 A 
ATOM     56  H   UNL A   1      46.459  28.808  26.984  1.00  0.00     0.167 HD
ATOM     57  C   UNL A   1      44.933  30.873  28.157  1.00  0.00     0.074 A 
ATOM     58  C   UNL A   1      43.823  31.581  28.754  1.00  0.00     0.031 C 
ATOM     59  C   UNL A   1      46.180  31.389  28.023  1.00  0.00     0.037 A 
BRANCH  46  60
ATOM     60  C   UNL A   1      50.222  27.492  25.468  1.00  0.00     0.064 A 
ATOM     61  C   UNL A   1      50.570  27.588  24.112  1.00  0.00     0.173 A 
ATOM     62  C   UNL A   1      51.241  27.213  26.391  1.00  0.00     0.173 A 
ATOM     63  F   UNL A   1      49.627  27.832  23.189  1.00  0.00    -0.203 F 
ATOM     64  C   UNL A   1      51.884  27.400  23.697  1.00  0.00     0.198 A 
ATOM     65  C   UNL A   1      52.560  27.057  25.975  1.00  0.00     0.198 A 
ATOM     66  F   UNL A   1      50.960  27.110  27.698  1.00  0.00    -0.203 F 
ATOM     67  F   UNL A   1      52.188  27.459  22.392  1.00  0.00    -0.200 F 
ATOM     68  C   UNL A   1      52.880  27.147  24.629  1.00  0.00     0.200 A 
ATOM     69  F   UNL A   1      53.522  26.825  26.878  1.00  0.00    -0.200 F 
ATOM     70  F   UNL A   1      54.149  26.984  24.229  1.00  0.00    -0.200 F 
ENDBRANCH  46  60
BRANCH  47  71
ATOM     71  C   UNL A   1      40.771  28.700  28.420  1.00  0.00     0.064 A 
ATOM     72  C   UNL A   1      40.406  28.372  29.735  1.00  0.00     0.173 A 
ATOM     73  C   UNL A   1      39.757  29.145  27.559  1.00  0.00     0.173 A 
ATOM     74  F   UNL A   1      41.330  27.909  30.590  1.00  0.00    -0.203 F 
ATOM     75  C   UNL A   1      39.079  28.447  30.156  1.00  0.00     0.198 A 
ATOM     76  C   UNL A   1      38.436  29.253  27.993  1.00  0.00     0.198 A 
ATOM     77  F   UNL A   1      40.045  29.464  26.289  1.00  0.00    -0.203 F 
ATOM     78  F   UNL A   1      38.749  28.055  31.395  1.00  0.00    -0.200 F 
ATOM     79  C   UNL A   1      38.096  28.891  29.286  1.00  0.00     0.200 A 
ATOM     80  F   UNL A   1      37.491  29.692  27.150  1.00  0.00    -0.200 F 
ATOM     81  F   UNL A   1      36.819  28.952  29.689  1.00  0.00    -0.200 F 
ENDBRANCH  47  71
BRANCH  59  82
ATOM     82  C   UNL A   1      46.403  32.807  28.471  1.00  0.00     0.064 A 
ATOM     83  C   UNL A   1      46.208  33.897  27.611  1.00  0.00     0.173 A 
ATOM     84  C   UNL A   1      46.771  33.077  29.799  1.00  0.00     0.173 A 
ATOM     85  F   UNL A   1      45.867  33.694  26.330  1.00  0.00    -0.203 F 
ATOM     86  C   UNL A   1      46.403  35.203  28.055  1.00  0.00     0.198 A 
ATOM     87  C   UNL A   1      46.930  34.385  30.249  1.00  0.00     0.198 A 
ATOM     88  F   UNL A   1      46.959  32.072  30.668  1.00  0.00    -0.203 F 
ATOM     89  F   UNL A   1      46.260  36.227  27.201  1.00  0.00    -0.200 F 
ATOM     90  C   UNL A   1      46.754  35.446  29.374  1.00  0.00     0.200 A 
ATOM     91  F   UNL A   1      47.251  34.619  31.529  1.00  0.00    -0.200 F 
ATOM     92  F   UNL A   1      46.930  36.705  29.802  1.00  0.00    -0.200 F 
ENDBRANCH  59  82
ENDBRANCH  33  34
ENDBRANCH  26  28
ENDBRANCH  25  26
ENDBRANCH  24  25
ENDBRANCH  23  24
ENDBRANCH  22  23
ENDBRANCH  21  22
ENDBRANCH  20  21
ENDBRANCH   1  20
TORSDOF 22
ENDMDL
