MODEL 1
REMARK VINA RESULT:     -10.4      0.000      0.000
REMARK SMILES O=C(Cc1cccc(-c2ccn(C(F)F)c(=O)c2)c1)OCCOCCOCCOC(=O)c1ccc(-c2c3nc(c(-c4c(F)c(F)c(F)c(F)c4F)c4ccc([nH]4)c(-c4c(F)c(F)c(F)c(F)c4F)c4nc(c(-c5c(F)c(F)c(F)c(F)c5F)c5ccc2[nH]5)C=C4)C=C3)cc1
REMARK SMILES IDX 24 1 23 2 22 3 21 4 20 5 2 6 1 7 3 8 4 9 5 10 19 11 6 12
REMARK SMILES IDX 8 13 7 14 9 15 10 16 18 17 11 18 16 19 12 20 17 21 13 22
REMARK SMILES IDX 14 23 15 24 25 25 26 26 27 27 28 28 29 29 30 30 31 31 32 32
REMARK SMILES IDX 33 33 94 34 34 35 93 36 35 37 36 38 37 39 87 40 38 41 92 42
REMARK SMILES IDX 86 43 88 44 39 45 91 46 85 47 84 48 40 50 72 51 52 52 71 53
REMARK SMILES IDX 53 54 56 55 70 56 89 57 54 58 55 59 69 61 90 62 57 63 41 64
REMARK SMILES IDX 42 65 50 66 43 67 44 68 48 69 51 70 45 71 46 72 49 73 47 74
REMARK SMILES IDX 73 75 74 76 82 77 75 78 76 79 80 80 83 81 77 82 78 83 81 84
REMARK SMILES IDX 79 85 58 86 59 87 67 88 60 89 61 90 65 91 68 92 62 93 63 94
REMARK SMILES IDX 66 95 64 96
REMARK H PARENT 88 49 56 60
REMARK Flexibility Score: inf
ROOT
ATOM      1  C   UNL A   1      41.952  22.298  25.745  1.00  0.00     0.188 C 
ENDROOT
BRANCH   1   2
ATOM      2  O   UNL A   1      40.647  21.893  26.116  1.00  0.00    -0.376 OA
BRANCH   2   3
ATOM      3  C   UNL A   1      40.060  22.576  27.205  1.00  0.00     0.202 C 
BRANCH   3   4
ATOM      4  C   UNL A   1      39.492  23.922  26.771  1.00  0.00     0.261 C 
BRANCH   4   5
ATOM      5  O   UNL A   1      38.062  23.953  26.548  1.00  0.00    -0.463 OA
BRANCH   5   6
ATOM      6  C   UNL A   1      37.346  23.285  25.622  1.00  0.00     0.310 C 
ATOM      7  O   UNL A   1      37.420  23.625  24.442  1.00  0.00    -0.252 OA
BRANCH   6   8
ATOM      8  C   UNL A   1      36.349  22.232  26.039  1.00  0.00     0.158 C 
BRANCH   8   9
ATOM      9  C   UNL A   1      34.978  22.686  26.459  1.00  0.00    -0.036 A 
ATOM     10  C   UNL A   1      34.154  21.883  27.256  1.00  0.00     0.004 A 
ATOM     11  C   UNL A   1      34.476  23.907  25.973  1.00  0.00     0.013 A 
ATOM     12  C   UNL A   1      32.875  22.312  27.596  1.00  0.00     0.001 A 
ATOM     13  C   UNL A   1      33.184  24.343  26.296  1.00  0.00    -0.018 A 
ATOM     14  C   UNL A   1      32.391  23.533  27.118  1.00  0.00     0.009 A 
BRANCH  13  15
ATOM     15  C   UNL A   1      32.660  25.603  25.722  1.00  0.00    -0.011 A 
ATOM     16  C   UNL A   1      31.236  25.866  25.591  1.00  0.00     0.027 A 
ATOM     17  C   UNL A   1      33.526  26.552  25.323  1.00  0.00     0.080 A 
ATOM     18  C   UNL A   1      30.794  27.040  25.124  1.00  0.00     0.095 A 
ATOM     19  C   UNL A   1      33.051  27.864  24.798  1.00  0.00     0.255 A 
ATOM     20  N   UNL A   1      31.677  28.032  24.746  1.00  0.00    -0.258 N 
ATOM     21  O   UNL A   1      33.887  28.697  24.466  1.00  0.00    -0.269 OA
BRANCH  20  22
ATOM     22  C   UNL A   1      31.191  29.310  24.292  1.00  0.00     0.451 C 
ATOM     23  F   UNL A   1      29.860  29.260  24.041  1.00  0.00    -0.185 F 
ATOM     24  F   UNL A   1      31.410  30.274  25.217  1.00  0.00    -0.185 F 
ENDBRANCH  20  22
ENDBRANCH  13  15
ENDBRANCH   8   9
ENDBRANCH   6   8
ENDBRANCH   5   6
ENDBRANCH   4   5
ENDBRANCH   3   4
ENDBRANCH   2   3
ENDBRANCH   1   2
BRANCH   1  25
ATOM     25  C   UNL A   1      42.987  21.174  25.900  1.00  0.00     0.188 C 
BRANCH  25  26
ATOM     26  O   UNL A   1      44.019  21.008  24.935  1.00  0.00    -0.376 OA
BRANCH  26  27
ATOM     27  C   UNL A   1      44.550  22.134  24.251  1.00  0.00     0.202 C 
BRANCH  27  28
ATOM     28  C   UNL A   1      45.682  22.901  24.938  1.00  0.00     0.261 C 
BRANCH  28  29
ATOM     29  O   UNL A   1      45.238  23.803  25.971  1.00  0.00    -0.460 OA
BRANCH  29  30
ATOM     30  C   UNL A   1      45.289  25.117  25.646  1.00  0.00     0.338 C 
ATOM     31  O   UNL A   1      45.913  25.631  24.735  1.00  0.00    -0.246 OA
BRANCH  30  32
ATOM     32  C   UNL A   1      44.360  25.904  26.484  1.00  0.00     0.060 A 
ATOM     33  C   UNL A   1      44.595  27.280  26.591  1.00  0.00     0.016 A 
ATOM     34  C   UNL A   1      43.370  25.297  27.260  1.00  0.00     0.016 A 
ATOM     35  C   UNL A   1      43.887  28.043  27.521  1.00  0.00     0.010 A 
ATOM     36  C   UNL A   1      42.666  26.062  28.203  1.00  0.00     0.010 A 
ATOM     37  C   UNL A   1      42.956  27.430  28.370  1.00  0.00    -0.014 A 
BRANCH  37  38
ATOM     38  C   UNL A   1      42.445  28.192  29.541  1.00  0.00     0.031 A 
ATOM     39  C   UNL A   1      41.121  28.902  29.428  1.00  0.00     0.074 A 
ATOM     40  C   UNL A   1      43.101  28.195  30.715  1.00  0.00     0.049 A 
ATOM     41  N   UNL A   1      40.454  29.573  30.336  1.00  0.00    -0.248 NA
ATOM     42  C   UNL A   1      40.455  28.844  28.117  1.00  0.00     0.031 C 
ATOM     43  C   UNL A   1      44.373  27.527  30.974  1.00  0.00     0.029 A 
ATOM     44  N   UNL A   1      42.777  28.782  31.915  1.00  0.00    -0.354 N 
ATOM     45  C   UNL A   1      39.288  29.999  29.712  1.00  0.00     0.074 A 
ATOM     46  C   UNL A   1      39.359  29.552  28.337  1.00  0.00     0.031 C 
ATOM     47  C   UNL A   1      44.728  27.749  32.252  1.00  0.00     0.029 A 
ATOM     48  C   UNL A   1      43.715  28.585  32.897  1.00  0.00     0.049 A 
ATOM     49  H   UNL A   1      41.949  29.296  32.057  1.00  0.00     0.167 HD
ATOM     50  C   UNL A   1      38.244  30.682  30.237  1.00  0.00     0.037 A 
ATOM     51  C   UNL A   1      43.755  29.032  34.167  1.00  0.00     0.037 A 
ATOM     52  C   UNL A   1      38.167  31.145  31.598  1.00  0.00     0.049 A 
ATOM     53  C   UNL A   1      42.608  29.845  34.712  1.00  0.00     0.074 A 
ATOM     54  C   UNL A   1      37.151  31.854  32.215  1.00  0.00     0.029 A 
ATOM     55  N   UNL A   1      39.153  30.948  32.553  1.00  0.00    -0.354 N 
ATOM     56  N   UNL A   1      41.499  30.216  34.121  1.00  0.00    -0.248 NA
ATOM     57  C   UNL A   1      42.714  30.287  36.112  1.00  0.00     0.031 C 
ATOM     58  C   UNL A   1      37.537  32.121  33.533  1.00  0.00     0.029 A 
ATOM     59  C   UNL A   1      38.775  31.536  33.751  1.00  0.00     0.049 A 
ATOM     60  H   UNL A   1      39.996  30.462  32.404  1.00  0.00     0.167 HD
ATOM     61  C   UNL A   1      40.767  30.911  35.078  1.00  0.00     0.074 A 
ATOM     62  C   UNL A   1      41.549  30.892  36.296  1.00  0.00     0.031 C 
ATOM     63  C   UNL A   1      39.558  31.512  34.959  1.00  0.00     0.037 A 
BRANCH  50  64
ATOM     64  C   UNL A   1      37.089  30.980  29.326  1.00  0.00     0.064 A 
ATOM     65  C   UNL A   1      36.138  29.998  29.010  1.00  0.00     0.173 A 
ATOM     66  C   UNL A   1      36.908  32.266  28.796  1.00  0.00     0.173 A 
ATOM     67  F   UNL A   1      36.274  28.749  29.480  1.00  0.00    -0.203 F 
ATOM     68  C   UNL A   1      35.059  30.287  28.177  1.00  0.00     0.198 A 
ATOM     69  C   UNL A   1      35.814  32.559  27.986  1.00  0.00     0.198 A 
ATOM     70  F   UNL A   1      37.787  33.240  29.074  1.00  0.00    -0.203 F 
ATOM     71  F   UNL A   1      34.185  29.324  27.856  1.00  0.00    -0.200 F 
ATOM     72  C   UNL A   1      34.894  31.569  27.673  1.00  0.00     0.200 A 
ATOM     73  F   UNL A   1      35.650  33.800  27.508  1.00  0.00    -0.200 F 
ATOM     74  F   UNL A   1      33.852  31.849  26.879  1.00  0.00    -0.200 F 
ENDBRANCH  50  64
BRANCH  51  75
ATOM     75  C   UNL A   1      44.933  28.732  35.024  1.00  0.00     0.064 A 
ATOM     76  C   UNL A   1      44.965  27.600  35.850  1.00  0.00     0.173 A 
ATOM     77  C   UNL A   1      46.036  29.597  35.061  1.00  0.00     0.173 A 
ATOM     78  F   UNL A   1      43.921  26.757  35.871  1.00  0.00    -0.203 F 
ATOM     79  C   UNL A   1      46.044  27.359  36.699  1.00  0.00     0.198 A 
ATOM     80  C   UNL A   1      47.127  29.340  35.887  1.00  0.00     0.198 A 
ATOM     81  F   UNL A   1      46.058  30.694  34.289  1.00  0.00    -0.203 F 
ATOM     82  F   UNL A   1      46.025  26.299  37.518  1.00  0.00    -0.200 F 
ATOM     83  C   UNL A   1      47.125  28.227  36.713  1.00  0.00     0.200 A 
ATOM     84  F   UNL A   1      48.177  30.172  35.886  1.00  0.00    -0.200 F 
ATOM     85  F   UNL A   1      48.163  27.995  37.530  1.00  0.00    -0.200 F 
ENDBRANCH  51  75
BRANCH  63  86
ATOM     86  C   UNL A   1      38.993  32.176  36.182  1.00  0.00     0.064 A 
ATOM     87  C   UNL A   1      39.263  33.520  36.481  1.00  0.00     0.173 A 
ATOM     88  C   UNL A   1      38.152  31.467  37.053  1.00  0.00     0.173 A 
ATOM     89  F   UNL A   1      40.071  34.239  35.687  1.00  0.00    -0.203 F 
ATOM     90  C   UNL A   1      38.741  34.119  37.625  1.00  0.00     0.198 A 
ATOM     91  C   UNL A   1      37.609  32.076  38.180  1.00  0.00     0.198 A 
ATOM     92  F   UNL A   1      37.854  30.182  36.809  1.00  0.00    -0.203 F 
ATOM     93  F   UNL A   1      39.057  35.387  37.919  1.00  0.00    -0.200 F 
ATOM     94  C   UNL A   1      37.911  33.398  38.471  1.00  0.00     0.200 A 
ATOM     95  F   UNL A   1      36.796  31.383  38.991  1.00  0.00    -0.200 F 
ATOM     96  F   UNL A   1      37.410  33.976  39.572  1.00  0.00    -0.200 F 
ENDBRANCH  63  86
ENDBRANCH  37  38
ENDBRANCH  30  32
ENDBRANCH  29  30
ENDBRANCH  28  29
ENDBRANCH  27  28
ENDBRANCH  26  27
ENDBRANCH  25  26
ENDBRANCH   1  25
TORSDOF 20
ENDMDL
MODEL 2
REMARK VINA RESULT:     -10.2      3.342      4.400
REMARK SMILES O=C(Cc1cccc(-c2ccn(C(F)F)c(=O)c2)c1)OCCOCCOCCOC(=O)c1ccc(-c2c3nc(c(-c4c(F)c(F)c(F)c(F)c4F)c4ccc([nH]4)c(-c4c(F)c(F)c(F)c(F)c4F)c4nc(c(-c5c(F)c(F)c(F)c(F)c5F)c5ccc2[nH]5)C=C4)C=C3)cc1
REMARK SMILES IDX 24 1 23 2 22 3 21 4 20 5 2 6 1 7 3 8 4 9 5 10 19 11 6 12
REMARK SMILES IDX 8 13 7 14 9 15 10 16 18 17 11 18 16 19 12 20 17 21 13 22
REMARK SMILES IDX 14 23 15 24 25 25 26 26 27 27 28 28 29 29 30 30 31 31 32 32
REMARK SMILES IDX 33 33 94 34 34 35 93 36 35 37 36 38 37 39 87 40 38 41 92 42
REMARK SMILES IDX 86 43 88 44 39 45 91 46 85 47 84 48 40 50 72 51 52 52 71 53
REMARK SMILES IDX 53 54 56 55 70 56 89 57 54 58 55 59 69 61 90 62 57 63 41 64
REMARK SMILES IDX 42 65 50 66 43 67 44 68 48 69 51 70 45 71 46 72 49 73 47 74
REMARK SMILES IDX 73 75 74 76 82 77 75 78 76 79 80 80 83 81 77 82 78 83 81 84
REMARK SMILES IDX 79 85 58 86 59 87 67 88 60 89 61 90 65 91 68 92 62 93 63 94
REMARK SMILES IDX 66 95 64 96
REMARK H PARENT 88 49 56 60
REMARK Flexibility Score: inf
ROOT
ATOM      1  C   UNL A   1      40.046  22.097  25.948  1.00  0.00     0.188 C 
ENDROOT
BRANCH   1   2
ATOM      2  O   UNL A   1      38.930  22.675  26.600  1.00  0.00    -0.376 OA
BRANCH   2   3
ATOM      3  C   UNL A   1      37.670  22.467  25.995  1.00  0.00     0.202 C 
BRANCH   3   4
ATOM      4  C   UNL A   1      36.787  23.704  26.119  1.00  0.00     0.261 C 
BRANCH   4   5
ATOM      5  O   UNL A   1      35.375  23.487  25.885  1.00  0.00    -0.463 OA
BRANCH   5   6
ATOM      6  C   UNL A   1      34.459  24.364  25.426  1.00  0.00     0.310 C 
ATOM      7  O   UNL A   1      34.756  25.555  25.337  1.00  0.00    -0.252 OA
BRANCH   6   8
ATOM      8  C   UNL A   1      33.041  23.921  25.166  1.00  0.00     0.158 C 
BRANCH   8   9
ATOM      9  C   UNL A   1      32.820  22.797  24.191  1.00  0.00    -0.036 A 
ATOM     10  C   UNL A   1      32.361  23.035  22.892  1.00  0.00     0.004 A 
ATOM     11  C   UNL A   1      32.997  21.468  24.619  1.00  0.00     0.013 A 
ATOM     12  C   UNL A   1      32.129  21.971  22.024  1.00  0.00     0.001 A 
ATOM     13  C   UNL A   1      32.752  20.388  23.761  1.00  0.00    -0.018 A 
ATOM     14  C   UNL A   1      32.320  20.657  22.456  1.00  0.00     0.009 A 
BRANCH  13  15
ATOM     15  C   UNL A   1      32.889  18.999  24.255  1.00  0.00    -0.011 A 
ATOM     16  C   UNL A   1      32.442  18.596  25.578  1.00  0.00     0.027 A 
ATOM     17  C   UNL A   1      33.428  18.067  23.449  1.00  0.00     0.080 A 
ATOM     18  C   UNL A   1      32.526  17.320  25.973  1.00  0.00     0.095 A 
ATOM     19  C   UNL A   1      33.531  16.641  23.873  1.00  0.00     0.255 A 
ATOM     20  N   UNL A   1      33.046  16.351  25.138  1.00  0.00    -0.258 N 
ATOM     21  O   UNL A   1      34.016  15.833  23.089  1.00  0.00    -0.269 OA
BRANCH  20  22
ATOM     22  C   UNL A   1      33.085  14.972  25.552  1.00  0.00     0.451 C 
ATOM     23  F   UNL A   1      32.818  14.856  26.876  1.00  0.00    -0.185 F 
ATOM     24  F   UNL A   1      32.179  14.230  24.872  1.00  0.00    -0.185 F 
ENDBRANCH  20  22
ENDBRANCH  13  15
ENDBRANCH   8   9
ENDBRANCH   6   8
ENDBRANCH   5   6
ENDBRANCH   4   5
ENDBRANCH   3   4
ENDBRANCH   2   3
ENDBRANCH   1   2
BRANCH   1  25
ATOM     25  C   UNL A   1      41.099  21.568  26.934  1.00  0.00     0.188 C 
BRANCH  25  26
ATOM     26  O   UNL A   1      42.364  21.118  26.464  1.00  0.00    -0.376 OA
BRANCH  26  27
ATOM     27  C   UNL A   1      43.440  22.031  26.311  1.00  0.00     0.202 C 
BRANCH  27  28
ATOM     28  C   UNL A   1      43.606  22.695  24.942  1.00  0.00     0.261 C 
BRANCH  28  29
ATOM     29  O   UNL A   1      42.903  23.945  24.806  1.00  0.00    -0.460 OA
BRANCH  29  30
ATOM     30  C   UNL A   1      43.610  25.043  25.165  1.00  0.00     0.338 C 
ATOM     31  O   UNL A   1      44.700  25.392  24.746  1.00  0.00    -0.246 OA
BRANCH  30  32
ATOM     32  C   UNL A   1      42.829  25.897  26.085  1.00  0.00     0.060 A 
ATOM     33  C   UNL A   1      43.302  27.194  26.321  1.00  0.00     0.016 A 
ATOM     34  C   UNL A   1      41.743  25.401  26.810  1.00  0.00     0.016 A 
ATOM     35  C   UNL A   1      42.733  27.976  27.327  1.00  0.00     0.010 A 
ATOM     36  C   UNL A   1      41.180  26.184  27.831  1.00  0.00     0.010 A 
ATOM     37  C   UNL A   1      41.704  27.457  28.125  1.00  0.00    -0.014 A 
BRANCH  37  38
ATOM     38  C   UNL A   1      41.328  28.180  29.369  1.00  0.00     0.031 A 
ATOM     39  C   UNL A   1      40.125  29.086  29.351  1.00  0.00     0.074 A 
ATOM     40  C   UNL A   1      41.993  27.983  30.522  1.00  0.00     0.049 A 
ATOM     41  N   UNL A   1      39.578  29.766  30.329  1.00  0.00    -0.248 NA
ATOM     42  C   UNL A   1      39.441  29.242  28.057  1.00  0.00     0.031 C 
ATOM     43  C   UNL A   1      43.154  27.114  30.690  1.00  0.00     0.029 A 
ATOM     44  N   UNL A   1      41.776  28.504  31.775  1.00  0.00    -0.354 N 
ATOM     45  C   UNL A   1      38.481  30.413  29.774  1.00  0.00     0.074 A 
ATOM     46  C   UNL A   1      38.466  30.083  28.365  1.00  0.00     0.031 C 
ATOM     47  C   UNL A   1      43.555  27.167  31.972  1.00  0.00     0.029 A 
ATOM     48  C   UNL A   1      42.687  28.084  32.712  1.00  0.00     0.049 A 
ATOM     49  H   UNL A   1      41.036  29.121  31.982  1.00  0.00     0.167 HD
ATOM     50  C   UNL A   1      37.557  31.195  30.383  1.00  0.00     0.037 A 
ATOM     51  C   UNL A   1      42.810  28.407  34.014  1.00  0.00     0.037 A 
ATOM     52  C   UNL A   1      37.569  31.542  31.779  1.00  0.00     0.049 A 
ATOM     53  C   UNL A   1      41.805  29.330  34.656  1.00  0.00     0.074 A 
ATOM     54  C   UNL A   1      36.678  32.337  32.480  1.00  0.00     0.029 A 
ATOM     55  N   UNL A   1      38.526  31.118  32.689  1.00  0.00    -0.354 N 
ATOM     56  N   UNL A   1      40.757  29.912  34.127  1.00  0.00    -0.248 NA
ATOM     57  C   UNL A   1      41.994  29.627  36.085  1.00  0.00     0.031 C 
ATOM     58  C   UNL A   1      37.118  32.427  33.806  1.00  0.00     0.029 A 
ATOM     59  C   UNL A   1      38.256  31.649  33.941  1.00  0.00     0.049 A 
ATOM     60  H   UNL A   1      39.285  30.528  32.477  1.00  0.00     0.167 HD
ATOM     61  C   UNL A   1      40.150  30.621  35.158  1.00  0.00     0.074 A 
ATOM     62  C   UNL A   1      40.936  30.380  36.349  1.00  0.00     0.031 C 
ATOM     63  C   UNL A   1      39.043  31.402  35.122  1.00  0.00     0.037 A 
BRANCH  50  64
ATOM     64  C   UNL A   1      36.448  31.739  29.531  1.00  0.00     0.064 A 
ATOM     65  C   UNL A   1      35.435  30.906  29.033  1.00  0.00     0.173 A 
ATOM     66  C   UNL A   1      36.375  33.109  29.241  1.00  0.00     0.173 A 
ATOM     67  F   UNL A   1      35.469  29.586  29.271  1.00  0.00    -0.203 F 
ATOM     68  C   UNL A   1      34.400  31.422  28.258  1.00  0.00     0.198 A 
ATOM     69  C   UNL A   1      35.324  33.626  28.488  1.00  0.00     0.198 A 
ATOM     70  F   UNL A   1      37.317  33.948  29.698  1.00  0.00    -0.203 F 
ATOM     71  F   UNL A   1      33.464  30.603  27.760  1.00  0.00    -0.200 F 
ATOM     72  C   UNL A   1      34.341  32.783  27.993  1.00  0.00     0.200 A 
ATOM     73  F   UNL A   1      35.263  34.942  28.242  1.00  0.00    -0.200 F 
ATOM     74  F   UNL A   1      33.341  33.280  27.254  1.00  0.00    -0.200 F 
ENDBRANCH  50  64
BRANCH  51  75
ATOM     75  C   UNL A   1      43.941  27.862  34.811  1.00  0.00     0.064 A 
ATOM     76  C   UNL A   1      43.837  26.635  35.481  1.00  0.00     0.173 A 
ATOM     77  C   UNL A   1      45.137  28.581  34.950  1.00  0.00     0.173 A 
ATOM     78  F   UNL A   1      42.702  25.923  35.400  1.00  0.00    -0.203 F 
ATOM     79  C   UNL A   1      44.876  26.160  36.279  1.00  0.00     0.198 A 
ATOM     80  C   UNL A   1      46.186  28.091  35.724  1.00  0.00     0.198 A 
ATOM     81  F   UNL A   1      45.290  29.760  34.330  1.00  0.00    -0.203 F 
ATOM     82  F   UNL A   1      44.730  25.010  36.951  1.00  0.00    -0.200 F 
ATOM     83  C   UNL A   1      46.051  26.887  36.396  1.00  0.00     0.200 A 
ATOM     84  F   UNL A   1      47.326  28.790  35.821  1.00  0.00    -0.200 F 
ATOM     85  F   UNL A   1      47.050  26.430  37.164  1.00  0.00    -0.200 F 
ENDBRANCH  51  75
BRANCH  63  86
ATOM     86  C   UNL A   1      38.599  32.033  36.411  1.00  0.00     0.064 A 
ATOM     87  C   UNL A   1      37.815  31.334  37.342  1.00  0.00     0.173 A 
ATOM     88  C   UNL A   1      38.983  33.344  36.732  1.00  0.00     0.173 A 
ATOM     89  F   UNL A   1      37.410  30.082  37.077  1.00  0.00    -0.203 F 
ATOM     90  C   UNL A   1      37.402  31.936  38.527  1.00  0.00     0.198 A 
ATOM     91  C   UNL A   1      38.593  33.933  37.931  1.00  0.00     0.198 A 
ATOM     92  F   UNL A   1      39.740  34.054  35.882  1.00  0.00    -0.203 F 
ATOM     93  F   UNL A   1      36.607  31.269  39.374  1.00  0.00    -0.200 F 
ATOM     94  C   UNL A   1      37.794  33.233  38.823  1.00  0.00     0.200 A 
ATOM     95  F   UNL A   1      38.983  35.182  38.222  1.00  0.00    -0.200 F 
ATOM     96  F   UNL A   1      37.396  33.811  39.965  1.00  0.00    -0.200 F 
ENDBRANCH  63  86
ENDBRANCH  37  38
ENDBRANCH  30  32
ENDBRANCH  29  30
ENDBRANCH  28  29
ENDBRANCH  27  28
ENDBRANCH  26  27
ENDBRANCH  25  26
ENDBRANCH   1  25
TORSDOF 20
ENDMDL
MODEL 3
REMARK VINA RESULT:      -9.7      4.484      8.789
REMARK SMILES O=C(Cc1cccc(-c2ccn(C(F)F)c(=O)c2)c1)OCCOCCOCCOC(=O)c1ccc(-c2c3nc(c(-c4c(F)c(F)c(F)c(F)c4F)c4ccc([nH]4)c(-c4c(F)c(F)c(F)c(F)c4F)c4nc(c(-c5c(F)c(F)c(F)c(F)c5F)c5ccc2[nH]5)C=C4)C=C3)cc1
REMARK SMILES IDX 24 1 23 2 22 3 21 4 20 5 2 6 1 7 3 8 4 9 5 10 19 11 6 12
REMARK SMILES IDX 8 13 7 14 9 15 10 16 18 17 11 18 16 19 12 20 17 21 13 22
REMARK SMILES IDX 14 23 15 24 25 25 26 26 27 27 28 28 29 29 30 30 31 31 32 32
REMARK SMILES IDX 33 33 94 34 34 35 93 36 35 37 36 38 37 39 87 40 38 41 92 42
REMARK SMILES IDX 86 43 88 44 39 45 91 46 85 47 84 48 40 50 72 51 52 52 71 53
REMARK SMILES IDX 53 54 56 55 70 56 89 57 54 58 55 59 69 61 90 62 57 63 41 64
REMARK SMILES IDX 42 65 50 66 43 67 44 68 48 69 51 70 45 71 46 72 49 73 47 74
REMARK SMILES IDX 73 75 74 76 82 77 75 78 76 79 80 80 83 81 77 82 78 83 81 84
REMARK SMILES IDX 79 85 58 86 59 87 67 88 60 89 61 90 65 91 68 92 62 93 63 94
REMARK SMILES IDX 66 95 64 96
REMARK H PARENT 88 49 56 60
REMARK Flexibility Score: inf
ROOT
ATOM      1  C   UNL A   1      35.693  21.761  26.008  1.00  0.00     0.188 C 
ENDROOT
BRANCH   1   2
ATOM      2  O   UNL A   1      34.428  22.361  25.790  1.00  0.00    -0.376 OA
BRANCH   2   3
ATOM      3  C   UNL A   1      33.431  22.098  26.756  1.00  0.00     0.202 C 
BRANCH   3   4
ATOM      4  C   UNL A   1      32.060  22.556  26.272  1.00  0.00     0.261 C 
BRANCH   4   5
ATOM      5  O   UNL A   1      31.552  23.763  26.889  1.00  0.00    -0.463 OA
BRANCH   5   6
ATOM      6  C   UNL A   1      30.347  24.345  26.721  1.00  0.00     0.310 C 
ATOM      7  O   UNL A   1      29.367  23.880  27.300  1.00  0.00    -0.252 OA
BRANCH   6   8
ATOM      8  C   UNL A   1      30.170  25.459  25.719  1.00  0.00     0.158 C 
BRANCH   8   9
ATOM      9  C   UNL A   1      31.394  26.220  25.287  1.00  0.00    -0.036 A 
ATOM     10  C   UNL A   1      32.238  25.737  24.282  1.00  0.00     0.004 A 
ATOM     11  C   UNL A   1      31.745  27.403  25.964  1.00  0.00     0.013 A 
ATOM     12  C   UNL A   1      33.385  26.444  23.930  1.00  0.00     0.001 A 
ATOM     13  C   UNL A   1      32.905  28.115  25.629  1.00  0.00    -0.018 A 
ATOM     14  C   UNL A   1      33.718  27.623  24.600  1.00  0.00     0.009 A 
BRANCH  13  15
ATOM     15  C   UNL A   1      33.282  29.323  26.397  1.00  0.00    -0.011 A 
ATOM     16  C   UNL A   1      34.545  29.430  27.109  1.00  0.00     0.027 A 
ATOM     17  C   UNL A   1      32.440  30.372  26.425  1.00  0.00     0.080 A 
ATOM     18  C   UNL A   1      34.883  30.559  27.744  1.00  0.00     0.095 A 
ATOM     19  C   UNL A   1      32.799  31.636  27.129  1.00  0.00     0.255 A 
ATOM     20  N   UNL A   1      34.038  31.651  27.748  1.00  0.00    -0.258 N 
ATOM     21  O   UNL A   1      31.999  32.564  27.106  1.00  0.00    -0.269 OA
BRANCH  20  22
ATOM     22  C   UNL A   1      34.433  32.879  28.391  1.00  0.00     0.451 C 
ATOM     23  F   UNL A   1      34.934  33.759  27.490  1.00  0.00    -0.185 F 
ATOM     24  F   UNL A   1      33.383  33.465  29.015  1.00  0.00    -0.185 F 
ENDBRANCH  20  22
ENDBRANCH  13  15
ENDBRANCH   8   9
ENDBRANCH   6   8
ENDBRANCH   5   6
ENDBRANCH   4   5
ENDBRANCH   3   4
ENDBRANCH   2   3
ENDBRANCH   1   2
BRANCH   1  25
ATOM     25  C   UNL A   1      36.366  21.311  24.703  1.00  0.00     0.188 C 
BRANCH  25  26
ATOM     26  O   UNL A   1      37.548  20.520  24.739  1.00  0.00    -0.376 OA
BRANCH  26  27
ATOM     27  C   UNL A   1      38.589  20.824  25.656  1.00  0.00     0.202 C 
BRANCH  27  28
ATOM     28  C   UNL A   1      39.790  19.877  25.690  1.00  0.00     0.261 C 
BRANCH  28  29
ATOM     29  O   UNL A   1      41.056  20.539  25.876  1.00  0.00    -0.460 OA
BRANCH  29  30
ATOM     30  C   UNL A   1      41.513  20.558  27.151  1.00  0.00     0.338 C 
ATOM     31  O   UNL A   1      41.931  19.616  27.802  1.00  0.00    -0.246 OA
BRANCH  30  32
ATOM     32  C   UNL A   1      41.572  21.941  27.670  1.00  0.00     0.060 A 
ATOM     33  C   UNL A   1      40.944  22.940  26.915  1.00  0.00     0.016 A 
ATOM     34  C   UNL A   1      42.338  22.279  28.787  1.00  0.00     0.016 A 
ATOM     35  C   UNL A   1      41.135  24.285  27.237  1.00  0.00     0.010 A 
ATOM     36  C   UNL A   1      42.539  23.632  29.102  1.00  0.00     0.010 A 
ATOM     37  C   UNL A   1      41.976  24.642  28.299  1.00  0.00    -0.014 A 
BRANCH  37  38
ATOM     38  C   UNL A   1      42.402  26.062  28.430  1.00  0.00     0.031 A 
ATOM     39  C   UNL A   1      43.698  26.496  27.795  1.00  0.00     0.074 A 
ATOM     40  C   UNL A   1      41.622  26.975  29.035  1.00  0.00     0.049 A 
ATOM     41  N   UNL A   1      44.236  27.690  27.730  1.00  0.00    -0.248 NA
ATOM     42  C   UNL A   1      44.492  25.444  27.141  1.00  0.00     0.031 C 
ATOM     43  C   UNL A   1      40.333  26.701  29.664  1.00  0.00     0.029 A 
ATOM     44  N   UNL A   1      41.804  28.325  29.211  1.00  0.00    -0.354 N 
ATOM     45  C   UNL A   1      45.417  27.534  27.015  1.00  0.00     0.074 A 
ATOM     46  C   UNL A   1      45.542  26.126  26.708  1.00  0.00     0.031 C 
ATOM     47  C   UNL A   1      39.842  27.847  30.167  1.00  0.00     0.029 A 
ATOM     48  C   UNL A   1      40.788  28.932  29.907  1.00  0.00     0.049 A 
ATOM     49  H   UNL A   1      42.589  28.812  28.871  1.00  0.00     0.167 HD
ATOM     50  C   UNL A   1      46.308  28.479  26.629  1.00  0.00     0.037 A 
ATOM     51  C   UNL A   1      40.642  30.215  30.295  1.00  0.00     0.037 A 
ATOM     52  C   UNL A   1      46.202  29.880  26.939  1.00  0.00     0.049 A 
ATOM     53  C   UNL A   1      41.679  31.238  29.907  1.00  0.00     0.074 A 
ATOM     54  C   UNL A   1      47.065  30.909  26.598  1.00  0.00     0.029 A 
ATOM     55  N   UNL A   1      45.172  30.450  27.671  1.00  0.00    -0.354 N 
ATOM     56  N   UNL A   1      42.776  31.084  29.206  1.00  0.00    -0.248 NA
ATOM     57  C   UNL A   1      41.446  32.621  30.352  1.00  0.00     0.031 C 
ATOM     58  C   UNL A   1      46.577  32.096  27.157  1.00  0.00     0.029 A 
ATOM     59  C   UNL A   1      45.385  31.814  27.805  1.00  0.00     0.049 A 
ATOM     60  H   UNL A   1      44.402  29.960  28.040  1.00  0.00     0.167 HD
ATOM     61  C   UNL A   1      43.349  32.347  29.107  1.00  0.00     0.074 A 
ATOM     62  C   UNL A   1      42.467  33.261  29.802  1.00  0.00     0.031 C 
ATOM     63  C   UNL A   1      44.501  32.717  28.497  1.00  0.00     0.037 A 
BRANCH  50  64
ATOM     64  C   UNL A   1      47.490  28.022  25.826  1.00  0.00     0.064 A 
ATOM     65  C   UNL A   1      48.729  27.765  26.434  1.00  0.00     0.173 A 
ATOM     66  C   UNL A   1      47.376  27.802  24.446  1.00  0.00     0.173 A 
ATOM     67  F   UNL A   1      48.893  27.974  27.749  1.00  0.00    -0.203 F 
ATOM     68  C   UNL A   1      49.817  27.325  25.683  1.00  0.00     0.198 A 
ATOM     69  C   UNL A   1      48.458  27.337  23.703  1.00  0.00     0.198 A 
ATOM     70  F   UNL A   1      46.211  28.029  23.820  1.00  0.00    -0.203 F 
ATOM     71  F   UNL A   1      51.001  27.124  26.276  1.00  0.00    -0.200 F 
ATOM     72  C   UNL A   1      49.678  27.104  24.321  1.00  0.00     0.200 A 
ATOM     73  F   UNL A   1      48.319  27.114  22.389  1.00  0.00    -0.200 F 
ATOM     74  F   UNL A   1      50.722  26.673  23.601  1.00  0.00    -0.200 F 
ENDBRANCH  50  64
BRANCH  51  75
ATOM     75  C   UNL A   1      39.464  30.614  31.111  1.00  0.00     0.064 A 
ATOM     76  C   UNL A   1      39.526  30.650  32.511  1.00  0.00     0.173 A 
ATOM     77  C   UNL A   1      38.241  30.931  30.504  1.00  0.00     0.173 A 
ATOM     78  F   UNL A   1      40.667  30.328  33.139  1.00  0.00    -0.203 F 
ATOM     79  C   UNL A   1      38.402  30.962  33.273  1.00  0.00     0.198 A 
ATOM     80  C   UNL A   1      37.126  31.273  31.265  1.00  0.00     0.198 A 
ATOM     81  F   UNL A   1      38.129  30.915  29.167  1.00  0.00    -0.203 F 
ATOM     82  F   UNL A   1      38.473  30.935  34.611  1.00  0.00    -0.200 F 
ATOM     83  C   UNL A   1      37.205  31.277  32.649  1.00  0.00     0.200 A 
ATOM     84  F   UNL A   1      35.975  31.592  30.657  1.00  0.00    -0.200 F 
ATOM     85  F   UNL A   1      36.123  31.577  33.382  1.00  0.00    -0.200 F 
ENDBRANCH  51  75
BRANCH  63  86
ATOM     86  C   UNL A   1      44.864  34.174  28.529  1.00  0.00     0.064 A 
ATOM     87  C   UNL A   1      44.332  35.087  27.606  1.00  0.00     0.173 A 
ATOM     88  C   UNL A   1      45.736  34.669  29.511  1.00  0.00     0.173 A 
ATOM     89  F   UNL A   1      43.502  34.662  26.639  1.00  0.00    -0.203 F 
ATOM     90  C   UNL A   1      44.686  36.433  27.642  1.00  0.00     0.198 A 
ATOM     91  C   UNL A   1      46.066  36.021  29.561  1.00  0.00     0.198 A 
ATOM     92  F   UNL A   1      46.267  33.842  30.424  1.00  0.00    -0.203 F 
ATOM     93  F   UNL A   1      44.208  37.275  26.715  1.00  0.00    -0.200 F 
ATOM     94  C   UNL A   1      45.550  36.899  28.622  1.00  0.00     0.200 A 
ATOM     95  F   UNL A   1      46.891  36.474  30.517  1.00  0.00    -0.200 F 
ATOM     96  F   UNL A   1      45.890  38.195  28.654  1.00  0.00    -0.200 F 
ENDBRANCH  63  86
ENDBRANCH  37  38
ENDBRANCH  30  32
ENDBRANCH  29  30
ENDBRANCH  28  29
ENDBRANCH  27  28
ENDBRANCH  26  27
ENDBRANCH  25  26
ENDBRANCH   1  25
TORSDOF 20
ENDMDL
