MODEL 1
REMARK VINA RESULT:     -11.7      0.000      0.000
REMARK SMILES Cc1nc(NC(=O)[C@@H]2CCC[C@@H](C(=O)OCCOCCOCCOC(=O)c3ccc(-c4c5nc(c(-c6c(F)c(F)c(F)c(F)c6F)c6ccc([nH]6)c(-c6c(F)c(F)c(F)c(F)c6F)c6nc(c(-c7c(F)c(F)c(F)c(F)c7F)c7ccc4[nH]7)C=C6)C=C5)cc3)C2)ccc1Br
REMARK SMILES IDX 19 1 18 2 17 3 16 4 15 5 13 6 14 7 12 8 8 9 9 10 90 11 10 12
REMARK SMILES IDX 11 13 6 14 5 15 7 17 4 18 1 19 2 20 3 21 93 22 92 23 94 24
REMARK SMILES IDX 91 25 20 26 21 27 22 28 23 29 24 30 25 31 26 32 27 33 28 34
REMARK SMILES IDX 89 35 29 36 88 37 30 38 31 39 32 40 82 41 33 42 87 43 81 44
REMARK SMILES IDX 83 45 34 46 86 47 80 48 79 49 35 51 67 52 47 53 66 54 48 55
REMARK SMILES IDX 51 56 65 57 84 58 49 59 50 60 64 62 85 63 52 64 36 65 37 66
REMARK SMILES IDX 45 67 38 68 39 69 43 70 46 71 40 72 41 73 44 74 42 75 68 76
REMARK SMILES IDX 69 77 77 78 70 79 71 80 75 81 78 82 72 83 73 84 76 85 74 86
REMARK SMILES IDX 53 87 54 88 62 89 55 90 56 91 60 92 63 93 57 94 58 95 61 96
REMARK SMILES IDX 59 97
REMARK H PARENT 5 16 83 50 51 61
REMARK Flexibility Score: inf
ROOT
ATOM      1  C   UNL A   1      42.957  18.845  25.393  1.00  0.00     0.188 C 
ENDROOT
BRANCH   1   2
ATOM      2  O   UNL A   1      41.687  19.344  25.780  1.00  0.00    -0.376 OA
BRANCH   2   3
ATOM      3  C   UNL A   1      41.682  20.594  26.459  1.00  0.00     0.202 C 
BRANCH   3   4
ATOM      4  C   UNL A   1      40.313  21.209  26.774  1.00  0.00     0.261 C 
BRANCH   4   5
ATOM      5  O   UNL A   1      39.460  21.440  25.634  1.00  0.00    -0.463 OA
BRANCH   5   6
ATOM      6  C   UNL A   1      38.376  22.233  25.857  1.00  0.00     0.309 C 
ATOM      7  O   UNL A   1      38.398  23.284  26.488  1.00  0.00    -0.252 OA
BRANCH   6   8
ATOM      8  C   UNL A   1      37.071  21.610  25.377  1.00  0.00     0.100 C 
ATOM      9  C   UNL A   1      34.971  23.228  25.459  1.00  0.00     0.080 C 
ATOM     10  C   UNL A   1      35.276  23.434  24.003  1.00  0.00     0.013 C 
ATOM     11  C   UNL A   1      35.758  22.037  26.070  1.00  0.00     0.028 C 
ATOM     12  C   UNL A   1      36.644  23.138  23.452  1.00  0.00     0.002 C 
ATOM     13  C   UNL A   1      37.040  21.735  23.858  1.00  0.00     0.015 C 
BRANCH   9  14
ATOM     14  C   UNL A   1      33.448  23.132  25.807  1.00  0.00     0.228 C 
ATOM     15  N   UNL A   1      32.513  22.194  25.469  1.00  0.00    -0.310 N 
ATOM     16  H   UNL A   1      31.625  22.501  25.763  1.00  0.00     0.171 HD
ATOM     17  O   UNL A   1      33.008  24.029  26.551  1.00  0.00    -0.274 OA
BRANCH  15  18
ATOM     18  C   UNL A   1      32.389  20.941  24.847  1.00  0.00     0.132 A 
ATOM     19  C   UNL A   1      32.634  17.457  26.013  1.00  0.00     0.068 C 
ATOM     20  C   UNL A   1      32.791  18.654  25.120  1.00  0.00     0.054 A 
ATOM     21  N   UNL A   1      32.557  19.887  25.672  1.00  0.00    -0.235 NA
ATOM     22  C   UNL A   1      33.033  18.485  23.765  1.00  0.00     0.039 A 
ATOM     23  C   UNL A   1      32.661  19.520  22.938  1.00  0.00     0.021 A 
ATOM     24  Br  UNL A   1      33.741  16.910  23.002  1.00  0.00    -0.049 Br
ATOM     25  C   UNL A   1      32.189  20.698  23.510  1.00  0.00     0.048 A 
ENDBRANCH  15  18
ENDBRANCH   9  14
ENDBRANCH   6   8
ENDBRANCH   5   6
ENDBRANCH   4   5
ENDBRANCH   3   4
ENDBRANCH   2   3
ENDBRANCH   1   2
BRANCH   1  26
ATOM     26  C   UNL A   1      44.181  19.701  25.721  1.00  0.00     0.188 C 
BRANCH  26  27
ATOM     27  O   UNL A   1      44.758  20.465  24.668  1.00  0.00    -0.376 OA
BRANCH  27  28
ATOM     28  C   UNL A   1      45.766  21.402  25.086  1.00  0.00     0.202 C 
BRANCH  28  29
ATOM     29  C   UNL A   1      45.317  22.503  26.070  1.00  0.00     0.261 C 
BRANCH  29  30
ATOM     30  O   UNL A   1      44.954  23.749  25.435  1.00  0.00    -0.460 OA
BRANCH  30  31
ATOM     31  C   UNL A   1      43.659  23.898  25.062  1.00  0.00     0.338 C 
ATOM     32  O   UNL A   1      43.061  23.205  24.258  1.00  0.00    -0.246 OA
BRANCH  31  33
ATOM     33  C   UNL A   1      43.024  24.868  25.997  1.00  0.00     0.060 A 
ATOM     34  C   UNL A   1      43.565  26.159  26.095  1.00  0.00     0.016 A 
ATOM     35  C   UNL A   1      41.853  24.557  26.696  1.00  0.00     0.016 A 
ATOM     36  C   UNL A   1      42.960  27.124  26.906  1.00  0.00     0.010 A 
ATOM     37  C   UNL A   1      41.263  25.513  27.531  1.00  0.00     0.010 A 
ATOM     38  C   UNL A   1      41.832  26.791  27.665  1.00  0.00    -0.014 A 
BRANCH  38  39
ATOM     39  C   UNL A   1      41.408  27.674  28.781  1.00  0.00     0.031 A 
ATOM     40  C   UNL A   1      42.201  27.616  30.058  1.00  0.00     0.074 A 
ATOM     41  C   UNL A   1      40.360  28.511  28.690  1.00  0.00     0.049 A 
ATOM     42  N   UNL A   1      42.025  28.261  31.182  1.00  0.00    -0.248 NA
ATOM     43  C   UNL A   1      43.354  26.701  30.061  1.00  0.00     0.031 C 
ATOM     44  C   UNL A   1      39.531  28.707  27.506  1.00  0.00     0.029 A 
ATOM     45  N   UNL A   1      39.814  29.355  29.630  1.00  0.00    -0.354 N 
ATOM     46  C   UNL A   1      43.048  27.838  32.019  1.00  0.00     0.074 A 
ATOM     47  C   UNL A   1      43.821  26.858  31.289  1.00  0.00     0.031 C 
ATOM     48  C   UNL A   1      38.572  29.607  27.794  1.00  0.00     0.029 A 
ATOM     49  C   UNL A   1      38.704  30.029  29.190  1.00  0.00     0.049 A 
ATOM     50  H   UNL A   1      40.187  29.464  30.536  1.00  0.00     0.167 HD
ATOM     51  C   UNL A   1      43.327  28.235  33.282  1.00  0.00     0.037 A 
ATOM     52  C   UNL A   1      37.879  30.875  29.842  1.00  0.00     0.037 A 
ATOM     53  C   UNL A   1      42.553  29.188  34.027  1.00  0.00     0.049 A 
ATOM     54  C   UNL A   1      38.144  31.224  31.286  1.00  0.00     0.074 A 
ATOM     55  C   UNL A   1      42.773  29.661  35.309  1.00  0.00     0.029 A 
ATOM     56  N   UNL A   1      41.396  29.797  33.567  1.00  0.00    -0.354 N 
ATOM     57  N   UNL A   1      39.131  30.847  32.062  1.00  0.00    -0.248 NA
ATOM     58  C   UNL A   1      37.177  32.116  31.946  1.00  0.00     0.031 C 
ATOM     59  C   UNL A   1      41.715  30.509  35.647  1.00  0.00     0.029 A 
ATOM     60  C   UNL A   1      40.867  30.612  34.555  1.00  0.00     0.049 A 
ATOM     61  H   UNL A   1      41.008  29.671  32.671  1.00  0.00     0.167 HD
ATOM     62  C   UNL A   1      38.917  31.465  33.289  1.00  0.00     0.074 A 
ATOM     63  C   UNL A   1      37.709  32.253  33.154  1.00  0.00     0.031 C 
ATOM     64  C   UNL A   1      39.658  31.388  34.422  1.00  0.00     0.037 A 
BRANCH  51  65
ATOM     65  C   UNL A   1      44.510  27.598  33.949  1.00  0.00     0.064 A 
ATOM     66  C   UNL A   1      44.382  26.430  34.716  1.00  0.00     0.173 A 
ATOM     67  C   UNL A   1      45.787  28.159  33.810  1.00  0.00     0.173 A 
ATOM     68  F   UNL A   1      43.177  25.868  34.894  1.00  0.00    -0.203 F 
ATOM     69  C   UNL A   1      45.487  25.864  35.344  1.00  0.00     0.198 A 
ATOM     70  C   UNL A   1      46.894  27.573  34.413  1.00  0.00     0.198 A 
ATOM     71  F   UNL A   1      45.961  29.276  33.086  1.00  0.00    -0.203 F 
ATOM     72  F   UNL A   1      45.335  24.778  36.115  1.00  0.00    -0.200 F 
ATOM     73  C   UNL A   1      46.743  26.431  35.187  1.00  0.00     0.200 A 
ATOM     74  F   UNL A   1      48.109  28.117  34.253  1.00  0.00    -0.200 F 
ATOM     75  F   UNL A   1      47.807  25.883  35.789  1.00  0.00    -0.200 F 
ENDBRANCH  51  65
BRANCH  52  76
ATOM     76  C   UNL A   1      36.713  31.452  29.125  1.00  0.00     0.064 A 
ATOM     77  C   UNL A   1      35.596  30.666  28.812  1.00  0.00     0.173 A 
ATOM     78  C   UNL A   1      36.682  32.806  28.759  1.00  0.00     0.173 A 
ATOM     79  F   UNL A   1      35.594  29.359  29.109  1.00  0.00    -0.203 F 
ATOM     80  C   UNL A   1      34.488  31.215  28.168  1.00  0.00     0.198 A 
ATOM     81  C   UNL A   1      35.565  33.359  28.136  1.00  0.00     0.198 A 
ATOM     82  F   UNL A   1      37.734  33.596  29.023  1.00  0.00    -0.203 F 
ATOM     83  F   UNL A   1      33.442  30.437  27.860  1.00  0.00    -0.200 F 
ATOM     84  C   UNL A   1      34.469  32.563  27.842  1.00  0.00     0.200 A 
ATOM     85  F   UNL A   1      35.550  34.662  27.826  1.00  0.00    -0.200 F 
ATOM     86  F   UNL A   1      33.397  33.093  27.238  1.00  0.00    -0.200 F 
ENDBRANCH  52  76
BRANCH  64  87
ATOM     87  C   UNL A   1      39.207  32.172  35.621  1.00  0.00     0.064 A 
ATOM     88  C   UNL A   1      38.389  31.601  36.606  1.00  0.00     0.173 A 
ATOM     89  C   UNL A   1      39.680  33.477  35.839  1.00  0.00     0.173 A 
ATOM     90  F   UNL A   1      37.902  30.361  36.444  1.00  0.00    -0.203 F 
ATOM     91  C   UNL A   1      38.054  32.308  37.759  1.00  0.00     0.198 A 
ATOM     92  C   UNL A   1      39.366  34.170  37.006  1.00  0.00     0.198 A 
ATOM     93  F   UNL A   1      40.475  34.067  34.934  1.00  0.00    -0.203 F 
ATOM     94  F   UNL A   1      37.249  31.750  38.676  1.00  0.00    -0.200 F 
ATOM     95  C   UNL A   1      38.552  33.586  37.964  1.00  0.00     0.200 A 
ATOM     96  F   UNL A   1      39.864  35.397  37.209  1.00  0.00    -0.200 F 
ATOM     97  F   UNL A   1      38.248  34.254  39.085  1.00  0.00    -0.200 F 
ENDBRANCH  64  87
ENDBRANCH  38  39
ENDBRANCH  31  33
ENDBRANCH  30  31
ENDBRANCH  29  30
ENDBRANCH  28  29
ENDBRANCH  27  28
ENDBRANCH  26  27
ENDBRANCH   1  26
TORSDOF 19
ENDMDL
MODEL 2
REMARK VINA RESULT:     -11.6      1.894      2.859
REMARK SMILES Cc1nc(NC(=O)[C@@H]2CCC[C@@H](C(=O)OCCOCCOCCOC(=O)c3ccc(-c4c5nc(c(-c6c(F)c(F)c(F)c(F)c6F)c6ccc([nH]6)c(-c6c(F)c(F)c(F)c(F)c6F)c6nc(c(-c7c(F)c(F)c(F)c(F)c7F)c7ccc4[nH]7)C=C6)C=C5)cc3)C2)ccc1Br
REMARK SMILES IDX 19 1 18 2 17 3 16 4 15 5 13 6 14 7 12 8 8 9 9 10 90 11 10 12
REMARK SMILES IDX 11 13 6 14 5 15 7 17 4 18 1 19 2 20 3 21 93 22 92 23 94 24
REMARK SMILES IDX 91 25 20 26 21 27 22 28 23 29 24 30 25 31 26 32 27 33 28 34
REMARK SMILES IDX 89 35 29 36 88 37 30 38 31 39 32 40 82 41 33 42 87 43 81 44
REMARK SMILES IDX 83 45 34 46 86 47 80 48 79 49 35 51 67 52 47 53 66 54 48 55
REMARK SMILES IDX 51 56 65 57 84 58 49 59 50 60 64 62 85 63 52 64 36 65 37 66
REMARK SMILES IDX 45 67 38 68 39 69 43 70 46 71 40 72 41 73 44 74 42 75 68 76
REMARK SMILES IDX 69 77 77 78 70 79 71 80 75 81 78 82 72 83 73 84 76 85 74 86
REMARK SMILES IDX 53 87 54 88 62 89 55 90 56 91 60 92 63 93 57 94 58 95 61 96
REMARK SMILES IDX 59 97
REMARK H PARENT 5 16 83 50 51 61
REMARK Flexibility Score: inf
ROOT
ATOM      1  C   UNL A   1      43.117  18.856  25.376  1.00  0.00     0.188 C 
ENDROOT
BRANCH   1   2
ATOM      2  O   UNL A   1      41.798  19.316  25.618  1.00  0.00    -0.376 OA
BRANCH   2   3
ATOM      3  C   UNL A   1      41.680  20.584  26.253  1.00  0.00     0.202 C 
BRANCH   3   4
ATOM      4  C   UNL A   1      40.274  21.019  26.681  1.00  0.00     0.261 C 
BRANCH   4   5
ATOM      5  O   UNL A   1      39.374  21.357  25.605  1.00  0.00    -0.463 OA
BRANCH   5   6
ATOM      6  C   UNL A   1      38.416  22.278  25.902  1.00  0.00     0.309 C 
ATOM      7  O   UNL A   1      38.624  23.339  26.482  1.00  0.00    -0.252 OA
BRANCH   6   8
ATOM      8  C   UNL A   1      37.006  21.798  25.582  1.00  0.00     0.100 C 
ATOM      9  C   UNL A   1      35.160  23.703  25.572  1.00  0.00     0.080 C 
ATOM     10  C   UNL A   1      35.381  23.684  24.087  1.00  0.00     0.013 C 
ATOM     11  C   UNL A   1      35.820  22.494  26.287  1.00  0.00     0.028 C 
ATOM     12  C   UNL A   1      36.650  23.128  23.501  1.00  0.00     0.002 C 
ATOM     13  C   UNL A   1      36.879  21.742  24.065  1.00  0.00     0.015 C 
BRANCH   9  14
ATOM     14  C   UNL A   1      33.669  23.873  26.015  1.00  0.00     0.228 C 
ATOM     15  N   UNL A   1      32.737  24.811  25.671  1.00  0.00    -0.310 N 
ATOM     16  H   UNL A   1      31.931  24.685  26.221  1.00  0.00     0.171 HD
ATOM     17  O   UNL A   1      33.229  22.989  26.775  1.00  0.00    -0.274 OA
BRANCH  15  18
ATOM     18  C   UNL A   1      32.539  25.893  24.798  1.00  0.00     0.132 A 
ATOM     19  C   UNL A   1      31.683  29.444  25.260  1.00  0.00     0.068 C 
ATOM     20  C   UNL A   1      31.697  28.070  24.656  1.00  0.00     0.054 A 
ATOM     21  N   UNL A   1      32.233  27.057  25.409  1.00  0.00    -0.235 NA
ATOM     22  C   UNL A   1      31.300  27.882  23.341  1.00  0.00     0.039 A 
ATOM     23  C   UNL A   1      31.801  26.774  22.696  1.00  0.00     0.021 A 
ATOM     24  Br  UNL A   1      30.211  29.088  22.379  1.00  0.00    -0.049 Br
ATOM     25  C   UNL A   1      32.559  25.862  23.425  1.00  0.00     0.048 A 
ENDBRANCH  15  18
ENDBRANCH   9  14
ENDBRANCH   6   8
ENDBRANCH   5   6
ENDBRANCH   4   5
ENDBRANCH   3   4
ENDBRANCH   2   3
ENDBRANCH   1   2
BRANCH   1  26
ATOM     26  C   UNL A   1      44.268  19.812  25.692  1.00  0.00     0.188 C 
BRANCH  26  27
ATOM     27  O   UNL A   1      44.819  20.565  24.617  1.00  0.00    -0.376 OA
BRANCH  27  28
ATOM     28  C   UNL A   1      45.855  21.486  24.997  1.00  0.00     0.202 C 
BRANCH  28  29
ATOM     29  C   UNL A   1      45.445  22.632  25.946  1.00  0.00     0.261 C 
BRANCH  29  30
ATOM     30  O   UNL A   1      44.948  23.809  25.270  1.00  0.00    -0.460 OA
BRANCH  30  31
ATOM     31  C   UNL A   1      43.623  23.842  24.983  1.00  0.00     0.338 C 
ATOM     32  O   UNL A   1      43.029  23.070  24.253  1.00  0.00    -0.246 OA
BRANCH  31  33
ATOM     33  C   UNL A   1      42.979  24.805  25.921  1.00  0.00     0.060 A 
ATOM     34  C   UNL A   1      43.451  26.125  25.957  1.00  0.00     0.016 A 
ATOM     35  C   UNL A   1      41.860  24.452  26.682  1.00  0.00     0.016 A 
ATOM     36  C   UNL A   1      42.832  27.081  26.768  1.00  0.00     0.010 A 
ATOM     37  C   UNL A   1      41.257  25.400  27.518  1.00  0.00     0.010 A 
ATOM     38  C   UNL A   1      41.759  26.710  27.589  1.00  0.00    -0.014 A 
BRANCH  38  39
ATOM     39  C   UNL A   1      41.338  27.602  28.699  1.00  0.00     0.031 A 
ATOM     40  C   UNL A   1      42.133  27.552  29.975  1.00  0.00     0.074 A 
ATOM     41  C   UNL A   1      40.291  28.440  28.604  1.00  0.00     0.049 A 
ATOM     42  N   UNL A   1      41.960  28.206  31.094  1.00  0.00    -0.248 NA
ATOM     43  C   UNL A   1      43.285  26.635  29.983  1.00  0.00     0.031 C 
ATOM     44  C   UNL A   1      39.460  28.628  27.419  1.00  0.00     0.029 A 
ATOM     45  N   UNL A   1      39.749  29.291  29.538  1.00  0.00    -0.354 N 
ATOM     46  C   UNL A   1      42.984  27.788  31.933  1.00  0.00     0.074 A 
ATOM     47  C   UNL A   1      43.754  26.802  31.209  1.00  0.00     0.031 C 
ATOM     48  C   UNL A   1      38.504  29.531  27.701  1.00  0.00     0.029 A 
ATOM     49  C   UNL A   1      38.639  29.964  29.094  1.00  0.00     0.049 A 
ATOM     50  H   UNL A   1      40.123  29.407  30.442  1.00  0.00     0.167 HD
ATOM     51  C   UNL A   1      43.266  28.194  33.192  1.00  0.00     0.037 A 
ATOM     52  C   UNL A   1      37.816  30.816  29.741  1.00  0.00     0.037 A 
ATOM     53  C   UNL A   1      42.494  29.154  33.932  1.00  0.00     0.049 A 
ATOM     54  C   UNL A   1      38.084  31.176  31.182  1.00  0.00     0.074 A 
ATOM     55  C   UNL A   1      42.717  29.637  35.209  1.00  0.00     0.029 A 
ATOM     56  N   UNL A   1      41.337  29.762  33.468  1.00  0.00    -0.354 N 
ATOM     57  N   UNL A   1      39.072  30.803  31.959  1.00  0.00    -0.248 NA
ATOM     58  C   UNL A   1      37.119  32.074  31.837  1.00  0.00     0.031 C 
ATOM     59  C   UNL A   1      41.660  30.489  35.542  1.00  0.00     0.029 A 
ATOM     60  C   UNL A   1      40.811  30.585  34.451  1.00  0.00     0.049 A 
ATOM     61  H   UNL A   1      40.948  29.629  32.574  1.00  0.00     0.167 HD
ATOM     62  C   UNL A   1      38.860  31.431  33.182  1.00  0.00     0.074 A 
ATOM     63  C   UNL A   1      37.653  32.219  33.043  1.00  0.00     0.031 C 
ATOM     64  C   UNL A   1      39.603  31.361  34.314  1.00  0.00     0.037 A 
BRANCH  51  65
ATOM     65  C   UNL A   1      44.448  27.561  33.863  1.00  0.00     0.064 A 
ATOM     66  C   UNL A   1      45.721  28.149  33.819  1.00  0.00     0.173 A 
ATOM     67  C   UNL A   1      44.302  26.356  34.565  1.00  0.00     0.173 A 
ATOM     68  F   UNL A   1      45.915  29.292  33.142  1.00  0.00    -0.203 F 
ATOM     69  C   UNL A   1      46.812  27.538  34.430  1.00  0.00     0.198 A 
ATOM     70  C   UNL A   1      45.388  25.764  35.202  1.00  0.00     0.198 A 
ATOM     71  F   UNL A   1      43.105  25.756  34.636  1.00  0.00    -0.203 F 
ATOM     72  F   UNL A   1      48.030  28.089  34.332  1.00  0.00    -0.200 F 
ATOM     73  C   UNL A   1      46.643  26.350  35.126  1.00  0.00     0.200 A 
ATOM     74  F   UNL A   1      45.222  24.621  35.882  1.00  0.00    -0.200 F 
ATOM     75  F   UNL A   1      47.694  25.764  35.718  1.00  0.00    -0.200 F 
ENDBRANCH  51  65
BRANCH  52  76
ATOM     76  C   UNL A   1      36.649  31.389  29.021  1.00  0.00     0.064 A 
ATOM     77  C   UNL A   1      35.527  30.605  28.725  1.00  0.00     0.173 A 
ATOM     78  C   UNL A   1      36.625  32.738  28.636  1.00  0.00     0.173 A 
ATOM     79  F   UNL A   1      35.519  29.303  29.041  1.00  0.00    -0.203 F 
ATOM     80  C   UNL A   1      34.419  31.151  28.079  1.00  0.00     0.198 A 
ATOM     81  C   UNL A   1      35.508  33.289  28.011  1.00  0.00     0.198 A 
ATOM     82  F   UNL A   1      37.682  33.526  28.883  1.00  0.00    -0.203 F 
ATOM     83  F   UNL A   1      33.366  30.375  27.787  1.00  0.00    -0.200 F 
ATOM     84  C   UNL A   1      34.405  32.494  27.734  1.00  0.00     0.200 A 
ATOM     85  F   UNL A   1      35.498  34.586  27.682  1.00  0.00    -0.200 F 
ATOM     86  F   UNL A   1      33.333  33.022  27.127  1.00  0.00    -0.200 F 
ENDBRANCH  52  76
BRANCH  64  87
ATOM     87  C   UNL A   1      39.155  32.155  35.508  1.00  0.00     0.064 A 
ATOM     88  C   UNL A   1      38.421  31.566  36.547  1.00  0.00     0.173 A 
ATOM     89  C   UNL A   1      39.550  33.495  35.662  1.00  0.00     0.173 A 
ATOM     90  F   UNL A   1      38.011  30.293  36.447  1.00  0.00    -0.203 F 
ATOM     91  C   UNL A   1      38.092  32.289  37.692  1.00  0.00     0.198 A 
ATOM     92  C   UNL A   1      39.243  34.205  36.821  1.00  0.00     0.198 A 
ATOM     93  F   UNL A   1      40.263  34.103  34.704  1.00  0.00    -0.203 F 
ATOM     94  F   UNL A   1      37.368  31.712  38.662  1.00  0.00    -0.200 F 
ATOM     95  C   UNL A   1      38.513  33.603  37.833  1.00  0.00     0.200 A 
ATOM     96  F   UNL A   1      39.668  35.468  36.962  1.00  0.00    -0.200 F 
ATOM     97  F   UNL A   1      38.216  34.288  38.946  1.00  0.00    -0.200 F 
ENDBRANCH  64  87
ENDBRANCH  38  39
ENDBRANCH  31  33
ENDBRANCH  30  31
ENDBRANCH  29  30
ENDBRANCH  28  29
ENDBRANCH  27  28
ENDBRANCH  26  27
ENDBRANCH   1  26
TORSDOF 19
ENDMDL
MODEL 3
REMARK VINA RESULT:     -10.6      3.733      9.118
REMARK SMILES Cc1nc(NC(=O)[C@@H]2CCC[C@@H](C(=O)OCCOCCOCCOC(=O)c3ccc(-c4c5nc(c(-c6c(F)c(F)c(F)c(F)c6F)c6ccc([nH]6)c(-c6c(F)c(F)c(F)c(F)c6F)c6nc(c(-c7c(F)c(F)c(F)c(F)c7F)c7ccc4[nH]7)C=C6)C=C5)cc3)C2)ccc1Br
REMARK SMILES IDX 19 1 18 2 17 3 16 4 15 5 13 6 14 7 12 8 8 9 9 10 90 11 10 12
REMARK SMILES IDX 11 13 6 14 5 15 7 17 4 18 1 19 2 20 3 21 93 22 92 23 94 24
REMARK SMILES IDX 91 25 20 26 21 27 22 28 23 29 24 30 25 31 26 32 27 33 28 34
REMARK SMILES IDX 89 35 29 36 88 37 30 38 31 39 32 40 82 41 33 42 87 43 81 44
REMARK SMILES IDX 83 45 34 46 86 47 80 48 79 49 35 51 67 52 47 53 66 54 48 55
REMARK SMILES IDX 51 56 65 57 84 58 49 59 50 60 64 62 85 63 52 64 36 65 37 66
REMARK SMILES IDX 45 67 38 68 39 69 43 70 46 71 40 72 41 73 44 74 42 75 68 76
REMARK SMILES IDX 69 77 77 78 70 79 71 80 75 81 78 82 72 83 73 84 76 85 74 86
REMARK SMILES IDX 53 87 54 88 62 89 55 90 56 91 60 92 63 93 57 94 58 95 61 96
REMARK SMILES IDX 59 97
REMARK H PARENT 5 16 83 50 51 61
REMARK Flexibility Score: inf
ROOT
ATOM      1  C   UNL A   1      29.304  30.627  23.726  1.00  0.00     0.188 C 
ENDROOT
BRANCH   1   2
ATOM      2  O   UNL A   1      30.263  29.799  23.088  1.00  0.00    -0.376 OA
BRANCH   2   3
ATOM      3  C   UNL A   1      30.825  28.760  23.882  1.00  0.00     0.202 C 
BRANCH   3   4
ATOM      4  C   UNL A   1      32.321  28.861  24.202  1.00  0.00     0.261 C 
BRANCH   4   5
ATOM      5  O   UNL A   1      32.977  27.611  24.498  1.00  0.00    -0.463 OA
BRANCH   5   6
ATOM      6  C   UNL A   1      33.549  26.977  23.437  1.00  0.00     0.309 C 
ATOM      7  O   UNL A   1      33.965  27.538  22.429  1.00  0.00    -0.252 OA
BRANCH   6   8
ATOM      8  C   UNL A   1      33.486  25.458  23.545  1.00  0.00     0.100 C 
ATOM      9  C   UNL A   1      31.639  24.538  25.211  1.00  0.00     0.080 C 
ATOM     10  C   UNL A   1      30.826  24.369  23.960  1.00  0.00     0.013 C 
ATOM     11  C   UNL A   1      33.133  24.837  24.915  1.00  0.00     0.028 C 
ATOM     12  C   UNL A   1      31.155  25.146  22.714  1.00  0.00     0.002 C 
ATOM     13  C   UNL A   1      32.622  24.956  22.395  1.00  0.00     0.015 C 
BRANCH   9  14
ATOM     14  C   UNL A   1      31.493  23.381  26.254  1.00  0.00     0.228 C 
ATOM     15  N   UNL A   1      31.930  22.087  26.218  1.00  0.00    -0.310 N 
ATOM     16  H   UNL A   1      31.569  21.600  26.994  1.00  0.00     0.171 HD
ATOM     17  O   UNL A   1      30.926  23.685  27.321  1.00  0.00    -0.274 OA
BRANCH  15  18
ATOM     18  C   UNL A   1      32.719  21.215  25.449  1.00  0.00     0.132 A 
ATOM     19  C   UNL A   1      32.014  18.228  23.416  1.00  0.00     0.068 C 
ATOM     20  C   UNL A   1      32.729  19.143  24.366  1.00  0.00     0.054 A 
ATOM     21  N   UNL A   1      32.032  20.221  24.848  1.00  0.00    -0.235 NA
ATOM     22  C   UNL A   1      34.079  18.959  24.627  1.00  0.00     0.039 A 
ATOM     23  C   UNL A   1      34.781  20.063  25.055  1.00  0.00     0.021 A 
ATOM     24  Br  UNL A   1      35.003  17.337  24.343  1.00  0.00    -0.049 Br
ATOM     25  C   UNL A   1      34.086  21.240  25.312  1.00  0.00     0.048 A 
ENDBRANCH  15  18
ENDBRANCH   9  14
ENDBRANCH   6   8
ENDBRANCH   5   6
ENDBRANCH   4   5
ENDBRANCH   3   4
ENDBRANCH   2   3
ENDBRANCH   1   2
BRANCH   1  26
ATOM     26  C   UNL A   1      29.825  31.825  24.521  1.00  0.00     0.188 C 
BRANCH  26  27
ATOM     27  O   UNL A   1      30.632  31.563  25.664  1.00  0.00    -0.376 OA
BRANCH  27  28
ATOM     28  C   UNL A   1      31.123  32.736  26.335  1.00  0.00     0.202 C 
BRANCH  28  29
ATOM     29  C   UNL A   1      32.586  32.688  26.824  1.00  0.00     0.261 C 
BRANCH  29  30
ATOM     30  O   UNL A   1      32.805  33.340  28.095  1.00  0.00    -0.460 OA
BRANCH  30  31
ATOM     31  C   UNL A   1      33.889  34.148  28.195  1.00  0.00     0.338 C 
ATOM     32  O   UNL A   1      33.879  35.366  28.173  1.00  0.00    -0.246 OA
BRANCH  31  33
ATOM     33  C   UNL A   1      35.047  33.308  28.611  1.00  0.00     0.060 A 
ATOM     34  C   UNL A   1      34.804  31.995  29.041  1.00  0.00     0.016 A 
ATOM     35  C   UNL A   1      36.365  33.760  28.487  1.00  0.00     0.016 A 
ATOM     36  C   UNL A   1      35.865  31.147  29.374  1.00  0.00     0.010 A 
ATOM     37  C   UNL A   1      37.427  32.922  28.847  1.00  0.00     0.010 A 
ATOM     38  C   UNL A   1      37.181  31.623  29.323  1.00  0.00    -0.014 A 
BRANCH  38  39
ATOM     39  C   UNL A   1      38.263  30.870  30.006  1.00  0.00     0.031 A 
ATOM     40  C   UNL A   1      38.529  31.187  31.452  1.00  0.00     0.074 A 
ATOM     41  C   UNL A   1      38.998  29.929  29.389  1.00  0.00     0.049 A 
ATOM     42  N   UNL A   1      39.427  30.694  32.265  1.00  0.00    -0.248 NA
ATOM     43  C   UNL A   1      37.655  32.202  32.062  1.00  0.00     0.031 C 
ATOM     44  C   UNL A   1      38.825  29.486  28.009  1.00  0.00     0.029 A 
ATOM     45  N   UNL A   1      40.052  29.178  29.856  1.00  0.00    -0.354 N 
ATOM     46  C   UNL A   1      39.220  31.330  33.481  1.00  0.00     0.074 A 
ATOM     47  C   UNL A   1      38.135  32.267  33.294  1.00  0.00     0.031 C 
ATOM     48  C   UNL A   1      39.748  28.546  27.737  1.00  0.00     0.029 A 
ATOM     49  C   UNL A   1      40.595  28.342  28.914  1.00  0.00     0.049 A 
ATOM     50  H   UNL A   1      40.384  29.235  30.781  1.00  0.00     0.167 HD
ATOM     51  C   UNL A   1      39.868  31.146  34.654  1.00  0.00     0.037 A 
ATOM     52  C   UNL A   1      41.663  27.520  28.988  1.00  0.00     0.037 A 
ATOM     53  C   UNL A   1      40.963  30.237  34.847  1.00  0.00     0.049 A 
ATOM     54  C   UNL A   1      42.442  27.407  30.275  1.00  0.00     0.074 A 
ATOM     55  C   UNL A   1      41.669  29.974  36.007  1.00  0.00     0.029 A 
ATOM     56  N   UNL A   1      41.527  29.457  33.849  1.00  0.00    -0.354 N 
ATOM     57  N   UNL A   1      42.222  27.986  31.431  1.00  0.00    -0.248 NA
ATOM     58  C   UNL A   1      43.622  26.527  30.267  1.00  0.00     0.031 C 
ATOM     59  C   UNL A   1      42.700  29.082  35.697  1.00  0.00     0.029 A 
ATOM     60  C   UNL A   1      42.600  28.742  34.357  1.00  0.00     0.049 A 
ATOM     61  H   UNL A   1      41.211  29.416  32.917  1.00  0.00     0.167 HD
ATOM     62  C   UNL A   1      43.217  27.530  32.288  1.00  0.00     0.074 A 
ATOM     63  C   UNL A   1      44.040  26.617  31.523  1.00  0.00     0.031 C 
ATOM     64  C   UNL A   1      43.424  27.841  33.592  1.00  0.00     0.037 A 
BRANCH  51  65
ATOM     65  C   UNL A   1      39.424  31.984  35.815  1.00  0.00     0.064 A 
ATOM     66  C   UNL A   1      38.434  31.543  36.706  1.00  0.00     0.173 A 
ATOM     67  C   UNL A   1      40.003  33.241  36.044  1.00  0.00     0.173 A 
ATOM     68  F   UNL A   1      37.837  30.356  36.518  1.00  0.00    -0.203 F 
ATOM     69  C   UNL A   1      38.020  32.341  37.768  1.00  0.00     0.198 A 
ATOM     70  C   UNL A   1      39.609  34.023  37.124  1.00  0.00     0.198 A 
ATOM     71  F   UNL A   1      40.954  33.707  35.220  1.00  0.00    -0.203 F 
ATOM     72  F   UNL A   1      37.037  31.923  38.576  1.00  0.00    -0.200 F 
ATOM     73  C   UNL A   1      38.613  33.578  37.979  1.00  0.00     0.200 A 
ATOM     74  F   UNL A   1      40.189  35.214  37.333  1.00  0.00    -0.200 F 
ATOM     75  F   UNL A   1      38.216  34.345  39.004  1.00  0.00    -0.200 F 
ENDBRANCH  51  65
BRANCH  52  76
ATOM     76  C   UNL A   1      42.061  26.735  27.790  1.00  0.00     0.064 A 
ATOM     77  C   UNL A   1      42.991  27.239  26.872  1.00  0.00     0.173 A 
ATOM     78  C   UNL A   1      41.536  25.455  27.554  1.00  0.00     0.173 A 
ATOM     79  F   UNL A   1      43.493  28.471  27.036  1.00  0.00    -0.203 F 
ATOM     80  C   UNL A   1      43.389  26.489  25.766  1.00  0.00     0.198 A 
ATOM     81  C   UNL A   1      41.951  24.697  26.460  1.00  0.00     0.198 A 
ATOM     82  F   UNL A   1      40.630  24.935  28.395  1.00  0.00    -0.203 F 
ATOM     83  F   UNL A   1      44.263  27.002  24.890  1.00  0.00    -0.200 F 
ATOM     84  C   UNL A   1      42.878  25.215  25.568  1.00  0.00     0.200 A 
ATOM     85  F   UNL A   1      41.457  23.466  26.275  1.00  0.00    -0.200 F 
ATOM     86  F   UNL A   1      43.273  24.488  24.514  1.00  0.00    -0.200 F 
ENDBRANCH  52  76
BRANCH  64  87
ATOM     87  C   UNL A   1      44.580  27.194  34.300  1.00  0.00     0.064 A 
ATOM     88  C   UNL A   1      45.843  27.802  34.352  1.00  0.00     0.173 A 
ATOM     89  C   UNL A   1      44.398  26.002  35.021  1.00  0.00     0.173 A 
ATOM     90  F   UNL A   1      46.074  28.937  33.675  1.00  0.00    -0.203 F 
ATOM     91  C   UNL A   1      46.881  27.239  35.091  1.00  0.00     0.198 A 
ATOM     92  C   UNL A   1      45.430  25.457  35.781  1.00  0.00     0.198 A 
ATOM     93  F   UNL A   1      43.208  25.384  35.015  1.00  0.00    -0.203 F 
ATOM     94  F   UNL A   1      48.086  27.826  35.105  1.00  0.00    -0.200 F 
ATOM     95  C   UNL A   1      46.671  26.074  35.814  1.00  0.00     0.200 A 
ATOM     96  F   UNL A   1      45.219  24.342  36.494  1.00  0.00    -0.200 F 
ATOM     97  F   UNL A   1      47.664  25.547  36.543  1.00  0.00    -0.200 F 
ENDBRANCH  64  87
ENDBRANCH  38  39
ENDBRANCH  31  33
ENDBRANCH  30  31
ENDBRANCH  29  30
ENDBRANCH  28  29
ENDBRANCH  27  28
ENDBRANCH  26  27
ENDBRANCH   1  26
TORSDOF 19
ENDMDL
