MODEL 1
REMARK VINA RESULT:     -11.9      0.000      0.000
REMARK SMILES COc1ccc(-n2ncc([C@H]3CC(=O)Nc4n[nH]c(C(=O)OCCOCCOCCOC(=O)c5ccc(-c6c7nc(c(-c8c(F)c(F)c(F)c(F)c8F)c8ccc([nH]8)c(-c8c(F)c(F)c(F)c(F)c8F)c8nc(c(-c9c(F)c(F)c(F)c(F)c9F)c9ccc6[nH]9)C=C8)C=C7)cc5)c43)c2C)cc1
REMARK SMILES IDX 26 1 25 2 24 3 23 4 22 5 20 6 21 7 19 8 11 9 12 10 97 11
REMARK SMILES IDX 13 12 16 13 14 14 15 15 17 16 18 17 10 20 7 21 8 22 98 23
REMARK SMILES IDX 9 24 99 25 6 26 3 27 4 28 101 29 5 30 100 31 2 32 1 33 27 34
REMARK SMILES IDX 28 35 29 36 30 37 31 38 32 39 33 40 34 41 35 42 96 43 36 44
REMARK SMILES IDX 95 45 37 46 38 47 39 48 89 49 40 50 94 51 88 52 90 53 41 54
REMARK SMILES IDX 93 55 87 56 86 57 42 59 74 60 54 61 73 62 55 63 58 64 72 65
REMARK SMILES IDX 91 66 56 67 57 68 71 70 92 71 59 72 43 73 44 74 52 75 45 76
REMARK SMILES IDX 46 77 50 78 53 79 47 80 48 81 51 82 49 83 75 84 76 85 84 86
REMARK SMILES IDX 77 87 78 88 82 89 85 90 79 91 80 92 83 93 81 94 60 95 61 96
REMARK SMILES IDX 69 97 62 98 63 99 67 100 70 101 64 102 65 103 68 104 66 105
REMARK H PARENT 15 18 18 19 90 58 58 69
REMARK Flexibility Score: inf
ROOT
ATOM      1  C   UNL A   1      31.358  26.548  26.595  1.00  0.00     0.188 C 
ENDROOT
BRANCH   1   2
ATOM      2  O   UNL A   1      30.010  26.107  26.583  1.00  0.00    -0.376 OA
BRANCH   2   3
ATOM      3  C   UNL A   1      29.806  24.797  26.052  1.00  0.00     0.202 C 
BRANCH   3   4
ATOM      4  C   UNL A   1      31.090  24.018  25.736  1.00  0.00     0.261 C 
BRANCH   4   5
ATOM      5  O   UNL A   1      30.865  22.626  25.455  1.00  0.00    -0.459 OA
BRANCH   5   6
ATOM      6  C   UNL A   1      31.795  21.994  24.706  1.00  0.00     0.356 C 
ATOM      7  O   UNL A   1      31.654  21.686  23.532  1.00  0.00    -0.244 OA
BRANCH   6   8
ATOM      8  C   UNL A   1      33.035  21.864  25.429  1.00  0.00     0.149 A 
ATOM      9  C   UNL A   1      35.141  22.343  23.871  1.00  0.00     0.068 C 
ATOM     10  C   UNL A   1      36.653  22.540  24.101  1.00  0.00     0.114 C 
ATOM     11  C   UNL A   1      34.388  21.991  25.121  1.00  0.00     0.037 A 
ATOM     12  C   UNL A   1      37.184  22.477  25.528  1.00  0.00     0.226 C 
ATOM     13  C   UNL A   1      35.041  21.828  26.351  1.00  0.00     0.159 A 
ATOM     14  O   UNL A   1      38.352  22.780  25.777  1.00  0.00    -0.275 OA
ATOM     15  N   UNL A   1      36.370  22.042  26.526  1.00  0.00    -0.309 N 
ATOM     16  N   UNL A   1      34.219  21.521  27.345  1.00  0.00    -0.157 NA
ATOM     17  N   UNL A   1      33.009  21.572  26.769  1.00  0.00    -0.269 N 
ATOM     18  H   UNL A   1      36.761  21.876  27.415  1.00  0.00     0.171 HD
ATOM     19  H   UNL A   1      32.173  21.413  27.266  1.00  0.00     0.190 HD
BRANCH   9  20
ATOM     20  C   UNL A   1      34.505  23.522  23.193  1.00  0.00     0.002 A 
ATOM     21  N   UNL A   1      33.347  25.364  22.812  1.00  0.00    -0.238 N 
ATOM     22  N   UNL A   1      33.145  24.595  21.717  1.00  0.00    -0.176 NA
ATOM     23  C   UNL A   1      34.224  24.779  23.714  1.00  0.00     0.045 A 
ATOM     24  C   UNL A   1      33.908  23.524  21.916  1.00  0.00     0.140 A 
ATOM     25  C   UNL A   1      34.573  25.336  25.051  1.00  0.00     0.067 C 
BRANCH  21  26
ATOM     26  C   UNL A   1      32.496  26.455  23.076  1.00  0.00     0.065 A 
ATOM     27  C   UNL A   1      30.889  28.699  23.256  1.00  0.00     0.119 A 
ATOM     28  C   UNL A   1      30.312  27.455  22.997  1.00  0.00     0.048 A 
ATOM     29  C   UNL A   1      32.259  28.816  23.497  1.00  0.00     0.048 A 
ATOM     30  C   UNL A   1      31.119  26.326  22.885  1.00  0.00     0.032 A 
ATOM     31  C   UNL A   1      33.070  27.684  23.421  1.00  0.00     0.032 A 
BRANCH  27  32
ATOM     32  O   UNL A   1      30.044  29.775  23.300  1.00  0.00    -0.497 OA
ATOM     33  C   UNL A   1      29.605  30.157  21.997  1.00  0.00     0.278 C 
ENDBRANCH  27  32
ENDBRANCH  21  26
ENDBRANCH   9  20
ENDBRANCH   6   8
ENDBRANCH   5   6
ENDBRANCH   4   5
ENDBRANCH   3   4
ENDBRANCH   2   3
ENDBRANCH   1   2
BRANCH   1  34
ATOM     34  C   UNL A   1      31.675  27.722  27.545  1.00  0.00     0.188 C 
BRANCH  34  35
ATOM     35  O   UNL A   1      32.704  28.670  27.280  1.00  0.00    -0.376 OA
BRANCH  35  36
ATOM     36  C   UNL A   1      32.407  30.021  26.955  1.00  0.00     0.202 C 
BRANCH  36  37
ATOM     37  C   UNL A   1      33.527  31.055  26.912  1.00  0.00     0.261 C 
BRANCH  37  38
ATOM     38  O   UNL A   1      34.731  30.602  27.509  1.00  0.00    -0.460 OA
BRANCH  38  39
ATOM     39  C   UNL A   1      35.521  31.597  27.958  1.00  0.00     0.338 C 
ATOM     40  O   UNL A   1      35.510  32.767  27.614  1.00  0.00    -0.246 OA
BRANCH  39  41
ATOM     41  C   UNL A   1      36.468  31.055  28.940  1.00  0.00     0.060 A 
ATOM     42  C   UNL A   1      37.582  31.846  29.234  1.00  0.00     0.016 A 
ATOM     43  C   UNL A   1      36.377  29.718  29.349  1.00  0.00     0.016 A 
ATOM     44  C   UNL A   1      38.712  31.230  29.718  1.00  0.00     0.010 A 
ATOM     45  C   UNL A   1      37.510  29.098  29.823  1.00  0.00     0.010 A 
ATOM     46  C   UNL A   1      38.687  29.845  29.897  1.00  0.00    -0.014 A 
BRANCH  46  47
ATOM     47  C   UNL A   1      39.965  29.170  29.990  1.00  0.00     0.031 A 
ATOM     48  C   UNL A   1      40.563  29.066  31.333  1.00  0.00     0.074 A 
ATOM     49  C   UNL A   1      40.508  28.596  28.900  1.00  0.00     0.049 A 
ATOM     50  N   UNL A   1      41.725  29.477  31.723  1.00  0.00    -0.248 NA
ATOM     51  C   UNL A   1      39.740  28.466  32.390  1.00  0.00     0.031 C 
ATOM     52  C   UNL A   1      39.869  28.360  27.600  1.00  0.00     0.029 A 
ATOM     53  N   UNL A   1      41.721  27.993  28.768  1.00  0.00    -0.354 N 
ATOM     54  C   UNL A   1      41.848  29.049  33.038  1.00  0.00     0.074 A 
ATOM     55  C   UNL A   1      40.561  28.538  33.436  1.00  0.00     0.031 C 
ATOM     56  C   UNL A   1      40.618  27.485  26.894  1.00  0.00     0.029 A 
ATOM     57  C   UNL A   1      41.832  27.199  27.639  1.00  0.00     0.049 A 
ATOM     58  H   UNL A   1      42.453  28.111  29.416  1.00  0.00     0.167 HD
ATOM     59  C   UNL A   1      43.057  28.950  33.651  1.00  0.00     0.037 A 
ATOM     60  C   UNL A   1      42.812  26.300  27.387  1.00  0.00     0.037 A 
ATOM     61  C   UNL A   1      44.062  29.746  33.003  1.00  0.00     0.049 A 
ATOM     62  C   UNL A   1      43.963  26.617  28.267  1.00  0.00     0.074 A 
ATOM     63  C   UNL A   1      44.216  31.095  32.751  1.00  0.00     0.029 A 
ATOM     64  N   UNL A   1      44.993  29.114  32.219  1.00  0.00    -0.354 N 
ATOM     65  N   UNL A   1      44.732  27.662  28.137  1.00  0.00    -0.248 NA
ATOM     66  C   UNL A   1      44.045  25.940  29.554  1.00  0.00     0.031 C 
ATOM     67  C   UNL A   1      44.909  31.173  31.510  1.00  0.00     0.029 A 
ATOM     68  C   UNL A   1      45.146  29.866  31.083  1.00  0.00     0.049 A 
ATOM     69  H   UNL A   1      45.464  28.276  32.432  1.00  0.00     0.167 HD
ATOM     70  C   UNL A   1      45.079  28.010  29.434  1.00  0.00     0.074 A 
ATOM     71  C   UNL A   1      44.736  26.849  30.245  1.00  0.00     0.031 C 
ATOM     72  C   UNL A   1      45.348  29.305  29.766  1.00  0.00     0.037 A 
BRANCH  59  73
ATOM     73  C   UNL A   1      43.380  27.883  34.657  1.00  0.00     0.064 A 
ATOM     74  C   UNL A   1      43.683  28.240  35.982  1.00  0.00     0.173 A 
ATOM     75  C   UNL A   1      43.664  26.547  34.298  1.00  0.00     0.173 A 
ATOM     76  F   UNL A   1      43.496  29.497  36.410  1.00  0.00    -0.203 F 
ATOM     77  C   UNL A   1      44.261  27.332  36.873  1.00  0.00     0.198 A 
ATOM     78  C   UNL A   1      44.184  25.627  35.205  1.00  0.00     0.198 A 
ATOM     79  F   UNL A   1      43.549  26.114  33.036  1.00  0.00    -0.203 F 
ATOM     80  F   UNL A   1      44.635  27.742  38.092  1.00  0.00    -0.200 F 
ATOM     81  C   UNL A   1      44.507  26.026  36.485  1.00  0.00     0.200 A 
ATOM     82  F   UNL A   1      44.437  24.374  34.803  1.00  0.00    -0.200 F 
ATOM     83  F   UNL A   1      45.101  25.167  37.324  1.00  0.00    -0.200 F 
ENDBRANCH  59  73
BRANCH  60  84
ATOM     84  C   UNL A   1      42.703  25.023  26.645  1.00  0.00     0.064 A 
ATOM     85  C   UNL A   1      43.472  24.788  25.496  1.00  0.00     0.173 A 
ATOM     86  C   UNL A   1      42.030  23.911  27.189  1.00  0.00     0.173 A 
ATOM     87  F   UNL A   1      44.184  25.782  24.945  1.00  0.00    -0.203 F 
ATOM     88  C   UNL A   1      43.575  23.512  24.933  1.00  0.00     0.198 A 
ATOM     89  C   UNL A   1      42.120  22.642  26.617  1.00  0.00     0.198 A 
ATOM     90  F   UNL A   1      41.348  24.011  28.339  1.00  0.00    -0.203 F 
ATOM     91  F   UNL A   1      44.369  23.312  23.872  1.00  0.00    -0.200 F 
ATOM     92  C   UNL A   1      42.903  22.440  25.498  1.00  0.00     0.200 A 
ATOM     93  F   UNL A   1      41.493  21.608  27.195  1.00  0.00    -0.200 F 
ATOM     94  F   UNL A   1      43.043  21.208  24.989  1.00  0.00    -0.200 F 
ENDBRANCH  60  84
BRANCH  72  95
ATOM     95  C   UNL A   1      45.587  30.273  28.645  1.00  0.00     0.064 A 
ATOM     96  C   UNL A   1      44.557  30.936  27.956  1.00  0.00     0.173 A 
ATOM     97  C   UNL A   1      46.907  30.644  28.352  1.00  0.00     0.173 A 
ATOM     98  F   UNL A   1      43.272  30.712  28.259  1.00  0.00    -0.203 F 
ATOM     99  C   UNL A   1      44.841  31.888  26.978  1.00  0.00     0.198 A 
ATOM    100  C   UNL A   1      47.187  31.621  27.401  1.00  0.00     0.198 A 
ATOM    101  F   UNL A   1      47.928  30.088  29.024  1.00  0.00    -0.203 F 
ATOM    102  F   UNL A   1      43.842  32.495  26.323  1.00  0.00    -0.200 F 
ATOM    103  C   UNL A   1      46.155  32.234  26.706  1.00  0.00     0.200 A 
ATOM    104  F   UNL A   1      48.455  31.991  27.176  1.00  0.00    -0.200 F 
ATOM    105  F   UNL A   1      46.427  33.178  25.794  1.00  0.00    -0.200 F 
ENDBRANCH  72  95
ENDBRANCH  46  47
ENDBRANCH  39  41
ENDBRANCH  38  39
ENDBRANCH  37  38
ENDBRANCH  36  37
ENDBRANCH  35  36
ENDBRANCH  34  35
ENDBRANCH   1  34
TORSDOF 20
ENDMDL
MODEL 2
REMARK VINA RESULT:     -11.7      3.107      8.364
REMARK SMILES COc1ccc(-n2ncc([C@H]3CC(=O)Nc4n[nH]c(C(=O)OCCOCCOCCOC(=O)c5ccc(-c6c7nc(c(-c8c(F)c(F)c(F)c(F)c8F)c8ccc([nH]8)c(-c8c(F)c(F)c(F)c(F)c8F)c8nc(c(-c9c(F)c(F)c(F)c(F)c9F)c9ccc6[nH]9)C=C8)C=C7)cc5)c43)c2C)cc1
REMARK SMILES IDX 26 1 25 2 24 3 23 4 22 5 20 6 21 7 19 8 11 9 12 10 97 11
REMARK SMILES IDX 13 12 16 13 14 14 15 15 17 16 18 17 10 20 7 21 8 22 98 23
REMARK SMILES IDX 9 24 99 25 6 26 3 27 4 28 101 29 5 30 100 31 2 32 1 33 27 34
REMARK SMILES IDX 28 35 29 36 30 37 31 38 32 39 33 40 34 41 35 42 96 43 36 44
REMARK SMILES IDX 95 45 37 46 38 47 39 48 89 49 40 50 94 51 88 52 90 53 41 54
REMARK SMILES IDX 93 55 87 56 86 57 42 59 74 60 54 61 73 62 55 63 58 64 72 65
REMARK SMILES IDX 91 66 56 67 57 68 71 70 92 71 59 72 43 73 44 74 52 75 45 76
REMARK SMILES IDX 46 77 50 78 53 79 47 80 48 81 51 82 49 83 75 84 76 85 84 86
REMARK SMILES IDX 77 87 78 88 82 89 85 90 79 91 80 92 83 93 81 94 60 95 61 96
REMARK SMILES IDX 69 97 62 98 63 99 67 100 70 101 64 102 65 103 68 104 66 105
REMARK H PARENT 15 18 18 19 90 58 58 69
REMARK Flexibility Score: inf
ROOT
ATOM      1  C   UNL A   1      40.048  21.065  26.006  1.00  0.00     0.188 C 
ENDROOT
BRANCH   1   2
ATOM      2  O   UNL A   1      39.454  21.877  27.005  1.00  0.00    -0.376 OA
BRANCH   2   3
ATOM      3  C   UNL A   1      39.643  23.283  26.835  1.00  0.00     0.202 C 
BRANCH   3   4
ATOM      4  C   UNL A   1      38.363  24.079  26.542  1.00  0.00     0.261 C 
BRANCH   4   5
ATOM      5  O   UNL A   1      37.690  23.666  25.341  1.00  0.00    -0.459 OA
BRANCH   5   6
ATOM      6  C   UNL A   1      36.344  23.569  25.396  1.00  0.00     0.356 C 
ATOM      7  O   UNL A   1      35.576  24.520  25.395  1.00  0.00    -0.244 OA
BRANCH   6   8
ATOM      8  C   UNL A   1      35.923  22.194  25.303  1.00  0.00     0.149 A 
ATOM      9  C   UNL A   1      33.279  21.955  25.513  1.00  0.00     0.068 C 
ATOM     10  C   UNL A   1      32.261  20.815  25.308  1.00  0.00     0.114 C 
ATOM     11  C   UNL A   1      34.706  21.518  25.353  1.00  0.00     0.037 A 
ATOM     12  C   UNL A   1      32.779  19.452  24.866  1.00  0.00     0.226 C 
ATOM     13  C   UNL A   1      35.039  20.183  25.081  1.00  0.00     0.159 A 
ATOM     14  O   UNL A   1      31.995  18.558  24.541  1.00  0.00    -0.275 OA
ATOM     15  N   UNL A   1      34.117  19.209  24.872  1.00  0.00    -0.309 N 
ATOM     16  N   UNL A   1      36.345  19.981  24.970  1.00  0.00    -0.157 NA
ATOM     17  N   UNL A   1      36.857  21.215  25.083  1.00  0.00    -0.269 N 
ATOM     18  H   UNL A   1      34.430  18.289  24.718  1.00  0.00     0.171 HD
ATOM     19  H   UNL A   1      37.822  21.401  25.015  1.00  0.00     0.190 HD
BRANCH   9  20
ATOM     20  C   UNL A   1      32.995  23.142  24.639  1.00  0.00     0.002 A 
ATOM     21  N   UNL A   1      32.090  24.971  23.793  1.00  0.00    -0.238 N 
ATOM     22  N   UNL A   1      32.449  24.233  22.717  1.00  0.00    -0.176 NA
ATOM     23  C   UNL A   1      32.462  24.375  24.990  1.00  0.00     0.045 A 
ATOM     24  C   UNL A   1      33.065  23.172  23.230  1.00  0.00     0.140 A 
ATOM     25  C   UNL A   1      32.127  24.896  26.345  1.00  0.00     0.067 C 
BRANCH  21  26
ATOM     26  C   UNL A   1      31.179  26.035  23.648  1.00  0.00     0.065 A 
ATOM     27  C   UNL A   1      29.356  28.019  23.020  1.00  0.00     0.119 A 
ATOM     28  C   UNL A   1      28.919  26.853  23.652  1.00  0.00     0.048 A 
ATOM     29  C   UNL A   1      30.712  28.228  22.765  1.00  0.00     0.048 A 
ATOM     30  C   UNL A   1      29.829  25.843  23.951  1.00  0.00     0.032 A 
ATOM     31  C   UNL A   1      31.636  27.237  23.093  1.00  0.00     0.032 A 
BRANCH  27  32
ATOM     32  O   UNL A   1      28.400  28.946  22.707  1.00  0.00    -0.497 OA
ATOM     33  C   UNL A   1      28.977  30.205  22.361  1.00  0.00     0.278 C 
ENDBRANCH  27  32
ENDBRANCH  21  26
ENDBRANCH   9  20
ENDBRANCH   6   8
ENDBRANCH   5   6
ENDBRANCH   4   5
ENDBRANCH   3   4
ENDBRANCH   2   3
ENDBRANCH   1   2
BRANCH   1  34
ATOM     34  C   UNL A   1      41.383  20.393  26.390  1.00  0.00     0.188 C 
BRANCH  34  35
ATOM     35  O   UNL A   1      42.442  20.198  25.459  1.00  0.00    -0.376 OA
BRANCH  35  36
ATOM     36  C   UNL A   1      43.734  20.751  25.672  1.00  0.00     0.202 C 
BRANCH  36  37
ATOM     37  C   UNL A   1      44.111  22.075  25.017  1.00  0.00     0.261 C 
BRANCH  37  38
ATOM     38  O   UNL A   1      43.059  23.026  25.032  1.00  0.00    -0.460 OA
BRANCH  38  39
ATOM     39  C   UNL A   1      43.484  24.303  25.113  1.00  0.00     0.338 C 
ATOM     40  O   UNL A   1      44.444  24.803  24.551  1.00  0.00    -0.246 OA
BRANCH  39  41
ATOM     41  C   UNL A   1      42.619  25.041  26.040  1.00  0.00     0.060 A 
ATOM     42  C   UNL A   1      41.779  26.005  25.474  1.00  0.00     0.016 A 
ATOM     43  C   UNL A   1      42.822  24.954  27.423  1.00  0.00     0.016 A 
ATOM     44  C   UNL A   1      41.341  27.038  26.269  1.00  0.00     0.010 A 
ATOM     45  C   UNL A   1      42.394  25.992  28.217  1.00  0.00     0.010 A 
ATOM     46  C   UNL A   1      41.753  27.069  27.603  1.00  0.00    -0.014 A 
BRANCH  46  47
ATOM     47  C   UNL A   1      41.650  28.338  28.295  1.00  0.00     0.031 A 
ATOM     48  C   UNL A   1      42.750  29.296  28.088  1.00  0.00     0.074 A 
ATOM     49  C   UNL A   1      40.547  28.633  29.008  1.00  0.00     0.049 A 
ATOM     50  N   UNL A   1      43.502  29.852  28.980  1.00  0.00    -0.248 NA
ATOM     51  C   UNL A   1      43.086  29.645  26.702  1.00  0.00     0.031 C 
ATOM     52  C   UNL A   1      39.272  27.905  29.026  1.00  0.00     0.029 A 
ATOM     53  N   UNL A   1      40.298  29.723  29.782  1.00  0.00    -0.354 N 
ATOM     54  C   UNL A   1      44.308  30.744  28.284  1.00  0.00     0.074 A 
ATOM     55  C   UNL A   1      44.095  30.495  26.881  1.00  0.00     0.031 C 
ATOM     56  C   UNL A   1      38.329  28.685  29.599  1.00  0.00     0.029 A 
ATOM     57  C   UNL A   1      38.959  29.900  30.086  1.00  0.00     0.049 A 
ATOM     58  H   UNL A   1      41.005  30.330  30.098  1.00  0.00     0.167 HD
ATOM     59  C   UNL A   1      44.942  31.773  28.905  1.00  0.00     0.037 A 
ATOM     60  C   UNL A   1      38.399  31.013  30.618  1.00  0.00     0.037 A 
ATOM     61  C   UNL A   1      45.077  31.556  30.318  1.00  0.00     0.049 A 
ATOM     62  C   UNL A   1      39.480  31.821  31.232  1.00  0.00     0.074 A 
ATOM     63  C   UNL A   1      45.703  30.601  31.096  1.00  0.00     0.029 A 
ATOM     64  N   UNL A   1      44.248  32.242  31.168  1.00  0.00    -0.354 N 
ATOM     65  N   UNL A   1      40.130  31.494  32.314  1.00  0.00    -0.248 NA
ATOM     66  C   UNL A   1      40.109  32.852  30.418  1.00  0.00     0.031 C 
ATOM     67  C   UNL A   1      44.891  30.468  32.259  1.00  0.00     0.029 A 
ATOM     68  C   UNL A   1      43.824  31.356  32.126  1.00  0.00     0.049 A 
ATOM     69  H   UNL A   1      44.003  33.193  31.103  1.00  0.00     0.167 HD
ATOM     70  C   UNL A   1      41.417  31.967  32.112  1.00  0.00     0.074 A 
ATOM     71  C   UNL A   1      41.311  32.898  30.997  1.00  0.00     0.031 C 
ATOM     72  C   UNL A   1      42.491  31.350  32.683  1.00  0.00     0.037 A 
BRANCH  59  73
ATOM     73  C   UNL A   1      45.161  33.110  28.257  1.00  0.00     0.064 A 
ATOM     74  C   UNL A   1      46.468  33.566  28.016  1.00  0.00     0.173 A 
ATOM     75  C   UNL A   1      44.136  34.072  28.112  1.00  0.00     0.173 A 
ATOM     76  F   UNL A   1      47.516  32.744  28.174  1.00  0.00    -0.203 F 
ATOM     77  C   UNL A   1      46.732  34.897  27.687  1.00  0.00     0.198 A 
ATOM     78  C   UNL A   1      44.397  35.384  27.725  1.00  0.00     0.198 A 
ATOM     79  F   UNL A   1      42.865  33.806  28.440  1.00  0.00    -0.203 F 
ATOM     80  F   UNL A   1      48.000  35.316  27.573  1.00  0.00    -0.200 F 
ATOM     81  C   UNL A   1      45.696  35.804  27.539  1.00  0.00     0.200 A 
ATOM     82  F   UNL A   1      43.382  36.252  27.609  1.00  0.00    -0.200 F 
ATOM     83  F   UNL A   1      45.952  37.090  27.266  1.00  0.00    -0.200 F 
ENDBRANCH  59  73
BRANCH  60  84
ATOM     84  C   UNL A   1      37.042  31.550  30.374  1.00  0.00     0.064 A 
ATOM     85  C   UNL A   1      36.138  31.735  31.430  1.00  0.00     0.173 A 
ATOM     86  C   UNL A   1      36.690  32.129  29.138  1.00  0.00     0.173 A 
ATOM     87  F   UNL A   1      36.421  31.258  32.651  1.00  0.00    -0.203 F 
ATOM     88  C   UNL A   1      34.959  32.469  31.264  1.00  0.00     0.198 A 
ATOM     89  C   UNL A   1      35.507  32.847  28.969  1.00  0.00     0.198 A 
ATOM     90  F   UNL A   1      37.531  32.093  28.093  1.00  0.00    -0.203 F 
ATOM     91  F   UNL A   1      34.149  32.677  32.312  1.00  0.00    -0.200 F 
ATOM     92  C   UNL A   1      34.648  33.029  30.035  1.00  0.00     0.200 A 
ATOM     93  F   UNL A   1      35.236  33.413  27.785  1.00  0.00    -0.200 F 
ATOM     94  F   UNL A   1      33.545  33.776  29.891  1.00  0.00    -0.200 F 
ENDBRANCH  60  84
BRANCH  72  95
ATOM     95  C   UNL A   1      42.222  30.370  33.788  1.00  0.00     0.064 A 
ATOM     96  C   UNL A   1      41.856  29.031  33.568  1.00  0.00     0.173 A 
ATOM     97  C   UNL A   1      42.475  30.765  35.109  1.00  0.00     0.173 A 
ATOM     98  F   UNL A   1      41.703  28.555  32.325  1.00  0.00    -0.203 F 
ATOM     99  C   UNL A   1      41.699  28.144  34.631  1.00  0.00     0.198 A 
ATOM    100  C   UNL A   1      42.353  29.867  36.165  1.00  0.00     0.198 A 
ATOM    101  F   UNL A   1      42.888  32.016  35.370  1.00  0.00    -0.203 F 
ATOM    102  F   UNL A   1      41.334  26.875  34.399  1.00  0.00    -0.200 F 
ATOM    103  C   UNL A   1      41.953  28.561  35.928  1.00  0.00     0.200 A 
ATOM    104  F   UNL A   1      42.649  30.259  37.412  1.00  0.00    -0.200 F 
ATOM    105  F   UNL A   1      41.841  27.697  36.947  1.00  0.00    -0.200 F 
ENDBRANCH  72  95
ENDBRANCH  46  47
ENDBRANCH  39  41
ENDBRANCH  38  39
ENDBRANCH  37  38
ENDBRANCH  36  37
ENDBRANCH  35  36
ENDBRANCH  34  35
ENDBRANCH   1  34
TORSDOF 20
ENDMDL
MODEL 3
REMARK VINA RESULT:     -11.7      2.760      7.984
REMARK SMILES COc1ccc(-n2ncc([C@H]3CC(=O)Nc4n[nH]c(C(=O)OCCOCCOCCOC(=O)c5ccc(-c6c7nc(c(-c8c(F)c(F)c(F)c(F)c8F)c8ccc([nH]8)c(-c8c(F)c(F)c(F)c(F)c8F)c8nc(c(-c9c(F)c(F)c(F)c(F)c9F)c9ccc6[nH]9)C=C8)C=C7)cc5)c43)c2C)cc1
REMARK SMILES IDX 26 1 25 2 24 3 23 4 22 5 20 6 21 7 19 8 11 9 12 10 97 11
REMARK SMILES IDX 13 12 16 13 14 14 15 15 17 16 18 17 10 20 7 21 8 22 98 23
REMARK SMILES IDX 9 24 99 25 6 26 3 27 4 28 101 29 5 30 100 31 2 32 1 33 27 34
REMARK SMILES IDX 28 35 29 36 30 37 31 38 32 39 33 40 34 41 35 42 96 43 36 44
REMARK SMILES IDX 95 45 37 46 38 47 39 48 89 49 40 50 94 51 88 52 90 53 41 54
REMARK SMILES IDX 93 55 87 56 86 57 42 59 74 60 54 61 73 62 55 63 58 64 72 65
REMARK SMILES IDX 91 66 56 67 57 68 71 70 92 71 59 72 43 73 44 74 52 75 45 76
REMARK SMILES IDX 46 77 50 78 53 79 47 80 48 81 51 82 49 83 75 84 76 85 84 86
REMARK SMILES IDX 77 87 78 88 82 89 85 90 79 91 80 92 83 93 81 94 60 95 61 96
REMARK SMILES IDX 69 97 62 98 63 99 67 100 70 101 64 102 65 103 68 104 66 105
REMARK H PARENT 15 18 18 19 90 58 58 69
REMARK Flexibility Score: inf
ROOT
ATOM      1  C   UNL A   1      37.839  22.321  25.831  1.00  0.00     0.188 C 
ENDROOT
BRANCH   1   2
ATOM      2  O   UNL A   1      37.406  23.006  24.667  1.00  0.00    -0.376 OA
BRANCH   2   3
ATOM      3  C   UNL A   1      36.078  23.527  24.729  1.00  0.00     0.202 C 
BRANCH   3   4
ATOM      4  C   UNL A   1      35.285  23.440  23.417  1.00  0.00     0.261 C 
BRANCH   4   5
ATOM      5  O   UNL A   1      34.874  24.720  22.907  1.00  0.00    -0.459 OA
BRANCH   5   6
ATOM      6  C   UNL A   1      33.596  24.828  22.482  1.00  0.00     0.356 C 
ATOM      7  O   UNL A   1      33.235  25.491  21.522  1.00  0.00    -0.244 OA
BRANCH   6   8
ATOM      8  C   UNL A   1      32.733  23.938  23.217  1.00  0.00     0.149 A 
ATOM      9  C   UNL A   1      32.579  24.615  25.789  1.00  0.00     0.068 C 
ATOM     10  C   UNL A   1      31.707  24.186  26.986  1.00  0.00     0.114 C 
ATOM     11  C   UNL A   1      32.313  23.824  24.541  1.00  0.00     0.037 A 
ATOM     12  C   UNL A   1      30.630  23.132  26.756  1.00  0.00     0.226 C 
ATOM     13  C   UNL A   1      31.379  22.778  24.520  1.00  0.00     0.159 A 
ATOM     14  O   UNL A   1      29.810  22.870  27.638  1.00  0.00    -0.275 OA
ATOM     15  N   UNL A   1      30.602  22.447  25.582  1.00  0.00    -0.309 N 
ATOM     16  N   UNL A   1      31.273  22.194  23.334  1.00  0.00    -0.157 NA
ATOM     17  N   UNL A   1      32.083  22.928  22.557  1.00  0.00    -0.269 N 
ATOM     18  H   UNL A   1      29.992  21.679  25.499  1.00  0.00     0.171 HD
ATOM     19  H   UNL A   1      32.200  22.755  21.594  1.00  0.00     0.190 HD
BRANCH   9  20
ATOM     20  C   UNL A   1      32.480  26.086  25.505  1.00  0.00     0.002 A 
ATOM     21  N   UNL A   1      31.835  28.042  24.706  1.00  0.00    -0.238 N 
ATOM     22  N   UNL A   1      33.185  28.118  24.759  1.00  0.00    -0.176 NA
ATOM     23  C   UNL A   1      31.354  26.843  25.213  1.00  0.00     0.045 A 
ATOM     24  C   UNL A   1      33.562  26.970  25.315  1.00  0.00     0.140 A 
ATOM     25  C   UNL A   1      29.923  26.426  25.206  1.00  0.00     0.067 C 
BRANCH  21  26
ATOM     26  C   UNL A   1      31.106  28.964  23.931  1.00  0.00     0.065 A 
ATOM     27  C   UNL A   1      29.392  30.556  22.454  1.00  0.00     0.119 A 
ATOM     28  C   UNL A   1      29.644  30.866  23.792  1.00  0.00     0.048 A 
ATOM     29  C   UNL A   1      30.050  29.495  21.830  1.00  0.00     0.048 A 
ATOM     30  C   UNL A   1      30.488  30.056  24.545  1.00  0.00     0.032 A 
ATOM     31  C   UNL A   1      30.926  28.699  22.568  1.00  0.00     0.032 A 
BRANCH  27  32
ATOM     32  O   UNL A   1      28.510  31.364  21.788  1.00  0.00    -0.497 OA
ATOM     33  C   UNL A   1      28.562  32.709  22.262  1.00  0.00     0.278 C 
ENDBRANCH  27  32
ENDBRANCH  21  26
ENDBRANCH   9  20
ENDBRANCH   6   8
ENDBRANCH   5   6
ENDBRANCH   4   5
ENDBRANCH   3   4
ENDBRANCH   2   3
ENDBRANCH   1   2
BRANCH   1  34
ATOM     34  C   UNL A   1      39.151  22.832  26.465  1.00  0.00     0.188 C 
BRANCH  34  35
ATOM     35  O   UNL A   1      40.416  22.237  26.198  1.00  0.00    -0.376 OA
BRANCH  35  36
ATOM     36  C   UNL A   1      41.060  21.394  27.145  1.00  0.00     0.202 C 
BRANCH  36  37
ATOM     37  C   UNL A   1      42.134  20.416  26.685  1.00  0.00     0.261 C 
BRANCH  37  38
ATOM     38  O   UNL A   1      42.620  20.691  25.381  1.00  0.00    -0.460 OA
BRANCH  38  39
ATOM     39  C   UNL A   1      43.958  20.837  25.320  1.00  0.00     0.338 C 
ATOM     40  O   UNL A   1      44.798  19.957  25.234  1.00  0.00    -0.246 OA
BRANCH  39  41
ATOM     41  C   UNL A   1      44.292  22.263  25.412  1.00  0.00     0.060 A 
ATOM     42  C   UNL A   1      45.274  22.616  26.342  1.00  0.00     0.016 A 
ATOM     43  C   UNL A   1      43.484  23.222  24.786  1.00  0.00     0.016 A 
ATOM     44  C   UNL A   1      45.279  23.900  26.832  1.00  0.00     0.010 A 
ATOM     45  C   UNL A   1      43.481  24.505  25.283  1.00  0.00     0.010 A 
ATOM     46  C   UNL A   1      44.306  24.790  26.372  1.00  0.00    -0.014 A 
BRANCH  46  47
ATOM     47  C   UNL A   1      44.054  25.966  27.180  1.00  0.00     0.031 A 
ATOM     48  C   UNL A   1      45.048  27.051  27.098  1.00  0.00     0.074 A 
ATOM     49  C   UNL A   1      42.912  26.071  27.885  1.00  0.00     0.049 A 
ATOM     50  N   UNL A   1      45.720  27.591  28.062  1.00  0.00    -0.248 NA
ATOM     51  C   UNL A   1      45.371  27.569  25.763  1.00  0.00     0.031 C 
ATOM     52  C   UNL A   1      41.723  25.215  27.796  1.00  0.00     0.029 A 
ATOM     53  N   UNL A   1      42.533  27.047  28.754  1.00  0.00    -0.354 N 
ATOM     54  C   UNL A   1      46.437  28.627  27.479  1.00  0.00     0.074 A 
ATOM     55  C   UNL A   1      46.279  28.498  26.053  1.00  0.00     0.031 C 
ATOM     56  C   UNL A   1      40.691  25.830  28.414  1.00  0.00     0.029 A 
ATOM     57  C   UNL A   1      41.177  27.051  29.034  1.00  0.00     0.049 A 
ATOM     58  H   UNL A   1      43.165  27.691  29.147  1.00  0.00     0.167 HD
ATOM     59  C   UNL A   1      46.946  29.650  28.215  1.00  0.00     0.037 A 
ATOM     60  C   UNL A   1      40.491  28.040  29.654  1.00  0.00     0.037 A 
ATOM     61  C   UNL A   1      47.076  29.310  29.604  1.00  0.00     0.049 A 
ATOM     62  C   UNL A   1      41.467  28.893  30.375  1.00  0.00     0.074 A 
ATOM     63  C   UNL A   1      47.787  28.354  30.304  1.00  0.00     0.029 A 
ATOM     64  N   UNL A   1      46.163  29.817  30.492  1.00  0.00    -0.354 N 
ATOM     65  N   UNL A   1      42.128  28.530  31.439  1.00  0.00    -0.248 NA
ATOM     66  C   UNL A   1      41.996  30.060  29.684  1.00  0.00     0.031 C 
ATOM     67  C   UNL A   1      46.972  28.021  31.425  1.00  0.00     0.029 A 
ATOM     68  C   UNL A   1      45.818  28.801  31.346  1.00  0.00     0.049 A 
ATOM     69  H   UNL A   1      45.818  30.738  30.512  1.00  0.00     0.167 HD
ATOM     70  C   UNL A   1      43.360  29.154  31.322  1.00  0.00     0.074 A 
ATOM     71  C   UNL A   1      43.175  30.174  30.299  1.00  0.00     0.031 C 
ATOM     72  C   UNL A   1      44.483  28.599  31.861  1.00  0.00     0.037 A 
BRANCH  59  73
ATOM     73  C   UNL A   1      47.031  31.061  27.706  1.00  0.00     0.064 A 
ATOM     74  C   UNL A   1      45.859  31.749  27.348  1.00  0.00     0.173 A 
ATOM     75  C   UNL A   1      48.246  31.662  27.306  1.00  0.00     0.173 A 
ATOM     76  F   UNL A   1      44.654  31.238  27.639  1.00  0.00    -0.203 F 
ATOM     77  C   UNL A   1      45.900  32.935  26.613  1.00  0.00     0.198 A 
ATOM     78  C   UNL A   1      48.286  32.876  26.625  1.00  0.00     0.198 A 
ATOM     79  F   UNL A   1      49.425  31.048  27.464  1.00  0.00    -0.203 F 
ATOM     80  F   UNL A   1      44.759  33.501  26.198  1.00  0.00    -0.200 F 
ATOM     81  C   UNL A   1      47.113  33.499  26.255  1.00  0.00     0.200 A 
ATOM     82  F   UNL A   1      49.469  33.394  26.267  1.00  0.00    -0.200 F 
ATOM     83  F   UNL A   1      47.152  34.613  25.512  1.00  0.00    -0.200 F 
ENDBRANCH  59  73
BRANCH  60  84
ATOM     84  C   UNL A   1      39.089  28.454  29.423  1.00  0.00     0.064 A 
ATOM     85  C   UNL A   1      38.197  28.611  30.494  1.00  0.00     0.173 A 
ATOM     86  C   UNL A   1      38.662  28.946  28.174  1.00  0.00     0.173 A 
ATOM     87  F   UNL A   1      38.547  28.215  31.727  1.00  0.00    -0.203 F 
ATOM     88  C   UNL A   1      36.958  29.238  30.329  1.00  0.00     0.198 A 
ATOM     89  C   UNL A   1      37.420  29.556  28.006  1.00  0.00     0.198 A 
ATOM     90  F   UNL A   1      39.478  28.930  27.110  1.00  0.00    -0.203 F 
ATOM     91  F   UNL A   1      36.159  29.427  31.388  1.00  0.00    -0.200 F 
ATOM     92  C   UNL A   1      36.573  29.715  29.086  1.00  0.00     0.200 A 
ATOM     93  F   UNL A   1      37.076  30.044  26.806  1.00  0.00    -0.200 F 
ATOM     94  F   UNL A   1      35.409  30.362  28.939  1.00  0.00    -0.200 F 
ENDBRANCH  60  84
BRANCH  72  95
ATOM     95  C   UNL A   1      44.300  27.492  32.857  1.00  0.00     0.064 A 
ATOM     96  C   UNL A   1      44.203  26.135  32.504  1.00  0.00     0.173 A 
ATOM     97  C   UNL A   1      44.363  27.803  34.223  1.00  0.00     0.173 A 
ATOM     98  F   UNL A   1      44.246  25.754  31.220  1.00  0.00    -0.203 F 
ATOM     99  C   UNL A   1      44.116  25.142  33.477  1.00  0.00     0.198 A 
ATOM    100  C   UNL A   1      44.314  26.806  35.192  1.00  0.00     0.198 A 
ATOM    101  F   UNL A   1      44.519  29.078  34.616  1.00  0.00    -0.203 F 
ATOM    102  F   UNL A   1      44.008  23.855  33.116  1.00  0.00    -0.200 F 
ATOM    103  C   UNL A   1      44.178  25.477  34.820  1.00  0.00     0.200 A 
ATOM    104  F   UNL A   1      44.425  27.128  36.488  1.00  0.00    -0.200 F 
ATOM    105  F   UNL A   1      44.135  24.519  35.756  1.00  0.00    -0.200 F 
ENDBRANCH  72  95
ENDBRANCH  46  47
ENDBRANCH  39  41
ENDBRANCH  38  39
ENDBRANCH  37  38
ENDBRANCH  36  37
ENDBRANCH  35  36
ENDBRANCH  34  35
ENDBRANCH   1  34
TORSDOF 20
ENDMDL
