MODEL 1
REMARK VINA RESULT:     -10.7      0.000      0.000
REMARK SMILES CCOC(=O)c1cccc(Nc2c(-c3ccc(C(=O)OCCOCCOCCOC(=O)c4ccc(-c5c6nc(c(-c7c(F)c(F)c(F)c(F)c7F)c7ccc([nH]7)c(-c7c(F)c(F)c(F)c(F)c7F)c7nc(c(-c8c(F)c(F)c(F)c(F)c8F)c8ccc5[nH]8)C=C7)C=C6)cc4)cc3)nc3cnccn23)c1
REMARK SMILES IDX 22 1 21 2 20 3 18 4 19 5 17 6 14 7 15 8 96 9 16 10 95 11
REMARK SMILES IDX 13 12 12 13 103 14 97 15 98 16 102 17 99 18 101 19 100 20
REMARK SMILES IDX 11 21 10 23 6 24 7 25 104 26 8 27 9 28 4 29 5 30 3 31 2 32
REMARK SMILES IDX 1 33 23 34 24 35 25 36 26 37 27 38 28 39 29 40 30 41 31 42
REMARK SMILES IDX 32 43 33 44 94 45 34 46 93 47 35 48 36 49 37 50 87 51 38 52
REMARK SMILES IDX 92 53 86 54 88 55 39 56 91 57 85 58 84 59 40 61 72 62 52 63
REMARK SMILES IDX 71 64 53 65 56 66 70 67 89 68 54 69 55 70 69 72 90 73 57 74
REMARK SMILES IDX 41 75 42 76 50 77 43 78 44 79 48 80 51 81 45 82 46 83 49 84
REMARK SMILES IDX 47 85 73 86 74 87 82 88 75 89 76 90 80 91 83 92 77 93 78 94
REMARK SMILES IDX 81 95 79 96 58 97 59 98 67 99 60 100 61 101 65 102 68 103
REMARK SMILES IDX 62 104 63 105 66 106 64 107
REMARK H PARENT 11 22 88 60 56 71
REMARK Flexibility Score: inf
ROOT
ATOM      1  C   UNL A   1      33.883  32.300  28.030  1.00  0.00     0.202 C 
ENDROOT
BRANCH   1   2
ATOM      2  C   UNL A   1      34.224  30.943  27.395  1.00  0.00     0.261 C 
BRANCH   2   3
ATOM      3  O   UNL A   1      33.300  29.879  27.656  1.00  0.00    -0.460 OA
BRANCH   3   4
ATOM      4  C   UNL A   1      32.458  29.585  26.633  1.00  0.00     0.338 C 
ATOM      5  O   UNL A   1      31.900  30.380  25.895  1.00  0.00    -0.246 OA
BRANCH   4   6
ATOM      6  C   UNL A   1      32.441  28.125  26.388  1.00  0.00     0.060 A 
ATOM      7  C   UNL A   1      32.495  25.403  25.732  1.00  0.00     0.004 A 
ATOM      8  C   UNL A   1      33.684  26.140  25.745  1.00  0.00     0.011 A 
ATOM      9  C   UNL A   1      31.293  26.022  26.114  1.00  0.00     0.011 A 
ATOM     10  C   UNL A   1      33.653  27.502  26.059  1.00  0.00     0.016 A 
ATOM     11  C   UNL A   1      31.263  27.378  26.457  1.00  0.00     0.016 A 
BRANCH   7  12
ATOM     12  C   UNL A   1      32.450  24.093  25.114  1.00  0.00     0.114 A 
ATOM     13  C   UNL A   1      32.190  23.767  23.784  1.00  0.00     0.143 A 
ATOM     14  N   UNL A   1      32.223  22.378  23.777  1.00  0.00    -0.283 N 
ATOM     15  N   UNL A   1      32.555  22.973  25.909  1.00  0.00    -0.225 NA
ATOM     16  C   UNL A   1      32.379  21.976  25.081  1.00  0.00     0.157 A 
ATOM     17  C   UNL A   1      32.150  21.412  22.782  1.00  0.00     0.115 A 
ATOM     18  C   UNL A   1      32.365  20.573  25.385  1.00  0.00     0.158 A 
ATOM     19  C   UNL A   1      32.167  20.115  23.141  1.00  0.00     0.129 A 
ATOM     20  N   UNL A   1      32.256  19.669  24.449  1.00  0.00    -0.259 NA
BRANCH  13  21
ATOM     21  N   UNL A   1      32.022  24.538  22.670  1.00  0.00    -0.339 N 
ATOM     22  H   UNL A   1      31.841  24.057  21.831  1.00  0.00     0.168 HD
BRANCH  21  23
ATOM     23  C   UNL A   1      32.077  25.953  22.584  1.00  0.00     0.040 A 
ATOM     24  C   UNL A   1      30.906  28.090  22.546  1.00  0.00     0.062 A 
ATOM     25  C   UNL A   1      32.113  28.773  22.386  1.00  0.00     0.016 A 
ATOM     26  C   UNL A   1      30.884  26.693  22.670  1.00  0.00     0.041 A 
ATOM     27  C   UNL A   1      33.304  28.056  22.350  1.00  0.00     0.003 A 
ATOM     28  C   UNL A   1      33.281  26.661  22.436  1.00  0.00     0.026 A 
BRANCH  24  29
ATOM     29  C   UNL A   1      29.660  28.871  22.450  1.00  0.00     0.338 C 
ATOM     30  O   UNL A   1      28.671  28.609  23.114  1.00  0.00    -0.246 OA
BRANCH  29  31
ATOM     31  O   UNL A   1      29.780  29.836  21.509  1.00  0.00    -0.462 OA
BRANCH  31  32
ATOM     32  C   UNL A   1      29.150  31.085  21.846  1.00  0.00     0.230 C 
ATOM     33  C   UNL A   1      28.040  31.435  20.866  1.00  0.00     0.049 C 
ENDBRANCH  31  32
ENDBRANCH  29  31
ENDBRANCH  24  29
ENDBRANCH  21  23
ENDBRANCH  13  21
ENDBRANCH   7  12
ENDBRANCH   4   6
ENDBRANCH   3   4
ENDBRANCH   2   3
ENDBRANCH   1   2
BRANCH   1  34
ATOM     34  O   UNL A   1      34.582  33.495  27.724  1.00  0.00    -0.376 OA
BRANCH  34  35
ATOM     35  C   UNL A   1      35.441  34.092  28.674  1.00  0.00     0.188 C 
BRANCH  35  36
ATOM     36  C   UNL A   1      35.599  33.484  30.082  1.00  0.00     0.188 C 
BRANCH  36  37
ATOM     37  O   UNL A   1      36.360  32.314  30.242  1.00  0.00    -0.376 OA
BRANCH  37  38
ATOM     38  C   UNL A   1      35.882  31.230  31.018  1.00  0.00     0.202 C 
BRANCH  38  39
ATOM     39  C   UNL A   1      36.275  30.914  32.474  1.00  0.00     0.261 C 
BRANCH  39  40
ATOM     40  O   UNL A   1      36.821  31.966  33.270  1.00  0.00    -0.460 OA
BRANCH  40  41
ATOM     41  C   UNL A   1      37.852  31.604  34.078  1.00  0.00     0.338 C 
ATOM     42  O   UNL A   1      37.813  31.352  35.263  1.00  0.00    -0.246 OA
BRANCH  41  43
ATOM     43  C   UNL A   1      39.048  31.384  33.244  1.00  0.00     0.060 A 
ATOM     44  C   UNL A   1      39.214  32.164  32.091  1.00  0.00     0.016 A 
ATOM     45  C   UNL A   1      39.968  30.391  33.573  1.00  0.00     0.016 A 
ATOM     46  C   UNL A   1      40.301  31.936  31.248  1.00  0.00     0.010 A 
ATOM     47  C   UNL A   1      41.045  30.149  32.715  1.00  0.00     0.010 A 
ATOM     48  C   UNL A   1      41.201  30.902  31.538  1.00  0.00    -0.014 A 
BRANCH  48  49
ATOM     49  C   UNL A   1      42.208  30.497  30.528  1.00  0.00     0.031 A 
ATOM     50  C   UNL A   1      41.997  29.212  29.777  1.00  0.00     0.074 A 
ATOM     51  C   UNL A   1      43.286  31.257  30.277  1.00  0.00     0.049 A 
ATOM     52  N   UNL A   1      42.775  28.613  28.913  1.00  0.00    -0.248 NA
ATOM     53  C   UNL A   1      40.737  28.501  30.050  1.00  0.00     0.031 C 
ATOM     54  C   UNL A   1      43.580  32.543  30.907  1.00  0.00     0.029 A 
ATOM     55  N   UNL A   1      44.344  31.046  29.427  1.00  0.00    -0.354 N 
ATOM     56  C   UNL A   1      42.101  27.460  28.538  1.00  0.00     0.074 A 
ATOM     57  C   UNL A   1      40.871  27.418  29.300  1.00  0.00     0.031 C 
ATOM     58  C   UNL A   1      44.751  33.001  30.431  1.00  0.00     0.029 A 
ATOM     59  C   UNL A   1      45.305  32.025  29.494  1.00  0.00     0.049 A 
ATOM     60  H   UNL A   1      44.407  30.267  28.829  1.00  0.00     0.167 HD
ATOM     61  C   UNL A   1      42.470  26.522  27.633  1.00  0.00     0.037 A 
ATOM     62  C   UNL A   1      46.504  32.105  28.885  1.00  0.00     0.037 A 
ATOM     63  C   UNL A   1      43.697  26.563  26.880  1.00  0.00     0.049 A 
ATOM     64  C   UNL A   1      46.934  31.005  27.947  1.00  0.00     0.074 A 
ATOM     65  C   UNL A   1      44.162  25.665  25.937  1.00  0.00     0.029 A 
ATOM     66  N   UNL A   1      44.658  27.558  26.993  1.00  0.00    -0.354 N 
ATOM     67  N   UNL A   1      46.289  29.921  27.585  1.00  0.00    -0.248 NA
ATOM     68  C   UNL A   1      48.263  31.140  27.332  1.00  0.00     0.031 C 
ATOM     69  C   UNL A   1      45.431  26.082  25.524  1.00  0.00     0.029 A 
ATOM     70  C   UNL A   1      45.729  27.276  26.160  1.00  0.00     0.049 A 
ATOM     71  H   UNL A   1      44.589  28.346  27.578  1.00  0.00     0.167 HD
ATOM     72  C   UNL A   1      47.113  29.268  26.678  1.00  0.00     0.074 A 
ATOM     73  C   UNL A   1      48.304  30.081  26.537  1.00  0.00     0.031 C 
ATOM     74  C   UNL A   1      46.904  28.101  26.021  1.00  0.00     0.037 A 
BRANCH  61  75
ATOM     75  C   UNL A   1      41.553  25.349  27.440  1.00  0.00     0.064 A 
ATOM     76  C   UNL A   1      40.390  25.435  26.660  1.00  0.00     0.173 A 
ATOM     77  C   UNL A   1      41.856  24.112  28.030  1.00  0.00     0.173 A 
ATOM     78  F   UNL A   1      40.041  26.597  26.088  1.00  0.00    -0.203 F 
ATOM     79  C   UNL A   1      39.550  24.335  26.502  1.00  0.00     0.198 A 
ATOM     80  C   UNL A   1      41.031  23.006  27.842  1.00  0.00     0.198 A 
ATOM     81  F   UNL A   1      42.956  23.972  28.786  1.00  0.00    -0.203 F 
ATOM     82  F   UNL A   1      38.416  24.458  25.798  1.00  0.00    -0.200 F 
ATOM     83  C   UNL A   1      39.875  23.120  27.086  1.00  0.00     0.200 A 
ATOM     84  F   UNL A   1      41.354  21.829  28.398  1.00  0.00    -0.200 F 
ATOM     85  F   UNL A   1      39.068  22.061  26.929  1.00  0.00    -0.200 F 
ENDBRANCH  61  75
BRANCH  62  86
ATOM     86  C   UNL A   1      47.396  33.266  29.149  1.00  0.00     0.064 A 
ATOM     87  C   UNL A   1      48.301  33.253  30.218  1.00  0.00     0.173 A 
ATOM     88  C   UNL A   1      47.343  34.420  28.353  1.00  0.00     0.173 A 
ATOM     89  F   UNL A   1      48.369  32.184  31.025  1.00  0.00    -0.203 F 
ATOM     90  C   UNL A   1      49.106  34.357  30.494  1.00  0.00     0.198 A 
ATOM     91  C   UNL A   1      48.170  35.511  28.611  1.00  0.00     0.198 A 
ATOM     92  F   UNL A   1      46.490  34.487  27.321  1.00  0.00    -0.203 F 
ATOM     93  F   UNL A   1      49.926  34.337  31.555  1.00  0.00    -0.200 F 
ATOM     94  C   UNL A   1      49.045  35.482  29.686  1.00  0.00     0.200 A 
ATOM     95  F   UNL A   1      48.114  36.593  27.822  1.00  0.00    -0.200 F 
ATOM     96  F   UNL A   1      49.819  36.543  29.952  1.00  0.00    -0.200 F 
ENDBRANCH  62  86
BRANCH  74  97
ATOM     97  C   UNL A   1      47.960  27.650  25.050  1.00  0.00     0.064 A 
ATOM     98  C   UNL A   1      49.090  26.930  25.465  1.00  0.00     0.173 A 
ATOM     99  C   UNL A   1      47.815  27.906  23.677  1.00  0.00     0.173 A 
ATOM    100  F   UNL A   1      49.284  26.668  26.765  1.00  0.00    -0.203 F 
ATOM    101  C   UNL A   1      50.047  26.507  24.545  1.00  0.00     0.198 A 
ATOM    102  C   UNL A   1      48.757  27.452  22.757  1.00  0.00     0.198 A 
ATOM    103  F   UNL A   1      46.749  28.583  23.223  1.00  0.00    -0.203 F 
ATOM    104  F   UNL A   1      51.143  25.864  24.971  1.00  0.00    -0.200 F 
ATOM    105  C   UNL A   1      49.876  26.761  23.193  1.00  0.00     0.200 A 
ATOM    106  F   UNL A   1      48.580  27.684  21.449  1.00  0.00    -0.200 F 
ATOM    107  F   UNL A   1      50.793  26.345  22.308  1.00  0.00    -0.200 F 
ENDBRANCH  74  97
ENDBRANCH  48  49
ENDBRANCH  41  43
ENDBRANCH  40  41
ENDBRANCH  39  40
ENDBRANCH  38  39
ENDBRANCH  37  38
ENDBRANCH  36  37
ENDBRANCH  35  36
ENDBRANCH  34  35
ENDBRANCH   1  34
TORSDOF 23
ENDMDL
MODEL 2
REMARK VINA RESULT:     -10.3      2.799      3.505
REMARK SMILES CCOC(=O)c1cccc(Nc2c(-c3ccc(C(=O)OCCOCCOCCOC(=O)c4ccc(-c5c6nc(c(-c7c(F)c(F)c(F)c(F)c7F)c7ccc([nH]7)c(-c7c(F)c(F)c(F)c(F)c7F)c7nc(c(-c8c(F)c(F)c(F)c(F)c8F)c8ccc5[nH]8)C=C7)C=C6)cc4)cc3)nc3cnccn23)c1
REMARK SMILES IDX 22 1 21 2 20 3 18 4 19 5 17 6 14 7 15 8 96 9 16 10 95 11
REMARK SMILES IDX 13 12 12 13 103 14 97 15 98 16 102 17 99 18 101 19 100 20
REMARK SMILES IDX 11 21 10 23 6 24 7 25 104 26 8 27 9 28 4 29 5 30 3 31 2 32
REMARK SMILES IDX 1 33 23 34 24 35 25 36 26 37 27 38 28 39 29 40 30 41 31 42
REMARK SMILES IDX 32 43 33 44 94 45 34 46 93 47 35 48 36 49 37 50 87 51 38 52
REMARK SMILES IDX 92 53 86 54 88 55 39 56 91 57 85 58 84 59 40 61 72 62 52 63
REMARK SMILES IDX 71 64 53 65 56 66 70 67 89 68 54 69 55 70 69 72 90 73 57 74
REMARK SMILES IDX 41 75 42 76 50 77 43 78 44 79 48 80 51 81 45 82 46 83 49 84
REMARK SMILES IDX 47 85 73 86 74 87 82 88 75 89 76 90 80 91 83 92 77 93 78 94
REMARK SMILES IDX 81 95 79 96 58 97 59 98 67 99 60 100 61 101 65 102 68 103
REMARK SMILES IDX 62 104 63 105 66 106 64 107
REMARK H PARENT 11 22 88 60 56 71
REMARK Flexibility Score: inf
ROOT
ATOM      1  C   UNL A   1      33.974  32.252  28.389  1.00  0.00     0.202 C 
ENDROOT
BRANCH   1   2
ATOM      2  C   UNL A   1      34.211  31.122  27.375  1.00  0.00     0.261 C 
BRANCH   2   3
ATOM      3  O   UNL A   1      33.572  29.874  27.669  1.00  0.00    -0.460 OA
BRANCH   3   4
ATOM      4  C   UNL A   1      32.525  29.561  26.865  1.00  0.00     0.338 C 
ATOM      5  O   UNL A   1      31.768  30.343  26.312  1.00  0.00    -0.246 OA
BRANCH   4   6
ATOM      6  C   UNL A   1      32.519  28.109  26.573  1.00  0.00     0.060 A 
ATOM      7  C   UNL A   1      32.583  25.411  25.826  1.00  0.00     0.004 A 
ATOM      8  C   UNL A   1      33.758  26.169  25.797  1.00  0.00     0.011 A 
ATOM      9  C   UNL A   1      31.393  25.994  26.293  1.00  0.00     0.011 A 
ATOM     10  C   UNL A   1      33.721  27.520  26.158  1.00  0.00     0.016 A 
ATOM     11  C   UNL A   1      31.360  27.338  26.682  1.00  0.00     0.016 A 
BRANCH   7  12
ATOM     12  C   UNL A   1      32.526  24.120  25.169  1.00  0.00     0.114 A 
ATOM     13  C   UNL A   1      32.217  23.834  23.841  1.00  0.00     0.143 A 
ATOM     14  N   UNL A   1      32.264  22.446  23.788  1.00  0.00    -0.283 N 
ATOM     15  N   UNL A   1      32.674  22.977  25.923  1.00  0.00    -0.225 NA
ATOM     16  C   UNL A   1      32.475  22.005  25.071  1.00  0.00     0.157 A 
ATOM     17  C   UNL A   1      32.161  21.511  22.766  1.00  0.00     0.115 A 
ATOM     18  C   UNL A   1      32.488  20.593  25.330  1.00  0.00     0.158 A 
ATOM     19  C   UNL A   1      32.205  20.204  23.083  1.00  0.00     0.129 A 
ATOM     20  N   UNL A   1      32.350  19.717  24.372  1.00  0.00    -0.259 NA
BRANCH  13  21
ATOM     21  N   UNL A   1      31.996  24.637  22.759  1.00  0.00    -0.339 N 
ATOM     22  H   UNL A   1      31.848  24.180  21.900  1.00  0.00     0.168 HD
BRANCH  21  23
ATOM     23  C   UNL A   1      31.957  26.055  22.732  1.00  0.00     0.040 A 
ATOM     24  C   UNL A   1      30.660  28.112  22.901  1.00  0.00     0.062 A 
ATOM     25  C   UNL A   1      31.801  28.877  22.659  1.00  0.00     0.016 A 
ATOM     26  C   UNL A   1      30.735  26.712  22.964  1.00  0.00     0.041 A 
ATOM     27  C   UNL A   1      33.025  28.241  22.479  1.00  0.00     0.003 A 
ATOM     28  C   UNL A   1      33.096  26.845  22.503  1.00  0.00     0.026 A 
BRANCH  24  29
ATOM     29  C   UNL A   1      29.365  28.813  22.960  1.00  0.00     0.338 C 
ATOM     30  O   UNL A   1      28.306  28.223  23.095  1.00  0.00    -0.246 OA
BRANCH  29  31
ATOM     31  O   UNL A   1      29.542  30.144  22.788  1.00  0.00    -0.462 OA
BRANCH  31  32
ATOM     32  C   UNL A   1      28.554  30.969  23.430  1.00  0.00     0.230 C 
ATOM     33  C   UNL A   1      28.668  32.422  22.996  1.00  0.00     0.049 C 
ENDBRANCH  31  32
ENDBRANCH  29  31
ENDBRANCH  24  29
ENDBRANCH  21  23
ENDBRANCH  13  21
ENDBRANCH   7  12
ENDBRANCH   4   6
ENDBRANCH   3   4
ENDBRANCH   2   3
ENDBRANCH   1   2
BRANCH   1  34
ATOM     34  O   UNL A   1      34.473  33.568  28.211  1.00  0.00    -0.376 OA
BRANCH  34  35
ATOM     35  C   UNL A   1      33.699  34.689  28.585  1.00  0.00     0.188 C 
BRANCH  35  36
ATOM     36  C   UNL A   1      33.717  35.208  30.037  1.00  0.00     0.188 C 
BRANCH  36  37
ATOM     37  O   UNL A   1      33.794  34.284  31.094  1.00  0.00    -0.376 OA
BRANCH  37  38
ATOM     38  C   UNL A   1      34.920  34.247  31.953  1.00  0.00     0.202 C 
BRANCH  38  39
ATOM     39  C   UNL A   1      36.360  33.881  31.546  1.00  0.00     0.261 C 
BRANCH  39  40
ATOM     40  O   UNL A   1      36.551  32.790  30.645  1.00  0.00    -0.460 OA
BRANCH  40  41
ATOM     41  C   UNL A   1      36.604  31.563  31.226  1.00  0.00     0.338 C 
ATOM     42  O   UNL A   1      35.701  30.951  31.755  1.00  0.00    -0.246 OA
BRANCH  41  43
ATOM     43  C   UNL A   1      37.931  30.976  30.962  1.00  0.00     0.060 A 
ATOM     44  C   UNL A   1      38.458  30.067  31.889  1.00  0.00     0.016 A 
ATOM     45  C   UNL A   1      38.662  31.354  29.838  1.00  0.00     0.016 A 
ATOM     46  C   UNL A   1      39.737  29.543  31.701  1.00  0.00     0.010 A 
ATOM     47  C   UNL A   1      39.952  30.845  29.662  1.00  0.00     0.010 A 
ATOM     48  C   UNL A   1      40.504  29.960  30.605  1.00  0.00    -0.014 A 
BRANCH  48  49
ATOM     49  C   UNL A   1      41.941  29.602  30.532  1.00  0.00     0.031 A 
ATOM     50  C   UNL A   1      42.333  28.343  29.812  1.00  0.00     0.074 A 
ATOM     51  C   UNL A   1      42.881  30.383  31.091  1.00  0.00     0.049 A 
ATOM     52  N   UNL A   1      43.509  27.784  29.689  1.00  0.00    -0.248 NA
ATOM     53  C   UNL A   1      41.243  27.609  29.148  1.00  0.00     0.031 C 
ATOM     54  C   UNL A   1      42.631  31.647  31.778  1.00  0.00     0.029 A 
ATOM     55  N   UNL A   1      44.240  30.214  31.174  1.00  0.00    -0.354 N 
ATOM     56  C   UNL A   1      43.303  26.638  28.934  1.00  0.00     0.074 A 
ATOM     57  C   UNL A   1      41.883  26.556  28.665  1.00  0.00     0.031 C 
ATOM     58  C   UNL A   1      43.800  32.136  32.227  1.00  0.00     0.029 A 
ATOM     59  C   UNL A   1      44.873  31.200  31.891  1.00  0.00     0.049 A 
ATOM     60  H   UNL A   1      44.716  29.458  30.761  1.00  0.00     0.167 HD
ATOM     61  C   UNL A   1      44.216  25.737  28.498  1.00  0.00     0.037 A 
ATOM     62  C   UNL A   1      46.165  31.315  32.253  1.00  0.00     0.037 A 
ATOM     63  C   UNL A   1      45.627  25.819  28.773  1.00  0.00     0.049 A 
ATOM     64  C   UNL A   1      47.150  30.254  31.831  1.00  0.00     0.074 A 
ATOM     65  C   UNL A   1      46.635  24.960  28.374  1.00  0.00     0.029 A 
ATOM     66  N   UNL A   1      46.228  26.819  29.524  1.00  0.00    -0.354 N 
ATOM     67  N   UNL A   1      46.954  29.177  31.108  1.00  0.00    -0.248 NA
ATOM     68  C   UNL A   1      48.541  30.426  32.278  1.00  0.00     0.031 C 
ATOM     69  C   UNL A   1      47.836  25.406  28.935  1.00  0.00     0.029 A 
ATOM     70  C   UNL A   1      47.588  26.579  29.628  1.00  0.00     0.049 A 
ATOM     71  H   UNL A   1      45.756  27.585  29.924  1.00  0.00     0.167 HD
ATOM     72  C   UNL A   1      48.195  28.566  30.983  1.00  0.00     0.074 A 
ATOM     73  C   UNL A   1      49.142  29.396  31.698  1.00  0.00     0.031 C 
ATOM     74  C   UNL A   1      48.522  27.421  30.334  1.00  0.00     0.037 A 
BRANCH  61  75
ATOM     75  C   UNL A   1      43.708  24.562  27.714  1.00  0.00     0.064 A 
ATOM     76  C   UNL A   1      43.732  24.538  26.311  1.00  0.00     0.173 A 
ATOM     77  C   UNL A   1      43.206  23.433  28.380  1.00  0.00     0.173 A 
ATOM     78  F   UNL A   1      44.183  25.597  25.622  1.00  0.00    -0.203 F 
ATOM     79  C   UNL A   1      43.248  23.440  25.605  1.00  0.00     0.198 A 
ATOM     80  C   UNL A   1      42.753  22.323  27.671  1.00  0.00     0.198 A 
ATOM     81  F   UNL A   1      43.159  23.401  29.720  1.00  0.00    -0.203 F 
ATOM     82  F   UNL A   1      43.231  23.462  24.265  1.00  0.00    -0.200 F 
ATOM     83  C   UNL A   1      42.766  22.331  26.285  1.00  0.00     0.200 A 
ATOM     84  F   UNL A   1      42.299  21.248  28.331  1.00  0.00    -0.200 F 
ATOM     85  F   UNL A   1      42.305  21.272  25.603  1.00  0.00    -0.200 F 
ENDBRANCH  61  75
BRANCH  62  86
ATOM     86  C   UNL A   1      46.607  32.475  33.073  1.00  0.00     0.064 A 
ATOM     87  C   UNL A   1      46.557  32.432  34.473  1.00  0.00     0.173 A 
ATOM     88  C   UNL A   1      47.065  33.658  32.473  1.00  0.00     0.173 A 
ATOM     89  F   UNL A   1      46.100  31.334  35.093  1.00  0.00    -0.203 F 
ATOM     90  C   UNL A   1      46.929  33.534  35.241  1.00  0.00     0.198 A 
ATOM     91  C   UNL A   1      47.466  34.747  33.243  1.00  0.00     0.198 A 
ATOM     92  F   UNL A   1      47.127  33.754  31.137  1.00  0.00    -0.203 F 
ATOM     93  F   UNL A   1      46.821  33.483  36.576  1.00  0.00    -0.200 F 
ATOM     94  C   UNL A   1      47.389  34.688  34.626  1.00  0.00     0.200 A 
ATOM     95  F   UNL A   1      47.919  35.858  32.644  1.00  0.00    -0.200 F 
ATOM     96  F   UNL A   1      47.747  35.746  35.365  1.00  0.00    -0.200 F 
ENDBRANCH  62  86
BRANCH  74  97
ATOM     97  C   UNL A   1      49.970  27.017  30.323  1.00  0.00     0.064 A 
ATOM     98  C   UNL A   1      50.498  26.121  31.264  1.00  0.00     0.173 A 
ATOM     99  C   UNL A   1      50.833  27.502  29.326  1.00  0.00     0.173 A 
ATOM    100  F   UNL A   1      49.721  25.637  32.245  1.00  0.00    -0.203 F 
ATOM    101  C   UNL A   1      51.839  25.747  31.224  1.00  0.00     0.198 A 
ATOM    102  C   UNL A   1      52.164  27.099  29.269  1.00  0.00     0.198 A 
ATOM    103  F   UNL A   1      50.379  28.355  28.395  1.00  0.00    -0.203 F 
ATOM    104  F   UNL A   1      52.332  24.929  32.164  1.00  0.00    -0.200 F 
ATOM    105  C   UNL A   1      52.669  26.229  30.223  1.00  0.00     0.200 A 
ATOM    106  F   UNL A   1      52.959  27.553  28.290  1.00  0.00    -0.200 F 
ATOM    107  F   UNL A   1      53.957  25.861  30.180  1.00  0.00    -0.200 F 
ENDBRANCH  74  97
ENDBRANCH  48  49
ENDBRANCH  41  43
ENDBRANCH  40  41
ENDBRANCH  39  40
ENDBRANCH  38  39
ENDBRANCH  37  38
ENDBRANCH  36  37
ENDBRANCH  35  36
ENDBRANCH  34  35
ENDBRANCH   1  34
TORSDOF 23
ENDMDL
MODEL 3
REMARK VINA RESULT:     -10.3      3.819      7.520
REMARK SMILES CCOC(=O)c1cccc(Nc2c(-c3ccc(C(=O)OCCOCCOCCOC(=O)c4ccc(-c5c6nc(c(-c7c(F)c(F)c(F)c(F)c7F)c7ccc([nH]7)c(-c7c(F)c(F)c(F)c(F)c7F)c7nc(c(-c8c(F)c(F)c(F)c(F)c8F)c8ccc5[nH]8)C=C7)C=C6)cc4)cc3)nc3cnccn23)c1
REMARK SMILES IDX 22 1 21 2 20 3 18 4 19 5 17 6 14 7 15 8 96 9 16 10 95 11
REMARK SMILES IDX 13 12 12 13 103 14 97 15 98 16 102 17 99 18 101 19 100 20
REMARK SMILES IDX 11 21 10 23 6 24 7 25 104 26 8 27 9 28 4 29 5 30 3 31 2 32
REMARK SMILES IDX 1 33 23 34 24 35 25 36 26 37 27 38 28 39 29 40 30 41 31 42
REMARK SMILES IDX 32 43 33 44 94 45 34 46 93 47 35 48 36 49 37 50 87 51 38 52
REMARK SMILES IDX 92 53 86 54 88 55 39 56 91 57 85 58 84 59 40 61 72 62 52 63
REMARK SMILES IDX 71 64 53 65 56 66 70 67 89 68 54 69 55 70 69 72 90 73 57 74
REMARK SMILES IDX 41 75 42 76 50 77 43 78 44 79 48 80 51 81 45 82 46 83 49 84
REMARK SMILES IDX 47 85 73 86 74 87 82 88 75 89 76 90 80 91 83 92 77 93 78 94
REMARK SMILES IDX 81 95 79 96 58 97 59 98 67 99 60 100 61 101 65 102 68 103
REMARK SMILES IDX 62 104 63 105 66 106 64 107
REMARK H PARENT 11 22 88 60 56 71
REMARK Flexibility Score: inf
ROOT
ATOM      1  C   UNL A   1      33.963  32.351  28.399  1.00  0.00     0.202 C 
ENDROOT
BRANCH   1   2
ATOM      2  C   UNL A   1      34.187  31.169  27.443  1.00  0.00     0.261 C 
BRANCH   2   3
ATOM      3  O   UNL A   1      33.394  30.003  27.692  1.00  0.00    -0.460 OA
BRANCH   3   4
ATOM      4  C   UNL A   1      32.485  29.709  26.728  1.00  0.00     0.338 C 
ATOM      5  O   UNL A   1      31.874  30.504  26.033  1.00  0.00    -0.246 OA
BRANCH   4   6
ATOM      6  C   UNL A   1      32.457  28.249  26.478  1.00  0.00     0.060 A 
ATOM      7  C   UNL A   1      32.502  25.528  25.819  1.00  0.00     0.004 A 
ATOM      8  C   UNL A   1      33.700  26.246  25.894  1.00  0.00     0.011 A 
ATOM      9  C   UNL A   1      31.291  26.165  26.139  1.00  0.00     0.011 A 
ATOM     10  C   UNL A   1      33.675  27.607  26.211  1.00  0.00     0.016 A 
ATOM     11  C   UNL A   1      31.266  27.521  26.484  1.00  0.00     0.016 A 
BRANCH   7  12
ATOM     12  C   UNL A   1      32.468  24.220  25.196  1.00  0.00     0.114 A 
ATOM     13  C   UNL A   1      32.223  23.898  23.862  1.00  0.00     0.143 A 
ATOM     14  N   UNL A   1      32.261  22.509  23.850  1.00  0.00    -0.283 N 
ATOM     15  N   UNL A   1      32.570  23.097  25.987  1.00  0.00    -0.225 NA
ATOM     16  C   UNL A   1      32.406  22.103  25.154  1.00  0.00     0.157 A 
ATOM     17  C   UNL A   1      32.202  21.547  22.851  1.00  0.00     0.115 A 
ATOM     18  C   UNL A   1      32.395  20.699  25.453  1.00  0.00     0.158 A 
ATOM     19  C   UNL A   1      32.221  20.249  23.206  1.00  0.00     0.129 A 
ATOM     20  N   UNL A   1      32.298  19.797  24.513  1.00  0.00    -0.259 NA
BRANCH  13  21
ATOM     21  N   UNL A   1      32.062  24.672  22.749  1.00  0.00    -0.339 N 
ATOM     22  H   UNL A   1      31.795  24.202  21.926  1.00  0.00     0.168 HD
BRANCH  21  23
ATOM     23  C   UNL A   1      32.235  26.076  22.643  1.00  0.00     0.040 A 
ATOM     24  C   UNL A   1      31.243  28.297  22.484  1.00  0.00     0.062 A 
ATOM     25  C   UNL A   1      32.508  28.880  22.399  1.00  0.00     0.016 A 
ATOM     26  C   UNL A   1      31.101  26.908  22.631  1.00  0.00     0.041 A 
ATOM     27  C   UNL A   1      33.638  28.072  22.462  1.00  0.00     0.003 A 
ATOM     28  C   UNL A   1      33.499  26.685  22.569  1.00  0.00     0.026 A 
BRANCH  24  29
ATOM     29  C   UNL A   1      30.072  29.170  22.286  1.00  0.00     0.338 C 
ATOM     30  O   UNL A   1      30.002  29.975  21.373  1.00  0.00    -0.246 OA
BRANCH  29  31
ATOM     31  O   UNL A   1      29.166  28.973  23.273  1.00  0.00    -0.462 OA
BRANCH  31  32
ATOM     32  C   UNL A   1      27.829  29.396  22.953  1.00  0.00     0.230 C 
ATOM     33  C   UNL A   1      27.536  30.787  23.494  1.00  0.00     0.049 C 
ENDBRANCH  31  32
ENDBRANCH  29  31
ENDBRANCH  24  29
ENDBRANCH  21  23
ENDBRANCH  13  21
ENDBRANCH   7  12
ENDBRANCH   4   6
ENDBRANCH   3   4
ENDBRANCH   2   3
ENDBRANCH   1   2
BRANCH   1  34
ATOM     34  O   UNL A   1      34.638  33.591  28.269  1.00  0.00    -0.376 OA
BRANCH  34  35
ATOM     35  C   UNL A   1      33.947  34.811  28.442  1.00  0.00     0.188 C 
BRANCH  35  36
ATOM     36  C   UNL A   1      33.668  35.364  29.854  1.00  0.00     0.188 C 
BRANCH  36  37
ATOM     37  O   UNL A   1      33.463  34.464  30.914  1.00  0.00    -0.376 OA
BRANCH  37  38
ATOM     38  C   UNL A   1      34.317  34.457  32.044  1.00  0.00     0.202 C 
BRANCH  38  39
ATOM     39  C   UNL A   1      35.852  34.322  32.020  1.00  0.00     0.261 C 
BRANCH  39  40
ATOM     40  O   UNL A   1      36.438  33.443  31.060  1.00  0.00    -0.460 OA
BRANCH  40  41
ATOM     41  C   UNL A   1      36.364  32.121  31.364  1.00  0.00     0.338 C 
ATOM     42  O   UNL A   1      35.391  31.400  31.311  1.00  0.00    -0.246 OA
BRANCH  41  43
ATOM     43  C   UNL A   1      37.728  31.620  31.616  1.00  0.00     0.060 A 
ATOM     44  C   UNL A   1      38.755  32.005  30.744  1.00  0.00     0.016 A 
ATOM     45  C   UNL A   1      37.978  30.746  32.672  1.00  0.00     0.016 A 
ATOM     46  C   UNL A   1      40.042  31.497  30.917  1.00  0.00     0.010 A 
ATOM     47  C   UNL A   1      39.263  30.220  32.832  1.00  0.00     0.010 A 
ATOM     48  C   UNL A   1      40.293  30.573  31.940  1.00  0.00    -0.014 A 
BRANCH  48  49
ATOM     49  C   UNL A   1      41.585  29.847  31.978  1.00  0.00     0.031 A 
ATOM     50  C   UNL A   1      42.615  30.264  32.989  1.00  0.00     0.074 A 
ATOM     51  C   UNL A   1      41.837  28.833  31.134  1.00  0.00     0.049 A 
ATOM     52  N   UNL A   1      43.840  29.837  33.157  1.00  0.00    -0.248 NA
ATOM     53  C   UNL A   1      42.207  31.316  33.934  1.00  0.00     0.031 C 
ATOM     54  C   UNL A   1      40.904  28.308  30.139  1.00  0.00     0.029 A 
ATOM     55  N   UNL A   1      42.967  28.069  30.975  1.00  0.00    -0.354 N 
ATOM     56  C   UNL A   1      44.347  30.564  34.224  1.00  0.00     0.074 A 
ATOM     57  C   UNL A   1      43.315  31.491  34.637  1.00  0.00     0.031 C 
ATOM     58  C   UNL A   1      41.506  27.315  29.461  1.00  0.00     0.029 A 
ATOM     59  C   UNL A   1      42.876  27.160  29.950  1.00  0.00     0.049 A 
ATOM     60  H   UNL A   1      43.766  28.165  31.542  1.00  0.00     0.167 HD
ATOM     61  C   UNL A   1      45.564  30.464  34.813  1.00  0.00     0.037 A 
ATOM     62  C   UNL A   1      43.804  26.321  29.450  1.00  0.00     0.037 A 
ATOM     63  C   UNL A   1      46.590  29.545  34.396  1.00  0.00     0.049 A 
ATOM     64  C   UNL A   1      45.181  26.288  30.065  1.00  0.00     0.074 A 
ATOM     65  C   UNL A   1      47.854  29.362  34.929  1.00  0.00     0.029 A 
ATOM     66  N   UNL A   1      46.471  28.656  33.337  1.00  0.00    -0.354 N 
ATOM     67  N   UNL A   1      45.654  26.969  31.082  1.00  0.00    -0.248 NA
ATOM     68  C   UNL A   1      46.155  25.368  29.460  1.00  0.00     0.031 C 
ATOM     69  C   UNL A   1      48.521  28.408  34.153  1.00  0.00     0.029 A 
ATOM     70  C   UNL A   1      47.651  27.948  33.179  1.00  0.00     0.049 A 
ATOM     71  H   UNL A   1      45.667  28.547  32.779  1.00  0.00     0.167 HD
ATOM     72  C   UNL A   1      46.962  26.535  31.260  1.00  0.00     0.074 A 
ATOM     73  C   UNL A   1      47.206  25.525  30.252  1.00  0.00     0.031 C 
ATOM     74  C   UNL A   1      47.877  26.936  32.177  1.00  0.00     0.037 A 
BRANCH  61  75
ATOM     75  C   UNL A   1      45.863  31.403  35.945  1.00  0.00     0.064 A 
ATOM     76  C   UNL A   1      45.564  31.080  37.278  1.00  0.00     0.173 A 
ATOM     77  C   UNL A   1      46.477  32.639  35.693  1.00  0.00     0.173 A 
ATOM     78  F   UNL A   1      44.959  29.920  37.576  1.00  0.00    -0.203 F 
ATOM     79  C   UNL A   1      45.844  31.971  38.311  1.00  0.00     0.198 A 
ATOM     80  C   UNL A   1      46.785  33.514  36.732  1.00  0.00     0.198 A 
ATOM     81  F   UNL A   1      46.785  33.000  34.438  1.00  0.00    -0.203 F 
ATOM     82  F   UNL A   1      45.499  31.663  39.569  1.00  0.00    -0.200 F 
ATOM     83  C   UNL A   1      46.460  33.183  38.039  1.00  0.00     0.200 A 
ATOM     84  F   UNL A   1      47.392  34.679  36.467  1.00  0.00    -0.200 F 
ATOM     85  F   UNL A   1      46.733  34.037  39.035  1.00  0.00    -0.200 F 
ENDBRANCH  61  75
BRANCH  62  86
ATOM     86  C   UNL A   1      43.470  25.446  28.294  1.00  0.00     0.064 A 
ATOM     87  C   UNL A   1      43.066  24.118  28.486  1.00  0.00     0.173 A 
ATOM     88  C   UNL A   1      43.574  25.912  26.975  1.00  0.00     0.173 A 
ATOM     89  F   UNL A   1      42.980  23.617  29.727  1.00  0.00    -0.203 F 
ATOM     90  C   UNL A   1      42.797  23.284  27.403  1.00  0.00     0.198 A 
ATOM     91  C   UNL A   1      43.274  25.086  25.894  1.00  0.00     0.198 A 
ATOM     92  F   UNL A   1      43.962  27.173  26.736  1.00  0.00    -0.203 F 
ATOM     93  F   UNL A   1      42.463  22.003  27.615  1.00  0.00    -0.200 F 
ATOM     94  C   UNL A   1      42.894  23.770  26.108  1.00  0.00     0.200 A 
ATOM     95  F   UNL A   1      43.360  25.564  24.645  1.00  0.00    -0.200 F 
ATOM     96  F   UNL A   1      42.634  22.968  25.068  1.00  0.00    -0.200 F 
ENDBRANCH  62  86
BRANCH  74  97
ATOM     97  C   UNL A   1      49.216  26.251  32.168  1.00  0.00     0.064 A 
ATOM     98  C   UNL A   1      49.432  25.037  32.837  1.00  0.00     0.173 A 
ATOM     99  C   UNL A   1      50.286  26.797  31.441  1.00  0.00     0.173 A 
ATOM    100  F   UNL A   1      48.448  24.477  33.556  1.00  0.00    -0.203 F 
ATOM    101  C   UNL A   1      50.676  24.411  32.800  1.00  0.00     0.198 A 
ATOM    102  C   UNL A   1      51.518  26.151  31.378  1.00  0.00     0.198 A 
ATOM    103  F   UNL A   1      50.132  27.952  30.775  1.00  0.00    -0.203 F 
ATOM    104  F   UNL A   1      50.874  23.278  33.488  1.00  0.00    -0.200 F 
ATOM    105  C   UNL A   1      51.714  24.964  32.065  1.00  0.00     0.200 A 
ATOM    106  F   UNL A   1      52.513  26.679  30.653  1.00  0.00    -0.200 F 
ATOM    107  F   UNL A   1      52.908  24.355  32.023  1.00  0.00    -0.200 F 
ENDBRANCH  74  97
ENDBRANCH  48  49
ENDBRANCH  41  43
ENDBRANCH  40  41
ENDBRANCH  39  40
ENDBRANCH  38  39
ENDBRANCH  37  38
ENDBRANCH  36  37
ENDBRANCH  35  36
ENDBRANCH  34  35
ENDBRANCH   1  34
TORSDOF 23
ENDMDL
