MODEL 1
REMARK VINA RESULT:     -12.2      0.000      0.000
REMARK SMILES Cc1cc2nc(NC3=[NH+][C@H](CC(=O)OCCOCCOCCOC(=O)c4ccc(-c5c6nc(c(-c7c(F)c(F)c(F)c(F)c7F)c7ccc([nH]7)c(-c7c(F)c(F)c(F)c(F)c7F)c7nc(c(-c8c(F)c(F)c(F)c(F)c8F)c8ccc5[nH]8)C=C7)C=C6)cc4)C(=O)N3)nc(C)c2cc1C
REMARK SMILES IDX 18 1 17 2 16 3 15 4 14 5 12 6 13 7 11 8 10 9 7 10 8 11 9 13
REMARK SMILES IDX 91 14 89 16 90 18 6 19 1 20 2 21 3 22 97 23 4 24 96 25 98 26
REMARK SMILES IDX 5 27 95 28 93 29 92 30 94 31 19 32 20 33 21 34 22 35 23 36
REMARK SMILES IDX 24 37 25 38 26 39 27 40 88 41 28 42 87 43 29 44 30 45 31 46
REMARK SMILES IDX 81 47 32 48 86 49 80 50 82 51 33 52 85 53 79 54 78 55 34 57
REMARK SMILES IDX 66 58 46 59 65 60 47 61 50 62 64 63 83 64 48 65 49 66 63 68
REMARK SMILES IDX 84 69 51 70 35 71 36 72 44 73 37 74 38 75 42 76 45 77 39 78
REMARK SMILES IDX 40 79 43 80 41 81 67 82 68 83 76 84 69 85 70 86 74 87 77 88
REMARK SMILES IDX 71 89 72 90 75 91 73 92 52 93 53 94 61 95 54 96 55 97 59 98
REMARK SMILES IDX 62 99 56 100 57 101 60 102 58 103
REMARK H PARENT 7 12 9 15 91 17 82 56 50 67
REMARK Flexibility Score: inf
ROOT
ATOM      1  C   UNL A   1      33.292  29.670  26.904  1.00  0.00     0.188 C 
ENDROOT
BRANCH   1   2
ATOM      2  O   UNL A   1      33.604  28.284  26.804  1.00  0.00    -0.376 OA
BRANCH   2   3
ATOM      3  C   UNL A   1      34.016  27.823  25.514  1.00  0.00     0.202 C 
BRANCH   3   4
ATOM      4  C   UNL A   1      33.550  26.412  25.122  1.00  0.00     0.261 C 
BRANCH   4   5
ATOM      5  O   UNL A   1      34.241  25.880  23.974  1.00  0.00    -0.463 OA
BRANCH   5   6
ATOM      6  C   UNL A   1      33.476  25.492  22.922  1.00  0.00     0.310 C 
ATOM      7  O   UNL A   1      33.649  24.450  22.292  1.00  0.00    -0.252 OA
BRANCH   6   8
ATOM      8  C   UNL A   1      32.267  26.367  22.654  1.00  0.00     0.175 C 
BRANCH   8   9
ATOM      9  C   UNL A   1      30.878  25.770  22.827  1.00  0.00     0.262 C 
ATOM     10  N   UNL A   1      30.660  23.094  25.141  1.00  0.00    -0.212 N 
ATOM     11  C   UNL A   1      30.562  24.222  24.400  1.00  0.00     0.358 C 
ATOM     12  H   UNL A   1      29.917  22.833  25.730  1.00  0.00     0.270 HD
ATOM     13  N   UNL A   1      30.982  24.348  23.182  1.00  0.00    -0.263 N 
ATOM     14  N   UNL A   1      30.019  25.339  24.920  1.00  0.00    -0.211 N 
ATOM     15  H   UNL A   1      31.310  23.625  22.601  1.00  0.00     0.261 HD
ATOM     16  C   UNL A   1      30.199  26.363  24.048  1.00  0.00     0.320 C 
ATOM     17  H   UNL A   1      29.566  25.402  25.793  1.00  0.00     0.270 HD
ATOM     18  O   UNL A   1      29.926  27.534  24.248  1.00  0.00    -0.252 OA
BRANCH  10  19
ATOM     19  C   UNL A   1      31.798  22.298  25.080  1.00  0.00     0.291 A 
ATOM     20  C   UNL A   1      37.818  22.882  25.268  1.00  0.00     0.044 C 
ATOM     21  C   UNL A   1      36.536  22.099  25.193  1.00  0.00    -0.046 A 
ATOM     22  C   UNL A   1      35.317  22.787  25.240  1.00  0.00     0.033 A 
ATOM     23  C   UNL A   1      36.517  20.701  25.073  1.00  0.00    -0.047 A 
ATOM     24  C   UNL A   1      34.096  22.138  25.158  1.00  0.00     0.078 A 
ATOM     25  C   UNL A   1      35.279  20.039  24.997  1.00  0.00     0.016 A 
ATOM     26  C   UNL A   1      37.791  19.907  25.001  1.00  0.00     0.044 C 
ATOM     27  N   UNL A   1      32.999  22.879  25.199  1.00  0.00    -0.198 NA
ATOM     28  C   UNL A   1      34.056  20.755  25.036  1.00  0.00     0.022 A 
ATOM     29  C   UNL A   1      32.760  20.215  24.960  1.00  0.00     0.052 A 
ATOM     30  N   UNL A   1      31.634  20.974  24.999  1.00  0.00    -0.203 NA
ATOM     31  C   UNL A   1      32.534  18.737  24.838  1.00  0.00     0.067 C 
ENDBRANCH  10  19
ENDBRANCH   8   9
ENDBRANCH   6   8
ENDBRANCH   5   6
ENDBRANCH   4   5
ENDBRANCH   3   4
ENDBRANCH   2   3
ENDBRANCH   1   2
BRANCH   1  32
ATOM     32  C   UNL A   1      32.141  30.157  26.025  1.00  0.00     0.188 C 
BRANCH  32  33
ATOM     33  O   UNL A   1      31.575  31.410  26.361  1.00  0.00    -0.376 OA
BRANCH  33  34
ATOM     34  C   UNL A   1      32.122  32.094  27.488  1.00  0.00     0.202 C 
BRANCH  34  35
ATOM     35  C   UNL A   1      32.655  33.533  27.299  1.00  0.00     0.261 C 
BRANCH  35  36
ATOM     36  O   UNL A   1      32.153  34.554  28.190  1.00  0.00    -0.460 OA
BRANCH  36  37
ATOM     37  C   UNL A   1      33.012  35.474  28.689  1.00  0.00     0.338 C 
ATOM     38  O   UNL A   1      32.782  36.661  28.852  1.00  0.00    -0.246 OA
BRANCH  37  39
ATOM     39  C   UNL A   1      34.179  34.745  29.282  1.00  0.00     0.060 A 
ATOM     40  C   UNL A   1      35.429  34.708  28.655  1.00  0.00     0.016 A 
ATOM     41  C   UNL A   1      33.972  33.971  30.436  1.00  0.00     0.016 A 
ATOM     42  C   UNL A   1      36.462  33.924  29.192  1.00  0.00     0.010 A 
ATOM     43  C   UNL A   1      35.003  33.182  30.967  1.00  0.00     0.010 A 
ATOM     44  C   UNL A   1      36.268  33.165  30.362  1.00  0.00    -0.014 A 
BRANCH  44  45
ATOM     45  C   UNL A   1      37.433  32.530  31.039  1.00  0.00     0.031 A 
ATOM     46  C   UNL A   1      37.912  32.932  32.406  1.00  0.00     0.074 A 
ATOM     47  C   UNL A   1      38.083  31.550  30.378  1.00  0.00     0.049 A 
ATOM     48  N   UNL A   1      38.847  32.380  33.143  1.00  0.00    -0.248 NA
ATOM     49  C   UNL A   1      37.276  34.102  33.021  1.00  0.00     0.031 C 
ATOM     50  C   UNL A   1      37.750  31.096  29.028  1.00  0.00     0.029 A 
ATOM     51  N   UNL A   1      39.138  30.754  30.749  1.00  0.00    -0.354 N 
ATOM     52  C   UNL A   1      38.894  33.114  34.320  1.00  0.00     0.074 A 
ATOM     53  C   UNL A   1      37.928  34.187  34.177  1.00  0.00     0.031 C 
ATOM     54  C   UNL A   1      38.557  30.079  28.697  1.00  0.00     0.029 A 
ATOM     55  C   UNL A   1      39.482  29.824  29.798  1.00  0.00     0.049 A 
ATOM     56  H   UNL A   1      39.604  30.841  31.612  1.00  0.00     0.167 HD
ATOM     57  C   UNL A   1      39.655  32.898  35.424  1.00  0.00     0.037 A 
ATOM     58  C   UNL A   1      40.425  28.863  29.808  1.00  0.00     0.037 A 
ATOM     59  C   UNL A   1      40.631  31.840  35.559  1.00  0.00     0.049 A 
ATOM     60  C   UNL A   1      41.285  28.673  31.027  1.00  0.00     0.074 A 
ATOM     61  C   UNL A   1      41.406  31.521  36.662  1.00  0.00     0.029 A 
ATOM     62  N   UNL A   1      40.980  30.945  34.560  1.00  0.00    -0.354 N 
ATOM     63  N   UNL A   1      41.245  29.307  32.172  1.00  0.00    -0.248 NA
ATOM     64  C   UNL A   1      42.316  27.628  30.957  1.00  0.00     0.031 C 
ATOM     65  C   UNL A   1      42.266  30.474  36.312  1.00  0.00     0.029 A 
ATOM     66  C   UNL A   1      41.985  30.098  35.010  1.00  0.00     0.049 A 
ATOM     67  H   UNL A   1      40.575  30.912  33.663  1.00  0.00     0.167 HD
ATOM     68  C   UNL A   1      42.227  28.729  32.964  1.00  0.00     0.074 A 
ATOM     69  C   UNL A   1      42.833  27.674  32.178  1.00  0.00     0.031 C 
ATOM     70  C   UNL A   1      42.593  29.050  34.229  1.00  0.00     0.037 A 
BRANCH  57  71
ATOM     71  C   UNL A   1      39.461  33.805  36.608  1.00  0.00     0.064 A 
ATOM     72  C   UNL A   1      38.659  33.421  37.693  1.00  0.00     0.173 A 
ATOM     73  C   UNL A   1      40.174  35.010  36.717  1.00  0.00     0.173 A 
ATOM     74  F   UNL A   1      37.965  32.274  37.647  1.00  0.00    -0.203 F 
ATOM     75  C   UNL A   1      38.565  34.214  38.835  1.00  0.00     0.198 A 
ATOM     76  C   UNL A   1      40.100  35.787  37.872  1.00  0.00     0.198 A 
ATOM     77  F   UNL A   1      40.975  35.416  35.720  1.00  0.00    -0.203 F 
ATOM     78  F   UNL A   1      37.778  33.834  39.850  1.00  0.00    -0.200 F 
ATOM     79  C   UNL A   1      39.293  35.391  38.927  1.00  0.00     0.200 A 
ATOM     80  F   UNL A   1      40.826  36.910  37.971  1.00  0.00    -0.200 F 
ATOM     81  F   UNL A   1      39.223  36.139  40.038  1.00  0.00    -0.200 F 
ENDBRANCH  57  71
BRANCH  58  82
ATOM     82  C   UNL A   1      40.571  27.971  28.627  1.00  0.00     0.064 A 
ATOM     83  C   UNL A   1      39.881  26.753  28.557  1.00  0.00     0.173 A 
ATOM     84  C   UNL A   1      41.375  28.332  27.537  1.00  0.00     0.173 A 
ATOM     85  F   UNL A   1      39.114  26.358  29.584  1.00  0.00    -0.203 F 
ATOM     86  C   UNL A   1      39.999  25.924  27.445  1.00  0.00     0.198 A 
ATOM     87  C   UNL A   1      41.468  27.515  26.411  1.00  0.00     0.198 A 
ATOM     88  F   UNL A   1      42.051  29.490  27.553  1.00  0.00    -0.203 F 
ATOM     89  F   UNL A   1      39.358  24.747  27.418  1.00  0.00    -0.200 F 
ATOM     90  C   UNL A   1      40.785  26.310  26.369  1.00  0.00     0.200 A 
ATOM     91  F   UNL A   1      42.213  27.901  25.367  1.00  0.00    -0.200 F 
ATOM     92  F   UNL A   1      40.886  25.518  25.292  1.00  0.00    -0.200 F 
ENDBRANCH  58  82
BRANCH  70  93
ATOM     93  C   UNL A   1      43.701  28.254  34.862  1.00  0.00     0.064 A 
ATOM     94  C   UNL A   1      45.033  28.695  34.825  1.00  0.00     0.173 A 
ATOM     95  C   UNL A   1      43.421  27.078  35.576  1.00  0.00     0.173 A 
ATOM     96  F   UNL A   1      45.359  29.804  34.144  1.00  0.00    -0.203 F 
ATOM     97  C   UNL A   1      46.043  27.983  35.469  1.00  0.00     0.198 A 
ATOM     98  C   UNL A   1      44.428  26.386  36.245  1.00  0.00     0.198 A 
ATOM     99  F   UNL A   1      42.165  26.613  35.647  1.00  0.00    -0.203 F 
ATOM    100  F   UNL A   1      47.313  28.404  35.391  1.00  0.00    -0.200 F 
ATOM    101  C   UNL A   1      45.738  26.836  36.188  1.00  0.00     0.200 A 
ATOM    102  F   UNL A   1      44.128  25.288  36.952  1.00  0.00    -0.200 F 
ATOM    103  F   UNL A   1      46.708  26.165  36.824  1.00  0.00    -0.200 F 
ENDBRANCH  70  93
ENDBRANCH  44  45
ENDBRANCH  37  39
ENDBRANCH  36  37
ENDBRANCH  35  36
ENDBRANCH  34  35
ENDBRANCH  33  34
ENDBRANCH  32  33
ENDBRANCH   1  32
TORSDOF 19
ENDMDL
MODEL 2
REMARK VINA RESULT:     -12.2      3.409      9.183
REMARK SMILES Cc1cc2nc(NC3=[NH+][C@H](CC(=O)OCCOCCOCCOC(=O)c4ccc(-c5c6nc(c(-c7c(F)c(F)c(F)c(F)c7F)c7ccc([nH]7)c(-c7c(F)c(F)c(F)c(F)c7F)c7nc(c(-c8c(F)c(F)c(F)c(F)c8F)c8ccc5[nH]8)C=C7)C=C6)cc4)C(=O)N3)nc(C)c2cc1C
REMARK SMILES IDX 18 1 17 2 16 3 15 4 14 5 12 6 13 7 11 8 10 9 7 10 8 11 9 13
REMARK SMILES IDX 91 14 89 16 90 18 6 19 1 20 2 21 3 22 97 23 4 24 96 25 98 26
REMARK SMILES IDX 5 27 95 28 93 29 92 30 94 31 19 32 20 33 21 34 22 35 23 36
REMARK SMILES IDX 24 37 25 38 26 39 27 40 88 41 28 42 87 43 29 44 30 45 31 46
REMARK SMILES IDX 81 47 32 48 86 49 80 50 82 51 33 52 85 53 79 54 78 55 34 57
REMARK SMILES IDX 66 58 46 59 65 60 47 61 50 62 64 63 83 64 48 65 49 66 63 68
REMARK SMILES IDX 84 69 51 70 35 71 36 72 44 73 37 74 38 75 42 76 45 77 39 78
REMARK SMILES IDX 40 79 43 80 41 81 67 82 68 83 76 84 69 85 70 86 74 87 77 88
REMARK SMILES IDX 71 89 72 90 75 91 73 92 52 93 53 94 61 95 54 96 55 97 59 98
REMARK SMILES IDX 62 99 56 100 57 101 60 102 58 103
REMARK H PARENT 7 12 9 15 91 17 82 56 50 67
REMARK Flexibility Score: inf
ROOT
ATOM      1  C   UNL A   1      42.053  21.335  27.433  1.00  0.00     0.188 C 
ENDROOT
BRANCH   1   2
ATOM      2  O   UNL A   1      40.795  21.987  27.569  1.00  0.00    -0.376 OA
BRANCH   2   3
ATOM      3  C   UNL A   1      39.788  21.615  26.623  1.00  0.00     0.202 C 
BRANCH   3   4
ATOM      4  C   UNL A   1      38.885  22.751  26.118  1.00  0.00     0.261 C 
BRANCH   4   5
ATOM      5  O   UNL A   1      37.481  22.424  26.149  1.00  0.00    -0.463 OA
BRANCH   5   6
ATOM      6  C   UNL A   1      36.927  21.985  24.991  1.00  0.00     0.310 C 
ATOM      7  O   UNL A   1      37.446  21.151  24.252  1.00  0.00    -0.252 OA
BRANCH   6   8
ATOM      8  C   UNL A   1      35.520  22.485  24.726  1.00  0.00     0.175 C 
BRANCH   8   9
ATOM      9  C   UNL A   1      34.393  22.015  25.635  1.00  0.00     0.262 C 
ATOM     10  N   UNL A   1      31.134  22.953  24.607  1.00  0.00    -0.212 N 
ATOM     11  C   UNL A   1      32.285  22.358  24.996  1.00  0.00     0.358 C 
ATOM     12  H   UNL A   1      30.279  22.479  24.722  1.00  0.00     0.270 HD
ATOM     13  N   UNL A   1      33.272  22.962  25.577  1.00  0.00    -0.263 N 
ATOM     14  N   UNL A   1      32.491  21.048  24.767  1.00  0.00    -0.211 N 
ATOM     15  H   UNL A   1      33.271  23.885  25.918  1.00  0.00     0.261 HD
ATOM     16  C   UNL A   1      33.773  20.741  25.087  1.00  0.00     0.320 C 
ATOM     17  H   UNL A   1      31.819  20.414  24.423  1.00  0.00     0.270 HD
ATOM     18  O   UNL A   1      34.325  19.671  24.900  1.00  0.00    -0.252 OA
BRANCH  10  19
ATOM     19  C   UNL A   1      31.141  24.226  24.048  1.00  0.00     0.291 A 
ATOM     20  C   UNL A   1      27.369  28.877  23.187  1.00  0.00     0.044 C 
ATOM     21  C   UNL A   1      28.701  28.185  23.114  1.00  0.00    -0.046 A 
ATOM     22  C   UNL A   1      28.824  26.893  23.641  1.00  0.00     0.033 A 
ATOM     23  C   UNL A   1      29.828  28.786  22.534  1.00  0.00    -0.047 A 
ATOM     24  C   UNL A   1      30.014  26.185  23.596  1.00  0.00     0.078 A 
ATOM     25  C   UNL A   1      31.038  28.072  22.492  1.00  0.00     0.016 A 
ATOM     26  C   UNL A   1      29.757  30.164  21.937  1.00  0.00     0.044 C 
ATOM     27  N   UNL A   1      30.025  24.963  24.109  1.00  0.00    -0.198 NA
ATOM     28  C   UNL A   1      31.139  26.761  23.021  1.00  0.00     0.022 A 
ATOM     29  C   UNL A   1      32.283  25.942  23.035  1.00  0.00     0.052 A 
ATOM     30  N   UNL A   1      32.295  24.689  23.558  1.00  0.00    -0.203 NA
ATOM     31  C   UNL A   1      33.589  26.413  22.466  1.00  0.00     0.067 C 
ENDBRANCH  10  19
ENDBRANCH   8   9
ENDBRANCH   6   8
ENDBRANCH   5   6
ENDBRANCH   4   5
ENDBRANCH   3   4
ENDBRANCH   2   3
ENDBRANCH   1   2
BRANCH   1  32
ATOM     32  C   UNL A   1      42.091  20.159  26.456  1.00  0.00     0.188 C 
BRANCH  32  33
ATOM     33  O   UNL A   1      42.991  20.268  25.370  1.00  0.00    -0.376 OA
BRANCH  33  34
ATOM     34  C   UNL A   1      43.879  21.386  25.365  1.00  0.00     0.202 C 
BRANCH  34  35
ATOM     35  C   UNL A   1      43.580  22.570  24.416  1.00  0.00     0.261 C 
BRANCH  35  36
ATOM     36  O   UNL A   1      43.047  23.779  25.002  1.00  0.00    -0.460 OA
BRANCH  36  37
ATOM     37  C   UNL A   1      43.889  24.801  25.285  1.00  0.00     0.338 C 
ATOM     38  O   UNL A   1      44.852  25.146  24.620  1.00  0.00    -0.246 OA
BRANCH  37  39
ATOM     39  C   UNL A   1      43.275  25.619  26.379  1.00  0.00     0.060 A 
ATOM     40  C   UNL A   1      42.274  25.113  27.214  1.00  0.00     0.016 A 
ATOM     41  C   UNL A   1      43.626  26.976  26.481  1.00  0.00     0.016 A 
ATOM     42  C   UNL A   1      41.652  25.949  28.154  1.00  0.00     0.010 A 
ATOM     43  C   UNL A   1      42.998  27.812  27.415  1.00  0.00     0.010 A 
ATOM     44  C   UNL A   1      42.017  27.303  28.278  1.00  0.00    -0.014 A 
BRANCH  44  45
ATOM     45  C   UNL A   1      41.514  28.108  29.427  1.00  0.00     0.031 A 
ATOM     46  C   UNL A   1      40.316  29.010  29.341  1.00  0.00     0.074 A 
ATOM     47  C   UNL A   1      42.181  28.013  30.595  1.00  0.00     0.049 A 
ATOM     48  N   UNL A   1      39.719  29.676  30.300  1.00  0.00    -0.248 NA
ATOM     49  C   UNL A   1      39.715  29.200  28.015  1.00  0.00     0.031 C 
ATOM     50  C   UNL A   1      43.386  27.211  30.802  1.00  0.00     0.029 A 
ATOM     51  N   UNL A   1      41.940  28.577  31.823  1.00  0.00    -0.354 N 
ATOM     52  C   UNL A   1      38.656  30.343  29.706  1.00  0.00     0.074 A 
ATOM     53  C   UNL A   1      38.723  30.042  28.287  1.00  0.00     0.031 C 
ATOM     54  C   UNL A   1      43.758  27.302  32.086  1.00  0.00     0.029 A 
ATOM     55  C   UNL A   1      42.836  28.189  32.790  1.00  0.00     0.049 A 
ATOM     56  H   UNL A   1      41.196  29.201  31.996  1.00  0.00     0.167 HD
ATOM     57  C   UNL A   1      37.704  31.113  30.291  1.00  0.00     0.037 A 
ATOM     58  C   UNL A   1      42.907  28.497  34.099  1.00  0.00     0.037 A 
ATOM     59  C   UNL A   1      37.649  31.427  31.701  1.00  0.00     0.049 A 
ATOM     60  C   UNL A   1      41.864  29.388  34.713  1.00  0.00     0.074 A 
ATOM     61  C   UNL A   1      36.689  32.158  32.383  1.00  0.00     0.029 A 
ATOM     62  N   UNL A   1      38.597  31.050  32.640  1.00  0.00    -0.354 N 
ATOM     63  N   UNL A   1      40.805  29.925  34.159  1.00  0.00    -0.248 NA
ATOM     64  C   UNL A   1      42.021  29.711  36.139  1.00  0.00     0.031 C 
ATOM     65  C   UNL A   1      37.087  32.274  33.719  1.00  0.00     0.029 A 
ATOM     66  C   UNL A   1      38.263  31.564  33.886  1.00  0.00     0.049 A 
ATOM     67  H   UNL A   1      39.391  30.498  32.452  1.00  0.00     0.167 HD
ATOM     68  C   UNL A   1      40.162  30.630  35.167  1.00  0.00     0.074 A 
ATOM     69  C   UNL A   1      40.935  30.434  36.376  1.00  0.00     0.031 C 
ATOM     70  C   UNL A   1      39.032  31.374  35.090  1.00  0.00     0.037 A 
BRANCH  57  71
ATOM     71  C   UNL A   1      36.607  31.667  29.424  1.00  0.00     0.064 A 
ATOM     72  C   UNL A   1      35.560  30.850  28.967  1.00  0.00     0.173 A 
ATOM     73  C   UNL A   1      36.531  33.041  29.146  1.00  0.00     0.173 A 
ATOM     74  F   UNL A   1      35.577  29.532  29.214  1.00  0.00    -0.203 F 
ATOM     75  C   UNL A   1      34.489  31.384  28.254  1.00  0.00     0.198 A 
ATOM     76  C   UNL A   1      35.444  33.577  28.457  1.00  0.00     0.198 A 
ATOM     77  F   UNL A   1      37.491  33.873  29.579  1.00  0.00    -0.203 F 
ATOM     78  F   UNL A   1      33.512  30.581  27.813  1.00  0.00    -0.200 F 
ATOM     79  C   UNL A   1      34.427  32.748  28.009  1.00  0.00     0.200 A 
ATOM     80  F   UNL A   1      35.372  34.898  28.245  1.00  0.00    -0.200 F 
ATOM     81  F   UNL A   1      33.382  33.265  27.346  1.00  0.00    -0.200 F 
ENDBRANCH  57  71
BRANCH  58  82
ATOM     82  C   UNL A   1      43.994  27.912  34.928  1.00  0.00     0.064 A 
ATOM     83  C   UNL A   1      45.191  28.611  35.139  1.00  0.00     0.173 A 
ATOM     84  C   UNL A   1      43.847  26.662  35.546  1.00  0.00     0.173 A 
ATOM     85  F   UNL A   1      45.384  29.802  34.553  1.00  0.00    -0.203 F 
ATOM     86  C   UNL A   1      46.204  28.075  35.930  1.00  0.00     0.198 A 
ATOM     87  C   UNL A   1      44.849  26.142  36.362  1.00  0.00     0.198 A 
ATOM     88  F   UNL A   1      42.718  25.957  35.379  1.00  0.00    -0.203 F 
ATOM     89  F   UNL A   1      47.353  28.746  36.087  1.00  0.00    -0.200 F 
ATOM     90  C   UNL A   1      46.029  26.846  36.549  1.00  0.00     0.200 A 
ATOM     91  F   UNL A   1      44.668  24.964  36.973  1.00  0.00    -0.200 F 
ATOM     92  F   UNL A   1      46.998  26.339  37.322  1.00  0.00    -0.200 F 
ENDBRANCH  58  82
BRANCH  70  93
ATOM     93  C   UNL A   1      38.545  32.041  36.348  1.00  0.00     0.064 A 
ATOM     94  C   UNL A   1      37.795  31.340  37.305  1.00  0.00     0.173 A 
ATOM     95  C   UNL A   1      38.892  33.370  36.636  1.00  0.00     0.173 A 
ATOM     96  F   UNL A   1      37.422  30.072  37.074  1.00  0.00    -0.203 F 
ATOM     97  C   UNL A   1      37.402  31.948  38.495  1.00  0.00     0.198 A 
ATOM     98  C   UNL A   1      38.525  33.965  37.841  1.00  0.00     0.198 A 
ATOM     99  F   UNL A   1      39.612  34.086  35.759  1.00  0.00    -0.203 F 
ATOM    100  F   UNL A   1      36.656  31.269  39.379  1.00  0.00    -0.200 F 
ATOM    101  C   UNL A   1      37.777  33.255  38.767  1.00  0.00     0.200 A 
ATOM    102  F   UNL A   1      38.903  35.222  38.108  1.00  0.00    -0.200 F 
ATOM    103  F   UNL A   1      37.416  33.831  39.922  1.00  0.00    -0.200 F 
ENDBRANCH  70  93
ENDBRANCH  44  45
ENDBRANCH  37  39
ENDBRANCH  36  37
ENDBRANCH  35  36
ENDBRANCH  34  35
ENDBRANCH  33  34
ENDBRANCH  32  33
ENDBRANCH   1  32
TORSDOF 19
ENDMDL
MODEL 3
REMARK VINA RESULT:     -12.1      0.754      2.276
REMARK SMILES Cc1cc2nc(NC3=[NH+][C@H](CC(=O)OCCOCCOCCOC(=O)c4ccc(-c5c6nc(c(-c7c(F)c(F)c(F)c(F)c7F)c7ccc([nH]7)c(-c7c(F)c(F)c(F)c(F)c7F)c7nc(c(-c8c(F)c(F)c(F)c(F)c8F)c8ccc5[nH]8)C=C7)C=C6)cc4)C(=O)N3)nc(C)c2cc1C
REMARK SMILES IDX 18 1 17 2 16 3 15 4 14 5 12 6 13 7 11 8 10 9 7 10 8 11 9 13
REMARK SMILES IDX 91 14 89 16 90 18 6 19 1 20 2 21 3 22 97 23 4 24 96 25 98 26
REMARK SMILES IDX 5 27 95 28 93 29 92 30 94 31 19 32 20 33 21 34 22 35 23 36
REMARK SMILES IDX 24 37 25 38 26 39 27 40 88 41 28 42 87 43 29 44 30 45 31 46
REMARK SMILES IDX 81 47 32 48 86 49 80 50 82 51 33 52 85 53 79 54 78 55 34 57
REMARK SMILES IDX 66 58 46 59 65 60 47 61 50 62 64 63 83 64 48 65 49 66 63 68
REMARK SMILES IDX 84 69 51 70 35 71 36 72 44 73 37 74 38 75 42 76 45 77 39 78
REMARK SMILES IDX 40 79 43 80 41 81 67 82 68 83 76 84 69 85 70 86 74 87 77 88
REMARK SMILES IDX 71 89 72 90 75 91 73 92 52 93 53 94 61 95 54 96 55 97 59 98
REMARK SMILES IDX 62 99 56 100 57 101 60 102 58 103
REMARK H PARENT 7 12 9 15 91 17 82 56 50 67
REMARK Flexibility Score: inf
ROOT
ATOM      1  C   UNL A   1      33.836  29.321  27.402  1.00  0.00     0.188 C 
ENDROOT
BRANCH   1   2
ATOM      2  O   UNL A   1      34.447  28.551  26.372  1.00  0.00    -0.376 OA
BRANCH   2   3
ATOM      3  C   UNL A   1      33.760  28.519  25.118  1.00  0.00     0.202 C 
BRANCH   3   4
ATOM      4  C   UNL A   1      33.174  27.159  24.705  1.00  0.00     0.261 C 
BRANCH   4   5
ATOM      5  O   UNL A   1      33.907  26.520  23.640  1.00  0.00    -0.463 OA
BRANCH   5   6
ATOM      6  C   UNL A   1      33.252  26.341  22.465  1.00  0.00     0.310 C 
ATOM      7  O   UNL A   1      33.644  25.602  21.564  1.00  0.00    -0.252 OA
BRANCH   6   8
ATOM      8  C   UNL A   1      31.893  27.009  22.383  1.00  0.00     0.175 C 
BRANCH   8   9
ATOM      9  C   UNL A   1      30.646  26.136  22.410  1.00  0.00     0.262 C 
ATOM     10  N   UNL A   1      30.685  23.518  24.798  1.00  0.00    -0.212 N 
ATOM     11  C   UNL A   1      30.454  24.587  24.001  1.00  0.00     0.358 C 
ATOM     12  H   UNL A   1      29.941  23.118  25.302  1.00  0.00     0.270 HD
ATOM     13  N   UNL A   1      30.993  24.775  22.839  1.00  0.00    -0.263 N 
ATOM     14  N   UNL A   1      29.630  25.574  24.399  1.00  0.00    -0.211 N 
ATOM     15  H   UNL A   1      31.536  24.126  22.336  1.00  0.00     0.261 HD
ATOM     16  C   UNL A   1      29.707  26.596  23.510  1.00  0.00     0.320 C 
ATOM     17  H   UNL A   1      29.064  25.557  25.205  1.00  0.00     0.270 HD
ATOM     18  O   UNL A   1      29.176  27.688  23.622  1.00  0.00    -0.252 OA
BRANCH  10  19
ATOM     19  C   UNL A   1      31.961  22.977  24.914  1.00  0.00     0.291 A 
ATOM     20  C   UNL A   1      34.740  17.631  24.358  1.00  0.00     0.044 C 
ATOM     21  C   UNL A   1      34.695  19.114  24.603  1.00  0.00    -0.046 A 
ATOM     22  C   UNL A   1      33.466  19.779  24.519  1.00  0.00     0.033 A 
ATOM     23  C   UNL A   1      35.844  19.857  24.916  1.00  0.00    -0.047 A 
ATOM     24  C   UNL A   1      33.342  21.139  24.748  1.00  0.00     0.078 A 
ATOM     25  C   UNL A   1      35.722  21.238  25.143  1.00  0.00     0.016 A 
ATOM     26  C   UNL A   1      37.190  19.198  25.036  1.00  0.00     0.044 C 
ATOM     27  N   UNL A   1      32.133  21.674  24.658  1.00  0.00    -0.198 NA
ATOM     28  C   UNL A   1      34.466  21.892  25.064  1.00  0.00     0.022 A 
ATOM     29  C   UNL A   1      34.211  23.258  25.276  1.00  0.00     0.052 A 
ATOM     30  N   UNL A   1      32.972  23.807  25.186  1.00  0.00    -0.203 NA
ATOM     31  C   UNL A   1      35.315  24.217  25.614  1.00  0.00     0.067 C 
ENDBRANCH  10  19
ENDBRANCH   8   9
ENDBRANCH   6   8
ENDBRANCH   5   6
ENDBRANCH   4   5
ENDBRANCH   3   4
ENDBRANCH   2   3
ENDBRANCH   1   2
BRANCH   1  32
ATOM     32  C   UNL A   1      32.361  29.663  27.190  1.00  0.00     0.188 C 
BRANCH  32  33
ATOM     33  O   UNL A   1      32.063  31.011  26.879  1.00  0.00    -0.376 OA
BRANCH  33  34
ATOM     34  C   UNL A   1      32.949  32.011  27.383  1.00  0.00     0.202 C 
BRANCH  34  35
ATOM     35  C   UNL A   1      32.531  33.496  27.281  1.00  0.00     0.261 C 
BRANCH  35  36
ATOM     36  O   UNL A   1      32.346  34.225  28.515  1.00  0.00    -0.460 OA
BRANCH  36  37
ATOM     37  C   UNL A   1      33.268  35.146  28.880  1.00  0.00     0.338 C 
ATOM     38  O   UNL A   1      33.085  36.349  28.978  1.00  0.00    -0.246 OA
BRANCH  37  39
ATOM     39  C   UNL A   1      34.458  34.421  29.429  1.00  0.00     0.060 A 
ATOM     40  C   UNL A   1      35.727  34.528  28.850  1.00  0.00     0.016 A 
ATOM     41  C   UNL A   1      34.263  33.507  30.478  1.00  0.00     0.016 A 
ATOM     42  C   UNL A   1      36.789  33.747  29.331  1.00  0.00     0.010 A 
ATOM     43  C   UNL A   1      35.323  32.721  30.953  1.00  0.00     0.010 A 
ATOM     44  C   UNL A   1      36.605  32.847  30.398  1.00  0.00    -0.014 A 
BRANCH  44  45
ATOM     45  C   UNL A   1      37.785  32.204  31.041  1.00  0.00     0.031 A 
ATOM     46  C   UNL A   1      38.266  32.556  32.421  1.00  0.00     0.074 A 
ATOM     47  C   UNL A   1      38.448  31.265  30.336  1.00  0.00     0.049 A 
ATOM     48  N   UNL A   1      39.214  31.990  33.129  1.00  0.00    -0.248 NA
ATOM     49  C   UNL A   1      37.612  33.687  33.090  1.00  0.00     0.031 C 
ATOM     50  C   UNL A   1      38.115  30.864  28.969  1.00  0.00     0.029 A 
ATOM     51  N   UNL A   1      39.519  30.473  30.666  1.00  0.00    -0.354 N 
ATOM     52  C   UNL A   1      39.256  32.673  34.337  1.00  0.00     0.074 A 
ATOM     53  C   UNL A   1      38.270  33.734  34.244  1.00  0.00     0.031 C 
ATOM     54  C   UNL A   1      38.937  29.876  28.591  1.00  0.00     0.029 A 
ATOM     55  C   UNL A   1      39.873  29.590  29.675  1.00  0.00     0.049 A 
ATOM     56  H   UNL A   1      39.989  30.532  31.530  1.00  0.00     0.167 HD
ATOM     57  C   UNL A   1      40.027  32.424  35.426  1.00  0.00     0.037 A 
ATOM     58  C   UNL A   1      40.833  28.646  29.639  1.00  0.00     0.037 A 
ATOM     59  C   UNL A   1      41.022  31.379  35.511  1.00  0.00     0.049 A 
ATOM     60  C   UNL A   1      41.703  28.421  30.843  1.00  0.00     0.074 A 
ATOM     61  C   UNL A   1      41.810  31.026  36.595  1.00  0.00     0.029 A 
ATOM     62  N   UNL A   1      41.381  30.533  34.472  1.00  0.00    -0.354 N 
ATOM     63  N   UNL A   1      41.659  29.004  32.015  1.00  0.00    -0.248 NA
ATOM     64  C   UNL A   1      42.753  27.398  30.723  1.00  0.00     0.031 C 
ATOM     65  C   UNL A   1      42.685  30.011  36.195  1.00  0.00     0.029 A 
ATOM     66  C   UNL A   1      42.403  29.686  34.880  1.00  0.00     0.049 A 
ATOM     67  H   UNL A   1      40.971  30.532  33.576  1.00  0.00     0.167 HD
ATOM     68  C   UNL A   1      42.657  28.410  32.776  1.00  0.00     0.074 A 
ATOM     69  C   UNL A   1      43.276  27.401  31.942  1.00  0.00     0.031 C 
ATOM     70  C   UNL A   1      43.024  28.683  34.051  1.00  0.00     0.037 A 
BRANCH  57  71
ATOM     71  C   UNL A   1      39.825  33.276  36.649  1.00  0.00     0.064 A 
ATOM     72  C   UNL A   1      40.541  34.470  36.828  1.00  0.00     0.173 A 
ATOM     73  C   UNL A   1      38.827  32.967  37.586  1.00  0.00     0.173 A 
ATOM     74  F   UNL A   1      41.498  34.821  35.955  1.00  0.00    -0.203 F 
ATOM     75  C   UNL A   1      40.277  35.312  37.906  1.00  0.00     0.198 A 
ATOM     76  C   UNL A   1      38.546  33.825  38.648  1.00  0.00     0.198 A 
ATOM     77  F   UNL A   1      38.095  31.850  37.452  1.00  0.00    -0.203 F 
ATOM     78  F   UNL A   1      40.987  36.438  38.065  1.00  0.00    -0.200 F 
ATOM     79  C   UNL A   1      39.273  34.994  38.809  1.00  0.00     0.200 A 
ATOM     80  F   UNL A   1      37.557  33.530  39.503  1.00  0.00    -0.200 F 
ATOM     81  F   UNL A   1      39.002  35.819  39.830  1.00  0.00    -0.200 F 
ENDBRANCH  57  71
BRANCH  58  82
ATOM     82  C   UNL A   1      40.987  27.809  28.419  1.00  0.00     0.064 A 
ATOM     83  C   UNL A   1      41.865  28.189  27.394  1.00  0.00     0.173 A 
ATOM     84  C   UNL A   1      40.287  26.604  28.269  1.00  0.00     0.173 A 
ATOM     85  F   UNL A   1      42.543  29.343  27.485  1.00  0.00    -0.203 F 
ATOM     86  C   UNL A   1      42.027  27.399  26.259  1.00  0.00     0.198 A 
ATOM     87  C   UNL A   1      40.473  25.800  27.147  1.00  0.00     0.198 A 
ATOM     88  F   UNL A   1      39.440  26.195  29.225  1.00  0.00    -0.203 F 
ATOM     89  F   UNL A   1      42.843  27.802  25.276  1.00  0.00    -0.200 F 
ATOM     90  C   UNL A   1      41.338  26.200  26.140  1.00  0.00     0.200 A 
ATOM     91  F   UNL A   1      39.821  24.634  27.046  1.00  0.00    -0.200 F 
ATOM     92  F   UNL A   1      41.506  25.433  25.055  1.00  0.00    -0.200 F 
ENDBRANCH  58  82
BRANCH  70  93
ATOM     93  C   UNL A   1      44.151  27.881  34.644  1.00  0.00     0.064 A 
ATOM     94  C   UNL A   1      43.927  26.622  35.224  1.00  0.00     0.173 A 
ATOM     95  C   UNL A   1      45.475  28.339  34.566  1.00  0.00     0.173 A 
ATOM     96  F   UNL A   1      42.679  26.143  35.338  1.00  0.00    -0.203 F 
ATOM     97  C   UNL A   1      44.985  25.859  35.712  1.00  0.00     0.198 A 
ATOM     98  C   UNL A   1      46.534  27.559  35.027  1.00  0.00     0.198 A 
ATOM     99  F   UNL A   1      45.747  29.533  34.018  1.00  0.00    -0.203 F 
ATOM    100  F   UNL A   1      44.744  24.676  36.293  1.00  0.00    -0.200 F 
ATOM    101  C   UNL A   1      46.288  26.323  35.604  1.00  0.00     0.200 A 
ATOM    102  F   UNL A   1      47.793  28.003  34.906  1.00  0.00    -0.200 F 
ATOM    103  F   UNL A   1      47.306  25.578  36.056  1.00  0.00    -0.200 F 
ENDBRANCH  70  93
ENDBRANCH  44  45
ENDBRANCH  37  39
ENDBRANCH  36  37
ENDBRANCH  35  36
ENDBRANCH  34  35
ENDBRANCH  33  34
ENDBRANCH  32  33
ENDBRANCH   1  32
TORSDOF 19
ENDMDL
