MODEL 1
REMARK VINA RESULT:     -10.8      0.000      0.000
REMARK SMILES CC(C)CSc1cc2c(cc1Cl)C=C(C(=O)OCCOCCOCCOC(=O)c1ccc(-c3c4nc(c(-c5c(F)c(F)c(F)c(F)c5F)c5ccc([nH]5)c(-c5c(F)c(F)c(F)c(F)c5F)c5nc(c(-c6c(F)c(F)c(F)c(F)c6F)c6ccc3[nH]6)C=C5)C=C4)cc1)[C@@H](C(F)(F)F)O2
REMARK SMILES IDX 21 1 20 2 19 3 18 4 17 5 15 6 16 7 14 8 6 9 7 10 11 11 8 12
REMARK SMILES IDX 10 13 12 14 9 15 97 16 13 17 92 18 5 19 4 20 2 21 1 22 3 23
REMARK SMILES IDX 93 24 94 25 95 26 96 27 22 28 23 29 24 30 25 31 26 32 27 33
REMARK SMILES IDX 28 34 29 35 30 36 91 37 31 38 90 39 32 40 33 41 34 42 84 43
REMARK SMILES IDX 35 44 89 45 83 46 85 47 36 48 88 49 82 50 81 51 37 53 69 54
REMARK SMILES IDX 49 55 68 56 50 57 53 58 67 59 86 60 51 61 52 62 66 64 87 65
REMARK SMILES IDX 54 66 38 67 39 68 47 69 40 70 41 71 45 72 48 73 42 74 43 75
REMARK SMILES IDX 46 76 44 77 70 78 71 79 79 80 72 81 73 82 77 83 80 84 74 85
REMARK SMILES IDX 75 86 78 87 76 88 55 89 56 90 64 91 57 92 58 93 62 94 65 95
REMARK SMILES IDX 59 96 60 97 63 98 61 99
REMARK H PARENT 85 52 53 63
REMARK Flexibility Score: inf
ROOT
ATOM      1  C   UNL A   1      37.501  23.190  26.103  1.00  0.00     0.188 C 
ENDROOT
BRANCH   1   2
ATOM      2  O   UNL A   1      36.815  22.573  25.035  1.00  0.00    -0.376 OA
BRANCH   2   3
ATOM      3  C   UNL A   1      35.547  21.966  25.212  1.00  0.00     0.202 C 
BRANCH   3   4
ATOM      4  C   UNL A   1      34.760  22.028  26.526  1.00  0.00     0.261 C 
BRANCH   4   5
ATOM      5  O   UNL A   1      34.291  23.327  26.899  1.00  0.00    -0.460 OA
BRANCH   5   6
ATOM      6  C   UNL A   1      32.947  23.486  26.840  1.00  0.00     0.338 C 
ATOM      7  O   UNL A   1      32.117  23.008  27.596  1.00  0.00    -0.246 OA
BRANCH   6   8
ATOM      8  C   UNL A   1      32.616  24.480  25.804  1.00  0.00     0.087 C 
ATOM      9  C   UNL A   1      30.969  28.590  23.443  1.00  0.00     0.030 A 
ATOM     10  C   UNL A   1      31.280  27.278  23.042  1.00  0.00     0.063 A 
ATOM     11  C   UNL A   1      31.339  28.996  24.734  1.00  0.00     0.055 A 
ATOM     12  C   UNL A   1      31.814  26.356  23.943  1.00  0.00     0.129 A 
ATOM     13  C   UNL A   1      31.846  28.062  25.646  1.00  0.00     0.033 A 
ATOM     14  Cl  UNL A   1      31.230  30.628  25.288  1.00  0.00    -0.083 Cl
ATOM     15  C   UNL A   1      32.041  26.732  25.263  1.00  0.00     0.019 A 
ATOM     16  O   UNL A   1      32.043  25.101  23.459  1.00  0.00    -0.475 OA
ATOM     17  C   UNL A   1      32.415  25.730  26.241  1.00  0.00     0.027 C 
ATOM     18  C   UNL A   1      32.538  24.068  24.359  1.00  0.00     0.316 C 
BRANCH   9  19
ATOM     19  S   UNL A   1      30.094  29.577  22.233  1.00  0.00    -0.124 SA
BRANCH  19  20
ATOM     20  C   UNL A   1      28.664  30.256  23.170  1.00  0.00     0.078 C 
BRANCH  20  21
ATOM     21  C   UNL A   1      28.040  31.584  22.696  1.00  0.00    -0.007 C 
ATOM     22  C   UNL A   1      28.782  32.837  23.156  1.00  0.00     0.008 C 
ATOM     23  C   UNL A   1      28.004  31.583  21.160  1.00  0.00     0.008 C 
ENDBRANCH  20  21
ENDBRANCH  19  20
ENDBRANCH   9  19
BRANCH  18  24
ATOM     24  C   UNL A   1      31.677  22.813  24.145  1.00  0.00     0.430 C 
ATOM     25  F   UNL A   1      31.367  22.649  22.836  1.00  0.00    -0.167 F 
ATOM     26  F   UNL A   1      32.318  21.687  24.535  1.00  0.00    -0.167 F 
ATOM     27  F   UNL A   1      30.516  22.878  24.834  1.00  0.00    -0.167 F 
ENDBRANCH  18  24
ENDBRANCH   6   8
ENDBRANCH   5   6
ENDBRANCH   4   5
ENDBRANCH   3   4
ENDBRANCH   2   3
ENDBRANCH   1   2
BRANCH   1  28
ATOM     28  C   UNL A   1      38.940  22.774  26.480  1.00  0.00     0.188 C 
BRANCH  28  29
ATOM     29  O   UNL A   1      39.650  21.834  25.700  1.00  0.00    -0.376 OA
BRANCH  29  30
ATOM     30  C   UNL A   1      39.197  20.487  25.662  1.00  0.00     0.202 C 
BRANCH  30  31
ATOM     31  C   UNL A   1      40.128  19.348  26.093  1.00  0.00     0.261 C 
BRANCH  31  32
ATOM     32  O   UNL A   1      41.310  19.239  25.286  1.00  0.00    -0.460 OA
BRANCH  32  33
ATOM     33  C   UNL A   1      42.488  19.270  25.966  1.00  0.00     0.338 C 
ATOM     34  O   UNL A   1      43.307  18.386  26.074  1.00  0.00    -0.246 OA
BRANCH  33  35
ATOM     35  C   UNL A   1      42.729  20.661  26.402  1.00  0.00     0.060 A 
ATOM     36  C   UNL A   1      42.541  21.036  27.732  1.00  0.00     0.016 A 
ATOM     37  C   UNL A   1      43.137  21.601  25.444  1.00  0.00     0.016 A 
ATOM     38  C   UNL A   1      42.773  22.360  28.107  1.00  0.00     0.010 A 
ATOM     39  C   UNL A   1      43.349  22.929  25.819  1.00  0.00     0.010 A 
ATOM     40  C   UNL A   1      43.180  23.313  27.157  1.00  0.00    -0.014 A 
BRANCH  40  41
ATOM     41  C   UNL A   1      43.565  24.672  27.602  1.00  0.00     0.031 A 
ATOM     42  C   UNL A   1      44.995  25.108  27.659  1.00  0.00     0.074 A 
ATOM     43  C   UNL A   1      42.582  25.526  27.940  1.00  0.00     0.049 A 
ATOM     44  N   UNL A   1      45.481  26.296  27.921  1.00  0.00    -0.248 NA
ATOM     45  C   UNL A   1      46.015  24.085  27.391  1.00  0.00     0.031 C 
ATOM     46  C   UNL A   1      41.156  25.198  27.944  1.00  0.00     0.029 A 
ATOM     47  N   UNL A   1      42.626  26.840  28.330  1.00  0.00    -0.354 N 
ATOM     48  C   UNL A   1      46.859  26.175  27.821  1.00  0.00     0.074 A 
ATOM     49  C   UNL A   1      47.136  24.783  27.526  1.00  0.00     0.031 C 
ATOM     50  C   UNL A   1      40.458  26.291  28.291  1.00  0.00     0.029 A 
ATOM     51  C   UNL A   1      41.388  27.386  28.551  1.00  0.00     0.049 A 
ATOM     52  H   UNL A   1      43.466  27.342  28.440  1.00  0.00     0.167 HD
ATOM     53  C   UNL A   1      47.798  27.145  27.943  1.00  0.00     0.037 A 
ATOM     54  C   UNL A   1      41.038  28.636  28.910  1.00  0.00     0.037 A 
ATOM     55  C   UNL A   1      47.512  28.524  28.255  1.00  0.00     0.049 A 
ATOM     56  C   UNL A   1      42.105  29.677  29.089  1.00  0.00     0.074 A 
ATOM     57  C   UNL A   1      48.396  29.585  28.363  1.00  0.00     0.029 A 
ATOM     58  N   UNL A   1      46.248  29.034  28.522  1.00  0.00    -0.354 N 
ATOM     59  N   UNL A   1      43.400  29.572  28.915  1.00  0.00    -0.248 NA
ATOM     60  C   UNL A   1      41.661  31.015  29.504  1.00  0.00     0.031 C 
ATOM     61  C   UNL A   1      47.678  30.720  28.748  1.00  0.00     0.029 A 
ATOM     62  C   UNL A   1      46.336  30.385  28.826  1.00  0.00     0.049 A 
ATOM     63  H   UNL A   1      45.413  28.513  28.500  1.00  0.00     0.167 HD
ATOM     64  C   UNL A   1      43.924  30.829  29.180  1.00  0.00     0.074 A 
ATOM     65  C   UNL A   1      42.804  31.688  29.505  1.00  0.00     0.031 C 
ATOM     66  C   UNL A   1      45.217  31.232  29.157  1.00  0.00     0.037 A 
BRANCH  53  67
ATOM     67  C   UNL A   1      49.233  26.766  27.724  1.00  0.00     0.064 A 
ATOM     68  C   UNL A   1      50.087  26.499  28.805  1.00  0.00     0.173 A 
ATOM     69  C   UNL A   1      49.734  26.567  26.429  1.00  0.00     0.173 A 
ATOM     70  F   UNL A   1      49.658  26.675  30.064  1.00  0.00    -0.203 F 
ATOM     71  C   UNL A   1      51.390  26.056  28.597  1.00  0.00     0.198 A 
ATOM     72  C   UNL A   1      51.030  26.100  26.224  1.00  0.00     0.198 A 
ATOM     73  F   UNL A   1      48.956  26.797  25.360  1.00  0.00    -0.203 F 
ATOM     74  F   UNL A   1      52.195  25.827  29.645  1.00  0.00    -0.200 F 
ATOM     75  C   UNL A   1      51.858  25.846  27.308  1.00  0.00     0.200 A 
ATOM     76  F   UNL A   1      51.474  25.880  24.979  1.00  0.00    -0.200 F 
ATOM     77  F   UNL A   1      53.105  25.398  27.110  1.00  0.00    -0.200 F 
ENDBRANCH  53  67
BRANCH  54  78
ATOM     78  C   UNL A   1      39.601  28.970  29.079  1.00  0.00     0.064 A 
ATOM     79  C   UNL A   1      38.825  29.371  27.983  1.00  0.00     0.173 A 
ATOM     80  C   UNL A   1      38.971  28.862  30.326  1.00  0.00     0.173 A 
ATOM     81  F   UNL A   1      39.389  29.505  26.775  1.00  0.00    -0.203 F 
ATOM     82  C   UNL A   1      37.471  29.662  28.132  1.00  0.00     0.198 A 
ATOM     83  C   UNL A   1      37.610  29.126  30.469  1.00  0.00     0.198 A 
ATOM     84  F   UNL A   1      39.671  28.475  31.402  1.00  0.00    -0.203 F 
ATOM     85  F   UNL A   1      36.757  30.075  27.077  1.00  0.00    -0.200 F 
ATOM     86  C   UNL A   1      36.863  29.531  29.373  1.00  0.00     0.200 A 
ATOM     87  F   UNL A   1      37.023  28.983  31.664  1.00  0.00    -0.200 F 
ATOM     88  F   UNL A   1      35.557  29.798  29.512  1.00  0.00    -0.200 F 
ENDBRANCH  54  78
BRANCH  66  89
ATOM     89  C   UNL A   1      45.500  32.670  29.489  1.00  0.00     0.064 A 
ATOM     90  C   UNL A   1      45.463  33.670  28.505  1.00  0.00     0.173 A 
ATOM     91  C   UNL A   1      45.758  33.061  30.811  1.00  0.00     0.173 A 
ATOM     92  F   UNL A   1      45.235  33.347  27.223  1.00  0.00    -0.203 F 
ATOM     93  C   UNL A   1      45.695  35.003  28.830  1.00  0.00     0.198 A 
ATOM     94  C   UNL A   1      45.960  34.399  31.137  1.00  0.00     0.198 A 
ATOM     95  F   UNL A   1      45.798  32.147  31.792  1.00  0.00    -0.203 F 
ATOM     96  F   UNL A   1      45.698  35.935  27.866  1.00  0.00    -0.200 F 
ATOM     97  C   UNL A   1      45.934  35.369  30.147  1.00  0.00     0.200 A 
ATOM     98  F   UNL A   1      46.176  34.752  32.413  1.00  0.00    -0.200 F 
ATOM     99  F   UNL A   1      46.145  36.655  30.458  1.00  0.00    -0.200 F 
ENDBRANCH  66  89
ENDBRANCH  40  41
ENDBRANCH  33  35
ENDBRANCH  32  33
ENDBRANCH  31  32
ENDBRANCH  30  31
ENDBRANCH  29  30
ENDBRANCH  28  29
ENDBRANCH   1  28
TORSDOF 21
ENDMDL
MODEL 2
REMARK VINA RESULT:     -10.6      1.214      2.100
REMARK SMILES CC(C)CSc1cc2c(cc1Cl)C=C(C(=O)OCCOCCOCCOC(=O)c1ccc(-c3c4nc(c(-c5c(F)c(F)c(F)c(F)c5F)c5ccc([nH]5)c(-c5c(F)c(F)c(F)c(F)c5F)c5nc(c(-c6c(F)c(F)c(F)c(F)c6F)c6ccc3[nH]6)C=C5)C=C4)cc1)[C@@H](C(F)(F)F)O2
REMARK SMILES IDX 21 1 20 2 19 3 18 4 17 5 15 6 16 7 14 8 6 9 7 10 11 11 8 12
REMARK SMILES IDX 10 13 12 14 9 15 97 16 13 17 92 18 5 19 4 20 2 21 1 22 3 23
REMARK SMILES IDX 93 24 94 25 95 26 96 27 22 28 23 29 24 30 25 31 26 32 27 33
REMARK SMILES IDX 28 34 29 35 30 36 91 37 31 38 90 39 32 40 33 41 34 42 84 43
REMARK SMILES IDX 35 44 89 45 83 46 85 47 36 48 88 49 82 50 81 51 37 53 69 54
REMARK SMILES IDX 49 55 68 56 50 57 53 58 67 59 86 60 51 61 52 62 66 64 87 65
REMARK SMILES IDX 54 66 38 67 39 68 47 69 40 70 41 71 45 72 48 73 42 74 43 75
REMARK SMILES IDX 46 76 44 77 70 78 71 79 79 80 72 81 73 82 77 83 80 84 74 85
REMARK SMILES IDX 75 86 78 87 76 88 55 89 56 90 64 91 57 92 58 93 62 94 65 95
REMARK SMILES IDX 59 96 60 97 63 98 61 99
REMARK H PARENT 85 52 53 63
REMARK Flexibility Score: inf
ROOT
ATOM      1  C   UNL A   1      37.271  23.217  25.651  1.00  0.00     0.188 C 
ENDROOT
BRANCH   1   2
ATOM      2  O   UNL A   1      36.885  22.598  24.443  1.00  0.00    -0.376 OA
BRANCH   2   3
ATOM      3  C   UNL A   1      35.724  21.790  24.355  1.00  0.00     0.202 C 
BRANCH   3   4
ATOM      4  C   UNL A   1      34.971  21.262  25.581  1.00  0.00     0.261 C 
BRANCH   4   5
ATOM      5  O   UNL A   1      33.816  22.016  25.962  1.00  0.00    -0.460 OA
BRANCH   5   6
ATOM      6  C   UNL A   1      32.763  21.912  25.115  1.00  0.00     0.338 C 
ATOM      7  O   UNL A   1      32.260  20.885  24.690  1.00  0.00    -0.246 OA
BRANCH   6   8
ATOM      8  C   UNL A   1      32.181  23.248  24.893  1.00  0.00     0.087 C 
ATOM      9  C   UNL A   1      31.612  28.186  24.210  1.00  0.00     0.030 A 
ATOM     10  C   UNL A   1      30.763  27.140  24.614  1.00  0.00     0.063 A 
ATOM     11  C   UNL A   1      32.869  27.855  23.682  1.00  0.00     0.055 A 
ATOM     12  C   UNL A   1      31.204  25.816  24.625  1.00  0.00     0.129 A 
ATOM     13  C   UNL A   1      33.322  26.530  23.722  1.00  0.00     0.033 A 
ATOM     14  Cl  UNL A   1      33.923  29.003  22.939  1.00  0.00    -0.083 Cl
ATOM     15  C   UNL A   1      32.506  25.518  24.235  1.00  0.00     0.019 A 
ATOM     16  O   UNL A   1      30.311  24.886  25.072  1.00  0.00    -0.475 OA
ATOM     17  C   UNL A   1      33.023  24.178  24.425  1.00  0.00     0.027 C 
ATOM     18  C   UNL A   1      30.723  23.492  25.173  1.00  0.00     0.316 C 
BRANCH   9  19
ATOM     19  S   UNL A   1      30.970  29.838  24.458  1.00  0.00    -0.124 SA
BRANCH  19  20
ATOM     20  C   UNL A   1      29.848  30.094  23.023  1.00  0.00     0.078 C 
BRANCH  20  21
ATOM     21  C   UNL A   1      28.489  30.781  23.266  1.00  0.00    -0.007 C 
ATOM     22  C   UNL A   1      28.154  31.898  22.279  1.00  0.00     0.008 C 
ATOM     23  C   UNL A   1      27.384  29.718  23.181  1.00  0.00     0.008 C 
ENDBRANCH  20  21
ENDBRANCH  19  20
ENDBRANCH   9  19
BRANCH  18  24
ATOM     24  C   UNL A   1      30.289  22.978  26.555  1.00  0.00     0.430 C 
ATOM     25  F   UNL A   1      29.370  23.799  27.116  1.00  0.00    -0.167 F 
ATOM     26  F   UNL A   1      29.722  21.752  26.484  1.00  0.00    -0.167 F 
ATOM     27  F   UNL A   1      31.335  22.892  27.408  1.00  0.00    -0.167 F 
ENDBRANCH  18  24
ENDBRANCH   6   8
ENDBRANCH   5   6
ENDBRANCH   4   5
ENDBRANCH   3   4
ENDBRANCH   2   3
ENDBRANCH   1   2
BRANCH   1  28
ATOM     28  C   UNL A   1      38.732  23.164  26.148  1.00  0.00     0.188 C 
BRANCH  28  29
ATOM     29  O   UNL A   1      39.309  21.947  26.577  1.00  0.00    -0.376 OA
BRANCH  29  30
ATOM     30  C   UNL A   1      39.299  20.831  25.698  1.00  0.00     0.202 C 
BRANCH  30  31
ATOM     31  C   UNL A   1      39.986  19.523  26.105  1.00  0.00     0.261 C 
BRANCH  31  32
ATOM     32  O   UNL A   1      41.154  19.224  25.325  1.00  0.00    -0.460 OA
BRANCH  32  33
ATOM     33  C   UNL A   1      42.333  19.256  26.002  1.00  0.00     0.338 C 
ATOM     34  O   UNL A   1      43.135  18.361  26.141  1.00  0.00    -0.246 OA
BRANCH  33  35
ATOM     35  C   UNL A   1      42.603  20.658  26.385  1.00  0.00     0.060 A 
ATOM     36  C   UNL A   1      42.595  21.045  27.724  1.00  0.00     0.016 A 
ATOM     37  C   UNL A   1      42.853  21.593  25.371  1.00  0.00     0.016 A 
ATOM     38  C   UNL A   1      42.848  22.378  28.051  1.00  0.00     0.010 A 
ATOM     39  C   UNL A   1      43.086  22.929  25.699  1.00  0.00     0.010 A 
ATOM     40  C   UNL A   1      43.098  23.327  27.043  1.00  0.00    -0.014 A 
BRANCH  40  41
ATOM     41  C   UNL A   1      43.511  24.700  27.417  1.00  0.00     0.031 A 
ATOM     42  C   UNL A   1      44.909  25.189  27.200  1.00  0.00     0.074 A 
ATOM     43  C   UNL A   1      42.581  25.516  27.944  1.00  0.00     0.049 A 
ATOM     44  N   UNL A   1      45.392  26.394  27.373  1.00  0.00    -0.248 NA
ATOM     45  C   UNL A   1      45.894  24.204  26.733  1.00  0.00     0.031 C 
ATOM     46  C   UNL A   1      41.196  25.136  28.220  1.00  0.00     0.029 A 
ATOM     47  N   UNL A   1      42.652  26.830  28.328  1.00  0.00    -0.354 N 
ATOM     48  C   UNL A   1      46.729  26.324  27.009  1.00  0.00     0.074 A 
ATOM     49  C   UNL A   1      46.994  24.944  26.655  1.00  0.00     0.031 C 
ATOM     50  C   UNL A   1      40.539  26.201  28.703  1.00  0.00     0.029 A 
ATOM     51  C   UNL A   1      41.461  27.331  28.788  1.00  0.00     0.049 A 
ATOM     52  H   UNL A   1      43.479  27.364  28.278  1.00  0.00     0.167 HD
ATOM     53  C   UNL A   1      47.637  27.328  26.955  1.00  0.00     0.037 A 
ATOM     54  C   UNL A   1      41.141  28.566  29.217  1.00  0.00     0.037 A 
ATOM     55  C   UNL A   1      47.367  28.695  27.327  1.00  0.00     0.049 A 
ATOM     56  C   UNL A   1      42.184  29.646  29.195  1.00  0.00     0.074 A 
ATOM     57  C   UNL A   1      48.217  29.788  27.271  1.00  0.00     0.029 A 
ATOM     58  N   UNL A   1      46.161  29.158  27.837  1.00  0.00    -0.354 N 
ATOM     59  N   UNL A   1      43.424  29.589  28.775  1.00  0.00    -0.248 NA
ATOM     60  C   UNL A   1      41.780  30.967  29.699  1.00  0.00     0.031 C 
ATOM     61  C   UNL A   1      47.545  30.896  27.796  1.00  0.00     0.029 A 
ATOM     62  C   UNL A   1      46.257  30.510  28.128  1.00  0.00     0.049 A 
ATOM     63  H   UNL A   1      45.357  28.606  27.971  1.00  0.00     0.167 HD
ATOM     64  C   UNL A   1      43.943  30.864  28.944  1.00  0.00     0.074 A 
ATOM     65  C   UNL A   1      42.877  31.681  29.485  1.00  0.00     0.031 C 
ATOM     66  C   UNL A   1      45.193  31.315  28.675  1.00  0.00     0.037 A 
BRANCH  53  67
ATOM     67  C   UNL A   1      49.017  27.002  26.461  1.00  0.00     0.064 A 
ATOM     68  C   UNL A   1      49.997  26.495  27.326  1.00  0.00     0.173 A 
ATOM     69  C   UNL A   1      49.333  27.100  25.098  1.00  0.00     0.173 A 
ATOM     70  F   UNL A   1      49.747  26.384  28.640  1.00  0.00    -0.203 F 
ATOM     71  C   UNL A   1      51.245  26.106  26.847  1.00  0.00     0.198 A 
ATOM     72  C   UNL A   1      50.573  26.686  24.617  1.00  0.00     0.198 A 
ATOM     73  F   UNL A   1      48.427  27.568  24.225  1.00  0.00    -0.203 F 
ATOM     74  F   UNL A   1      52.174  25.643  27.696  1.00  0.00    -0.200 F 
ATOM     75  C   UNL A   1      51.528  26.191  25.492  1.00  0.00     0.200 A 
ATOM     76  F   UNL A   1      50.838  26.752  23.305  1.00  0.00    -0.200 F 
ATOM     77  F   UNL A   1      52.722  25.794  25.029  1.00  0.00    -0.200 F 
ENDBRANCH  53  67
BRANCH  54  78
ATOM     78  C   UNL A   1      39.753  28.846  29.662  1.00  0.00     0.064 A 
ATOM     79  C   UNL A   1      39.362  28.608  30.987  1.00  0.00     0.173 A 
ATOM     80  C   UNL A   1      38.802  29.385  28.784  1.00  0.00     0.173 A 
ATOM     81  F   UNL A   1      40.233  28.077  31.857  1.00  0.00    -0.203 F 
ATOM     82  C   UNL A   1      38.068  28.892  31.414  1.00  0.00     0.198 A 
ATOM     83  C   UNL A   1      37.516  29.694  29.219  1.00  0.00     0.198 A 
ATOM     84  F   UNL A   1      39.131  29.636  27.509  1.00  0.00    -0.203 F 
ATOM     85  F   UNL A   1      37.709  28.627  32.677  1.00  0.00    -0.200 F 
ATOM     86  C   UNL A   1      37.148  29.443  30.532  1.00  0.00     0.200 A 
ATOM     87  F   UNL A   1      36.636  30.241  28.370  1.00  0.00    -0.200 F 
ATOM     88  F   UNL A   1      35.907  29.728  30.949  1.00  0.00    -0.200 F 
ENDBRANCH  54  78
BRANCH  66  89
ATOM     89  C   UNL A   1      45.481  32.763  28.957  1.00  0.00     0.064 A 
ATOM     90  C   UNL A   1      46.083  33.169  30.158  1.00  0.00     0.173 A 
ATOM     91  C   UNL A   1      45.202  33.748  27.998  1.00  0.00     0.173 A 
ATOM     92  F   UNL A   1      46.357  32.269  31.114  1.00  0.00    -0.203 F 
ATOM     93  C   UNL A   1      46.375  34.510  30.395  1.00  0.00     0.198 A 
ATOM     94  C   UNL A   1      45.522  35.083  28.226  1.00  0.00     0.198 A 
ATOM     95  F   UNL A   1      44.633  33.413  26.830  1.00  0.00    -0.203 F 
ATOM     96  F   UNL A   1      46.910  34.880  31.567  1.00  0.00    -0.200 F 
ATOM     97  C   UNL A   1      46.104  35.464  29.426  1.00  0.00     0.200 A 
ATOM     98  F   UNL A   1      45.273  36.002  27.282  1.00  0.00    -0.200 F 
ATOM     99  F   UNL A   1      46.396  36.752  29.652  1.00  0.00    -0.200 F 
ENDBRANCH  66  89
ENDBRANCH  40  41
ENDBRANCH  33  35
ENDBRANCH  32  33
ENDBRANCH  31  32
ENDBRANCH  30  31
ENDBRANCH  29  30
ENDBRANCH  28  29
ENDBRANCH   1  28
TORSDOF 21
ENDMDL
MODEL 3
REMARK VINA RESULT:     -10.1      1.206      2.130
REMARK SMILES CC(C)CSc1cc2c(cc1Cl)C=C(C(=O)OCCOCCOCCOC(=O)c1ccc(-c3c4nc(c(-c5c(F)c(F)c(F)c(F)c5F)c5ccc([nH]5)c(-c5c(F)c(F)c(F)c(F)c5F)c5nc(c(-c6c(F)c(F)c(F)c(F)c6F)c6ccc3[nH]6)C=C5)C=C4)cc1)[C@@H](C(F)(F)F)O2
REMARK SMILES IDX 21 1 20 2 19 3 18 4 17 5 15 6 16 7 14 8 6 9 7 10 11 11 8 12
REMARK SMILES IDX 10 13 12 14 9 15 97 16 13 17 92 18 5 19 4 20 2 21 1 22 3 23
REMARK SMILES IDX 93 24 94 25 95 26 96 27 22 28 23 29 24 30 25 31 26 32 27 33
REMARK SMILES IDX 28 34 29 35 30 36 91 37 31 38 90 39 32 40 33 41 34 42 84 43
REMARK SMILES IDX 35 44 89 45 83 46 85 47 36 48 88 49 82 50 81 51 37 53 69 54
REMARK SMILES IDX 49 55 68 56 50 57 53 58 67 59 86 60 51 61 52 62 66 64 87 65
REMARK SMILES IDX 54 66 38 67 39 68 47 69 40 70 41 71 45 72 48 73 42 74 43 75
REMARK SMILES IDX 46 76 44 77 70 78 71 79 79 80 72 81 73 82 77 83 80 84 74 85
REMARK SMILES IDX 75 86 78 87 76 88 55 89 56 90 64 91 57 92 58 93 62 94 65 95
REMARK SMILES IDX 59 96 60 97 63 98 61 99
REMARK H PARENT 85 52 53 63
REMARK Flexibility Score: inf
ROOT
ATOM      1  C   UNL A   1      36.828  22.420  26.097  1.00  0.00     0.188 C 
ENDROOT
BRANCH   1   2
ATOM      2  O   UNL A   1      36.364  21.173  25.625  1.00  0.00    -0.376 OA
BRANCH   2   3
ATOM      3  C   UNL A   1      35.258  21.071  24.745  1.00  0.00     0.202 C 
BRANCH   3   4
ATOM      4  C   UNL A   1      33.999  21.937  24.870  1.00  0.00     0.261 C 
BRANCH   4   5
ATOM      5  O   UNL A   1      33.661  22.697  23.706  1.00  0.00    -0.460 OA
BRANCH   5   6
ATOM      6  C   UNL A   1      34.612  23.575  23.304  1.00  0.00     0.338 C 
ATOM      7  O   UNL A   1      35.701  23.308  22.822  1.00  0.00    -0.246 OA
BRANCH   6   8
ATOM      8  C   UNL A   1      34.075  24.945  23.374  1.00  0.00     0.087 C 
ATOM      9  C   UNL A   1      32.080  29.242  25.028  1.00  0.00     0.030 A 
ATOM     10  C   UNL A   1      32.213  28.636  23.766  1.00  0.00     0.063 A 
ATOM     11  C   UNL A   1      32.788  28.692  26.108  1.00  0.00     0.055 A 
ATOM     12  C   UNL A   1      32.915  27.440  23.611  1.00  0.00     0.129 A 
ATOM     13  C   UNL A   1      33.466  27.476  25.957  1.00  0.00     0.033 A 
ATOM     14  Cl  UNL A   1      32.905  29.449  27.655  1.00  0.00    -0.083 Cl
ATOM     15  C   UNL A   1      33.491  26.828  24.720  1.00  0.00     0.019 A 
ATOM     16  O   UNL A   1      32.951  26.920  22.350  1.00  0.00    -0.475 OA
ATOM     17  C   UNL A   1      34.055  25.499  24.594  1.00  0.00     0.027 C 
ATOM     18  C   UNL A   1      33.609  25.640  22.124  1.00  0.00     0.316 C 
BRANCH   9  19
ATOM     19  S   UNL A   1      30.973  30.647  25.093  1.00  0.00    -0.124 SA
BRANCH  19  20
ATOM     20  C   UNL A   1      29.934  30.458  23.587  1.00  0.00     0.078 C 
BRANCH  20  21
ATOM     21  C   UNL A   1      28.449  30.868  23.664  1.00  0.00    -0.007 C 
ATOM     22  C   UNL A   1      28.098  32.140  22.894  1.00  0.00     0.008 C 
ATOM     23  C   UNL A   1      27.598  29.718  23.105  1.00  0.00     0.008 C 
ENDBRANCH  20  21
ENDBRANCH  19  20
ENDBRANCH   9  19
BRANCH  18  24
ATOM     24  C   UNL A   1      32.663  24.773  21.280  1.00  0.00     0.430 C 
ATOM     25  F   UNL A   1      32.148  25.475  20.242  1.00  0.00    -0.167 F 
ATOM     26  F   UNL A   1      33.297  23.703  20.747  1.00  0.00    -0.167 F 
ATOM     27  F   UNL A   1      31.626  24.306  22.011  1.00  0.00    -0.167 F 
ENDBRANCH  18  24
ENDBRANCH   6   8
ENDBRANCH   5   6
ENDBRANCH   4   5
ENDBRANCH   3   4
ENDBRANCH   2   3
ENDBRANCH   1   2
BRANCH   1  28
ATOM     28  C   UNL A   1      38.287  22.872  25.870  1.00  0.00     0.188 C 
BRANCH  28  29
ATOM     29  O   UNL A   1      39.333  21.926  25.780  1.00  0.00    -0.376 OA
BRANCH  29  30
ATOM     30  C   UNL A   1      39.025  20.591  25.403  1.00  0.00     0.202 C 
BRANCH  30  31
ATOM     31  C   UNL A   1      39.805  19.420  26.012  1.00  0.00     0.261 C 
BRANCH  31  32
ATOM     32  O   UNL A   1      41.039  19.140  25.334  1.00  0.00    -0.460 OA
BRANCH  32  33
ATOM     33  C   UNL A   1      42.150  19.136  26.120  1.00  0.00     0.338 C 
ATOM     34  O   UNL A   1      42.915  18.221  26.320  1.00  0.00    -0.246 OA
BRANCH  33  35
ATOM     35  C   UNL A   1      42.412  20.525  26.549  1.00  0.00     0.060 A 
ATOM     36  C   UNL A   1      42.214  20.913  27.874  1.00  0.00     0.016 A 
ATOM     37  C   UNL A   1      42.851  21.451  25.591  1.00  0.00     0.016 A 
ATOM     38  C   UNL A   1      42.466  22.234  28.244  1.00  0.00     0.010 A 
ATOM     39  C   UNL A   1      43.084  22.776  25.960  1.00  0.00     0.010 A 
ATOM     40  C   UNL A   1      42.904  23.173  27.293  1.00  0.00    -0.014 A 
BRANCH  40  41
ATOM     41  C   UNL A   1      43.309  24.528  27.734  1.00  0.00     0.031 A 
ATOM     42  C   UNL A   1      44.747  24.936  27.808  1.00  0.00     0.074 A 
ATOM     43  C   UNL A   1      42.338  25.403  28.052  1.00  0.00     0.049 A 
ATOM     44  N   UNL A   1      45.252  26.116  28.069  1.00  0.00    -0.248 NA
ATOM     45  C   UNL A   1      45.750  23.892  27.562  1.00  0.00     0.031 C 
ATOM     46  C   UNL A   1      40.907  25.103  28.039  1.00  0.00     0.029 A 
ATOM     47  N   UNL A   1      42.404  26.718  28.434  1.00  0.00    -0.354 N 
ATOM     48  C   UNL A   1      46.629  25.967  27.989  1.00  0.00     0.074 A 
ATOM     49  C   UNL A   1      46.883  24.569  27.707  1.00  0.00     0.031 C 
ATOM     50  C   UNL A   1      40.226  26.211  28.368  1.00  0.00     0.029 A 
ATOM     51  C   UNL A   1      41.173  27.290  28.634  1.00  0.00     0.049 A 
ATOM     52  H   UNL A   1      43.252  27.205  28.552  1.00  0.00     0.167 HD
ATOM     53  C   UNL A   1      47.585  26.920  28.117  1.00  0.00     0.037 A 
ATOM     54  C   UNL A   1      40.843  28.549  28.980  1.00  0.00     0.037 A 
ATOM     55  C   UNL A   1      47.322  28.307  28.416  1.00  0.00     0.049 A 
ATOM     56  C   UNL A   1      41.927  29.571  29.166  1.00  0.00     0.074 A 
ATOM     57  C   UNL A   1      48.225  29.351  28.530  1.00  0.00     0.029 A 
ATOM     58  N   UNL A   1      46.065  28.843  28.662  1.00  0.00    -0.354 N 
ATOM     59  N   UNL A   1      43.222  29.439  29.012  1.00  0.00    -0.248 NA
ATOM     60  C   UNL A   1      41.504  30.920  29.566  1.00  0.00     0.031 C 
ATOM     61  C   UNL A   1      47.524  30.503  28.897  1.00  0.00     0.029 A 
ATOM     62  C   UNL A   1      46.175  30.193  28.958  1.00  0.00     0.049 A 
ATOM     63  H   UNL A   1      45.220  28.338  28.632  1.00  0.00     0.167 HD
ATOM     64  C   UNL A   1      43.767  30.687  29.276  1.00  0.00     0.074 A 
ATOM     65  C   UNL A   1      42.660  31.570  29.579  1.00  0.00     0.031 C 
ATOM     66  C   UNL A   1      45.068  31.065  29.268  1.00  0.00     0.037 A 
BRANCH  53  67
ATOM     67  C   UNL A   1      49.015  26.511  27.922  1.00  0.00     0.064 A 
ATOM     68  C   UNL A   1      49.607  26.521  26.650  1.00  0.00     0.173 A 
ATOM     69  C   UNL A   1      49.831  26.206  29.022  1.00  0.00     0.173 A 
ATOM     70  F   UNL A   1      48.871  26.804  25.565  1.00  0.00    -0.203 F 
ATOM     71  C   UNL A   1      50.959  26.232  26.486  1.00  0.00     0.198 A 
ATOM     72  C   UNL A   1      51.189  25.941  28.857  1.00  0.00     0.198 A 
ATOM     73  F   UNL A   1      49.318  26.193  30.262  1.00  0.00    -0.203 F 
ATOM     74  F   UNL A   1      51.498  26.228  25.258  1.00  0.00    -0.200 F 
ATOM     75  C   UNL A   1      51.751  25.954  27.590  1.00  0.00     0.200 A 
ATOM     76  F   UNL A   1      51.956  25.691  29.927  1.00  0.00    -0.200 F 
ATOM     77  F   UNL A   1      53.057  25.698  27.432  1.00  0.00    -0.200 F 
ENDBRANCH  53  67
BRANCH  54  78
ATOM     78  C   UNL A   1      39.410  28.912  29.126  1.00  0.00     0.064 A 
ATOM     79  C   UNL A   1      38.762  28.790  30.363  1.00  0.00     0.173 A 
ATOM     80  C   UNL A   1      38.674  29.416  28.046  1.00  0.00     0.173 A 
ATOM     81  F   UNL A   1      39.423  28.297  31.420  1.00  0.00    -0.203 F 
ATOM     82  C   UNL A   1      37.426  29.152  30.510  1.00  0.00     0.198 A 
ATOM     83  C   UNL A   1      37.344  29.803  28.200  1.00  0.00     0.198 A 
ATOM     84  F   UNL A   1      39.252  29.556  26.844  1.00  0.00    -0.203 F 
ATOM     85  F   UNL A   1      36.819  28.998  31.694  1.00  0.00    -0.200 F 
ATOM     86  C   UNL A   1      36.720  29.667  29.431  1.00  0.00     0.200 A 
ATOM     87  F   UNL A   1      36.672  30.314  27.161  1.00  0.00    -0.200 F 
ATOM     88  F   UNL A   1      35.438  30.027  29.578  1.00  0.00    -0.200 F 
ENDBRANCH  54  78
BRANCH  66  89
ATOM     89  C   UNL A   1      45.374  32.500  29.594  1.00  0.00     0.064 A 
ATOM     90  C   UNL A   1      45.372  33.492  28.602  1.00  0.00     0.173 A 
ATOM     91  C   UNL A   1      45.619  32.895  30.917  1.00  0.00     0.173 A 
ATOM     92  F   UNL A   1      45.158  33.164  27.319  1.00  0.00    -0.203 F 
ATOM     93  C   UNL A   1      45.626  34.823  28.921  1.00  0.00     0.198 A 
ATOM     94  C   UNL A   1      45.843  34.231  31.237  1.00  0.00     0.198 A 
ATOM     95  F   UNL A   1      45.626  31.988  31.906  1.00  0.00    -0.203 F 
ATOM     96  F   UNL A   1      45.662  35.748  27.952  1.00  0.00    -0.200 F 
ATOM     97  C   UNL A   1      45.851  35.194  30.239  1.00  0.00     0.200 A 
ATOM     98  F   UNL A   1      46.046  34.589  32.513  1.00  0.00    -0.200 F 
ATOM     99  F   UNL A   1      46.083  36.478  30.545  1.00  0.00    -0.200 F 
ENDBRANCH  66  89
ENDBRANCH  40  41
ENDBRANCH  33  35
ENDBRANCH  32  33
ENDBRANCH  31  32
ENDBRANCH  30  31
ENDBRANCH  29  30
ENDBRANCH  28  29
ENDBRANCH   1  28
TORSDOF 21
ENDMDL
