MODEL 1
REMARK VINA RESULT:      -7.6      0.000      0.000
REMARK SMILES CC(C)Cc1ccc(-c2cc(Cl)cc3c2O[C@H](C(F)(F)F)C(C(=O)OCCOCCOCCOC(=O)c2ccc(-c4c5nc(c(-c6c(F)c(F)c(F)c(F)c6F)c6ccc([nH]6)c(-c6c(F)c(F)c(F)c(F)c6F)c6nc(c(-c7c(F)c(F)c(F)c(F)c7F)c7ccc4[nH]7)C=C6)C=C5)cc2)=C3)cc1
REMARK SMILES IDX 29 1 28 2 27 3 26 4 25 5 23 6 24 7 22 8 9 9 10 10 15 11
REMARK SMILES IDX 11 12 14 13 16 14 12 15 13 16 100 17 17 18 8 19 5 20 6 21
REMARK SMILES IDX 102 22 7 23 101 24 4 25 2 26 1 27 3 28 18 29 19 30 20 31
REMARK SMILES IDX 21 32 30 33 31 34 32 35 33 36 34 37 35 38 36 39 37 40 38 41
REMARK SMILES IDX 99 42 39 43 98 44 40 45 41 46 42 47 92 48 43 49 97 50 91 51
REMARK SMILES IDX 93 52 44 53 96 54 90 55 89 56 45 58 77 59 57 60 76 61 58 62
REMARK SMILES IDX 61 63 75 64 94 65 59 66 60 67 74 69 95 70 62 71 46 72 47 73
REMARK SMILES IDX 55 74 48 75 49 76 53 77 56 78 50 79 51 80 54 81 52 82 78 83
REMARK SMILES IDX 79 84 87 85 80 86 81 87 85 88 88 89 82 90 83 91 86 92 84 93
REMARK SMILES IDX 63 94 64 95 72 96 65 97 66 98 70 99 73 100 67 101 68 102
REMARK SMILES IDX 71 103 69 104
REMARK H PARENT 93 57 61 68
REMARK Flexibility Score: inf
ROOT
ATOM      1  C   UNL A   1      35.487  34.101  34.423  1.00  0.00     0.188 C 
ENDROOT
BRANCH   1   2
ATOM      2  O   UNL A   1      36.763  33.495  34.323  1.00  0.00    -0.376 OA
BRANCH   2   3
ATOM      3  C   UNL A   1      36.815  32.232  33.663  1.00  0.00     0.202 C 
BRANCH   3   4
ATOM      4  C   UNL A   1      37.718  31.180  34.322  1.00  0.00     0.261 C 
BRANCH   4   5
ATOM      5  O   UNL A   1      38.543  30.503  33.339  1.00  0.00    -0.460 OA
BRANCH   5   6
ATOM      6  C   UNL A   1      38.167  29.233  33.074  1.00  0.00     0.338 C 
ATOM      7  O   UNL A   1      37.019  28.817  33.170  1.00  0.00    -0.246 OA
BRANCH   6   8
ATOM      8  C   UNL A   1      39.277  28.415  32.510  1.00  0.00     0.087 C 
ATOM      9  C   UNL A   1      40.418  28.670  28.556  1.00  0.00     0.026 A 
ATOM     10  C   UNL A   1      39.272  29.131  27.868  1.00  0.00     0.033 A 
ATOM     11  C   UNL A   1      40.216  28.326  29.891  1.00  0.00     0.135 A 
ATOM     12  C   UNL A   1      37.989  29.083  28.408  1.00  0.00     0.042 A 
ATOM     13  C   UNL A   1      38.906  28.053  30.338  1.00  0.00     0.019 A 
ATOM     14  O   UNL A   1      41.196  28.374  30.875  1.00  0.00    -0.475 OA
ATOM     15  Cl  UNL A   1      36.652  29.729  27.551  1.00  0.00    -0.084 Cl
ATOM     16  C   UNL A   1      37.789  28.461  29.622  1.00  0.00     0.032 A 
ATOM     17  C   UNL A   1      38.765  27.479  31.693  1.00  0.00     0.027 C 
ATOM     18  C   UNL A   1      40.639  28.998  32.129  1.00  0.00     0.316 C 
BRANCH   9  19
ATOM     19  C   UNL A   1      41.567  28.358  27.668  1.00  0.00    -0.015 A 
ATOM     20  C   UNL A   1      43.100  26.744  25.868  1.00  0.00    -0.048 A 
ATOM     21  C   UNL A   1      42.218  27.718  25.390  1.00  0.00     0.004 A 
ATOM     22  C   UNL A   1      43.284  26.649  27.252  1.00  0.00     0.004 A 
ATOM     23  C   UNL A   1      41.482  28.521  26.279  1.00  0.00     0.009 A 
ATOM     24  C   UNL A   1      42.536  27.449  28.135  1.00  0.00     0.009 A 
BRANCH  20  25
ATOM     25  C   UNL A   1      43.793  25.781  24.922  1.00  0.00     0.038 C 
BRANCH  25  26
ATOM     26  C   UNL A   1      44.142  24.415  25.543  1.00  0.00    -0.013 C 
ATOM     27  C   UNL A   1      43.246  23.306  24.990  1.00  0.00     0.008 C 
ATOM     28  C   UNL A   1      45.612  24.062  25.292  1.00  0.00     0.008 C 
ENDBRANCH  25  26
ENDBRANCH  20  25
ENDBRANCH   9  19
BRANCH  18  29
ATOM     29  C   UNL A   1      41.600  28.853  33.313  1.00  0.00     0.430 C 
ATOM     30  F   UNL A   1      41.554  27.618  33.859  1.00  0.00    -0.167 F 
ATOM     31  F   UNL A   1      42.878  29.103  32.951  1.00  0.00    -0.167 F 
ATOM     32  F   UNL A   1      41.291  29.738  34.295  1.00  0.00    -0.167 F 
ENDBRANCH  18  29
ENDBRANCH   6   8
ENDBRANCH   5   6
ENDBRANCH   4   5
ENDBRANCH   3   4
ENDBRANCH   2   3
ENDBRANCH   1   2
BRANCH   1  33
ATOM     33  C   UNL A   1      34.378  33.440  33.575  1.00  0.00     0.188 C 
BRANCH  33  34
ATOM     34  O   UNL A   1      33.563  34.239  32.730  1.00  0.00    -0.376 OA
BRANCH  34  35
ATOM     35  C   UNL A   1      34.107  34.743  31.514  1.00  0.00     0.202 C 
BRANCH  35  36
ATOM     36  C   UNL A   1      35.025  33.825  30.700  1.00  0.00     0.261 C 
BRANCH  36  37
ATOM     37  O   UNL A   1      35.674  34.487  29.595  1.00  0.00    -0.460 OA
BRANCH  37  38
ATOM     38  C   UNL A   1      36.368  33.675  28.763  1.00  0.00     0.338 C 
ATOM     39  O   UNL A   1      36.037  33.297  27.648  1.00  0.00    -0.246 OA
BRANCH  38  40
ATOM     40  C   UNL A   1      37.720  33.420  29.295  1.00  0.00     0.060 A 
ATOM     41  C   UNL A   1      37.993  32.138  29.777  1.00  0.00     0.016 A 
ATOM     42  C   UNL A   1      38.674  34.434  29.425  1.00  0.00     0.016 A 
ATOM     43  C   UNL A   1      39.213  31.876  30.399  1.00  0.00     0.010 A 
ATOM     44  C   UNL A   1      39.900  34.162  30.057  1.00  0.00     0.010 A 
ATOM     45  C   UNL A   1      40.183  32.879  30.554  1.00  0.00    -0.014 A 
BRANCH  45  46
ATOM     46  C   UNL A   1      41.420  32.581  31.333  1.00  0.00     0.031 A 
ATOM     47  C   UNL A   1      41.464  32.899  32.800  1.00  0.00     0.074 A 
ATOM     48  C   UNL A   1      42.483  31.973  30.773  1.00  0.00     0.049 A 
ATOM     49  N   UNL A   1      42.423  32.682  33.664  1.00  0.00    -0.248 NA
ATOM     50  C   UNL A   1      40.280  33.562  33.361  1.00  0.00     0.031 C 
ATOM     51  C   UNL A   1      42.574  31.587  29.373  1.00  0.00     0.029 A 
ATOM     52  N   UNL A   1      43.662  31.515  31.321  1.00  0.00    -0.354 N 
ATOM     53  C   UNL A   1      41.990  33.251  34.853  1.00  0.00     0.074 A 
ATOM     54  C   UNL A   1      40.652  33.752  34.618  1.00  0.00     0.031 C 
ATOM     55  C   UNL A   1      43.679  30.841  29.198  1.00  0.00     0.029 A 
ATOM     56  C   UNL A   1      44.415  30.755  30.453  1.00  0.00     0.049 A 
ATOM     57  H   UNL A   1      43.939  31.712  32.244  1.00  0.00     0.167 HD
ATOM     58  C   UNL A   1      42.673  33.402  36.012  1.00  0.00     0.037 A 
ATOM     59  C   UNL A   1      45.559  30.066  30.650  1.00  0.00     0.037 A 
ATOM     60  C   UNL A   1      44.010  32.929  36.249  1.00  0.00     0.049 A 
ATOM     61  C   UNL A   1      46.284  30.216  31.964  1.00  0.00     0.074 A 
ATOM     62  C   UNL A   1      44.787  33.081  37.384  1.00  0.00     0.029 A 
ATOM     63  N   UNL A   1      44.774  32.222  35.335  1.00  0.00    -0.354 N 
ATOM     64  N   UNL A   1      45.882  30.786  33.072  1.00  0.00    -0.248 NA
ATOM     65  C   UNL A   1      47.654  29.682  32.029  1.00  0.00     0.031 C 
ATOM     66  C   UNL A   1      46.041  32.514  37.138  1.00  0.00     0.029 A 
ATOM     67  C   UNL A   1      46.026  31.957  35.870  1.00  0.00     0.049 A 
ATOM     68  H   UNL A   1      44.474  31.948  34.438  1.00  0.00     0.167 HD
ATOM     69  C   UNL A   1      46.956  30.709  33.950  1.00  0.00     0.074 A 
ATOM     70  C   UNL A   1      48.003  29.976  33.274  1.00  0.00     0.031 C 
ATOM     71  C   UNL A   1      47.072  31.239  35.191  1.00  0.00     0.037 A 
BRANCH  58  72
ATOM     72  C   UNL A   1      42.017  34.227  37.077  1.00  0.00     0.064 A 
ATOM     73  C   UNL A   1      42.235  35.605  37.197  1.00  0.00     0.173 A 
ATOM     74  C   UNL A   1      41.149  33.611  37.994  1.00  0.00     0.173 A 
ATOM     75  F   UNL A   1      43.075  36.231  36.359  1.00  0.00    -0.203 F 
ATOM     76  C   UNL A   1      41.625  36.335  38.213  1.00  0.00     0.198 A 
ATOM     77  C   UNL A   1      40.521  34.348  38.991  1.00  0.00     0.198 A 
ATOM     78  F   UNL A   1      40.914  32.292  37.920  1.00  0.00    -0.203 F 
ATOM     79  F   UNL A   1      41.884  37.644  38.344  1.00  0.00    -0.200 F 
ATOM     80  C   UNL A   1      40.765  35.708  39.105  1.00  0.00     0.200 A 
ATOM     81  F   UNL A   1      39.686  33.741  39.845  1.00  0.00    -0.200 F 
ATOM     82  F   UNL A   1      40.179  36.414  40.082  1.00  0.00    -0.200 F 
ENDBRANCH  58  72
BRANCH  59  83
ATOM     83  C   UNL A   1      46.123  29.172  29.595  1.00  0.00     0.064 A 
ATOM     84  C   UNL A   1      46.847  29.719  28.521  1.00  0.00     0.173 A 
ATOM     85  C   UNL A   1      45.921  27.785  29.592  1.00  0.00     0.173 A 
ATOM     86  F   UNL A   1      47.036  31.046  28.446  1.00  0.00    -0.203 F 
ATOM     87  C   UNL A   1      47.331  28.918  27.488  1.00  0.00     0.198 A 
ATOM     88  C   UNL A   1      46.441  26.979  28.580  1.00  0.00     0.198 A 
ATOM     89  F   UNL A   1      45.213  27.206  30.573  1.00  0.00    -0.203 F 
ATOM     90  F   UNL A   1      47.961  29.478  26.447  1.00  0.00    -0.200 F 
ATOM     91  C   UNL A   1      47.138  27.546  27.524  1.00  0.00     0.200 A 
ATOM     92  F   UNL A   1      46.257  25.652  28.623  1.00  0.00    -0.200 F 
ATOM     93  F   UNL A   1      47.604  26.774  26.532  1.00  0.00    -0.200 F 
ENDBRANCH  59  83
BRANCH  71  94
ATOM     94  C   UNL A   1      48.389  31.084  35.897  1.00  0.00     0.064 A 
ATOM     95  C   UNL A   1      49.396  32.054  35.777  1.00  0.00     0.173 A 
ATOM     96  C   UNL A   1      48.620  30.001  36.758  1.00  0.00     0.173 A 
ATOM     97  F   UNL A   1      49.230  33.102  34.956  1.00  0.00    -0.203 F 
ATOM     98  C   UNL A   1      50.590  31.940  36.486  1.00  0.00     0.198 A 
ATOM     99  C   UNL A   1      49.804  29.904  37.486  1.00  0.00     0.198 A 
ATOM    100  F   UNL A   1      47.688  29.049  36.911  1.00  0.00    -0.203 F 
ATOM    101  F   UNL A   1      51.550  32.863  36.333  1.00  0.00    -0.200 F 
ATOM    102  C   UNL A   1      50.788  30.872  37.347  1.00  0.00     0.200 A 
ATOM    103  F   UNL A   1      49.989  28.879  38.329  1.00  0.00    -0.200 F 
ATOM    104  F   UNL A   1      51.930  30.772  38.042  1.00  0.00    -0.200 F 
ENDBRANCH  71  94
ENDBRANCH  45  46
ENDBRANCH  38  40
ENDBRANCH  37  38
ENDBRANCH  36  37
ENDBRANCH  35  36
ENDBRANCH  34  35
ENDBRANCH  33  34
ENDBRANCH   1  33
TORSDOF 21
ENDMDL
MODEL 2
REMARK VINA RESULT:      -7.4      6.718     10.747
REMARK SMILES CC(C)Cc1ccc(-c2cc(Cl)cc3c2O[C@H](C(F)(F)F)C(C(=O)OCCOCCOCCOC(=O)c2ccc(-c4c5nc(c(-c6c(F)c(F)c(F)c(F)c6F)c6ccc([nH]6)c(-c6c(F)c(F)c(F)c(F)c6F)c6nc(c(-c7c(F)c(F)c(F)c(F)c7F)c7ccc4[nH]7)C=C6)C=C5)cc2)=C3)cc1
REMARK SMILES IDX 29 1 28 2 27 3 26 4 25 5 23 6 24 7 22 8 9 9 10 10 15 11
REMARK SMILES IDX 11 12 14 13 16 14 12 15 13 16 100 17 17 18 8 19 5 20 6 21
REMARK SMILES IDX 102 22 7 23 101 24 4 25 2 26 1 27 3 28 18 29 19 30 20 31
REMARK SMILES IDX 21 32 30 33 31 34 32 35 33 36 34 37 35 38 36 39 37 40 38 41
REMARK SMILES IDX 99 42 39 43 98 44 40 45 41 46 42 47 92 48 43 49 97 50 91 51
REMARK SMILES IDX 93 52 44 53 96 54 90 55 89 56 45 58 77 59 57 60 76 61 58 62
REMARK SMILES IDX 61 63 75 64 94 65 59 66 60 67 74 69 95 70 62 71 46 72 47 73
REMARK SMILES IDX 55 74 48 75 49 76 53 77 56 78 50 79 51 80 54 81 52 82 78 83
REMARK SMILES IDX 79 84 87 85 80 86 81 87 85 88 88 89 82 90 83 91 86 92 84 93
REMARK SMILES IDX 63 94 64 95 72 96 65 97 66 98 70 99 73 100 67 101 68 102
REMARK SMILES IDX 71 103 69 104
REMARK H PARENT 93 57 61 68
REMARK Flexibility Score: inf
ROOT
ATOM      1  C   UNL A   1      34.283  28.122  25.936  1.00  0.00     0.188 C 
ENDROOT
BRANCH   1   2
ATOM      2  O   UNL A   1      33.666  28.620  24.763  1.00  0.00    -0.376 OA
BRANCH   2   3
ATOM      3  C   UNL A   1      32.470  29.374  24.946  1.00  0.00     0.202 C 
BRANCH   3   4
ATOM      4  C   UNL A   1      31.284  28.952  24.067  1.00  0.00     0.261 C 
BRANCH   4   5
ATOM      5  O   UNL A   1      30.327  28.160  24.817  1.00  0.00    -0.460 OA
BRANCH   5   6
ATOM      6  C   UNL A   1      30.075  26.942  24.290  1.00  0.00     0.338 C 
ATOM      7  O   UNL A   1      28.957  26.525  24.015  1.00  0.00    -0.246 OA
BRANCH   6   8
ATOM      8  C   UNL A   1      31.320  26.204  23.940  1.00  0.00     0.087 C 
ATOM      9  C   UNL A   1      31.681  22.125  24.428  1.00  0.00     0.026 A 
ATOM     10  C   UNL A   1      30.754  21.789  25.441  1.00  0.00     0.033 A 
ATOM     11  C   UNL A   1      31.872  23.490  24.221  1.00  0.00     0.135 A 
ATOM     12  C   UNL A   1      30.196  22.729  26.305  1.00  0.00     0.042 A 
ATOM     13  C   UNL A   1      31.504  24.395  25.238  1.00  0.00     0.019 A 
ATOM     14  O   UNL A   1      32.267  24.057  23.016  1.00  0.00    -0.475 OA
ATOM     15  Cl  UNL A   1      29.019  22.265  27.462  1.00  0.00    -0.084 Cl
ATOM     16  C   UNL A   1      30.637  24.033  26.261  1.00  0.00     0.032 A 
ATOM     17  C   UNL A   1      31.927  25.802  25.070  1.00  0.00     0.027 C 
ATOM     18  C   UNL A   1      31.438  25.282  22.725  1.00  0.00     0.316 C 
BRANCH   9  19
ATOM     19  C   UNL A   1      32.501  20.979  23.959  1.00  0.00    -0.015 A 
ATOM     20  C   UNL A   1      33.268  18.226  23.790  1.00  0.00    -0.048 A 
ATOM     21  C   UNL A   1      32.435  18.803  22.826  1.00  0.00     0.004 A 
ATOM     22  C   UNL A   1      33.795  19.059  24.783  1.00  0.00     0.004 A 
ATOM     23  C   UNL A   1      32.077  20.161  22.904  1.00  0.00     0.009 A 
ATOM     24  C   UNL A   1      33.424  20.414  24.860  1.00  0.00     0.009 A 
BRANCH  20  25
ATOM     25  C   UNL A   1      33.548  16.735  23.793  1.00  0.00     0.038 C 
BRANCH  25  26
ATOM     26  C   UNL A   1      33.801  16.136  25.190  1.00  0.00    -0.013 C 
ATOM     27  C   UNL A   1      32.886  14.941  25.458  1.00  0.00     0.008 C 
ATOM     28  C   UNL A   1      35.265  15.707  25.342  1.00  0.00     0.008 C 
ENDBRANCH  25  26
ENDBRANCH  20  25
ENDBRANCH   9  19
BRANCH  18  29
ATOM     29  C   UNL A   1      31.991  26.078  21.539  1.00  0.00     0.430 C 
ATOM     30  F   UNL A   1      33.206  26.607  21.803  1.00  0.00    -0.167 F 
ATOM     31  F   UNL A   1      32.102  25.309  20.432  1.00  0.00    -0.167 F 
ATOM     32  F   UNL A   1      31.164  27.106  21.221  1.00  0.00    -0.167 F 
ENDBRANCH  18  29
ENDBRANCH   6   8
ENDBRANCH   5   6
ENDBRANCH   4   5
ENDBRANCH   3   4
ENDBRANCH   2   3
ENDBRANCH   1   2
BRANCH   1  33
ATOM     33  C   UNL A   1      34.370  26.583  26.031  1.00  0.00     0.188 C 
BRANCH  33  34
ATOM     34  O   UNL A   1      34.942  25.840  24.964  1.00  0.00    -0.376 OA
BRANCH  34  35
ATOM     35  C   UNL A   1      35.353  24.496  25.195  1.00  0.00     0.202 C 
BRANCH  35  36
ATOM     36  C   UNL A   1      36.579  24.260  26.083  1.00  0.00     0.261 C 
BRANCH  36  37
ATOM     37  O   UNL A   1      37.681  23.631  25.397  1.00  0.00    -0.460 OA
BRANCH  37  38
ATOM     38  C   UNL A   1      38.706  23.238  26.189  1.00  0.00     0.338 C 
ATOM     39  O   UNL A   1      39.185  22.117  26.279  1.00  0.00    -0.246 OA
BRANCH  38  40
ATOM     40  C   UNL A   1      39.338  24.404  26.836  1.00  0.00     0.060 A 
ATOM     41  C   UNL A   1      39.261  24.489  28.228  1.00  0.00     0.016 A 
ATOM     42  C   UNL A   1      39.901  25.451  26.101  1.00  0.00     0.016 A 
ATOM     43  C   UNL A   1      39.736  25.626  28.881  1.00  0.00     0.010 A 
ATOM     44  C   UNL A   1      40.374  26.596  26.767  1.00  0.00     0.010 A 
ATOM     45  C   UNL A   1      40.294  26.697  28.165  1.00  0.00    -0.014 A 
BRANCH  45  46
ATOM     46  C   UNL A   1      40.675  27.941  28.897  1.00  0.00     0.031 A 
ATOM     47  C   UNL A   1      42.127  28.277  29.077  1.00  0.00     0.074 A 
ATOM     48  C   UNL A   1      39.751  28.810  29.349  1.00  0.00     0.049 A 
ATOM     49  N   UNL A   1      42.669  29.325  29.643  1.00  0.00    -0.248 NA
ATOM     50  C   UNL A   1      43.094  27.294  28.568  1.00  0.00     0.031 C 
ATOM     51  C   UNL A   1      38.313  28.630  29.226  1.00  0.00     0.029 A 
ATOM     52  N   UNL A   1      39.881  30.047  29.942  1.00  0.00    -0.354 N 
ATOM     53  C   UNL A   1      44.037  29.092  29.628  1.00  0.00     0.074 A 
ATOM     54  C   UNL A   1      44.245  27.843  28.926  1.00  0.00     0.031 C 
ATOM     55  C   UNL A   1      37.697  29.763  29.607  1.00  0.00     0.029 A 
ATOM     56  C   UNL A   1      38.689  30.725  30.071  1.00  0.00     0.049 A 
ATOM     57  H   UNL A   1      40.743  30.412  30.246  1.00  0.00     0.167 HD
ATOM     58  C   UNL A   1      45.022  29.820  30.204  1.00  0.00     0.037 A 
ATOM     59  C   UNL A   1      38.428  31.977  30.504  1.00  0.00     0.037 A 
ATOM     60  C   UNL A   1      44.825  31.051  30.922  1.00  0.00     0.049 A 
ATOM     61  C   UNL A   1      39.549  32.788  31.106  1.00  0.00     0.074 A 
ATOM     62  C   UNL A   1      45.768  31.826  31.574  1.00  0.00     0.029 A 
ATOM     63  N   UNL A   1      43.603  31.681  31.095  1.00  0.00    -0.354 N 
ATOM     64  N   UNL A   1      40.835  32.544  31.119  1.00  0.00    -0.248 NA
ATOM     65  C   UNL A   1      39.167  34.019  31.818  1.00  0.00     0.031 C 
ATOM     66  C   UNL A   1      45.110  32.897  32.186  1.00  0.00     0.029 A 
ATOM     67  C   UNL A   1      43.765  32.821  31.868  1.00  0.00     0.049 A 
ATOM     68  H   UNL A   1      42.747  31.367  30.724  1.00  0.00     0.167 HD
ATOM     69  C   UNL A   1      41.409  33.569  31.862  1.00  0.00     0.074 A 
ATOM     70  C   UNL A   1      40.343  34.475  32.226  1.00  0.00     0.031 C 
ATOM     71  C   UNL A   1      42.701  33.716  32.241  1.00  0.00     0.037 A 
BRANCH  58  72
ATOM     72  C   UNL A   1      46.397  29.227  30.185  1.00  0.00     0.064 A 
ATOM     73  C   UNL A   1      47.290  29.441  29.127  1.00  0.00     0.173 A 
ATOM     74  C   UNL A   1      46.823  28.428  31.258  1.00  0.00     0.173 A 
ATOM     75  F   UNL A   1      46.917  30.178  28.069  1.00  0.00    -0.203 F 
ATOM     76  C   UNL A   1      48.552  28.856  29.133  1.00  0.00     0.198 A 
ATOM     77  C   UNL A   1      48.094  27.867  31.274  1.00  0.00     0.198 A 
ATOM     78  F   UNL A   1      46.000  28.192  32.292  1.00  0.00    -0.203 F 
ATOM     79  F   UNL A   1      49.375  29.030  28.089  1.00  0.00    -0.200 F 
ATOM     80  C   UNL A   1      48.955  28.075  30.208  1.00  0.00     0.200 A 
ATOM     81  F   UNL A   1      48.482  27.120  32.316  1.00  0.00    -0.200 F 
ATOM     82  F   UNL A   1      50.172  27.512  30.211  1.00  0.00    -0.200 F 
ENDBRANCH  58  72
BRANCH  59  83
ATOM     83  C   UNL A   1      37.060  32.568  30.409  1.00  0.00     0.064 A 
ATOM     84  C   UNL A   1      36.703  33.345  29.293  1.00  0.00     0.173 A 
ATOM     85  C   UNL A   1      36.104  32.425  31.424  1.00  0.00     0.173 A 
ATOM     86  F   UNL A   1      37.592  33.553  28.309  1.00  0.00    -0.203 F 
ATOM     87  C   UNL A   1      35.456  33.962  29.207  1.00  0.00     0.198 A 
ATOM     88  C   UNL A   1      34.841  33.008  31.318  1.00  0.00     0.198 A 
ATOM     89  F   UNL A   1      36.393  31.721  32.528  1.00  0.00    -0.203 F 
ATOM     90  F   UNL A   1      35.171  34.749  28.161  1.00  0.00    -0.200 F 
ATOM     91  C   UNL A   1      34.521  33.784  30.214  1.00  0.00     0.200 A 
ATOM     92  F   UNL A   1      33.938  32.828  32.292  1.00  0.00    -0.200 F 
ATOM     93  F   UNL A   1      33.321  34.375  30.131  1.00  0.00    -0.200 F 
ENDBRANCH  59  83
BRANCH  71  94
ATOM     94  C   UNL A   1      43.040  34.879  33.128  1.00  0.00     0.064 A 
ATOM     95  C   UNL A   1      43.063  34.745  34.525  1.00  0.00     0.173 A 
ATOM     96  C   UNL A   1      43.421  36.113  32.582  1.00  0.00     0.173 A 
ATOM     97  F   UNL A   1      42.695  33.590  35.099  1.00  0.00    -0.203 F 
ATOM     98  C   UNL A   1      43.444  35.808  35.342  1.00  0.00     0.198 A 
ATOM     99  C   UNL A   1      43.827  37.165  33.399  1.00  0.00     0.198 A 
ATOM    100  F   UNL A   1      43.421  36.291  31.252  1.00  0.00    -0.203 F 
ATOM    101  F   UNL A   1      43.428  35.666  36.675  1.00  0.00    -0.200 F 
ATOM    102  C   UNL A   1      43.835  37.012  34.778  1.00  0.00     0.200 A 
ATOM    103  F   UNL A   1      44.219  38.325  32.853  1.00  0.00    -0.200 F 
ATOM    104  F   UNL A   1      44.218  38.029  35.564  1.00  0.00    -0.200 F 
ENDBRANCH  71  94
ENDBRANCH  45  46
ENDBRANCH  38  40
ENDBRANCH  37  38
ENDBRANCH  36  37
ENDBRANCH  35  36
ENDBRANCH  34  35
ENDBRANCH  33  34
ENDBRANCH   1  33
TORSDOF 21
ENDMDL
MODEL 3
REMARK VINA RESULT:      -6.9      3.881     10.654
REMARK SMILES CC(C)Cc1ccc(-c2cc(Cl)cc3c2O[C@H](C(F)(F)F)C(C(=O)OCCOCCOCCOC(=O)c2ccc(-c4c5nc(c(-c6c(F)c(F)c(F)c(F)c6F)c6ccc([nH]6)c(-c6c(F)c(F)c(F)c(F)c6F)c6nc(c(-c7c(F)c(F)c(F)c(F)c7F)c7ccc4[nH]7)C=C6)C=C5)cc2)=C3)cc1
REMARK SMILES IDX 29 1 28 2 27 3 26 4 25 5 23 6 24 7 22 8 9 9 10 10 15 11
REMARK SMILES IDX 11 12 14 13 16 14 12 15 13 16 100 17 17 18 8 19 5 20 6 21
REMARK SMILES IDX 102 22 7 23 101 24 4 25 2 26 1 27 3 28 18 29 19 30 20 31
REMARK SMILES IDX 21 32 30 33 31 34 32 35 33 36 34 37 35 38 36 39 37 40 38 41
REMARK SMILES IDX 99 42 39 43 98 44 40 45 41 46 42 47 92 48 43 49 97 50 91 51
REMARK SMILES IDX 93 52 44 53 96 54 90 55 89 56 45 58 77 59 57 60 76 61 58 62
REMARK SMILES IDX 61 63 75 64 94 65 59 66 60 67 74 69 95 70 62 71 46 72 47 73
REMARK SMILES IDX 55 74 48 75 49 76 53 77 56 78 50 79 51 80 54 81 52 82 78 83
REMARK SMILES IDX 79 84 87 85 80 86 81 87 85 88 88 89 82 90 83 91 86 92 84 93
REMARK SMILES IDX 63 94 64 95 72 96 65 97 66 98 70 99 73 100 67 101 68 102
REMARK SMILES IDX 71 103 69 104
REMARK H PARENT 93 57 61 68
REMARK Flexibility Score: inf
ROOT
ATOM      1  C   UNL A   1      42.821  35.732  38.636  1.00  0.00     0.188 C 
ENDROOT
BRANCH   1   2
ATOM      2  O   UNL A   1      41.988  35.997  39.750  1.00  0.00    -0.376 OA
BRANCH   2   3
ATOM      3  C   UNL A   1      41.793  34.922  40.667  1.00  0.00     0.202 C 
BRANCH   3   4
ATOM      4  C   UNL A   1      40.339  34.465  40.846  1.00  0.00     0.261 C 
BRANCH   4   5
ATOM      5  O   UNL A   1      40.148  33.110  40.361  1.00  0.00    -0.460 OA
BRANCH   5   6
ATOM      6  C   UNL A   1      40.023  33.010  39.019  1.00  0.00     0.338 C 
ATOM      7  O   UNL A   1      40.836  32.462  38.287  1.00  0.00    -0.246 OA
BRANCH   6   8
ATOM      8  C   UNL A   1      38.710  33.516  38.531  1.00  0.00     0.087 C 
ATOM      9  C   UNL A   1      37.583  33.276  34.572  1.00  0.00     0.026 A 
ATOM     10  C   UNL A   1      38.794  33.224  33.844  1.00  0.00     0.033 A 
ATOM     11  C   UNL A   1      37.713  33.550  35.932  1.00  0.00     0.135 A 
ATOM     12  C   UNL A   1      40.023  33.595  34.384  1.00  0.00     0.042 A 
ATOM     13  C   UNL A   1      38.902  34.152  36.399  1.00  0.00     0.019 A 
ATOM     14  O   UNL A   1      36.816  33.139  36.909  1.00  0.00    -0.475 OA
ATOM     15  Cl  UNL A   1      41.465  33.436  33.470  1.00  0.00    -0.084 Cl
ATOM     16  C   UNL A   1      40.069  34.144  35.647  1.00  0.00     0.032 A 
ATOM     17  C   UNL A   1      38.908  34.625  37.799  1.00  0.00     0.027 C 
ATOM     18  C   UNL A   1      37.562  32.600  38.104  1.00  0.00     0.316 C 
BRANCH   9  19
ATOM     19  C   UNL A   1      36.368  33.316  33.718  1.00  0.00    -0.015 A 
ATOM     20  C   UNL A   1      34.925  33.594  31.262  1.00  0.00    -0.048 A 
ATOM     21  C   UNL A   1      35.270  32.333  31.755  1.00  0.00     0.004 A 
ATOM     22  C   UNL A   1      35.218  34.711  32.053  1.00  0.00     0.004 A 
ATOM     23  C   UNL A   1      35.963  32.201  32.972  1.00  0.00     0.009 A 
ATOM     24  C   UNL A   1      35.920  34.571  33.264  1.00  0.00     0.009 A 
BRANCH  20  25
ATOM     25  C   UNL A   1      34.302  33.755  29.887  1.00  0.00     0.038 C 
BRANCH  25  26
ATOM     26  C   UNL A   1      34.821  32.760  28.831  1.00  0.00    -0.013 C 
ATOM     27  C   UNL A   1      33.696  32.292  27.907  1.00  0.00     0.008 C 
ATOM     28  C   UNL A   1      35.944  33.387  27.997  1.00  0.00     0.008 C 
ENDBRANCH  25  26
ENDBRANCH  20  25
ENDBRANCH   9  19
BRANCH  18  29
ATOM     29  C   UNL A   1      36.633  32.361  39.297  1.00  0.00     0.430 C 
ATOM     30  F   UNL A   1      36.548  31.053  39.624  1.00  0.00    -0.167 F 
ATOM     31  F   UNL A   1      37.045  33.040  40.392  1.00  0.00    -0.167 F 
ATOM     32  F   UNL A   1      35.375  32.790  39.021  1.00  0.00    -0.167 F 
ENDBRANCH  18  29
ENDBRANCH   6   8
ENDBRANCH   5   6
ENDBRANCH   4   5
ENDBRANCH   3   4
ENDBRANCH   2   3
ENDBRANCH   1   2
BRANCH   1  33
ATOM     33  C   UNL A   1      42.405  36.432  37.324  1.00  0.00     0.188 C 
BRANCH  33  34
ATOM     34  O   UNL A   1      43.122  36.172  36.125  1.00  0.00    -0.376 OA
BRANCH  34  35
ATOM     35  C   UNL A   1      42.789  36.897  34.945  1.00  0.00     0.202 C 
BRANCH  35  36
ATOM     36  C   UNL A   1      43.918  37.612  34.197  1.00  0.00     0.261 C 
BRANCH  36  37
ATOM     37  O   UNL A   1      45.102  36.806  34.024  1.00  0.00    -0.460 OA
BRANCH  37  38
ATOM     38  C   UNL A   1      45.548  36.701  32.750  1.00  0.00     0.338 C 
ATOM     39  O   UNL A   1      46.081  37.571  32.076  1.00  0.00    -0.246 OA
BRANCH  38  40
ATOM     40  C   UNL A   1      45.485  35.299  32.292  1.00  0.00     0.060 A 
ATOM     41  C   UNL A   1      45.603  35.062  30.921  1.00  0.00     0.016 A 
ATOM     42  C   UNL A   1      45.206  34.243  33.163  1.00  0.00     0.016 A 
ATOM     43  C   UNL A   1      45.431  33.772  30.422  1.00  0.00     0.010 A 
ATOM     44  C   UNL A   1      45.030  32.944  32.652  1.00  0.00     0.010 A 
ATOM     45  C   UNL A   1      45.138  32.695  31.274  1.00  0.00    -0.014 A 
BRANCH  45  46
ATOM     46  C   UNL A   1      44.843  31.358  30.681  1.00  0.00     0.031 A 
ATOM     47  C   UNL A   1      45.920  30.314  30.637  1.00  0.00     0.074 A 
ATOM     48  C   UNL A   1      43.613  31.034  30.237  1.00  0.00     0.049 A 
ATOM     49  N   UNL A   1      45.860  29.081  30.204  1.00  0.00    -0.248 NA
ATOM     50  C   UNL A   1      47.243  30.719  31.132  1.00  0.00     0.031 C 
ATOM     51  C   UNL A   1      42.468  31.932  30.237  1.00  0.00     0.029 A 
ATOM     52  N   UNL A   1      43.102  29.845  29.762  1.00  0.00    -0.354 N 
ATOM     53  C   UNL A   1      47.153  28.587  30.301  1.00  0.00     0.074 A 
ATOM     54  C   UNL A   1      47.957  29.626  30.907  1.00  0.00     0.031 C 
ATOM     55  C   UNL A   1      41.366  31.234  29.909  1.00  0.00     0.029 A 
ATOM     56  C   UNL A   1      41.734  29.857  29.604  1.00  0.00     0.049 A 
ATOM     57  H   UNL A   1      43.662  29.063  29.555  1.00  0.00     0.167 HD
ATOM     58  C   UNL A   1      47.637  27.401  29.863  1.00  0.00     0.037 A 
ATOM     59  C   UNL A   1      40.877  28.871  29.260  1.00  0.00     0.037 A 
ATOM     60  C   UNL A   1      46.851  26.370  29.239  1.00  0.00     0.049 A 
ATOM     61  C   UNL A   1      41.436  27.543  28.813  1.00  0.00     0.074 A 
ATOM     62  C   UNL A   1      47.277  25.157  28.727  1.00  0.00     0.029 A 
ATOM     63  N   UNL A   1      45.483  26.432  29.031  1.00  0.00    -0.354 N 
ATOM     64  N   UNL A   1      42.665  27.097  28.876  1.00  0.00    -0.248 NA
ATOM     65  C   UNL A   1      40.491  26.606  28.182  1.00  0.00     0.031 C 
ATOM     66  C   UNL A   1      46.176  24.507  28.161  1.00  0.00     0.029 A 
ATOM     67  C   UNL A   1      45.053  25.291  28.371  1.00  0.00     0.049 A 
ATOM     68  H   UNL A   1      44.902  27.176  29.310  1.00  0.00     0.167 HD
ATOM     69  C   UNL A   1      42.648  25.849  28.267  1.00  0.00     0.074 A 
ATOM     70  C   UNL A   1      41.275  25.575  27.903  1.00  0.00     0.031 C 
ATOM     71  C   UNL A   1      43.689  25.025  27.998  1.00  0.00     0.037 A 
BRANCH  58  72
ATOM     72  C   UNL A   1      49.121  27.212  29.933  1.00  0.00     0.064 A 
ATOM     73  C   UNL A   1      49.743  26.574  31.013  1.00  0.00     0.173 A 
ATOM     74  C   UNL A   1      49.930  27.683  28.887  1.00  0.00     0.173 A 
ATOM     75  F   UNL A   1      49.012  26.130  32.047  1.00  0.00    -0.203 F 
ATOM     76  C   UNL A   1      51.128  26.436  31.055  1.00  0.00     0.198 A 
ATOM     77  C   UNL A   1      51.310  27.519  28.919  1.00  0.00     0.198 A 
ATOM     78  F   UNL A   1      49.378  28.304  27.833  1.00  0.00    -0.203 F 
ATOM     79  F   UNL A   1      51.712  25.868  32.120  1.00  0.00    -0.200 F 
ATOM     80  C   UNL A   1      51.909  26.903  30.007  1.00  0.00     0.200 A 
ATOM     81  F   UNL A   1      52.060  27.964  27.902  1.00  0.00    -0.200 F 
ATOM     82  F   UNL A   1      53.242  26.767  30.050  1.00  0.00    -0.200 F 
ENDBRANCH  58  72
BRANCH  59  83
ATOM     83  C   UNL A   1      39.398  29.072  29.303  1.00  0.00     0.064 A 
ATOM     84  C   UNL A   1      38.699  29.416  28.134  1.00  0.00     0.173 A 
ATOM     85  C   UNL A   1      38.658  28.982  30.491  1.00  0.00     0.173 A 
ATOM     86  F   UNL A   1      39.361  29.560  26.975  1.00  0.00    -0.203 F 
ATOM     87  C   UNL A   1      37.329  29.673  28.155  1.00  0.00     0.198 A 
ATOM     88  C   UNL A   1      37.280  29.197  30.504  1.00  0.00     0.198 A 
ATOM     89  F   UNL A   1      39.271  28.686  31.646  1.00  0.00    -0.203 F 
ATOM     90  F   UNL A   1      36.704  30.062  27.036  1.00  0.00    -0.200 F 
ATOM     91  C   UNL A   1      36.618  29.552  29.339  1.00  0.00     0.200 A 
ATOM     92  F   UNL A   1      36.596  29.073  31.650  1.00  0.00    -0.200 F 
ATOM     93  F   UNL A   1      35.300  29.797  29.360  1.00  0.00    -0.200 F 
ENDBRANCH  59  83
BRANCH  71  94
ATOM     94  C   UNL A   1      43.402  23.760  27.240  1.00  0.00     0.064 A 
ATOM     95  C   UNL A   1      43.699  23.649  25.873  1.00  0.00     0.173 A 
ATOM     96  C   UNL A   1      42.900  22.627  27.896  1.00  0.00     0.173 A 
ATOM     97  F   UNL A   1      44.169  24.707  25.195  1.00  0.00    -0.203 F 
ATOM     98  C   UNL A   1      43.494  22.453  25.189  1.00  0.00     0.198 A 
ATOM     99  C   UNL A   1      42.721  21.425  27.216  1.00  0.00     0.198 A 
ATOM    100  F   UNL A   1      42.604  22.680  29.203  1.00  0.00    -0.203 F 
ATOM    101  F   UNL A   1      43.757  22.379  23.876  1.00  0.00    -0.200 F 
ATOM    102  C   UNL A   1      43.016  21.340  25.863  1.00  0.00     0.200 A 
ATOM    103  F   UNL A   1      42.272  20.345  27.871  1.00  0.00    -0.200 F 
ATOM    104  F   UNL A   1      42.835  20.184  25.208  1.00  0.00    -0.200 F 
ENDBRANCH  71  94
ENDBRANCH  45  46
ENDBRANCH  38  40
ENDBRANCH  37  38
ENDBRANCH  36  37
ENDBRANCH  35  36
ENDBRANCH  34  35
ENDBRANCH  33  34
ENDBRANCH   1  33
TORSDOF 21
ENDMDL
