MODEL 1
REMARK VINA RESULT:     -11.8      0.000      0.000
REMARK SMILES O=C(OCCOCCOCCOC(=O)c1ccc2nc(C3CCCCC3)[nH]c2c1)c1ccc(-c2c3nc(c(-c4c(F)c(F)c(F)c(F)c4F)c4ccc([nH]4)c(-c4c(F)c(F)c(F)c(F)c4F)c4nc(c(-c5c(F)c(F)c(F)c(F)c5F)c5ccc2[nH]5)C=C4)C=C3)cc1
REMARK SMILES IDX 7 1 6 2 5 3 4 4 3 5 2 6 1 7 30 8 31 9 92 10 32 11 91 12
REMARK SMILES IDX 33 13 34 14 35 15 85 16 36 17 90 18 84 19 86 20 37 21 89 22
REMARK SMILES IDX 83 23 82 24 38 26 70 27 50 28 69 29 51 30 54 31 68 32 87 33
REMARK SMILES IDX 52 34 53 35 67 37 88 38 55 39 39 40 40 41 48 42 41 43 42 44
REMARK SMILES IDX 46 45 49 46 43 47 44 48 47 49 45 50 71 51 72 52 80 53 73 54
REMARK SMILES IDX 74 55 78 56 81 57 75 58 76 59 79 60 77 61 56 62 57 63 65 64
REMARK SMILES IDX 58 65 59 66 63 67 66 68 60 69 61 70 64 71 62 72 8 73 9 74
REMARK SMILES IDX 10 75 11 76 12 77 13 78 14 79 15 80 16 81 29 82 17 83 28 84
REMARK SMILES IDX 18 85 27 86 19 87 20 88 21 90 22 91 26 92 23 93 25 94 24 95
REMARK H PARENT 86 25 54 36 27 89
REMARK Flexibility Score: inf
ROOT
ATOM      1  C   UNL A   1      40.331  20.486  26.318  1.00  0.00     0.188 C 
ENDROOT
BRANCH   1   2
ATOM      2  O   UNL A   1      41.604  20.989  26.753  1.00  0.00    -0.376 OA
BRANCH   2   3
ATOM      3  C   UNL A   1      42.720  20.332  26.148  1.00  0.00     0.202 C 
BRANCH   3   4
ATOM      4  C   UNL A   1      43.599  21.262  25.307  1.00  0.00     0.261 C 
BRANCH   4   5
ATOM      5  O   UNL A   1      42.941  22.512  25.047  1.00  0.00    -0.460 OA
BRANCH   5   6
ATOM      6  C   UNL A   1      43.466  23.759  25.108  1.00  0.00     0.338 C 
ATOM      7  O   UNL A   1      44.397  24.042  24.354  1.00  0.00    -0.246 OA
BRANCH   6   8
ATOM      8  C   UNL A   1      42.939  24.850  25.988  1.00  0.00     0.060 A 
ATOM      9  C   UNL A   1      43.272  26.206  25.905  1.00  0.00     0.016 A 
ATOM     10  C   UNL A   1      41.986  24.466  26.947  1.00  0.00     0.016 A 
ATOM     11  C   UNL A   1      42.782  27.129  26.828  1.00  0.00     0.010 A 
ATOM     12  C   UNL A   1      41.450  25.393  27.843  1.00  0.00     0.010 A 
ATOM     13  C   UNL A   1      41.889  26.721  27.818  1.00  0.00    -0.014 A 
BRANCH  13  14
ATOM     14  C   UNL A   1      41.519  27.647  28.906  1.00  0.00     0.031 A 
ATOM     15  C   UNL A   1      42.336  27.639  30.161  1.00  0.00     0.074 A 
ATOM     16  C   UNL A   1      40.492  28.500  28.766  1.00  0.00     0.049 A 
ATOM     17  N   UNL A   1      42.128  28.259  31.292  1.00  0.00    -0.248 NA
ATOM     18  C   UNL A   1      43.555  26.816  30.135  1.00  0.00     0.031 C 
ATOM     19  C   UNL A   1      39.684  28.645  27.560  1.00  0.00     0.029 A 
ATOM     20  N   UNL A   1      39.946  29.390  29.652  1.00  0.00    -0.354 N 
ATOM     21  C   UNL A   1      43.175  27.884  32.119  1.00  0.00     0.074 A 
ATOM     22  C   UNL A   1      44.013  26.975  31.367  1.00  0.00     0.031 C 
ATOM     23  C   UNL A   1      38.724  29.553  27.791  1.00  0.00     0.029 A 
ATOM     24  C   UNL A   1      38.824  30.012  29.170  1.00  0.00     0.049 A 
ATOM     25  H   UNL A   1      40.322  29.566  30.546  1.00  0.00     0.167 HD
ATOM     26  C   UNL A   1      43.410  28.264  33.397  1.00  0.00     0.037 A 
ATOM     27  C   UNL A   1      37.945  30.826  29.783  1.00  0.00     0.037 A 
ATOM     28  C   UNL A   1      42.564  29.163  34.130  1.00  0.00     0.049 A 
ATOM     29  C   UNL A   1      38.182  31.191  31.218  1.00  0.00     0.074 A 
ATOM     30  C   UNL A   1      42.683  29.593  35.439  1.00  0.00     0.029 A 
ATOM     31  N   UNL A   1      41.431  29.773  33.608  1.00  0.00    -0.354 N 
ATOM     32  N   UNL A   1      39.153  30.808  32.013  1.00  0.00    -0.248 NA
ATOM     33  C   UNL A   1      37.212  32.096  31.845  1.00  0.00     0.031 C 
ATOM     34  C   UNL A   1      41.601  30.437  35.719  1.00  0.00     0.029 A 
ATOM     35  C   UNL A   1      40.830  30.564  34.572  1.00  0.00     0.049 A 
ATOM     36  H   UNL A   1      41.103  29.661  32.686  1.00  0.00     0.167 HD
ATOM     37  C   UNL A   1      38.919  31.428  33.229  1.00  0.00     0.074 A 
ATOM     38  C   UNL A   1      37.717  32.224  33.065  1.00  0.00     0.031 C 
ATOM     39  C   UNL A   1      39.635  31.346  34.377  1.00  0.00     0.037 A 
BRANCH  26  40
ATOM     40  C   UNL A   1      44.593  27.642  34.073  1.00  0.00     0.064 A 
ATOM     41  C   UNL A   1      45.865  28.229  34.023  1.00  0.00     0.173 A 
ATOM     42  C   UNL A   1      44.462  26.406  34.723  1.00  0.00     0.173 A 
ATOM     43  F   UNL A   1      46.047  29.396  33.385  1.00  0.00    -0.203 F 
ATOM     44  C   UNL A   1      46.973  27.582  34.566  1.00  0.00     0.198 A 
ATOM     45  C   UNL A   1      45.566  25.774  35.285  1.00  0.00     0.198 A 
ATOM     46  F   UNL A   1      43.267  25.800  34.789  1.00  0.00    -0.203 F 
ATOM     47  F   UNL A   1      48.192  28.126  34.445  1.00  0.00    -0.200 F 
ATOM     48  C   UNL A   1      46.822  26.355  35.196  1.00  0.00     0.200 A 
ATOM     49  F   UNL A   1      45.420  24.587  35.891  1.00  0.00    -0.200 F 
ATOM     50  F   UNL A   1      47.892  25.722  35.698  1.00  0.00    -0.200 F 
ENDBRANCH  26  40
BRANCH  27  51
ATOM     51  C   UNL A   1      36.758  31.304  29.033  1.00  0.00     0.064 A 
ATOM     52  C   UNL A   1      35.679  30.452  28.766  1.00  0.00     0.173 A 
ATOM     53  C   UNL A   1      36.653  32.645  28.627  1.00  0.00     0.173 A 
ATOM     54  F   UNL A   1      35.745  29.158  29.113  1.00  0.00    -0.203 F 
ATOM     55  C   UNL A   1      34.535  30.925  28.126  1.00  0.00     0.198 A 
ATOM     56  C   UNL A   1      35.501  33.119  28.005  1.00  0.00     0.198 A 
ATOM     57  F   UNL A   1      37.672  33.490  28.844  1.00  0.00    -0.203 F 
ATOM     58  F   UNL A   1      33.523  30.086  27.864  1.00  0.00    -0.200 F 
ATOM     59  C   UNL A   1      34.441  32.259  27.758  1.00  0.00     0.200 A 
ATOM     60  F   UNL A   1      35.416  34.406  27.638  1.00  0.00    -0.200 F 
ATOM     61  F   UNL A   1      33.335  32.711  27.153  1.00  0.00    -0.200 F 
ENDBRANCH  27  51
BRANCH  39  62
ATOM     62  C   UNL A   1      39.152  32.153  35.541  1.00  0.00     0.064 A 
ATOM     63  C   UNL A   1      38.363  31.579  36.546  1.00  0.00     0.173 A 
ATOM     64  C   UNL A   1      39.549  33.489  35.688  1.00  0.00     0.173 A 
ATOM     65  F   UNL A   1      37.950  30.308  36.438  1.00  0.00    -0.203 F 
ATOM     66  C   UNL A   1      37.985  32.320  37.662  1.00  0.00     0.198 A 
ATOM     67  C   UNL A   1      39.184  34.221  36.813  1.00  0.00     0.198 A 
ATOM     68  F   UNL A   1      40.308  34.076  34.751  1.00  0.00    -0.203 F 
ATOM     69  F   UNL A   1      37.214  31.760  38.605  1.00  0.00    -0.200 F 
ATOM     70  C   UNL A   1      38.402  33.636  37.799  1.00  0.00     0.200 A 
ATOM     71  F   UNL A   1      39.596  35.489  36.949  1.00  0.00    -0.200 F 
ATOM     72  F   UNL A   1      38.049  34.342  38.881  1.00  0.00    -0.200 F 
ENDBRANCH  39  62
ENDBRANCH  13  14
ENDBRANCH   6   8
ENDBRANCH   5   6
ENDBRANCH   4   5
ENDBRANCH   3   4
ENDBRANCH   2   3
ENDBRANCH   1   2
BRANCH   1  73
ATOM     73  C   UNL A   1      39.366  21.645  26.056  1.00  0.00     0.188 C 
BRANCH  73  74
ATOM     74  O   UNL A   1      38.059  21.247  25.635  1.00  0.00    -0.376 OA
BRANCH  74  75
ATOM     75  C   UNL A   1      37.410  22.079  24.679  1.00  0.00     0.202 C 
BRANCH  75  76
ATOM     76  C   UNL A   1      37.233  23.550  25.065  1.00  0.00     0.261 C 
BRANCH  76  77
ATOM     77  O   UNL A   1      36.175  23.817  26.001  1.00  0.00    -0.460 OA
BRANCH  77  78
ATOM     78  C   UNL A   1      34.985  23.270  25.655  1.00  0.00     0.338 C 
ATOM     79  O   UNL A   1      34.514  22.207  26.032  1.00  0.00    -0.246 OA
BRANCH  78  80
ATOM     80  C   UNL A   1      34.318  24.082  24.627  1.00  0.00     0.062 A 
ATOM     81  C   UNL A   1      34.215  23.520  23.349  1.00  0.00     0.018 A 
ATOM     82  C   UNL A   1      33.640  25.263  24.980  1.00  0.00     0.044 A 
ATOM     83  C   UNL A   1      33.395  24.108  22.384  1.00  0.00     0.031 A 
ATOM     84  C   UNL A   1      32.819  25.818  23.991  1.00  0.00     0.066 A 
ATOM     85  C   UNL A   1      32.676  25.262  22.724  1.00  0.00     0.089 A 
ATOM     86  N   UNL A   1      31.970  26.900  23.976  1.00  0.00    -0.342 N 
ATOM     87  N   UNL A   1      31.778  25.971  21.972  1.00  0.00    -0.233 NA
ATOM     88  C   UNL A   1      31.320  26.922  22.761  1.00  0.00     0.110 A 
ATOM     89  H   UNL A   1      31.848  27.547  24.708  1.00  0.00     0.168 HD
BRANCH  88  90
ATOM     90  C   UNL A   1      30.193  27.859  22.428  1.00  0.00     0.055 C 
ATOM     91  C   UNL A   1      29.034  27.724  23.429  1.00  0.00     0.011 C 
ATOM     92  C   UNL A   1      30.647  29.320  22.314  1.00  0.00     0.011 C 
ATOM     93  C   UNL A   1      27.865  28.632  23.052  1.00  0.00     0.001 C 
ATOM     94  C   UNL A   1      29.476  30.229  21.934  1.00  0.00     0.001 C 
ATOM     95  C   UNL A   1      28.304  30.086  22.902  1.00  0.00     0.000 C 
ENDBRANCH  88  90
ENDBRANCH  78  80
ENDBRANCH  77  78
ENDBRANCH  76  77
ENDBRANCH  75  76
ENDBRANCH  74  75
ENDBRANCH  73  74
ENDBRANCH   1  73
TORSDOF 18
ENDMDL
MODEL 2
REMARK VINA RESULT:     -11.7      5.739     10.945
REMARK SMILES O=C(OCCOCCOCCOC(=O)c1ccc2nc(C3CCCCC3)[nH]c2c1)c1ccc(-c2c3nc(c(-c4c(F)c(F)c(F)c(F)c4F)c4ccc([nH]4)c(-c4c(F)c(F)c(F)c(F)c4F)c4nc(c(-c5c(F)c(F)c(F)c(F)c5F)c5ccc2[nH]5)C=C4)C=C3)cc1
REMARK SMILES IDX 7 1 6 2 5 3 4 4 3 5 2 6 1 7 30 8 31 9 92 10 32 11 91 12
REMARK SMILES IDX 33 13 34 14 35 15 85 16 36 17 90 18 84 19 86 20 37 21 89 22
REMARK SMILES IDX 83 23 82 24 38 26 70 27 50 28 69 29 51 30 54 31 68 32 87 33
REMARK SMILES IDX 52 34 53 35 67 37 88 38 55 39 39 40 40 41 48 42 41 43 42 44
REMARK SMILES IDX 46 45 49 46 43 47 44 48 47 49 45 50 71 51 72 52 80 53 73 54
REMARK SMILES IDX 74 55 78 56 81 57 75 58 76 59 79 60 77 61 56 62 57 63 65 64
REMARK SMILES IDX 58 65 59 66 63 67 66 68 60 69 61 70 64 71 62 72 8 73 9 74
REMARK SMILES IDX 10 75 11 76 12 77 13 78 14 79 15 80 16 81 29 82 17 83 28 84
REMARK SMILES IDX 18 85 27 86 19 87 20 88 21 90 22 91 26 92 23 93 25 94 24 95
REMARK H PARENT 86 25 54 36 27 89
REMARK Flexibility Score: inf
ROOT
ATOM      1  C   UNL A   1      34.008  37.005  32.650  1.00  0.00     0.188 C 
ENDROOT
BRANCH   1   2
ATOM      2  O   UNL A   1      35.063  36.106  33.026  1.00  0.00    -0.376 OA
BRANCH   2   3
ATOM      3  C   UNL A   1      34.759  35.310  34.175  1.00  0.00     0.202 C 
BRANCH   3   4
ATOM      4  C   UNL A   1      35.061  33.821  33.987  1.00  0.00     0.261 C 
BRANCH   4   5
ATOM      5  O   UNL A   1      35.689  33.568  32.720  1.00  0.00    -0.460 OA
BRANCH   5   6
ATOM      6  C   UNL A   1      35.568  32.472  31.933  1.00  0.00     0.338 C 
ATOM      7  O   UNL A   1      34.446  32.150  31.543  1.00  0.00    -0.246 OA
BRANCH   6   8
ATOM      8  C   UNL A   1      36.725  31.659  31.442  1.00  0.00     0.060 A 
ATOM      9  C   UNL A   1      37.566  30.866  32.229  1.00  0.00     0.016 A 
ATOM     10  C   UNL A   1      36.943  31.667  30.053  1.00  0.00     0.016 A 
ATOM     11  C   UNL A   1      38.667  30.210  31.679  1.00  0.00     0.010 A 
ATOM     12  C   UNL A   1      38.012  30.972  29.486  1.00  0.00     0.010 A 
ATOM     13  C   UNL A   1      38.910  30.282  30.308  1.00  0.00    -0.014 A 
BRANCH  13  14
ATOM     14  C   UNL A   1      40.171  29.754  29.753  1.00  0.00     0.031 A 
ATOM     15  C   UNL A   1      41.342  30.679  29.630  1.00  0.00     0.074 A 
ATOM     16  C   UNL A   1      40.279  28.466  29.393  1.00  0.00     0.049 A 
ATOM     17  N   UNL A   1      42.500  30.483  29.058  1.00  0.00    -0.248 NA
ATOM     18  C   UNL A   1      41.183  32.009  30.238  1.00  0.00     0.031 C 
ATOM     19  C   UNL A   1      39.229  27.464  29.544  1.00  0.00     0.029 A 
ATOM     20  N   UNL A   1      41.317  27.787  28.811  1.00  0.00    -0.354 N 
ATOM     21  C   UNL A   1      43.198  31.670  29.215  1.00  0.00     0.074 A 
ATOM     22  C   UNL A   1      42.333  32.586  29.927  1.00  0.00     0.031 C 
ATOM     23  C   UNL A   1      39.667  26.300  29.040  1.00  0.00     0.029 A 
ATOM     24  C   UNL A   1      41.003  26.491  28.492  1.00  0.00     0.049 A 
ATOM     25  H   UNL A   1      42.200  28.189  28.639  1.00  0.00     0.167 HD
ATOM     26  C   UNL A   1      44.450  31.967  28.794  1.00  0.00     0.037 A 
ATOM     27  C   UNL A   1      41.695  25.572  27.795  1.00  0.00     0.037 A 
ATOM     28  C   UNL A   1      45.293  31.046  28.084  1.00  0.00     0.049 A 
ATOM     29  C   UNL A   1      43.057  25.932  27.281  1.00  0.00     0.074 A 
ATOM     30  C   UNL A   1      46.563  31.247  27.579  1.00  0.00     0.029 A 
ATOM     31  N   UNL A   1      44.938  29.739  27.775  1.00  0.00    -0.354 N 
ATOM     32  N   UNL A   1      43.704  27.068  27.397  1.00  0.00    -0.248 NA
ATOM     33  C   UNL A   1      43.787  24.896  26.542  1.00  0.00     0.031 C 
ATOM     34  C   UNL A   1      46.965  30.070  26.934  1.00  0.00     0.029 A 
ATOM     35  C   UNL A   1      45.959  29.124  27.072  1.00  0.00     0.049 A 
ATOM     36  H   UNL A   1      44.086  29.312  28.021  1.00  0.00     0.167 HD
ATOM     37  C   UNL A   1      44.918  26.884  26.756  1.00  0.00     0.074 A 
ATOM     38  C   UNL A   1      44.923  25.520  26.260  1.00  0.00     0.031 C 
ATOM     39  C   UNL A   1      45.935  27.764  26.594  1.00  0.00     0.037 A 
BRANCH  26  40
ATOM     40  C   UNL A   1      44.927  33.364  29.046  1.00  0.00     0.064 A 
ATOM     41  C   UNL A   1      44.614  34.420  28.177  1.00  0.00     0.173 A 
ATOM     42  C   UNL A   1      45.764  33.635  30.138  1.00  0.00     0.173 A 
ATOM     43  F   UNL A   1      43.843  34.203  27.101  1.00  0.00    -0.203 F 
ATOM     44  C   UNL A   1      45.156  35.688  28.370  1.00  0.00     0.198 A 
ATOM     45  C   UNL A   1      46.284  34.909  30.341  1.00  0.00     0.198 A 
ATOM     46  F   UNL A   1      46.099  32.656  30.993  1.00  0.00    -0.203 F 
ATOM     47  F   UNL A   1      44.903  36.665  27.488  1.00  0.00    -0.200 F 
ATOM     48  C   UNL A   1      45.991  35.931  29.452  1.00  0.00     0.200 A 
ATOM     49  F   UNL A   1      47.092  35.142  31.385  1.00  0.00    -0.200 F 
ATOM     50  F   UNL A   1      46.529  37.147  29.623  1.00  0.00    -0.200 F 
ENDBRANCH  26  40
BRANCH  27  51
ATOM     51  C   UNL A   1      41.076  24.250  27.529  1.00  0.00     0.064 A 
ATOM     52  C   UNL A   1      40.029  24.113  26.610  1.00  0.00     0.173 A 
ATOM     53  C   UNL A   1      41.568  23.086  28.143  1.00  0.00     0.173 A 
ATOM     54  F   UNL A   1      39.510  25.199  26.017  1.00  0.00    -0.203 F 
ATOM     55  C   UNL A   1      39.500  22.859  26.308  1.00  0.00     0.198 A 
ATOM     56  C   UNL A   1      41.052  21.833  27.826  1.00  0.00     0.198 A 
ATOM     57  F   UNL A   1      42.557  23.174  29.046  1.00  0.00    -0.203 F 
ATOM     58  F   UNL A   1      38.485  22.755  25.440  1.00  0.00    -0.200 F 
ATOM     59  C   UNL A   1      40.019  21.720  26.906  1.00  0.00     0.200 A 
ATOM     60  F   UNL A   1      41.545  20.734  28.413  1.00  0.00    -0.200 F 
ATOM     61  F   UNL A   1      39.514  20.516  26.605  1.00  0.00    -0.200 F 
ENDBRANCH  27  51
BRANCH  39  62
ATOM     62  C   UNL A   1      47.150  27.276  25.869  1.00  0.00     0.064 A 
ATOM     63  C   UNL A   1      47.319  27.505  24.497  1.00  0.00     0.173 A 
ATOM     64  C   UNL A   1      48.186  26.644  26.571  1.00  0.00     0.173 A 
ATOM     65  F   UNL A   1      46.347  28.094  23.786  1.00  0.00    -0.203 F 
ATOM     66  C   UNL A   1      48.488  27.113  23.851  1.00  0.00     0.198 A 
ATOM     67  C   UNL A   1      49.360  26.271  25.925  1.00  0.00     0.198 A 
ATOM     68  F   UNL A   1      48.066  26.410  27.886  1.00  0.00    -0.203 F 
ATOM     69  F   UNL A   1      48.625  27.324  22.534  1.00  0.00    -0.200 F 
ATOM     70  C   UNL A   1      49.510  26.505  24.566  1.00  0.00     0.200 A 
ATOM     71  F   UNL A   1      50.350  25.692  26.619  1.00  0.00    -0.200 F 
ATOM     72  F   UNL A   1      50.640  26.143  23.944  1.00  0.00    -0.200 F 
ENDBRANCH  39  62
ENDBRANCH  13  14
ENDBRANCH   6   8
ENDBRANCH   5   6
ENDBRANCH   4   5
ENDBRANCH   3   4
ENDBRANCH   2   3
ENDBRANCH   1   2
BRANCH   1  73
ATOM     73  C   UNL A   1      32.733  36.220  32.331  1.00  0.00     0.188 C 
BRANCH  73  74
ATOM     74  O   UNL A   1      32.560  35.904  30.948  1.00  0.00    -0.376 OA
BRANCH  74  75
ATOM     75  C   UNL A   1      33.628  35.214  30.307  1.00  0.00     0.202 C 
BRANCH  75  76
ATOM     76  C   UNL A   1      33.419  34.853  28.834  1.00  0.00     0.261 C 
BRANCH  76  77
ATOM     77  O   UNL A   1      33.656  33.475  28.499  1.00  0.00    -0.460 OA
BRANCH  77  78
ATOM     78  C   UNL A   1      32.797  32.978  27.578  1.00  0.00     0.338 C 
ATOM     79  O   UNL A   1      31.757  33.482  27.178  1.00  0.00    -0.246 OA
BRANCH  78  80
ATOM     80  C   UNL A   1      33.205  31.629  27.159  1.00  0.00     0.062 A 
ATOM     81  C   UNL A   1      34.469  31.196  27.575  1.00  0.00     0.018 A 
ATOM     82  C   UNL A   1      32.278  30.761  26.555  1.00  0.00     0.044 A 
ATOM     83  C   UNL A   1      34.837  29.856  27.431  1.00  0.00     0.031 A 
ATOM     84  C   UNL A   1      32.677  29.424  26.437  1.00  0.00     0.066 A 
ATOM     85  C   UNL A   1      33.915  28.961  26.871  1.00  0.00     0.089 A 
ATOM     86  N   UNL A   1      32.045  28.293  25.975  1.00  0.00    -0.342 N 
ATOM     87  N   UNL A   1      34.031  27.610  26.684  1.00  0.00    -0.233 NA
ATOM     88  C   UNL A   1      32.873  27.214  26.195  1.00  0.00     0.110 A 
ATOM     89  H   UNL A   1      31.153  28.262  25.559  1.00  0.00     0.168 HD
BRANCH  88  90
ATOM     90  C   UNL A   1      32.465  25.784  25.976  1.00  0.00     0.055 C 
ATOM     91  C   UNL A   1      30.955  25.590  26.188  1.00  0.00     0.011 C 
ATOM     92  C   UNL A   1      32.896  25.245  24.606  1.00  0.00     0.011 C 
ATOM     93  C   UNL A   1      30.555  24.125  26.026  1.00  0.00     0.001 C 
ATOM     94  C   UNL A   1      32.497  23.777  24.445  1.00  0.00     0.001 C 
ATOM     95  C   UNL A   1      31.004  23.561  24.681  1.00  0.00     0.000 C 
ENDBRANCH  88  90
ENDBRANCH  78  80
ENDBRANCH  77  78
ENDBRANCH  76  77
ENDBRANCH  75  76
ENDBRANCH  74  75
ENDBRANCH  73  74
ENDBRANCH   1  73
TORSDOF 18
ENDMDL
MODEL 3
REMARK VINA RESULT:     -11.7      4.802      9.105
REMARK SMILES O=C(OCCOCCOCCOC(=O)c1ccc2nc(C3CCCCC3)[nH]c2c1)c1ccc(-c2c3nc(c(-c4c(F)c(F)c(F)c(F)c4F)c4ccc([nH]4)c(-c4c(F)c(F)c(F)c(F)c4F)c4nc(c(-c5c(F)c(F)c(F)c(F)c5F)c5ccc2[nH]5)C=C4)C=C3)cc1
REMARK SMILES IDX 7 1 6 2 5 3 4 4 3 5 2 6 1 7 30 8 31 9 92 10 32 11 91 12
REMARK SMILES IDX 33 13 34 14 35 15 85 16 36 17 90 18 84 19 86 20 37 21 89 22
REMARK SMILES IDX 83 23 82 24 38 26 70 27 50 28 69 29 51 30 54 31 68 32 87 33
REMARK SMILES IDX 52 34 53 35 67 37 88 38 55 39 39 40 40 41 48 42 41 43 42 44
REMARK SMILES IDX 46 45 49 46 43 47 44 48 47 49 45 50 71 51 72 52 80 53 73 54
REMARK SMILES IDX 74 55 78 56 81 57 75 58 76 59 79 60 77 61 56 62 57 63 65 64
REMARK SMILES IDX 58 65 59 66 63 67 66 68 60 69 61 70 64 71 62 72 8 73 9 74
REMARK SMILES IDX 10 75 11 76 12 77 13 78 14 79 15 80 16 81 29 82 17 83 28 84
REMARK SMILES IDX 18 85 27 86 19 87 20 88 21 90 22 91 26 92 23 93 25 94 24 95
REMARK H PARENT 86 25 54 36 27 89
REMARK Flexibility Score: inf
ROOT
ATOM      1  C   UNL A   1      35.462  22.987  26.118  1.00  0.00     0.188 C 
ENDROOT
BRANCH   1   2
ATOM      2  O   UNL A   1      35.040  21.688  25.673  1.00  0.00    -0.376 OA
BRANCH   2   3
ATOM      3  C   UNL A   1      36.122  20.802  25.373  1.00  0.00     0.202 C 
BRANCH   3   4
ATOM      4  C   UNL A   1      37.393  21.520  24.911  1.00  0.00     0.261 C 
BRANCH   4   5
ATOM      5  O   UNL A   1      38.570  20.764  25.235  1.00  0.00    -0.460 OA
BRANCH   5   6
ATOM      6  C   UNL A   1      39.465  20.998  26.225  1.00  0.00     0.338 C 
ATOM      7  O   UNL A   1      39.994  20.035  26.778  1.00  0.00    -0.246 OA
BRANCH   6   8
ATOM      8  C   UNL A   1      39.913  22.363  26.646  1.00  0.00     0.060 A 
ATOM      9  C   UNL A   1      39.388  23.577  26.193  1.00  0.00     0.016 A 
ATOM     10  C   UNL A   1      40.922  22.409  27.625  1.00  0.00     0.016 A 
ATOM     11  C   UNL A   1      39.934  24.796  26.593  1.00  0.00     0.010 A 
ATOM     12  C   UNL A   1      41.441  23.627  28.070  1.00  0.00     0.010 A 
ATOM     13  C   UNL A   1      40.981  24.826  27.513  1.00  0.00    -0.014 A 
BRANCH  13  14
ATOM     14  C   UNL A   1      41.685  26.092  27.791  1.00  0.00     0.031 A 
ATOM     15  C   UNL A   1      40.966  27.156  28.562  1.00  0.00     0.074 A 
ATOM     16  C   UNL A   1      42.952  26.279  27.390  1.00  0.00     0.049 A 
ATOM     17  N   UNL A   1      41.325  28.387  28.812  1.00  0.00    -0.248 NA
ATOM     18  C   UNL A   1      39.662  26.776  29.129  1.00  0.00     0.031 C 
ATOM     19  C   UNL A   1      43.768  25.282  26.705  1.00  0.00     0.029 A 
ATOM     20  N   UNL A   1      43.765  27.377  27.487  1.00  0.00    -0.354 N 
ATOM     21  C   UNL A   1      40.283  28.936  29.543  1.00  0.00     0.074 A 
ATOM     22  C   UNL A   1      39.273  27.910  29.689  1.00  0.00     0.031 C 
ATOM     23  C   UNL A   1      44.960  25.825  26.417  1.00  0.00     0.029 A 
ATOM     24  C   UNL A   1      44.970  27.215  26.854  1.00  0.00     0.049 A 
ATOM     25  H   UNL A   1      43.509  28.201  27.963  1.00  0.00     0.167 HD
ATOM     26  C   UNL A   1      40.180  30.190  30.041  1.00  0.00     0.037 A 
ATOM     27  C   UNL A   1      45.954  28.098  26.611  1.00  0.00     0.037 A 
ATOM     28  C   UNL A   1      41.191  31.198  29.882  1.00  0.00     0.049 A 
ATOM     29  C   UNL A   1      45.803  29.503  27.116  1.00  0.00     0.074 A 
ATOM     30  C   UNL A   1      41.182  32.511  30.313  1.00  0.00     0.029 A 
ATOM     31  N   UNL A   1      42.401  30.997  29.230  1.00  0.00    -0.354 N 
ATOM     32  N   UNL A   1      44.801  30.034  27.775  1.00  0.00    -0.248 NA
ATOM     33  C   UNL A   1      46.907  30.431  26.847  1.00  0.00     0.031 C 
ATOM     34  C   UNL A   1      42.374  33.115  29.892  1.00  0.00     0.029 A 
ATOM     35  C   UNL A   1      43.142  32.165  29.233  1.00  0.00     0.049 A 
ATOM     36  H   UNL A   1      42.690  30.146  28.826  1.00  0.00     0.167 HD
ATOM     37  C   UNL A   1      45.153  31.352  28.009  1.00  0.00     0.074 A 
ATOM     38  C   UNL A   1      46.470  31.540  27.429  1.00  0.00     0.031 C 
ATOM     39  C   UNL A   1      44.451  32.320  28.648  1.00  0.00     0.037 A 
BRANCH  26  40
ATOM     40  C   UNL A   1      38.899  30.530  30.739  1.00  0.00     0.064 A 
ATOM     41  C   UNL A   1      37.774  30.987  30.037  1.00  0.00     0.173 A 
ATOM     42  C   UNL A   1      38.821  30.462  32.137  1.00  0.00     0.173 A 
ATOM     43  F   UNL A   1      37.812  31.101  28.701  1.00  0.00    -0.203 F 
ATOM     44  C   UNL A   1      36.629  31.400  30.714  1.00  0.00     0.198 A 
ATOM     45  C   UNL A   1      37.666  30.853  32.809  1.00  0.00     0.198 A 
ATOM     46  F   UNL A   1      39.874  30.040  32.854  1.00  0.00    -0.203 F 
ATOM     47  F   UNL A   1      35.591  31.900  30.029  1.00  0.00    -0.200 F 
ATOM     48  C   UNL A   1      36.577  31.333  32.099  1.00  0.00     0.200 A 
ATOM     49  F   UNL A   1      37.618  30.789  34.147  1.00  0.00    -0.200 F 
ATOM     50  F   UNL A   1      35.483  31.752  32.750  1.00  0.00    -0.200 F 
ENDBRANCH  26  40
BRANCH  27  51
ATOM     51  C   UNL A   1      47.136  27.666  25.826  1.00  0.00     0.064 A 
ATOM     52  C   UNL A   1      47.143  27.742  24.428  1.00  0.00     0.173 A 
ATOM     53  C   UNL A   1      48.308  27.229  26.466  1.00  0.00     0.173 A 
ATOM     54  F   UNL A   1      46.040  28.130  23.772  1.00  0.00    -0.203 F 
ATOM     55  C   UNL A   1      48.282  27.405  23.698  1.00  0.00     0.198 A 
ATOM     56  C   UNL A   1      49.450  26.912  25.736  1.00  0.00     0.198 A 
ATOM     57  F   UNL A   1      48.338  27.121  27.803  1.00  0.00    -0.203 F 
ATOM     58  F   UNL A   1      48.259  27.467  22.359  1.00  0.00    -0.200 F 
ATOM     59  C   UNL A   1      49.437  27.002  24.352  1.00  0.00     0.200 A 
ATOM     60  F   UNL A   1      50.562  26.511  26.368  1.00  0.00    -0.200 F 
ATOM     61  F   UNL A   1      50.532  26.689  23.647  1.00  0.00    -0.200 F 
ENDBRANCH  27  51
BRANCH  39  62
ATOM     62  C   UNL A   1      45.098  33.663  28.773  1.00  0.00     0.064 A 
ATOM     63  C   UNL A   1      45.957  33.960  29.839  1.00  0.00     0.173 A 
ATOM     64  C   UNL A   1      44.915  34.631  27.776  1.00  0.00     0.173 A 
ATOM     65  F   UNL A   1      46.149  33.068  30.821  1.00  0.00    -0.203 F 
ATOM     66  C   UNL A   1      46.612  35.187  29.902  1.00  0.00     0.198 A 
ATOM     67  C   UNL A   1      45.585  35.848  27.833  1.00  0.00     0.198 A 
ATOM     68  F   UNL A   1      44.103  34.385  26.736  1.00  0.00    -0.203 F 
ATOM     69  F   UNL A   1      47.417  35.462  30.938  1.00  0.00    -0.200 F 
ATOM     70  C   UNL A   1      46.432  36.126  28.896  1.00  0.00     0.200 A 
ATOM     71  F   UNL A   1      45.418  36.750  26.855  1.00  0.00    -0.200 F 
ATOM     72  F   UNL A   1      47.076  37.299  28.951  1.00  0.00    -0.200 F 
ENDBRANCH  39  62
ENDBRANCH  13  14
ENDBRANCH   6   8
ENDBRANCH   5   6
ENDBRANCH   4   5
ENDBRANCH   3   4
ENDBRANCH   2   3
ENDBRANCH   1   2
BRANCH   1  73
ATOM     73  C   UNL A   1      34.700  24.078  25.362  1.00  0.00     0.188 C 
BRANCH  73  74
ATOM     74  O   UNL A   1      33.866  24.899  26.183  1.00  0.00    -0.376 OA
BRANCH  74  75
ATOM     75  C   UNL A   1      33.606  26.219  25.718  1.00  0.00     0.202 C 
BRANCH  75  76
ATOM     76  C   UNL A   1      32.216  26.786  26.021  1.00  0.00     0.261 C 
BRANCH  76  77
ATOM     77  O   UNL A   1      31.259  25.836  26.518  1.00  0.00    -0.460 OA
BRANCH  77  78
ATOM     78  C   UNL A   1      30.325  25.469  25.608  1.00  0.00     0.338 C 
ATOM     79  O   UNL A   1      29.245  26.000  25.390  1.00  0.00    -0.246 OA
BRANCH  78  80
ATOM     80  C   UNL A   1      30.713  24.219  24.938  1.00  0.00     0.062 A 
ATOM     81  C   UNL A   1      31.138  24.321  23.609  1.00  0.00     0.018 A 
ATOM     82  C   UNL A   1      30.844  23.028  25.676  1.00  0.00     0.044 A 
ATOM     83  C   UNL A   1      31.747  23.234  22.978  1.00  0.00     0.031 A 
ATOM     84  C   UNL A   1      31.469  21.964  25.015  1.00  0.00     0.066 A 
ATOM     85  C   UNL A   1      31.929  22.049  23.705  1.00  0.00     0.089 A 
ATOM     86  N   UNL A   1      31.829  20.696  25.410  1.00  0.00    -0.342 N 
ATOM     87  N   UNL A   1      32.543  20.888  23.320  1.00  0.00    -0.233 NA
ATOM     88  C   UNL A   1      32.524  20.103  24.379  1.00  0.00     0.110 A 
ATOM     89  H   UNL A   1      31.625  20.285  26.281  1.00  0.00     0.168 HD
BRANCH  88  90
ATOM     90  C   UNL A   1      33.223  18.777  24.490  1.00  0.00     0.055 C 
ATOM     91  C   UNL A   1      32.606  17.906  25.596  1.00  0.00     0.011 C 
ATOM     92  C   UNL A   1      33.271  18.015  23.160  1.00  0.00     0.011 C 
ATOM     93  C   UNL A   1      33.359  16.586  25.750  1.00  0.00     0.001 C 
ATOM     94  C   UNL A   1      34.027  16.693  23.313  1.00  0.00     0.001 C 
ATOM     95  C   UNL A   1      33.445  15.828  24.428  1.00  0.00     0.000 C 
ENDBRANCH  88  90
ENDBRANCH  78  80
ENDBRANCH  77  78
ENDBRANCH  76  77
ENDBRANCH  75  76
ENDBRANCH  74  75
ENDBRANCH  73  74
ENDBRANCH   1  73
TORSDOF 18
ENDMDL
