MODEL 1
REMARK VINA RESULT:      -8.0      0.000      0.000
REMARK SMILES CCN1C(=O)[C@H](CC(=O)Nc2ccc(C(=O)OCCOCCOCCOC(=O)c3ccc(-c4c5nc(c(-c6c(F)c(F)c(F)c(F)c6F)c6ccc([nH]6)c(-c6c(F)c(F)c(F)c(F)c6F)c6nc(c(-c7c(F)c(F)c(F)c(F)c7F)c7ccc4[nH]7)C=C6)C=C5)cc3)cc2)S/C1=[NH+]\c1ccc(Cl)cc1
REMARK SMILES IDX 21 1 20 2 19 3 18 4 17 5 15 6 16 7 14 8 11 9 12 10 93 11
REMARK SMILES IDX 13 12 92 13 10 14 8 15 9 16 7 18 6 19 3 20 4 21 95 22 5 23
REMARK SMILES IDX 94 24 96 25 2 27 1 28 97 29 98 30 103 31 99 32 102 33 100 34
REMARK SMILES IDX 101 35 22 36 23 37 24 38 25 39 26 40 27 41 28 42 29 43 30 44
REMARK SMILES IDX 91 45 31 46 90 47 32 48 33 49 34 50 84 51 35 52 89 53 83 54
REMARK SMILES IDX 85 55 36 56 88 57 82 58 81 59 37 61 69 62 49 63 68 64 50 65
REMARK SMILES IDX 53 66 67 67 86 68 51 69 52 70 66 72 87 73 54 74 38 75 39 76
REMARK SMILES IDX 47 77 40 78 41 79 45 80 48 81 42 82 43 83 46 84 44 85 70 86
REMARK SMILES IDX 71 87 79 88 72 89 73 90 77 91 80 92 74 93 75 94 78 95 76 96
REMARK SMILES IDX 55 97 56 98 64 99 57 100 58 101 62 102 65 103 59 104 60 105
REMARK SMILES IDX 63 106 61 107
REMARK H PARENT 10 17 96 26 85 60 53 71
REMARK Flexibility Score: inf
ROOT
ATOM      1  C   UNL A   1      36.071  30.688  31.200  1.00  0.00     0.188 C 
ENDROOT
BRANCH   1   2
ATOM      2  O   UNL A   1      36.564  29.378  31.471  1.00  0.00    -0.376 OA
BRANCH   2   3
ATOM      3  C   UNL A   1      37.877  29.027  31.083  1.00  0.00     0.202 C 
BRANCH   3   4
ATOM      4  C   UNL A   1      38.481  29.849  29.942  1.00  0.00     0.261 C 
BRANCH   4   5
ATOM      5  O   UNL A   1      39.727  29.369  29.427  1.00  0.00    -0.460 OA
BRANCH   5   6
ATOM      6  C   UNL A   1      39.652  28.519  28.368  1.00  0.00     0.338 C 
ATOM      7  O   UNL A   1      38.675  28.146  27.765  1.00  0.00    -0.246 OA
BRANCH   6   8
ATOM      8  C   UNL A   1      41.037  28.126  28.045  1.00  0.00     0.060 A 
ATOM      9  C   UNL A   1      43.761  27.624  27.558  1.00  0.00     0.041 A 
ATOM     10  C   UNL A   1      42.910  28.069  26.528  1.00  0.00     0.027 A 
ATOM     11  C   UNL A   1      43.193  27.334  28.795  1.00  0.00     0.027 A 
ATOM     12  C   UNL A   1      41.549  28.309  26.762  1.00  0.00     0.018 A 
ATOM     13  C   UNL A   1      41.848  27.608  29.051  1.00  0.00     0.018 A 
BRANCH   9  14
ATOM     14  N   UNL A   1      45.135  27.576  27.261  1.00  0.00    -0.326 N 
ATOM     15  C   UNL A   1      45.907  26.983  26.307  1.00  0.00     0.226 C 
ATOM     16  O   UNL A   1      47.133  27.101  26.422  1.00  0.00    -0.275 OA
ATOM     17  H   UNL A   1      45.671  28.100  27.899  1.00  0.00     0.169 HD
BRANCH  15  18
ATOM     18  C   UNL A   1      45.355  26.223  25.126  1.00  0.00     0.128 C 
BRANCH  18  19
ATOM     19  C   UNL A   1      44.929  24.785  25.416  1.00  0.00     0.183 C 
ATOM     20  N   UNL A   1      44.297  24.040  27.615  1.00  0.00    -0.190 N 
ATOM     21  C   UNL A   1      45.358  24.215  26.749  1.00  0.00     0.324 C 
ATOM     22  C   UNL A   1      43.042  24.090  27.057  1.00  0.00     0.319 C 
ATOM     23  O   UNL A   1      46.519  23.895  26.979  1.00  0.00    -0.245 OA
ATOM     24  S   UNL A   1      43.118  24.593  25.387  1.00  0.00    -0.022 SA
ATOM     25  N   UNL A   1      41.988  23.769  27.731  1.00  0.00    -0.235 N 
ATOM     26  H   UNL A   1      42.073  23.624  28.701  1.00  0.00     0.313 HD
BRANCH  20  27
ATOM     27  C   UNL A   1      44.505  23.489  28.954  1.00  0.00     0.243 C 
ATOM     28  C   UNL A   1      45.110  24.451  29.965  1.00  0.00     0.054 C 
ENDBRANCH  20  27
BRANCH  25  29
ATOM     29  C   UNL A   1      40.728  23.617  27.138  1.00  0.00     0.125 A 
ATOM     30  C   UNL A   1      39.794  24.656  27.177  1.00  0.00     0.053 A 
ATOM     31  C   UNL A   1      40.324  22.363  26.658  1.00  0.00     0.053 A 
ATOM     32  C   UNL A   1      38.483  24.450  26.730  1.00  0.00     0.025 A 
ATOM     33  C   UNL A   1      39.021  22.155  26.203  1.00  0.00     0.025 A 
ATOM     34  C   UNL A   1      38.103  23.198  26.245  1.00  0.00     0.041 A 
ATOM     35  Cl  UNL A   1      36.485  22.931  25.728  1.00  0.00    -0.084 Cl
ENDBRANCH  25  29
ENDBRANCH  18  19
ENDBRANCH  15  18
ENDBRANCH   9  14
ENDBRANCH   6   8
ENDBRANCH   5   6
ENDBRANCH   4   5
ENDBRANCH   3   4
ENDBRANCH   2   3
ENDBRANCH   1   2
BRANCH   1  36
ATOM     36  C   UNL A   1      36.489  31.900  32.050  1.00  0.00     0.188 C 
BRANCH  36  37
ATOM     37  O   UNL A   1      35.405  32.719  32.469  1.00  0.00    -0.376 OA
BRANCH  37  38
ATOM     38  C   UNL A   1      35.745  33.837  33.281  1.00  0.00     0.202 C 
BRANCH  38  39
ATOM     39  C   UNL A   1      36.046  33.411  34.720  1.00  0.00     0.261 C 
BRANCH  39  40
ATOM     40  O   UNL A   1      37.451  33.360  35.020  1.00  0.00    -0.460 OA
BRANCH  40  41
ATOM     41  C   UNL A   1      37.847  32.392  35.878  1.00  0.00     0.338 C 
ATOM     42  O   UNL A   1      37.270  32.019  36.884  1.00  0.00    -0.246 OA
BRANCH  41  43
ATOM     43  C   UNL A   1      39.006  31.701  35.276  1.00  0.00     0.060 A 
ATOM     44  C   UNL A   1      40.292  32.146  35.606  1.00  0.00     0.016 A 
ATOM     45  C   UNL A   1      38.831  30.614  34.417  1.00  0.00     0.016 A 
ATOM     46  C   UNL A   1      41.411  31.512  35.060  1.00  0.00     0.010 A 
ATOM     47  C   UNL A   1      39.951  29.990  33.860  1.00  0.00     0.010 A 
ATOM     48  C   UNL A   1      41.246  30.450  34.159  1.00  0.00    -0.014 A 
BRANCH  48  49
ATOM     49  C   UNL A   1      42.406  29.928  33.394  1.00  0.00     0.031 A 
ATOM     50  C   UNL A   1      43.145  28.739  33.942  1.00  0.00     0.074 A 
ATOM     51  C   UNL A   1      42.814  30.503  32.249  1.00  0.00     0.049 A 
ATOM     52  N   UNL A   1      44.237  28.163  33.505  1.00  0.00    -0.248 NA
ATOM     53  C   UNL A   1      42.579  28.117  35.150  1.00  0.00     0.031 C 
ATOM     54  C   UNL A   1      42.176  31.643  31.595  1.00  0.00     0.029 A 
ATOM     55  N   UNL A   1      43.888  30.209  31.441  1.00  0.00    -0.354 N 
ATOM     56  C   UNL A   1      44.494  27.124  34.391  1.00  0.00     0.074 A 
ATOM     57  C   UNL A   1      43.456  27.156  35.398  1.00  0.00     0.031 C 
ATOM     58  C   UNL A   1      42.886  31.971  30.501  1.00  0.00     0.029 A 
ATOM     59  C   UNL A   1      44.046  31.085  30.395  1.00  0.00     0.049 A 
ATOM     60  H   UNL A   1      44.488  29.444  31.599  1.00  0.00     0.167 HD
ATOM     61  C   UNL A   1      45.503  26.224  34.366  1.00  0.00     0.037 A 
ATOM     62  C   UNL A   1      45.033  31.181  29.481  1.00  0.00     0.037 A 
ATOM     63  C   UNL A   1      46.532  26.179  33.362  1.00  0.00     0.049 A 
ATOM     64  C   UNL A   1      46.180  30.196  29.511  1.00  0.00     0.074 A 
ATOM     65  C   UNL A   1      47.570  25.273  33.234  1.00  0.00     0.029 A 
ATOM     66  N   UNL A   1      46.661  27.085  32.321  1.00  0.00    -0.354 N 
ATOM     67  N   UNL A   1      46.388  29.187  30.322  1.00  0.00    -0.248 NA
ATOM     68  C   UNL A   1      47.231  30.367  28.495  1.00  0.00     0.031 C 
ATOM     69  C   UNL A   1      48.360  25.662  32.149  1.00  0.00     0.029 A 
ATOM     70  C   UNL A   1      47.780  26.777  31.565  1.00  0.00     0.049 A 
ATOM     71  H   UNL A   1      46.048  27.836  32.146  1.00  0.00     0.167 HD
ATOM     72  C   UNL A   1      47.567  28.588  29.894  1.00  0.00     0.074 A 
ATOM     73  C   UNL A   1      48.024  29.336  28.743  1.00  0.00     0.031 C 
ATOM     74  C   UNL A   1      48.216  27.516  30.410  1.00  0.00     0.037 A 
BRANCH  61  75
ATOM     75  C   UNL A   1      45.567  25.216  35.472  1.00  0.00     0.064 A 
ATOM     76  C   UNL A   1      45.189  23.880  35.274  1.00  0.00     0.173 A 
ATOM     77  C   UNL A   1      46.081  25.577  36.726  1.00  0.00     0.173 A 
ATOM     78  F   UNL A   1      44.678  23.489  34.097  1.00  0.00    -0.203 F 
ATOM     79  C   UNL A   1      45.316  22.944  36.298  1.00  0.00     0.198 A 
ATOM     80  C   UNL A   1      46.231  24.634  37.738  1.00  0.00     0.198 A 
ATOM     81  F   UNL A   1      46.456  26.843  36.963  1.00  0.00    -0.203 F 
ATOM     82  F   UNL A   1      44.923  21.678  36.098  1.00  0.00    -0.200 F 
ATOM     83  C   UNL A   1      45.846  23.319  37.524  1.00  0.00     0.200 A 
ATOM     84  F   UNL A   1      46.754  24.996  38.917  1.00  0.00    -0.200 F 
ATOM     85  F   UNL A   1      45.985  22.412  38.501  1.00  0.00    -0.200 F 
ENDBRANCH  61  75
BRANCH  62  86
ATOM     86  C   UNL A   1      45.019  32.271  28.468  1.00  0.00     0.064 A 
ATOM     87  C   UNL A   1      45.556  33.535  28.754  1.00  0.00     0.173 A 
ATOM     88  C   UNL A   1      44.403  32.094  27.221  1.00  0.00     0.173 A 
ATOM     89  F   UNL A   1      46.125  33.767  29.946  1.00  0.00    -0.203 F 
ATOM     90  C   UNL A   1      45.445  34.588  27.847  1.00  0.00     0.198 A 
ATOM     91  C   UNL A   1      44.322  33.137  26.301  1.00  0.00     0.198 A 
ATOM     92  F   UNL A   1      43.864  30.908  26.900  1.00  0.00    -0.203 F 
ATOM     93  F   UNL A   1      45.901  35.804  28.176  1.00  0.00    -0.200 F 
ATOM     94  C   UNL A   1      44.831  34.387  26.620  1.00  0.00     0.200 A 
ATOM     95  F   UNL A   1      43.732  32.938  25.115  1.00  0.00    -0.200 F 
ATOM     96  F   UNL A   1      44.713  35.402  25.753  1.00  0.00    -0.200 F 
ENDBRANCH  62  86
BRANCH  74  97
ATOM     97  C   UNL A   1      49.463  27.048  29.712  1.00  0.00     0.064 A 
ATOM     98  C   UNL A   1      49.443  25.988  28.793  1.00  0.00     0.173 A 
ATOM     99  C   UNL A   1      50.684  27.706  29.928  1.00  0.00     0.173 A 
ATOM    100  F   UNL A   1      48.304  25.319  28.560  1.00  0.00    -0.203 F 
ATOM    101  C   UNL A   1      50.604  25.590  28.135  1.00  0.00     0.198 A 
ATOM    102  C   UNL A   1      51.836  27.324  29.244  1.00  0.00     0.198 A 
ATOM    103  F   UNL A   1      50.758  28.732  30.789  1.00  0.00    -0.203 F 
ATOM    104  F   UNL A   1      50.570  24.546  27.294  1.00  0.00    -0.200 F 
ATOM    105  C   UNL A   1      51.796  26.263  28.354  1.00  0.00     0.200 A 
ATOM    106  F   UNL A   1      52.983  27.988  29.445  1.00  0.00    -0.200 F 
ATOM    107  F   UNL A   1      52.910  25.885  27.710  1.00  0.00    -0.200 F 
ENDBRANCH  74  97
ENDBRANCH  48  49
ENDBRANCH  41  43
ENDBRANCH  40  41
ENDBRANCH  39  40
ENDBRANCH  38  39
ENDBRANCH  37  38
ENDBRANCH  36  37
ENDBRANCH   1  36
TORSDOF 22
ENDMDL
MODEL 2
REMARK VINA RESULT:      -8.0      4.863      7.342
REMARK SMILES CCN1C(=O)[C@H](CC(=O)Nc2ccc(C(=O)OCCOCCOCCOC(=O)c3ccc(-c4c5nc(c(-c6c(F)c(F)c(F)c(F)c6F)c6ccc([nH]6)c(-c6c(F)c(F)c(F)c(F)c6F)c6nc(c(-c7c(F)c(F)c(F)c(F)c7F)c7ccc4[nH]7)C=C6)C=C5)cc3)cc2)S/C1=[NH+]\c1ccc(Cl)cc1
REMARK SMILES IDX 21 1 20 2 19 3 18 4 17 5 15 6 16 7 14 8 11 9 12 10 93 11
REMARK SMILES IDX 13 12 92 13 10 14 8 15 9 16 7 18 6 19 3 20 4 21 95 22 5 23
REMARK SMILES IDX 94 24 96 25 2 27 1 28 97 29 98 30 103 31 99 32 102 33 100 34
REMARK SMILES IDX 101 35 22 36 23 37 24 38 25 39 26 40 27 41 28 42 29 43 30 44
REMARK SMILES IDX 91 45 31 46 90 47 32 48 33 49 34 50 84 51 35 52 89 53 83 54
REMARK SMILES IDX 85 55 36 56 88 57 82 58 81 59 37 61 69 62 49 63 68 64 50 65
REMARK SMILES IDX 53 66 67 67 86 68 51 69 52 70 66 72 87 73 54 74 38 75 39 76
REMARK SMILES IDX 47 77 40 78 41 79 45 80 48 81 42 82 43 83 46 84 44 85 70 86
REMARK SMILES IDX 71 87 79 88 72 89 73 90 77 91 80 92 74 93 75 94 78 95 76 96
REMARK SMILES IDX 55 97 56 98 64 99 57 100 58 101 62 102 65 103 59 104 60 105
REMARK SMILES IDX 63 106 61 107
REMARK H PARENT 10 17 96 26 85 60 53 71
REMARK Flexibility Score: inf
ROOT
ATOM      1  C   UNL A   1      35.074  33.572  29.098  1.00  0.00     0.188 C 
ENDROOT
BRANCH   1   2
ATOM      2  O   UNL A   1      35.204  32.174  29.344  1.00  0.00    -0.376 OA
BRANCH   2   3
ATOM      3  C   UNL A   1      35.065  31.257  28.277  1.00  0.00     0.202 C 
BRANCH   3   4
ATOM      4  C   UNL A   1      33.711  31.258  27.564  1.00  0.00     0.261 C 
BRANCH   4   5
ATOM      5  O   UNL A   1      33.563  30.295  26.515  1.00  0.00    -0.460 OA
BRANCH   5   6
ATOM      6  C   UNL A   1      32.309  30.142  26.013  1.00  0.00     0.338 C 
ATOM      7  O   UNL A   1      31.493  30.990  25.741  1.00  0.00    -0.246 OA
BRANCH   6   8
ATOM      8  C   UNL A   1      32.107  28.692  25.820  1.00  0.00     0.060 A 
ATOM      9  C   UNL A   1      31.516  25.948  25.655  1.00  0.00     0.041 A 
ATOM     10  C   UNL A   1      32.664  26.404  26.331  1.00  0.00     0.027 A 
ATOM     11  C   UNL A   1      30.743  26.886  24.976  1.00  0.00     0.027 A 
ATOM     12  C   UNL A   1      32.970  27.769  26.407  1.00  0.00     0.018 A 
ATOM     13  C   UNL A   1      31.015  28.252  25.078  1.00  0.00     0.018 A 
BRANCH   9  14
ATOM     14  N   UNL A   1      31.213  24.581  25.782  1.00  0.00    -0.326 N 
ATOM     15  C   UNL A   1      30.993  23.546  24.924  1.00  0.00     0.226 C 
ATOM     16  O   UNL A   1      30.656  22.464  25.419  1.00  0.00    -0.275 OA
ATOM     17  H   UNL A   1      31.142  24.303  26.724  1.00  0.00     0.169 HD
BRANCH  15  18
ATOM     18  C   UNL A   1      31.160  23.641  23.427  1.00  0.00     0.128 C 
BRANCH  18  19
ATOM     19  C   UNL A   1      32.307  22.819  22.843  1.00  0.00     0.183 C 
ATOM     20  N   UNL A   1      34.366  22.444  24.031  1.00  0.00    -0.190 N 
ATOM     21  C   UNL A   1      33.705  23.295  23.167  1.00  0.00     0.324 C 
ATOM     22  C   UNL A   1      33.816  21.195  24.193  1.00  0.00     0.319 C 
ATOM     23  O   UNL A   1      34.189  24.298  22.653  1.00  0.00    -0.245 OA
ATOM     24  S   UNL A   1      32.260  21.088  23.409  1.00  0.00    -0.022 SA
ATOM     25  N   UNL A   1      34.436  20.260  24.834  1.00  0.00    -0.235 N 
ATOM     26  H   UNL A   1      35.252  20.491  25.335  1.00  0.00     0.313 HD
BRANCH  20  27
ATOM     27  C   UNL A   1      35.736  22.726  24.458  1.00  0.00     0.243 C 
ATOM     28  C   UNL A   1      35.863  23.561  25.723  1.00  0.00     0.054 C 
ENDBRANCH  20  27
BRANCH  25  29
ATOM     29  C   UNL A   1      33.997  18.931  24.844  1.00  0.00     0.125 A 
ATOM     30  C   UNL A   1      32.841  18.569  25.543  1.00  0.00     0.053 A 
ATOM     31  C   UNL A   1      34.805  17.919  24.307  1.00  0.00     0.053 A 
ATOM     32  C   UNL A   1      32.491  17.221  25.688  1.00  0.00     0.025 A 
ATOM     33  C   UNL A   1      34.457  16.574  24.442  1.00  0.00     0.025 A 
ATOM     34  C   UNL A   1      33.303  16.229  25.137  1.00  0.00     0.041 A 
ATOM     35  Cl  UNL A   1      32.897  14.571  25.344  1.00  0.00    -0.084 Cl
ENDBRANCH  25  29
ENDBRANCH  18  19
ENDBRANCH  15  18
ENDBRANCH   9  14
ENDBRANCH   6   8
ENDBRANCH   5   6
ENDBRANCH   4   5
ENDBRANCH   3   4
ENDBRANCH   2   3
ENDBRANCH   1   2
BRANCH   1  36
ATOM     36  C   UNL A   1      33.861  34.371  29.604  1.00  0.00     0.188 C 
BRANCH  36  37
ATOM     37  O   UNL A   1      34.116  35.134  30.777  1.00  0.00    -0.376 OA
BRANCH  37  38
ATOM     38  C   UNL A   1      34.252  34.396  31.985  1.00  0.00     0.202 C 
BRANCH  38  39
ATOM     39  C   UNL A   1      35.667  34.516  32.557  1.00  0.00     0.261 C 
BRANCH  39  40
ATOM     40  O   UNL A   1      36.410  33.286  32.509  1.00  0.00    -0.460 OA
BRANCH  40  41
ATOM     41  C   UNL A   1      36.852  32.805  33.693  1.00  0.00     0.338 C 
ATOM     42  O   UNL A   1      36.293  32.879  34.772  1.00  0.00    -0.246 OA
BRANCH  41  43
ATOM     43  C   UNL A   1      38.047  31.977  33.427  1.00  0.00     0.060 A 
ATOM     44  C   UNL A   1      38.054  30.651  33.878  1.00  0.00     0.016 A 
ATOM     45  C   UNL A   1      39.138  32.490  32.721  1.00  0.00     0.016 A 
ATOM     46  C   UNL A   1      39.164  29.838  33.638  1.00  0.00     0.010 A 
ATOM     47  C   UNL A   1      40.254  31.680  32.496  1.00  0.00     0.010 A 
ATOM     48  C   UNL A   1      40.283  30.358  32.973  1.00  0.00    -0.014 A 
BRANCH  48  49
ATOM     49  C   UNL A   1      41.551  29.587  32.924  1.00  0.00     0.031 A 
ATOM     50  C   UNL A   1      42.525  29.743  34.059  1.00  0.00     0.074 A 
ATOM     51  C   UNL A   1      41.850  28.782  31.889  1.00  0.00     0.049 A 
ATOM     52  N   UNL A   1      43.730  29.249  34.197  1.00  0.00    -0.248 NA
ATOM     53  C   UNL A   1      42.081  30.571  35.192  1.00  0.00     0.031 C 
ATOM     54  C   UNL A   1      40.988  28.523  30.737  1.00  0.00     0.029 A 
ATOM     55  N   UNL A   1      42.984  28.046  31.634  1.00  0.00    -0.354 N 
ATOM     56  C   UNL A   1      44.191  29.718  35.420  1.00  0.00     0.074 A 
ATOM     57  C   UNL A   1      43.146  30.547  35.980  1.00  0.00     0.031 C 
ATOM     58  C   UNL A   1      41.635  27.708  29.885  1.00  0.00     0.029 A 
ATOM     59  C   UNL A   1      42.968  27.415  30.414  1.00  0.00     0.049 A 
ATOM     60  H   UNL A   1      43.736  27.980  32.266  1.00  0.00     0.167 HD
ATOM     61  C   UNL A   1      45.378  29.478  36.023  1.00  0.00     0.037 A 
ATOM     62  C   UNL A   1      43.932  26.713  29.785  1.00  0.00     0.037 A 
ATOM     63  C   UNL A   1      46.417  28.646  35.478  1.00  0.00     0.049 A 
ATOM     64  C   UNL A   1      45.270  26.508  30.458  1.00  0.00     0.074 A 
ATOM     65  C   UNL A   1      47.636  28.312  36.042  1.00  0.00     0.029 A 
ATOM     66  N   UNL A   1      46.365  28.028  34.239  1.00  0.00    -0.354 N 
ATOM     67  N   UNL A   1      45.679  26.913  31.635  1.00  0.00    -0.248 NA
ATOM     68  C   UNL A   1      46.282  25.747  29.708  1.00  0.00     0.031 C 
ATOM     69  C   UNL A   1      48.346  27.537  35.120  1.00  0.00     0.029 A 
ATOM     70  C   UNL A   1      47.545  27.339  34.008  1.00  0.00     0.049 A 
ATOM     71  H   UNL A   1      45.604  28.071  33.616  1.00  0.00     0.167 HD
ATOM     72  C   UNL A   1      46.974  26.429  31.780  1.00  0.00     0.074 A 
ATOM     73  C   UNL A   1      47.281  25.687  30.577  1.00  0.00     0.031 C 
ATOM     74  C   UNL A   1      47.834  26.587  32.815  1.00  0.00     0.037 A 
BRANCH  61  75
ATOM     75  C   UNL A   1      45.638  30.141  37.341  1.00  0.00     0.064 A 
ATOM     76  C   UNL A   1      46.110  31.459  37.422  1.00  0.00     0.173 A 
ATOM     77  C   UNL A   1      45.340  29.472  38.537  1.00  0.00     0.173 A 
ATOM     78  F   UNL A   1      46.422  32.135  36.306  1.00  0.00    -0.203 F 
ATOM     79  C   UNL A   1      46.284  32.080  38.656  1.00  0.00     0.198 A 
ATOM     80  C   UNL A   1      45.490  30.105  39.768  1.00  0.00     0.198 A 
ATOM     81  F   UNL A   1      44.885  28.211  38.511  1.00  0.00    -0.203 F 
ATOM     82  F   UNL A   1      46.764  33.330  38.713  1.00  0.00    -0.200 F 
ATOM     83  C   UNL A   1      45.964  31.406  39.826  1.00  0.00     0.200 A 
ATOM     84  F   UNL A   1      45.170  29.457  40.896  1.00  0.00    -0.200 F 
ATOM     85  F   UNL A   1      46.115  32.013  41.012  1.00  0.00    -0.200 F 
ENDBRANCH  61  75
BRANCH  62  86
ATOM     86  C   UNL A   1      43.699  26.172  28.418  1.00  0.00     0.064 A 
ATOM     87  C   UNL A   1      43.982  26.935  27.276  1.00  0.00     0.173 A 
ATOM     88  C   UNL A   1      43.120  24.909  28.228  1.00  0.00     0.173 A 
ATOM     89  F   UNL A   1      44.504  28.164  27.405  1.00  0.00    -0.203 F 
ATOM     90  C   UNL A   1      43.662  26.472  26.001  1.00  0.00     0.198 A 
ATOM     91  C   UNL A   1      42.831  24.432  26.951  1.00  0.00     0.198 A 
ATOM     92  F   UNL A   1      42.819  24.141  29.286  1.00  0.00    -0.203 F 
ATOM     93  F   UNL A   1      43.876  27.253  24.933  1.00  0.00    -0.200 F 
ATOM     94  C   UNL A   1      43.090  25.219  25.839  1.00  0.00     0.200 A 
ATOM     95  F   UNL A   1      42.282  23.219  26.798  1.00  0.00    -0.200 F 
ATOM     96  F   UNL A   1      42.771  24.779  24.614  1.00  0.00    -0.200 F 
ENDBRANCH  62  86
BRANCH  74  97
ATOM     97  C   UNL A   1      49.172  25.909  32.725  1.00  0.00     0.064 A 
ATOM     98  C   UNL A   1      49.379  24.612  33.219  1.00  0.00     0.173 A 
ATOM     99  C   UNL A   1      50.248  26.547  32.086  1.00  0.00     0.173 A 
ATOM    100  F   UNL A   1      48.388  23.964  33.848  1.00  0.00    -0.203 F 
ATOM    101  C   UNL A   1      50.619  23.990  33.099  1.00  0.00     0.198 A 
ATOM    102  C   UNL A   1      51.477  25.908  31.940  1.00  0.00     0.198 A 
ATOM    103  F   UNL A   1      50.102  27.783  31.586  1.00  0.00    -0.203 F 
ATOM    104  F   UNL A   1      50.806  22.768  33.618  1.00  0.00    -0.200 F 
ATOM    105  C   UNL A   1      51.663  24.634  32.452  1.00  0.00     0.200 A 
ATOM    106  F   UNL A   1      52.479  26.526  31.300  1.00  0.00    -0.200 F 
ATOM    107  F   UNL A   1      52.853  24.027  32.328  1.00  0.00    -0.200 F 
ENDBRANCH  74  97
ENDBRANCH  48  49
ENDBRANCH  41  43
ENDBRANCH  40  41
ENDBRANCH  39  40
ENDBRANCH  38  39
ENDBRANCH  37  38
ENDBRANCH  36  37
ENDBRANCH   1  36
TORSDOF 22
ENDMDL
MODEL 3
REMARK VINA RESULT:      -8.0      6.018     11.218
REMARK SMILES CCN1C(=O)[C@H](CC(=O)Nc2ccc(C(=O)OCCOCCOCCOC(=O)c3ccc(-c4c5nc(c(-c6c(F)c(F)c(F)c(F)c6F)c6ccc([nH]6)c(-c6c(F)c(F)c(F)c(F)c6F)c6nc(c(-c7c(F)c(F)c(F)c(F)c7F)c7ccc4[nH]7)C=C6)C=C5)cc3)cc2)S/C1=[NH+]\c1ccc(Cl)cc1
REMARK SMILES IDX 21 1 20 2 19 3 18 4 17 5 15 6 16 7 14 8 11 9 12 10 93 11
REMARK SMILES IDX 13 12 92 13 10 14 8 15 9 16 7 18 6 19 3 20 4 21 95 22 5 23
REMARK SMILES IDX 94 24 96 25 2 27 1 28 97 29 98 30 103 31 99 32 102 33 100 34
REMARK SMILES IDX 101 35 22 36 23 37 24 38 25 39 26 40 27 41 28 42 29 43 30 44
REMARK SMILES IDX 91 45 31 46 90 47 32 48 33 49 34 50 84 51 35 52 89 53 83 54
REMARK SMILES IDX 85 55 36 56 88 57 82 58 81 59 37 61 69 62 49 63 68 64 50 65
REMARK SMILES IDX 53 66 67 67 86 68 51 69 52 70 66 72 87 73 54 74 38 75 39 76
REMARK SMILES IDX 47 77 40 78 41 79 45 80 48 81 42 82 43 83 46 84 44 85 70 86
REMARK SMILES IDX 71 87 79 88 72 89 73 90 77 91 80 92 74 93 75 94 78 95 76 96
REMARK SMILES IDX 55 97 56 98 64 99 57 100 58 101 62 102 65 103 59 104 60 105
REMARK SMILES IDX 63 106 61 107
REMARK H PARENT 10 17 96 26 85 60 53 71
REMARK Flexibility Score: inf
ROOT
ATOM      1  C   UNL A   1      40.319  25.448  27.036  1.00  0.00     0.188 C 
ENDROOT
BRANCH   1   2
ATOM      2  O   UNL A   1      38.975  24.977  27.108  1.00  0.00    -0.376 OA
BRANCH   2   3
ATOM      3  C   UNL A   1      38.618  23.768  26.467  1.00  0.00     0.202 C 
BRANCH   3   4
ATOM      4  C   UNL A   1      37.266  23.765  25.749  1.00  0.00     0.261 C 
BRANCH   4   5
ATOM      5  O   UNL A   1      37.208  22.993  24.544  1.00  0.00    -0.460 OA
BRANCH   5   6
ATOM      6  C   UNL A   1      36.982  21.661  24.695  1.00  0.00     0.338 C 
ATOM      7  O   UNL A   1      37.778  20.753  24.686  1.00  0.00    -0.246 OA
BRANCH   6   8
ATOM      8  C   UNL A   1      35.531  21.501  24.909  1.00  0.00     0.060 A 
ATOM      9  C   UNL A   1      32.753  21.486  25.350  1.00  0.00     0.041 A 
ATOM     10  C   UNL A   1      33.651  21.076  26.356  1.00  0.00     0.027 A 
ATOM     11  C   UNL A   1      33.274  21.792  24.096  1.00  0.00     0.027 A 
ATOM     12  C   UNL A   1      35.035  21.071  26.138  1.00  0.00     0.018 A 
ATOM     13  C   UNL A   1      34.654  21.829  23.879  1.00  0.00     0.018 A 
BRANCH   9  14
ATOM     14  N   UNL A   1      31.404  21.614  25.726  1.00  0.00    -0.326 N 
ATOM     15  C   UNL A   1      30.658  22.547  26.382  1.00  0.00     0.226 C 
ATOM     16  O   UNL A   1      29.476  22.265  26.610  1.00  0.00    -0.275 OA
ATOM     17  H   UNL A   1      30.866  20.839  25.445  1.00  0.00     0.169 HD
BRANCH  15  18
ATOM     18  C   UNL A   1      31.184  23.893  26.818  1.00  0.00     0.128 C 
BRANCH  18  19
ATOM     19  C   UNL A   1      31.872  24.711  25.726  1.00  0.00     0.183 C 
ATOM     20  N   UNL A   1      30.727  26.411  24.466  1.00  0.00    -0.190 N 
ATOM     21  C   UNL A   1      31.028  25.064  24.522  1.00  0.00     0.324 C 
ATOM     22  C   UNL A   1      31.470  27.235  25.276  1.00  0.00     0.319 C 
ATOM     23  O   UNL A   1      30.718  24.234  23.675  1.00  0.00    -0.245 OA
ATOM     24  S   UNL A   1      32.482  26.308  26.356  1.00  0.00    -0.022 SA
ATOM     25  N   UNL A   1      31.399  28.522  25.182  1.00  0.00    -0.235 N 
ATOM     26  H   UNL A   1      30.695  28.916  24.618  1.00  0.00     0.313 HD
BRANCH  20  27
ATOM     27  C   UNL A   1      29.927  26.954  23.369  1.00  0.00     0.243 C 
ATOM     28  C   UNL A   1      28.427  27.007  23.622  1.00  0.00     0.054 C 
ENDBRANCH  20  27
BRANCH  25  29
ATOM     29  C   UNL A   1      32.284  29.379  25.848  1.00  0.00     0.125 A 
ATOM     30  C   UNL A   1      33.613  29.003  26.058  1.00  0.00     0.053 A 
ATOM     31  C   UNL A   1      31.803  30.540  26.468  1.00  0.00     0.053 A 
ATOM     32  C   UNL A   1      34.453  29.785  26.862  1.00  0.00     0.025 A 
ATOM     33  C   UNL A   1      32.638  31.328  27.263  1.00  0.00     0.025 A 
ATOM     34  C   UNL A   1      33.960  30.944  27.462  1.00  0.00     0.041 A 
ATOM     35  Cl  UNL A   1      34.977  31.886  28.479  1.00  0.00    -0.084 Cl
ENDBRANCH  25  29
ENDBRANCH  18  19
ENDBRANCH  15  18
ENDBRANCH   9  14
ENDBRANCH   6   8
ENDBRANCH   5   6
ENDBRANCH   4   5
ENDBRANCH   3   4
ENDBRANCH   2   3
ENDBRANCH   1   2
BRANCH   1  36
ATOM     36  C   UNL A   1      41.504  24.576  27.483  1.00  0.00     0.188 C 
BRANCH  36  37
ATOM     37  O   UNL A   1      42.553  24.485  26.527  1.00  0.00    -0.376 OA
BRANCH  37  38
ATOM     38  C   UNL A   1      42.491  23.378  25.636  1.00  0.00     0.202 C 
BRANCH  38  39
ATOM     39  C   UNL A   1      43.187  22.147  26.224  1.00  0.00     0.261 C 
BRANCH  39  40
ATOM     40  O   UNL A   1      44.357  22.466  26.996  1.00  0.00    -0.460 OA
BRANCH  40  41
ATOM     41  C   UNL A   1      45.525  22.527  26.317  1.00  0.00     0.338 C 
ATOM     42  O   UNL A   1      46.053  21.635  25.678  1.00  0.00    -0.246 OA
BRANCH  41  43
ATOM     43  C   UNL A   1      45.964  23.938  26.299  1.00  0.00     0.060 A 
ATOM     44  C   UNL A   1      45.971  24.619  25.076  1.00  0.00     0.016 A 
ATOM     45  C   UNL A   1      46.340  24.591  27.475  1.00  0.00     0.016 A 
ATOM     46  C   UNL A   1      46.374  25.956  25.023  1.00  0.00     0.010 A 
ATOM     47  C   UNL A   1      46.758  25.924  27.419  1.00  0.00     0.010 A 
ATOM     48  C   UNL A   1      46.799  26.606  26.190  1.00  0.00    -0.014 A 
BRANCH  48  49
ATOM     49  C   UNL A   1      47.451  27.938  26.112  1.00  0.00     0.031 A 
ATOM     50  C   UNL A   1      48.932  27.993  25.858  1.00  0.00     0.074 A 
ATOM     51  C   UNL A   1      46.756  29.076  26.281  1.00  0.00     0.049 A 
ATOM     52  N   UNL A   1      49.736  29.026  25.839  1.00  0.00    -0.248 NA
ATOM     53  C   UNL A   1      49.599  26.707  25.595  1.00  0.00     0.031 C 
ATOM     54  C   UNL A   1      45.316  29.168  26.509  1.00  0.00     0.029 A 
ATOM     55  N   UNL A   1      47.185  30.383  26.307  1.00  0.00    -0.354 N 
ATOM     56  C   UNL A   1      51.000  28.514  25.578  1.00  0.00     0.074 A 
ATOM     57  C   UNL A   1      50.863  27.078  25.460  1.00  0.00     0.031 C 
ATOM     58  C   UNL A   1      44.983  30.460  26.678  1.00  0.00     0.029 A 
ATOM     59  C   UNL A   1      46.191  31.283  26.605  1.00  0.00     0.049 A 
ATOM     60  H   UNL A   1      48.117  30.648  26.130  1.00  0.00     0.167 HD
ATOM     61  C   UNL A   1      52.170  29.180  25.445  1.00  0.00     0.037 A 
ATOM     62  C   UNL A   1      46.257  32.612  26.827  1.00  0.00     0.037 A 
ATOM     63  C   UNL A   1      52.313  30.608  25.550  1.00  0.00     0.049 A 
ATOM     64  C   UNL A   1      47.588  33.322  26.729  1.00  0.00     0.074 A 
ATOM     65  C   UNL A   1      53.455  31.372  25.386  1.00  0.00     0.029 A 
ATOM     66  N   UNL A   1      51.284  31.484  25.856  1.00  0.00    -0.354 N 
ATOM     67  N   UNL A   1      48.769  32.838  26.433  1.00  0.00    -0.248 NA
ATOM     68  C   UNL A   1      47.591  34.769  26.999  1.00  0.00     0.031 C 
ATOM     69  C   UNL A   1      53.130  32.706  25.649  1.00  0.00     0.029 A 
ATOM     70  C   UNL A   1      51.773  32.779  25.918  1.00  0.00     0.049 A 
ATOM     71  H   UNL A   1      50.347  31.225  26.008  1.00  0.00     0.167 HD
ATOM     72  C   UNL A   1      49.642  33.919  26.447  1.00  0.00     0.074 A 
ATOM     73  C   UNL A   1      48.855  35.090  26.768  1.00  0.00     0.031 C 
ATOM     74  C   UNL A   1      50.978  33.940  26.218  1.00  0.00     0.037 A 
BRANCH  61  75
ATOM     75  C   UNL A   1      53.408  28.374  25.194  1.00  0.00     0.064 A 
ATOM     76  C   UNL A   1      54.133  27.792  26.243  1.00  0.00     0.173 A 
ATOM     77  C   UNL A   1      53.829  28.122  23.881  1.00  0.00     0.173 A 
ATOM     78  F   UNL A   1      53.778  28.016  27.517  1.00  0.00    -0.203 F 
ATOM     79  C   UNL A   1      55.244  26.993  25.985  1.00  0.00     0.198 A 
ATOM     80  C   UNL A   1      54.924  27.302  23.625  1.00  0.00     0.198 A 
ATOM     81  F   UNL A   1      53.167  28.656  22.844  1.00  0.00    -0.203 F 
ATOM     82  F   UNL A   1      55.942  26.470  27.002  1.00  0.00    -0.200 F 
ATOM     83  C   UNL A   1      55.632  26.740  24.677  1.00  0.00     0.200 A 
ATOM     84  F   UNL A   1      55.290  27.049  22.360  1.00  0.00    -0.200 F 
ATOM     85  F   UNL A   1      56.690  25.956  24.430  1.00  0.00    -0.200 F 
ENDBRANCH  61  75
BRANCH  62  86
ATOM     86  C   UNL A   1      45.036  33.374  27.205  1.00  0.00     0.064 A 
ATOM     87  C   UNL A   1      44.334  34.138  26.261  1.00  0.00     0.173 A 
ATOM     88  C   UNL A   1      44.589  33.414  28.534  1.00  0.00     0.173 A 
ATOM     89  F   UNL A   1      44.742  34.161  24.983  1.00  0.00    -0.203 F 
ATOM     90  C   UNL A   1      43.257  34.938  26.637  1.00  0.00     0.198 A 
ATOM     91  C   UNL A   1      43.491  34.188  28.903  1.00  0.00     0.198 A 
ATOM     92  F   UNL A   1      45.230  32.711  29.480  1.00  0.00    -0.203 F 
ATOM     93  F   UNL A   1      42.651  35.713  25.727  1.00  0.00    -0.200 F 
ATOM     94  C   UNL A   1      42.834  34.960  27.957  1.00  0.00     0.200 A 
ATOM     95  F   UNL A   1      43.083  34.204  30.180  1.00  0.00    -0.200 F 
ATOM     96  F   UNL A   1      41.806  35.739  28.321  1.00  0.00    -0.200 F 
ENDBRANCH  62  86
BRANCH  74  97
ATOM     97  C   UNL A   1      51.674  35.272  26.254  1.00  0.00     0.064 A 
ATOM     98  C   UNL A   1      52.153  35.824  27.451  1.00  0.00     0.173 A 
ATOM     99  C   UNL A   1      51.912  35.980  25.065  1.00  0.00     0.173 A 
ATOM    100  F   UNL A   1      51.942  35.194  28.617  1.00  0.00    -0.203 F 
ATOM    101  C   UNL A   1      52.822  37.046  27.460  1.00  0.00     0.198 A 
ATOM    102  C   UNL A   1      52.609  37.185  25.074  1.00  0.00     0.198 A 
ATOM    103  F   UNL A   1      51.484  35.493  23.890  1.00  0.00    -0.203 F 
ATOM    104  F   UNL A   1      53.232  37.576  28.621  1.00  0.00    -0.200 F 
ATOM    105  C   UNL A   1      53.057  37.720  26.271  1.00  0.00     0.200 A 
ATOM    106  F   UNL A   1      52.850  37.827  23.922  1.00  0.00    -0.200 F 
ATOM    107  F   UNL A   1      53.712  38.891  26.280  1.00  0.00    -0.200 F 
ENDBRANCH  74  97
ENDBRANCH  48  49
ENDBRANCH  41  43
ENDBRANCH  40  41
ENDBRANCH  39  40
ENDBRANCH  38  39
ENDBRANCH  37  38
ENDBRANCH  36  37
ENDBRANCH   1  36
TORSDOF 22
ENDMDL
