MODEL 1
REMARK VINA RESULT:     -11.5      0.000      0.000
REMARK SMILES O=C(Cc1ccccc1Nc1c(F)cccc1C(F)(F)F)OCCOCCOCCOC(=O)c1ccc(-c2c3nc(c(-c4c(F)c(F)c(F)c(F)c4F)c4ccc([nH]4)c(-c4c(F)c(F)c(F)c(F)c4F)c4nc(c(-c5c(F)c(F)c(F)c(F)c5F)c5ccc2[nH]5)C=C4)C=C3)cc1
REMARK SMILES IDX 26 1 25 2 24 3 23 4 22 5 2 6 1 7 3 8 4 9 5 10 9 11 6 12 8 13
REMARK SMILES IDX 7 14 10 15 11 17 12 18 17 19 13 20 14 21 16 22 15 23 18 24
REMARK SMILES IDX 19 25 20 26 21 27 27 28 28 29 29 30 30 31 31 32 32 33 33 34
REMARK SMILES IDX 34 35 35 36 96 37 36 38 95 39 37 40 38 41 39 42 89 43 40 44
REMARK SMILES IDX 94 45 88 46 90 47 41 48 93 49 87 50 86 51 42 53 74 54 54 55
REMARK SMILES IDX 73 56 55 57 58 58 72 59 91 60 56 61 57 62 71 64 92 65 59 66
REMARK SMILES IDX 43 67 44 68 52 69 45 70 46 71 50 72 53 73 47 74 48 75 51 76
REMARK SMILES IDX 49 77 75 78 76 79 84 80 77 81 78 82 82 83 85 84 79 85 80 86
REMARK SMILES IDX 83 87 81 88 60 89 61 90 69 91 62 92 63 93 67 94 70 95 64 96
REMARK SMILES IDX 65 97 68 98 66 99
REMARK H PARENT 10 16 90 52 58 63
REMARK Flexibility Score: inf
ROOT
ATOM      1  C   UNL A   1      41.883  21.238  27.425  1.00  0.00     0.188 C 
ENDROOT
BRANCH   1   2
ATOM      2  O   UNL A   1      40.493  21.468  27.584  1.00  0.00    -0.376 OA
BRANCH   2   3
ATOM      3  C   UNL A   1      39.889  22.528  26.852  1.00  0.00     0.202 C 
BRANCH   3   4
ATOM      4  C   UNL A   1      38.559  22.271  26.135  1.00  0.00     0.261 C 
BRANCH   4   5
ATOM      5  O   UNL A   1      37.953  23.331  25.372  1.00  0.00    -0.463 OA
BRANCH   5   6
ATOM      6  C   UNL A   1      36.854  23.271  24.592  1.00  0.00     0.310 C 
ATOM      7  O   UNL A   1      36.989  23.112  23.378  1.00  0.00    -0.252 OA
BRANCH   6   8
ATOM      8  C   UNL A   1      35.506  23.590  25.182  1.00  0.00     0.160 C 
BRANCH   8   9
ATOM      9  C   UNL A   1      34.387  22.740  24.640  1.00  0.00    -0.013 A 
ATOM     10  C   UNL A   1      34.433  21.355  24.861  1.00  0.00     0.006 A 
ATOM     11  C   UNL A   1      33.295  23.309  23.952  1.00  0.00     0.042 A 
ATOM     12  C   UNL A   1      33.427  20.531  24.367  1.00  0.00     0.000 A 
ATOM     13  C   UNL A   1      32.298  22.465  23.455  1.00  0.00     0.026 A 
ATOM     14  C   UNL A   1      32.361  21.086  23.664  1.00  0.00     0.002 A 
BRANCH  11  15
ATOM     15  N   UNL A   1      33.320  24.670  23.586  1.00  0.00    -0.352 N 
ATOM     16  H   UNL A   1      34.187  24.968  23.226  1.00  0.00     0.167 HD
BRANCH  15  17
ATOM     17  C   UNL A   1      32.342  25.689  23.635  1.00  0.00     0.087 A 
ATOM     18  C   UNL A   1      31.909  26.201  22.389  1.00  0.00     0.147 A 
ATOM     19  C   UNL A   1      31.852  26.303  24.800  1.00  0.00     0.082 A 
ATOM     20  F   UNL A   1      32.422  25.678  21.263  1.00  0.00    -0.205 F 
ATOM     21  C   UNL A   1      30.998  27.244  22.274  1.00  0.00     0.041 A 
ATOM     22  C   UNL A   1      30.903  27.350  24.670  1.00  0.00     0.015 A 
ATOM     23  C   UNL A   1      30.481  27.816  23.424  1.00  0.00     0.004 A 
BRANCH  19  24
ATOM     24  C   UNL A   1      32.325  25.965  26.195  1.00  0.00     0.418 C 
ATOM     25  F   UNL A   1      31.888  26.875  27.120  1.00  0.00    -0.166 F 
ATOM     26  F   UNL A   1      31.864  24.765  26.636  1.00  0.00    -0.166 F 
ATOM     27  F   UNL A   1      33.675  25.959  26.339  1.00  0.00    -0.166 F 
ENDBRANCH  19  24
ENDBRANCH  15  17
ENDBRANCH  11  15
ENDBRANCH   8   9
ENDBRANCH   6   8
ENDBRANCH   5   6
ENDBRANCH   4   5
ENDBRANCH   3   4
ENDBRANCH   2   3
ENDBRANCH   1   2
BRANCH   1  28
ATOM     28  C   UNL A   1      42.351  20.492  26.174  1.00  0.00     0.188 C 
BRANCH  28  29
ATOM     29  O   UNL A   1      42.870  21.340  25.159  1.00  0.00    -0.376 OA
BRANCH  29  30
ATOM     30  C   UNL A   1      44.295  21.353  25.084  1.00  0.00     0.202 C 
BRANCH  30  31
ATOM     31  C   UNL A   1      44.938  22.719  24.780  1.00  0.00     0.261 C 
BRANCH  31  32
ATOM     32  O   UNL A   1      44.049  23.850  24.735  1.00  0.00    -0.460 OA
BRANCH  32  33
ATOM     33  C   UNL A   1      44.568  25.052  25.037  1.00  0.00     0.338 C 
ATOM     34  O   UNL A   1      45.632  25.511  24.642  1.00  0.00    -0.246 OA
BRANCH  33  35
ATOM     35  C   UNL A   1      43.592  25.823  25.835  1.00  0.00     0.060 A 
ATOM     36  C   UNL A   1      43.849  27.177  26.079  1.00  0.00     0.016 A 
ATOM     37  C   UNL A   1      42.478  25.204  26.413  1.00  0.00     0.016 A 
ATOM     38  C   UNL A   1      43.023  27.906  26.936  1.00  0.00     0.010 A 
ATOM     39  C   UNL A   1      41.667  25.927  27.300  1.00  0.00     0.010 A 
ATOM     40  C   UNL A   1      41.967  27.267  27.603  1.00  0.00    -0.014 A 
BRANCH  40  41
ATOM     41  C   UNL A   1      41.400  27.927  28.809  1.00  0.00     0.031 A 
ATOM     42  C   UNL A   1      42.133  27.743  30.115  1.00  0.00     0.074 A 
ATOM     43  C   UNL A   1      40.326  28.733  28.754  1.00  0.00     0.049 A 
ATOM     44  N   UNL A   1      41.901  28.276  31.288  1.00  0.00    -0.248 NA
ATOM     45  C   UNL A   1      43.293  26.836  30.088  1.00  0.00     0.031 C 
ATOM     46  C   UNL A   1      39.550  29.029  27.554  1.00  0.00     0.029 A 
ATOM     47  N   UNL A   1      39.712  29.463  29.744  1.00  0.00    -0.354 N 
ATOM     48  C   UNL A   1      42.886  27.775  32.129  1.00  0.00     0.074 A 
ATOM     49  C   UNL A   1      43.696  26.868  31.347  1.00  0.00     0.031 C 
ATOM     50  C   UNL A   1      38.560  29.883  27.877  1.00  0.00     0.029 A 
ATOM     51  C   UNL A   1      38.625  30.181  29.308  1.00  0.00     0.049 A 
ATOM     52  H   UNL A   1      40.022  29.469  30.679  1.00  0.00     0.167 HD
ATOM     53  C   UNL A   1      43.111  28.055  33.436  1.00  0.00     0.037 A 
ATOM     54  C   UNL A   1      37.785  30.986  29.990  1.00  0.00     0.037 A 
ATOM     55  C   UNL A   1      42.308  28.950  34.223  1.00  0.00     0.049 A 
ATOM     56  C   UNL A   1      38.017  31.231  31.463  1.00  0.00     0.074 A 
ATOM     57  C   UNL A   1      42.461  29.304  35.552  1.00  0.00     0.029 A 
ATOM     58  N   UNL A   1      41.192  29.626  33.753  1.00  0.00    -0.354 N 
ATOM     59  N   UNL A   1      38.976  30.788  32.239  1.00  0.00    -0.248 NA
ATOM     60  C   UNL A   1      37.052  32.102  32.149  1.00  0.00     0.031 C 
ATOM     61  C   UNL A   1      41.406  30.155  35.900  1.00  0.00     0.029 A 
ATOM     62  C   UNL A   1      40.632  30.378  34.773  1.00  0.00     0.049 A 
ATOM     63  H   UNL A   1      40.849  29.578  32.832  1.00  0.00     0.167 HD
ATOM     64  C   UNL A   1      38.755  31.358  33.487  1.00  0.00     0.074 A 
ATOM     65  C   UNL A   1      37.574  32.185  33.363  1.00  0.00     0.031 C 
ATOM     66  C   UNL A   1      39.468  31.214  34.631  1.00  0.00     0.037 A 
BRANCH  53  67
ATOM     67  C   UNL A   1      44.259  27.354  34.100  1.00  0.00     0.064 A 
ATOM     68  C   UNL A   1      45.542  27.921  34.150  1.00  0.00     0.173 A 
ATOM     69  C   UNL A   1      44.071  26.103  34.706  1.00  0.00     0.173 A 
ATOM     70  F   UNL A   1      45.779  29.106  33.568  1.00  0.00    -0.203 F 
ATOM     71  C   UNL A   1      46.598  27.249  34.758  1.00  0.00     0.198 A 
ATOM     72  C   UNL A   1      45.122  25.448  35.340  1.00  0.00     0.198 A 
ATOM     73  F   UNL A   1      42.863  25.517  34.686  1.00  0.00    -0.203 F 
ATOM     74  F   UNL A   1      47.827  27.786  34.749  1.00  0.00    -0.200 F 
ATOM     75  C   UNL A   1      46.387  26.017  35.358  1.00  0.00     0.200 A 
ATOM     76  F   UNL A   1      44.914  24.262  35.927  1.00  0.00    -0.200 F 
ATOM     77  F   UNL A   1      47.404  25.372  35.945  1.00  0.00    -0.200 F 
ENDBRANCH  53  67
BRANCH  54  78
ATOM     78  C   UNL A   1      36.643  31.638  29.294  1.00  0.00     0.064 A 
ATOM     79  C   UNL A   1      36.645  33.015  29.029  1.00  0.00     0.173 A 
ATOM     80  C   UNL A   1      35.507  30.906  28.922  1.00  0.00     0.173 A 
ATOM     81  F   UNL A   1      37.695  33.766  29.395  1.00  0.00    -0.203 F 
ATOM     82  C   UNL A   1      35.546  33.638  28.440  1.00  0.00     0.198 A 
ATOM     83  C   UNL A   1      34.420  31.524  28.308  1.00  0.00     0.198 A 
ATOM     84  F   UNL A   1      35.449  29.587  29.162  1.00  0.00    -0.203 F 
ATOM     85  F   UNL A   1      35.551  34.964  28.250  1.00  0.00    -0.200 F 
ATOM     86  C   UNL A   1      34.436  32.891  28.075  1.00  0.00     0.200 A 
ATOM     87  F   UNL A   1      33.351  30.797  27.952  1.00  0.00    -0.200 F 
ATOM     88  F   UNL A   1      33.378  33.490  27.512  1.00  0.00    -0.200 F 
ENDBRANCH  54  78
BRANCH  66  89
ATOM     89  C   UNL A   1      39.032  32.011  35.829  1.00  0.00     0.064 A 
ATOM     90  C   UNL A   1      38.183  31.477  36.808  1.00  0.00     0.173 A 
ATOM     91  C   UNL A   1      39.504  33.321  36.014  1.00  0.00     0.173 A 
ATOM     92  F   UNL A   1      37.695  30.234  36.674  1.00  0.00    -0.203 F 
ATOM     93  C   UNL A   1      37.794  32.235  37.910  1.00  0.00     0.198 A 
ATOM     94  C   UNL A   1      39.140  34.064  37.134  1.00  0.00     0.198 A 
ATOM     95  F   UNL A   1      40.329  33.877  35.114  1.00  0.00    -0.203 F 
ATOM     96  F   UNL A   1      36.939  31.723  38.805  1.00  0.00    -0.200 F 
ATOM     97  C   UNL A   1      38.278  33.525  38.075  1.00  0.00     0.200 A 
ATOM     98  F   UNL A   1      39.622  35.303  37.300  1.00  0.00    -0.200 F 
ATOM     99  F   UNL A   1      37.906  34.251  39.139  1.00  0.00    -0.200 F 
ENDBRANCH  66  89
ENDBRANCH  40  41
ENDBRANCH  33  35
ENDBRANCH  32  33
ENDBRANCH  31  32
ENDBRANCH  30  31
ENDBRANCH  29  30
ENDBRANCH  28  29
ENDBRANCH   1  28
TORSDOF 21
ENDMDL
MODEL 2
REMARK VINA RESULT:     -11.3      5.091     10.428
REMARK SMILES O=C(Cc1ccccc1Nc1c(F)cccc1C(F)(F)F)OCCOCCOCCOC(=O)c1ccc(-c2c3nc(c(-c4c(F)c(F)c(F)c(F)c4F)c4ccc([nH]4)c(-c4c(F)c(F)c(F)c(F)c4F)c4nc(c(-c5c(F)c(F)c(F)c(F)c5F)c5ccc2[nH]5)C=C4)C=C3)cc1
REMARK SMILES IDX 26 1 25 2 24 3 23 4 22 5 2 6 1 7 3 8 4 9 5 10 9 11 6 12 8 13
REMARK SMILES IDX 7 14 10 15 11 17 12 18 17 19 13 20 14 21 16 22 15 23 18 24
REMARK SMILES IDX 19 25 20 26 21 27 27 28 28 29 29 30 30 31 31 32 32 33 33 34
REMARK SMILES IDX 34 35 35 36 96 37 36 38 95 39 37 40 38 41 39 42 89 43 40 44
REMARK SMILES IDX 94 45 88 46 90 47 41 48 93 49 87 50 86 51 42 53 74 54 54 55
REMARK SMILES IDX 73 56 55 57 58 58 72 59 91 60 56 61 57 62 71 64 92 65 59 66
REMARK SMILES IDX 43 67 44 68 52 69 45 70 46 71 50 72 53 73 47 74 48 75 51 76
REMARK SMILES IDX 49 77 75 78 76 79 84 80 77 81 78 82 82 83 85 84 79 85 80 86
REMARK SMILES IDX 83 87 81 88 60 89 61 90 69 91 62 92 63 93 67 94 70 95 64 96
REMARK SMILES IDX 65 97 68 98 66 99
REMARK H PARENT 10 16 90 52 58 63
REMARK Flexibility Score: inf
ROOT
ATOM      1  C   UNL A   1      34.617  33.191  28.380  1.00  0.00     0.188 C 
ENDROOT
BRANCH   1   2
ATOM      2  O   UNL A   1      34.149  31.883  28.660  1.00  0.00    -0.376 OA
BRANCH   2   3
ATOM      3  C   UNL A   1      34.203  30.905  27.628  1.00  0.00     0.202 C 
BRANCH   3   4
ATOM      4  C   UNL A   1      32.891  30.366  27.047  1.00  0.00     0.261 C 
BRANCH   4   5
ATOM      5  O   UNL A   1      32.842  29.017  26.546  1.00  0.00    -0.463 OA
BRANCH   5   6
ATOM      6  C   UNL A   1      32.687  28.608  25.270  1.00  0.00     0.310 C 
ATOM      7  O   UNL A   1      31.549  28.480  24.816  1.00  0.00    -0.252 OA
BRANCH   6   8
ATOM      8  C   UNL A   1      33.886  28.133  24.492  1.00  0.00     0.160 C 
BRANCH   8   9
ATOM      9  C   UNL A   1      33.591  26.988  23.558  1.00  0.00    -0.013 A 
ATOM     10  C   UNL A   1      33.105  27.280  22.275  1.00  0.00     0.006 A 
ATOM     11  C   UNL A   1      33.820  25.649  23.938  1.00  0.00     0.042 A 
ATOM     12  C   UNL A   1      32.807  26.253  21.385  1.00  0.00     0.000 A 
ATOM     13  C   UNL A   1      33.507  24.630  23.035  1.00  0.00     0.026 A 
ATOM     14  C   UNL A   1      33.008  24.930  21.766  1.00  0.00     0.002 A 
BRANCH  11  15
ATOM     15  N   UNL A   1      34.152  25.338  25.272  1.00  0.00    -0.352 N 
ATOM     16  H   UNL A   1      34.684  26.034  25.721  1.00  0.00     0.167 HD
BRANCH  15  17
ATOM     17  C   UNL A   1      33.866  24.222  26.090  1.00  0.00     0.087 A 
ATOM     18  C   UNL A   1      34.942  23.338  26.341  1.00  0.00     0.147 A 
ATOM     19  C   UNL A   1      32.597  23.861  26.575  1.00  0.00     0.082 A 
ATOM     20  F   UNL A   1      36.147  23.626  25.823  1.00  0.00    -0.205 F 
ATOM     21  C   UNL A   1      34.804  22.167  27.077  1.00  0.00     0.041 A 
ATOM     22  C   UNL A   1      32.474  22.676  27.345  1.00  0.00     0.015 A 
ATOM     23  C   UNL A   1      33.562  21.839  27.593  1.00  0.00     0.004 A 
BRANCH  19  24
ATOM     24  C   UNL A   1      31.328  24.625  26.270  1.00  0.00     0.418 C 
ATOM     25  F   UNL A   1      30.245  24.103  26.926  1.00  0.00    -0.166 F 
ATOM     26  F   UNL A   1      31.385  25.925  26.659  1.00  0.00    -0.166 F 
ATOM     27  F   UNL A   1      30.970  24.608  24.960  1.00  0.00    -0.166 F 
ENDBRANCH  19  24
ENDBRANCH  15  17
ENDBRANCH  11  15
ENDBRANCH   8   9
ENDBRANCH   6   8
ENDBRANCH   5   6
ENDBRANCH   4   5
ENDBRANCH   3   4
ENDBRANCH   2   3
ENDBRANCH   1   2
BRANCH   1  28
ATOM     28  C   UNL A   1      34.848  34.140  29.559  1.00  0.00     0.188 C 
BRANCH  28  29
ATOM     29  O   UNL A   1      33.808  34.116  30.528  1.00  0.00    -0.376 OA
BRANCH  29  30
ATOM     30  C   UNL A   1      34.167  34.693  31.783  1.00  0.00     0.202 C 
BRANCH  30  31
ATOM     31  C   UNL A   1      34.286  33.711  32.962  1.00  0.00     0.261 C 
BRANCH  31  32
ATOM     32  O   UNL A   1      34.940  32.458  32.690  1.00  0.00    -0.460 OA
BRANCH  32  33
ATOM     33  C   UNL A   1      36.118  32.235  33.298  1.00  0.00     0.338 C 
ATOM     34  O   UNL A   1      36.449  32.611  34.415  1.00  0.00    -0.246 OA
BRANCH  33  35
ATOM     35  C   UNL A   1      36.941  31.338  32.460  1.00  0.00     0.060 A 
ATOM     36  C   UNL A   1      38.032  30.689  33.049  1.00  0.00     0.016 A 
ATOM     37  C   UNL A   1      36.698  31.201  31.089  1.00  0.00     0.016 A 
ATOM     38  C   UNL A   1      38.911  29.940  32.266  1.00  0.00     0.010 A 
ATOM     39  C   UNL A   1      37.599  30.476  30.296  1.00  0.00     0.010 A 
ATOM     40  C   UNL A   1      38.737  29.885  30.875  1.00  0.00    -0.014 A 
BRANCH  40  41
ATOM     41  C   UNL A   1      39.896  29.471  30.040  1.00  0.00     0.031 A 
ATOM     42  C   UNL A   1      41.004  30.475  29.838  1.00  0.00     0.074 A 
ATOM     43  C   UNL A   1      40.020  28.229  29.541  1.00  0.00     0.049 A 
ATOM     44  N   UNL A   1      42.155  30.340  29.230  1.00  0.00    -0.248 NA
ATOM     45  C   UNL A   1      40.781  31.814  30.408  1.00  0.00     0.031 C 
ATOM     46  C   UNL A   1      39.046  27.153  29.695  1.00  0.00     0.029 A 
ATOM     47  N   UNL A   1      41.038  27.663  28.811  1.00  0.00    -0.354 N 
ATOM     48  C   UNL A   1      42.791  31.568  29.353  1.00  0.00     0.074 A 
ATOM     49  C   UNL A   1      41.887  32.449  30.058  1.00  0.00     0.031 C 
ATOM     50  C   UNL A   1      39.515  26.052  29.078  1.00  0.00     0.029 A 
ATOM     51  C   UNL A   1      40.814  26.351  28.475  1.00  0.00     0.049 A 
ATOM     52  H   UNL A   1      41.852  28.154  28.553  1.00  0.00     0.167 HD
ATOM     53  C   UNL A   1      44.026  31.933  28.931  1.00  0.00     0.037 A 
ATOM     54  C   UNL A   1      41.574  25.494  27.763  1.00  0.00     0.037 A 
ATOM     55  C   UNL A   1      44.929  31.066  28.225  1.00  0.00     0.049 A 
ATOM     56  C   UNL A   1      42.921  25.944  27.245  1.00  0.00     0.074 A 
ATOM     57  C   UNL A   1      46.204  31.341  27.763  1.00  0.00     0.029 A 
ATOM     58  N   UNL A   1      44.647  29.756  27.868  1.00  0.00    -0.354 N 
ATOM     59  N   UNL A   1      43.531  27.093  27.404  1.00  0.00    -0.248 NA
ATOM     60  C   UNL A   1      43.688  24.966  26.460  1.00  0.00     0.031 C 
ATOM     61  C   UNL A   1      46.674  30.212  27.082  1.00  0.00     0.029 A 
ATOM     62  C   UNL A   1      45.716  29.216  27.171  1.00  0.00     0.049 A 
ATOM     63  H   UNL A   1      43.811  29.281  28.079  1.00  0.00     0.167 HD
ATOM     64  C   UNL A   1      44.766  26.961  26.778  1.00  0.00     0.074 A 
ATOM     65  C   UNL A   1      44.820  25.618  26.243  1.00  0.00     0.031 C 
ATOM     66  C   UNL A   1      45.766  27.870  26.662  1.00  0.00     0.037 A 
BRANCH  53  67
ATOM     67  C   UNL A   1      44.454  33.345  29.200  1.00  0.00     0.064 A 
ATOM     68  C   UNL A   1      44.200  34.381  28.287  1.00  0.00     0.173 A 
ATOM     69  C   UNL A   1      45.116  33.670  30.393  1.00  0.00     0.173 A 
ATOM     70  F   UNL A   1      43.587  34.118  27.122  1.00  0.00    -0.203 F 
ATOM     71  C   UNL A   1      44.618  35.682  28.547  1.00  0.00     0.198 A 
ATOM     72  C   UNL A   1      45.504  34.978  30.663  1.00  0.00     0.198 A 
ATOM     73  F   UNL A   1      45.383  32.716  31.299  1.00  0.00    -0.203 F 
ATOM     74  F   UNL A   1      44.410  36.646  27.638  1.00  0.00    -0.200 F 
ATOM     75  C   UNL A   1      45.263  35.982  29.737  1.00  0.00     0.200 A 
ATOM     76  F   UNL A   1      46.120  35.268  31.818  1.00  0.00    -0.200 F 
ATOM     77  F   UNL A   1      45.663  37.236  29.988  1.00  0.00    -0.200 F 
ENDBRANCH  53  67
BRANCH  54  78
ATOM     78  C   UNL A   1      41.095  24.110  27.498  1.00  0.00     0.064 A 
ATOM     79  C   UNL A   1      41.693  23.004  28.119  1.00  0.00     0.173 A 
ATOM     80  C   UNL A   1      40.062  23.863  26.584  1.00  0.00     0.173 A 
ATOM     81  F   UNL A   1      42.708  23.185  28.977  1.00  0.00    -0.203 F 
ATOM     82  C   UNL A   1      41.291  21.703  27.818  1.00  0.00     0.198 A 
ATOM     83  C   UNL A   1      39.642  22.565  26.304  1.00  0.00     0.198 A 
ATOM     84  F   UNL A   1      39.463  24.885  25.954  1.00  0.00    -0.203 F 
ATOM     85  F   UNL A   1      41.917  20.663  28.383  1.00  0.00    -0.200 F 
ATOM     86  C   UNL A   1      40.262  21.485  26.915  1.00  0.00     0.200 A 
ATOM     87  F   UNL A   1      38.643  22.358  25.435  1.00  0.00    -0.200 F 
ATOM     88  F   UNL A   1      39.877  20.235  26.623  1.00  0.00    -0.200 F 
ENDBRANCH  54  78
BRANCH  66  89
ATOM     89  C   UNL A   1      47.032  27.428  25.982  1.00  0.00     0.064 A 
ATOM     90  C   UNL A   1      47.218  27.563  24.599  1.00  0.00     0.173 A 
ATOM     91  C   UNL A   1      48.089  26.895  26.736  1.00  0.00     0.173 A 
ATOM     92  F   UNL A   1      46.235  28.058  23.830  1.00  0.00    -0.203 F 
ATOM     93  C   UNL A   1      48.401  27.149  23.992  1.00  0.00     0.198 A 
ATOM     94  C   UNL A   1      49.282  26.512  26.131  1.00  0.00     0.198 A 
ATOM     95  F   UNL A   1      47.969  26.755  28.065  1.00  0.00    -0.203 F 
ATOM     96  F   UNL A   1      48.536  27.237  22.661  1.00  0.00    -0.200 F 
ATOM     97  C   UNL A   1      49.434  26.630  24.758  1.00  0.00     0.200 A 
ATOM     98  F   UNL A   1      50.285  26.027  26.876  1.00  0.00    -0.200 F 
ATOM     99  F   UNL A   1      50.573  26.236  24.172  1.00  0.00    -0.200 F 
ENDBRANCH  66  89
ENDBRANCH  40  41
ENDBRANCH  33  35
ENDBRANCH  32  33
ENDBRANCH  31  32
ENDBRANCH  30  31
ENDBRANCH  29  30
ENDBRANCH  28  29
ENDBRANCH   1  28
TORSDOF 21
ENDMDL
MODEL 3
REMARK VINA RESULT:     -11.3      4.414      6.916
REMARK SMILES O=C(Cc1ccccc1Nc1c(F)cccc1C(F)(F)F)OCCOCCOCCOC(=O)c1ccc(-c2c3nc(c(-c4c(F)c(F)c(F)c(F)c4F)c4ccc([nH]4)c(-c4c(F)c(F)c(F)c(F)c4F)c4nc(c(-c5c(F)c(F)c(F)c(F)c5F)c5ccc2[nH]5)C=C4)C=C3)cc1
REMARK SMILES IDX 26 1 25 2 24 3 23 4 22 5 2 6 1 7 3 8 4 9 5 10 9 11 6 12 8 13
REMARK SMILES IDX 7 14 10 15 11 17 12 18 17 19 13 20 14 21 16 22 15 23 18 24
REMARK SMILES IDX 19 25 20 26 21 27 27 28 28 29 29 30 30 31 31 32 32 33 33 34
REMARK SMILES IDX 34 35 35 36 96 37 36 38 95 39 37 40 38 41 39 42 89 43 40 44
REMARK SMILES IDX 94 45 88 46 90 47 41 48 93 49 87 50 86 51 42 53 74 54 54 55
REMARK SMILES IDX 73 56 55 57 58 58 72 59 91 60 56 61 57 62 71 64 92 65 59 66
REMARK SMILES IDX 43 67 44 68 52 69 45 70 46 71 50 72 53 73 47 74 48 75 51 76
REMARK SMILES IDX 49 77 75 78 76 79 84 80 77 81 78 82 82 83 85 84 79 85 80 86
REMARK SMILES IDX 83 87 81 88 60 89 61 90 69 91 62 92 63 93 67 94 70 95 64 96
REMARK SMILES IDX 65 97 68 98 66 99
REMARK H PARENT 10 16 90 52 58 63
REMARK Flexibility Score: inf
ROOT
ATOM      1  C   UNL A   1      35.566  20.858  25.410  1.00  0.00     0.188 C 
ENDROOT
BRANCH   1   2
ATOM      2  O   UNL A   1      34.422  21.078  26.218  1.00  0.00    -0.376 OA
BRANCH   2   3
ATOM      3  C   UNL A   1      34.371  22.250  27.022  1.00  0.00     0.202 C 
BRANCH   3   4
ATOM      4  C   UNL A   1      33.085  22.565  27.793  1.00  0.00     0.261 C 
BRANCH   4   5
ATOM      5  O   UNL A   1      32.136  23.493  27.234  1.00  0.00    -0.463 OA
BRANCH   5   6
ATOM      6  C   UNL A   1      30.902  23.232  26.755  1.00  0.00     0.310 C 
ATOM      7  O   UNL A   1      29.991  22.987  27.547  1.00  0.00    -0.252 OA
BRANCH   6   8
ATOM      8  C   UNL A   1      30.703  23.055  25.273  1.00  0.00     0.160 C 
BRANCH   8   9
ATOM      9  C   UNL A   1      31.850  23.562  24.439  1.00  0.00    -0.013 A 
ATOM     10  C   UNL A   1      32.690  22.625  23.818  1.00  0.00     0.006 A 
ATOM     11  C   UNL A   1      32.071  24.942  24.251  1.00  0.00     0.042 A 
ATOM     12  C   UNL A   1      33.769  23.050  23.049  1.00  0.00     0.000 A 
ATOM     13  C   UNL A   1      33.165  25.350  23.483  1.00  0.00     0.026 A 
ATOM     14  C   UNL A   1      34.006  24.411  22.883  1.00  0.00     0.002 A 
BRANCH  11  15
ATOM     15  N   UNL A   1      31.336  25.885  24.997  1.00  0.00    -0.352 N 
ATOM     16  H   UNL A   1      30.646  25.484  25.573  1.00  0.00     0.167 HD
BRANCH  15  17
ATOM     17  C   UNL A   1      31.400  27.295  25.079  1.00  0.00     0.087 A 
ATOM     18  C   UNL A   1      32.059  27.827  26.212  1.00  0.00     0.147 A 
ATOM     19  C   UNL A   1      30.776  28.198  24.202  1.00  0.00     0.082 A 
ATOM     20  F   UNL A   1      32.597  26.978  27.103  1.00  0.00    -0.205 F 
ATOM     21  C   UNL A   1      32.151  29.191  26.464  1.00  0.00     0.041 A 
ATOM     22  C   UNL A   1      30.897  29.588  24.455  1.00  0.00     0.015 A 
ATOM     23  C   UNL A   1      31.576  30.080  25.572  1.00  0.00     0.004 A 
BRANCH  19  24
ATOM     24  C   UNL A   1      29.917  27.780  23.030  1.00  0.00     0.418 C 
ATOM     25  F   UNL A   1      29.504  28.853  22.287  1.00  0.00    -0.166 F 
ATOM     26  F   UNL A   1      30.571  26.974  22.153  1.00  0.00    -0.166 F 
ATOM     27  F   UNL A   1      28.766  27.149  23.380  1.00  0.00    -0.166 F 
ENDBRANCH  19  24
ENDBRANCH  15  17
ENDBRANCH  11  15
ENDBRANCH   8   9
ENDBRANCH   6   8
ENDBRANCH   5   6
ENDBRANCH   4   5
ENDBRANCH   3   4
ENDBRANCH   2   3
ENDBRANCH   1   2
BRANCH   1  28
ATOM     28  C   UNL A   1      36.682  21.905  25.441  1.00  0.00     0.188 C 
BRANCH  28  29
ATOM     29  O   UNL A   1      37.944  21.413  25.013  1.00  0.00    -0.376 OA
BRANCH  29  30
ATOM     30  C   UNL A   1      38.041  19.989  25.002  1.00  0.00     0.202 C 
BRANCH  30  31
ATOM     31  C   UNL A   1      39.361  19.403  25.533  1.00  0.00     0.261 C 
BRANCH  31  32
ATOM     32  O   UNL A   1      39.966  20.090  26.644  1.00  0.00    -0.460 OA
BRANCH  32  33
ATOM     33  C   UNL A   1      41.170  20.652  26.436  1.00  0.00     0.338 C 
ATOM     34  O   UNL A   1      42.077  20.207  25.745  1.00  0.00    -0.246 OA
BRANCH  33  35
ATOM     35  C   UNL A   1      41.206  21.985  27.073  1.00  0.00     0.060 A 
ATOM     36  C   UNL A   1      40.565  23.050  26.428  1.00  0.00     0.016 A 
ATOM     37  C   UNL A   1      41.933  22.209  28.247  1.00  0.00     0.016 A 
ATOM     38  C   UNL A   1      40.686  24.348  26.926  1.00  0.00     0.010 A 
ATOM     39  C   UNL A   1      42.083  23.518  28.729  1.00  0.00     0.010 A 
ATOM     40  C   UNL A   1      41.501  24.598  28.041  1.00  0.00    -0.014 A 
BRANCH  40  41
ATOM     41  C   UNL A   1      41.960  25.993  28.273  1.00  0.00     0.031 A 
ATOM     42  C   UNL A   1      43.300  26.391  27.704  1.00  0.00     0.074 A 
ATOM     43  C   UNL A   1      41.196  26.912  28.889  1.00  0.00     0.049 A 
ATOM     44  N   UNL A   1      43.890  27.560  27.691  1.00  0.00    -0.248 NA
ATOM     45  C   UNL A   1      44.074  25.321  27.055  1.00  0.00     0.031 C 
ATOM     46  C   UNL A   1      39.869  26.673  29.449  1.00  0.00     0.029 A 
ATOM     47  N   UNL A   1      41.432  28.245  29.132  1.00  0.00    -0.354 N 
ATOM     48  C   UNL A   1      45.095  27.364  27.028  1.00  0.00     0.074 A 
ATOM     49  C   UNL A   1      45.172  25.961  26.688  1.00  0.00     0.031 C 
ATOM     50  C   UNL A   1      39.405  27.824  29.971  1.00  0.00     0.029 A 
ATOM     51  C   UNL A   1      40.407  28.876  29.793  1.00  0.00     0.049 A 
ATOM     52  H   UNL A   1      42.259  28.703  28.857  1.00  0.00     0.167 HD
ATOM     53  C   UNL A   1      46.050  28.272  26.715  1.00  0.00     0.037 A 
ATOM     54  C   UNL A   1      40.296  30.155  30.204  1.00  0.00     0.037 A 
ATOM     55  C   UNL A   1      45.984  29.667  27.054  1.00  0.00     0.049 A 
ATOM     56  C   UNL A   1      41.405  31.136  29.901  1.00  0.00     0.074 A 
ATOM     57  C   UNL A   1      46.898  30.667  26.773  1.00  0.00     0.029 A 
ATOM     58  N   UNL A   1      44.947  30.258  27.760  1.00  0.00    -0.354 N 
ATOM     59  N   UNL A   1      42.519  30.951  29.237  1.00  0.00    -0.248 NA
ATOM     60  C   UNL A   1      41.227  32.509  30.395  1.00  0.00     0.031 C 
ATOM     61  C   UNL A   1      46.438  31.854  27.354  1.00  0.00     0.029 A 
ATOM     62  C   UNL A   1      45.210  31.606  27.944  1.00  0.00     0.049 A 
ATOM     63  H   UNL A   1      44.144  29.789  28.082  1.00  0.00     0.167 HD
ATOM     64  C   UNL A   1      43.152  32.188  29.197  1.00  0.00     0.074 A 
ATOM     65  C   UNL A   1      42.294  33.118  29.899  1.00  0.00     0.031 C 
ATOM     66  C   UNL A   1      44.336  32.525  28.627  1.00  0.00     0.037 A 
BRANCH  53  67
ATOM     67  C   UNL A   1      47.264  27.769  25.992  1.00  0.00     0.064 A 
ATOM     68  C   UNL A   1      47.315  27.700  24.591  1.00  0.00     0.173 A 
ATOM     69  C   UNL A   1      48.399  27.363  26.710  1.00  0.00     0.173 A 
ATOM     70  F   UNL A   1      46.249  28.059  23.859  1.00  0.00    -0.203 F 
ATOM     71  C   UNL A   1      48.445  27.217  23.939  1.00  0.00     0.198 A 
ATOM     72  C   UNL A   1      49.538  26.909  26.053  1.00  0.00     0.198 A 
ATOM     73  F   UNL A   1      48.401  27.408  28.051  1.00  0.00    -0.203 F 
ATOM     74  F   UNL A   1      48.452  27.111  22.602  1.00  0.00    -0.200 F 
ATOM     75  C   UNL A   1      49.558  26.828  24.669  1.00  0.00     0.200 A 
ATOM     76  F   UNL A   1      50.616  26.542  26.760  1.00  0.00    -0.200 F 
ATOM     77  F   UNL A   1      50.647  26.365  24.039  1.00  0.00    -0.200 F 
ENDBRANCH  53  67
BRANCH  54  78
ATOM     78  C   UNL A   1      39.084  30.602  30.943  1.00  0.00     0.064 A 
ATOM     79  C   UNL A   1      39.017  30.525  32.342  1.00  0.00     0.173 A 
ATOM     80  C   UNL A   1      37.952  31.072  30.263  1.00  0.00     0.173 A 
ATOM     81  F   UNL A   1      40.063  30.051  33.037  1.00  0.00    -0.203 F 
ATOM     82  C   UNL A   1      37.857  30.877  33.029  1.00  0.00     0.198 A 
ATOM     83  C   UNL A   1      36.802  31.451  30.953  1.00  0.00     0.198 A 
ATOM     84  F   UNL A   1      37.958  31.156  28.924  1.00  0.00    -0.203 F 
ATOM     85  F   UNL A   1      37.801  30.740  34.361  1.00  0.00    -0.200 F 
ATOM     86  C   UNL A   1      36.752  31.345  32.335  1.00  0.00     0.200 A 
ATOM     87  F   UNL A   1      35.738  31.908  30.278  1.00  0.00    -0.200 F 
ATOM     88  F   UNL A   1      35.636  31.681  32.995  1.00  0.00    -0.200 F 
ENDBRANCH  54  78
BRANCH  66  89
ATOM     89  C   UNL A   1      44.749  33.969  28.682  1.00  0.00     0.064 A 
ATOM     90  C   UNL A   1      45.579  34.467  29.696  1.00  0.00     0.173 A 
ATOM     91  C   UNL A   1      44.334  34.860  27.679  1.00  0.00     0.173 A 
ATOM     92  F   UNL A   1      45.995  33.660  30.685  1.00  0.00    -0.203 F 
ATOM     93  C   UNL A   1      45.950  35.809  29.724  1.00  0.00     0.198 A 
ATOM     94  C   UNL A   1      44.734  36.194  27.692  1.00  0.00     0.198 A 
ATOM     95  F   UNL A   1      43.550  34.434  26.677  1.00  0.00    -0.203 F 
ATOM     96  F   UNL A   1      46.699  36.274  30.734  1.00  0.00    -0.200 F 
ATOM     97  C   UNL A   1      45.533  36.669  28.720  1.00  0.00     0.200 A 
ATOM     98  F   UNL A   1      44.344  37.018  26.710  1.00  0.00    -0.200 F 
ATOM     99  F   UNL A   1      45.895  37.960  28.746  1.00  0.00    -0.200 F 
ENDBRANCH  66  89
ENDBRANCH  40  41
ENDBRANCH  33  35
ENDBRANCH  32  33
ENDBRANCH  31  32
ENDBRANCH  30  31
ENDBRANCH  29  30
ENDBRANCH  28  29
ENDBRANCH   1  28
TORSDOF 21
ENDMDL
