MODEL 1
REMARK VINA RESULT:      -9.1      0.000      0.000
REMARK SMILES CC[NH+]1CC[NH+]([C@@H]2CC(=O)N(c3ccc(C(=O)OCCOCCOCCOC(=O)c4ccc(-c5c6nc(c(-c7c(F)c(F)c(F)c(F)c7F)c7ccc([nH]7)c(-c7c(F)c(F)c(F)c(F)c7F)c7nc(c(-c8c(F)c(F)c(F)c(F)c8F)c8ccc5[nH]8)C=C7)C=C6)cc4)cc3)C2=O)CC1
REMARK SMILES IDX 22 1 21 2 20 3 19 4 18 5 16 6 17 7 15 8 12 9 13 10 94 11
REMARK SMILES IDX 14 12 93 13 11 14 7 15 8 16 95 17 9 18 96 19 10 20 6 21 3 22
REMARK SMILES IDX 4 23 98 24 5 26 97 27 2 29 1 30 23 31 24 32 25 33 26 34
REMARK SMILES IDX 27 35 28 36 29 37 30 38 31 39 92 40 32 41 91 42 33 43 34 44
REMARK SMILES IDX 35 45 85 46 36 47 90 48 84 49 86 50 37 51 89 52 83 53 82 54
REMARK SMILES IDX 38 56 70 57 50 58 69 59 51 60 54 61 68 62 87 63 52 64 53 65
REMARK SMILES IDX 67 67 88 68 55 69 39 70 40 71 48 72 41 73 42 74 46 75 49 76
REMARK SMILES IDX 43 77 44 78 47 79 45 80 71 81 72 82 80 83 73 84 74 85 78 86
REMARK SMILES IDX 81 87 75 88 76 89 79 90 77 91 56 92 57 93 65 94 58 95 59 96
REMARK SMILES IDX 63 97 66 98 60 99 61 100 64 101 62 102
REMARK H PARENT 3 25 6 28 86 55 54 66
REMARK Flexibility Score: inf
ROOT
ATOM      1  C   UNL A   1      40.982  22.214  27.132  1.00  0.00     0.188 C 
ENDROOT
BRANCH   1   2
ATOM      2  O   UNL A   1      39.746  22.599  26.538  1.00  0.00    -0.376 OA
BRANCH   2   3
ATOM      3  C   UNL A   1      39.302  23.946  26.630  1.00  0.00     0.202 C 
BRANCH   3   4
ATOM      4  C   UNL A   1      39.507  24.709  27.946  1.00  0.00     0.261 C 
BRANCH   4   5
ATOM      5  O   UNL A   1      40.675  25.543  27.978  1.00  0.00    -0.460 OA
BRANCH   5   6
ATOM      6  C   UNL A   1      40.500  26.799  27.487  1.00  0.00     0.338 C 
ATOM      7  O   UNL A   1      40.601  27.161  26.338  1.00  0.00    -0.246 OA
BRANCH   6   8
ATOM      8  C   UNL A   1      39.966  27.676  28.557  1.00  0.00     0.060 A 
ATOM      9  C   UNL A   1      38.960  29.478  30.473  1.00  0.00     0.052 A 
ATOM     10  C   UNL A   1      38.438  29.456  29.171  1.00  0.00     0.028 A 
ATOM     11  C   UNL A   1      39.945  28.533  30.812  1.00  0.00     0.028 A 
ATOM     12  C   UNL A   1      38.960  28.584  28.211  1.00  0.00     0.018 A 
ATOM     13  C   UNL A   1      40.434  27.622  29.867  1.00  0.00     0.018 A 
BRANCH   9  14
ATOM     14  N   UNL A   1      38.574  30.502  31.380  1.00  0.00    -0.245 N 
ATOM     15  C   UNL A   1      37.228  32.064  32.531  1.00  0.00     0.285 C 
ATOM     16  C   UNL A   1      38.686  32.476  32.639  1.00  0.00     0.176 C 
ATOM     17  C   UNL A   1      37.281  30.721  31.805  1.00  0.00     0.292 C 
ATOM     18  C   UNL A   1      39.443  31.449  31.860  1.00  0.00     0.240 C 
ATOM     19  O   UNL A   1      36.316  29.980  31.656  1.00  0.00    -0.267 OA
ATOM     20  O   UNL A   1      40.650  31.544  31.674  1.00  0.00    -0.274 OA
BRANCH  15  21
ATOM     21  N   UNL A   1      36.243  32.988  31.927  1.00  0.00    -0.315 N 
ATOM     22  N   UNL A   1      34.466  34.753  33.625  1.00  0.00    -0.326 N 
ATOM     23  C   UNL A   1      34.156  33.325  33.398  1.00  0.00     0.324 C 
ATOM     24  C   UNL A   1      35.903  35.004  33.417  1.00  0.00     0.324 C 
ATOM     25  H   UNL A   1      34.266  34.991  34.596  1.00  0.00     0.348 HD
ATOM     26  C   UNL A   1      34.830  32.653  32.170  1.00  0.00     0.325 C 
ATOM     27  C   UNL A   1      36.466  34.429  32.104  1.00  0.00     0.325 C 
ATOM     28  H   UNL A   1      36.446  32.804  30.945  1.00  0.00     0.349 HD
BRANCH  22  29
ATOM     29  C   UNL A   1      33.598  35.618  32.812  1.00  0.00     0.259 C 
ATOM     30  C   UNL A   1      34.069  37.069  32.777  1.00  0.00     0.071 C 
ENDBRANCH  22  29
ENDBRANCH  15  21
ENDBRANCH   9  14
ENDBRANCH   6   8
ENDBRANCH   5   6
ENDBRANCH   4   5
ENDBRANCH   3   4
ENDBRANCH   2   3
ENDBRANCH   1   2
BRANCH   1  31
ATOM     31  C   UNL A   1      41.925  21.228  26.408  1.00  0.00     0.188 C 
BRANCH  31  32
ATOM     32  O   UNL A   1      42.589  21.789  25.293  1.00  0.00    -0.376 OA
BRANCH  32  33
ATOM     33  C   UNL A   1      43.903  22.278  25.501  1.00  0.00     0.202 C 
BRANCH  33  34
ATOM     34  C   UNL A   1      44.211  23.731  25.101  1.00  0.00     0.261 C 
BRANCH  34  35
ATOM     35  O   UNL A   1      45.198  24.417  25.889  1.00  0.00    -0.460 OA
BRANCH  35  36
ATOM     36  C   UNL A   1      45.820  25.469  25.316  1.00  0.00     0.338 C 
ATOM     37  O   UNL A   1      46.457  25.470  24.279  1.00  0.00    -0.246 OA
BRANCH  36  38
ATOM     38  C   UNL A   1      45.467  26.688  26.078  1.00  0.00     0.060 A 
ATOM     39  C   UNL A   1      46.442  27.275  26.893  1.00  0.00     0.016 A 
ATOM     40  C   UNL A   1      44.178  27.227  26.019  1.00  0.00     0.016 A 
ATOM     41  C   UNL A   1      46.112  28.367  27.698  1.00  0.00     0.010 A 
ATOM     42  C   UNL A   1      43.846  28.315  26.836  1.00  0.00     0.010 A 
ATOM     43  C   UNL A   1      44.800  28.859  27.714  1.00  0.00    -0.014 A 
BRANCH  43  44
ATOM     44  C   UNL A   1      44.387  29.781  28.803  1.00  0.00     0.031 A 
ATOM     45  C   UNL A   1      44.076  29.199  30.155  1.00  0.00     0.074 A 
ATOM     46  C   UNL A   1      44.335  31.112  28.620  1.00  0.00     0.049 A 
ATOM     47  N   UNL A   1      43.735  29.799  31.268  1.00  0.00    -0.248 NA
ATOM     48  C   UNL A   1      44.157  27.733  30.265  1.00  0.00     0.031 C 
ATOM     49  C   UNL A   1      44.624  31.804  27.368  1.00  0.00     0.029 A 
ATOM     50  N   UNL A   1      44.014  32.117  29.499  1.00  0.00    -0.354 N 
ATOM     51  C   UNL A   1      43.573  28.788  32.207  1.00  0.00     0.074 A 
ATOM     52  C   UNL A   1      43.802  27.534  31.524  1.00  0.00     0.031 C 
ATOM     53  C   UNL A   1      44.456  33.125  27.555  1.00  0.00     0.029 A 
ATOM     54  C   UNL A   1      44.035  33.368  28.935  1.00  0.00     0.049 A 
ATOM     55  H   UNL A   1      43.790  31.957  30.444  1.00  0.00     0.167 HD
ATOM     56  C   UNL A   1      43.279  28.893  33.525  1.00  0.00     0.037 A 
ATOM     57  C   UNL A   1      43.738  34.569  29.470  1.00  0.00     0.037 A 
ATOM     58  C   UNL A   1      43.035  30.138  34.205  1.00  0.00     0.049 A 
ATOM     59  C   UNL A   1      43.368  34.662  30.928  1.00  0.00     0.074 A 
ATOM     60  C   UNL A   1      42.733  30.351  35.539  1.00  0.00     0.029 A 
ATOM     61  N   UNL A   1      43.056  31.384  33.595  1.00  0.00    -0.354 N 
ATOM     62  N   UNL A   1      43.256  33.707  31.820  1.00  0.00    -0.248 NA
ATOM     63  C   UNL A   1      43.097  36.007  31.458  1.00  0.00     0.031 C 
ATOM     64  C   UNL A   1      42.522  31.722  35.725  1.00  0.00     0.029 A 
ATOM     65  C   UNL A   1      42.751  32.370  34.522  1.00  0.00     0.049 A 
ATOM     66  H   UNL A   1      43.257  31.545  32.645  1.00  0.00     0.167 HD
ATOM     67  C   UNL A   1      42.931  34.332  33.016  1.00  0.00     0.074 A 
ATOM     68  C   UNL A   1      42.876  35.754  32.741  1.00  0.00     0.031 C 
ATOM     69  C   UNL A   1      42.701  33.781  34.235  1.00  0.00     0.037 A 
BRANCH  56  70
ATOM     70  C   UNL A   1      43.183  27.614  34.306  1.00  0.00     0.064 A 
ATOM     71  C   UNL A   1      44.321  26.995  34.848  1.00  0.00     0.173 A 
ATOM     72  C   UNL A   1      41.941  26.994  34.508  1.00  0.00     0.173 A 
ATOM     73  F   UNL A   1      45.535  27.538  34.670  1.00  0.00    -0.203 F 
ATOM     74  C   UNL A   1      44.224  25.783  35.528  1.00  0.00     0.198 A 
ATOM     75  C   UNL A   1      41.844  25.799  35.215  1.00  0.00     0.198 A 
ATOM     76  F   UNL A   1      40.822  27.544  34.015  1.00  0.00    -0.203 F 
ATOM     77  F   UNL A   1      45.331  25.178  35.979  1.00  0.00    -0.200 F 
ATOM     78  C   UNL A   1      42.985  25.188  35.714  1.00  0.00     0.200 A 
ATOM     79  F   UNL A   1      40.644  25.230  35.405  1.00  0.00    -0.200 F 
ATOM     80  F   UNL A   1      42.892  24.020  36.364  1.00  0.00    -0.200 F 
ENDBRANCH  56  70
BRANCH  57  81
ATOM     81  C   UNL A   1      43.785  35.785  28.616  1.00  0.00     0.064 A 
ATOM     82  C   UNL A   1      44.995  36.435  28.338  1.00  0.00     0.173 A 
ATOM     83  C   UNL A   1      42.614  36.321  28.062  1.00  0.00     0.173 A 
ATOM     84  F   UNL A   1      46.139  35.977  28.869  1.00  0.00    -0.203 F 
ATOM     85  C   UNL A   1      45.029  37.583  27.549  1.00  0.00     0.198 A 
ATOM     86  C   UNL A   1      42.652  37.453  27.251  1.00  0.00     0.198 A 
ATOM     87  F   UNL A   1      41.430  35.738  28.301  1.00  0.00    -0.203 F 
ATOM     88  F   UNL A   1      46.194  38.209  27.332  1.00  0.00    -0.200 F 
ATOM     89  C   UNL A   1      43.860  38.086  26.999  1.00  0.00     0.200 A 
ATOM     90  F   UNL A   1      41.521  37.929  26.714  1.00  0.00    -0.200 F 
ATOM     91  F   UNL A   1      43.895  39.185  26.234  1.00  0.00    -0.200 F 
ENDBRANCH  57  81
BRANCH  69  92
ATOM     92  C   UNL A   1      42.405  34.717  35.373  1.00  0.00     0.064 A 
ATOM     93  C   UNL A   1      43.425  35.264  36.166  1.00  0.00     0.173 A 
ATOM     94  C   UNL A   1      41.083  35.097  35.653  1.00  0.00     0.173 A 
ATOM     95  F   UNL A   1      44.704  34.924  35.949  1.00  0.00    -0.203 F 
ATOM     96  C   UNL A   1      43.129  36.128  37.218  1.00  0.00     0.198 A 
ATOM     97  C   UNL A   1      40.794  35.987  36.684  1.00  0.00     0.198 A 
ATOM     98  F   UNL A   1      40.069  34.612  34.919  1.00  0.00    -0.203 F 
ATOM     99  F   UNL A   1      44.115  36.595  37.997  1.00  0.00    -0.200 F 
ATOM    100  C   UNL A   1      41.815  36.495  37.472  1.00  0.00     0.200 A 
ATOM    101  F   UNL A   1      39.526  36.351  36.918  1.00  0.00    -0.200 F 
ATOM    102  F   UNL A   1      41.534  37.329  38.481  1.00  0.00    -0.200 F 
ENDBRANCH  69  92
ENDBRANCH  43  44
ENDBRANCH  36  38
ENDBRANCH  35  36
ENDBRANCH  34  35
ENDBRANCH  33  34
ENDBRANCH  32  33
ENDBRANCH  31  32
ENDBRANCH   1  31
TORSDOF 20
ENDMDL
MODEL 2
REMARK VINA RESULT:      -8.6      0.869      2.176
REMARK SMILES CC[NH+]1CC[NH+]([C@@H]2CC(=O)N(c3ccc(C(=O)OCCOCCOCCOC(=O)c4ccc(-c5c6nc(c(-c7c(F)c(F)c(F)c(F)c7F)c7ccc([nH]7)c(-c7c(F)c(F)c(F)c(F)c7F)c7nc(c(-c8c(F)c(F)c(F)c(F)c8F)c8ccc5[nH]8)C=C7)C=C6)cc4)cc3)C2=O)CC1
REMARK SMILES IDX 22 1 21 2 20 3 19 4 18 5 16 6 17 7 15 8 12 9 13 10 94 11
REMARK SMILES IDX 14 12 93 13 11 14 7 15 8 16 95 17 9 18 96 19 10 20 6 21 3 22
REMARK SMILES IDX 4 23 98 24 5 26 97 27 2 29 1 30 23 31 24 32 25 33 26 34
REMARK SMILES IDX 27 35 28 36 29 37 30 38 31 39 92 40 32 41 91 42 33 43 34 44
REMARK SMILES IDX 35 45 85 46 36 47 90 48 84 49 86 50 37 51 89 52 83 53 82 54
REMARK SMILES IDX 38 56 70 57 50 58 69 59 51 60 54 61 68 62 87 63 52 64 53 65
REMARK SMILES IDX 67 67 88 68 55 69 39 70 40 71 48 72 41 73 42 74 46 75 49 76
REMARK SMILES IDX 43 77 44 78 47 79 45 80 71 81 72 82 80 83 73 84 74 85 78 86
REMARK SMILES IDX 81 87 75 88 76 89 79 90 77 91 56 92 57 93 65 94 58 95 59 96
REMARK SMILES IDX 63 97 66 98 60 99 61 100 64 101 62 102
REMARK H PARENT 3 25 6 28 86 55 54 66
REMARK Flexibility Score: inf
ROOT
ATOM      1  C   UNL A   1      40.508  22.189  26.943  1.00  0.00     0.188 C 
ENDROOT
BRANCH   1   2
ATOM      2  O   UNL A   1      39.429  22.777  26.223  1.00  0.00    -0.376 OA
BRANCH   2   3
ATOM      3  C   UNL A   1      38.938  24.057  26.598  1.00  0.00     0.202 C 
BRANCH   3   4
ATOM      4  C   UNL A   1      39.280  24.606  27.990  1.00  0.00     0.261 C 
BRANCH   4   5
ATOM      5  O   UNL A   1      40.476  25.399  28.043  1.00  0.00    -0.460 OA
BRANCH   5   6
ATOM      6  C   UNL A   1      40.400  26.601  27.412  1.00  0.00     0.338 C 
ATOM      7  O   UNL A   1      40.494  26.817  26.225  1.00  0.00    -0.246 OA
BRANCH   6   8
ATOM      8  C   UNL A   1      39.986  27.641  28.383  1.00  0.00     0.060 A 
ATOM      9  C   UNL A   1      39.272  29.741  30.119  1.00  0.00     0.052 A 
ATOM     10  C   UNL A   1      39.031  29.842  28.741  1.00  0.00     0.028 A 
ATOM     11  C   UNL A   1      39.813  28.541  30.615  1.00  0.00     0.028 A 
ATOM     12  C   UNL A   1      39.415  28.814  27.876  1.00  0.00     0.018 A 
ATOM     13  C   UNL A   1      40.151  27.486  29.756  1.00  0.00     0.018 A 
BRANCH   9  14
ATOM     14  N   UNL A   1      39.074  30.867  30.964  1.00  0.00    -0.245 N 
ATOM     15  C   UNL A   1      38.019  32.692  32.029  1.00  0.00     0.285 C 
ATOM     16  C   UNL A   1      39.526  32.870  32.094  1.00  0.00     0.176 C 
ATOM     17  C   UNL A   1      37.842  31.316  31.389  1.00  0.00     0.292 C 
ATOM     18  C   UNL A   1      40.093  31.689  31.373  1.00  0.00     0.240 C 
ATOM     19  O   UNL A   1      36.768  30.732  31.297  1.00  0.00    -0.267 OA
ATOM     20  O   UNL A   1      41.295  31.577  31.169  1.00  0.00    -0.274 OA
BRANCH  15  21
ATOM     21  N   UNL A   1      37.182  33.723  31.378  1.00  0.00    -0.315 N 
ATOM     22  N   UNL A   1      34.703  32.999  29.800  1.00  0.00    -0.326 N 
ATOM     23  C   UNL A   1      36.058  32.881  29.219  1.00  0.00     0.324 C 
ATOM     24  C   UNL A   1      34.773  32.959  31.272  1.00  0.00     0.324 C 
ATOM     25  H   UNL A   1      34.142  32.198  29.512  1.00  0.00     0.348 HD
ATOM     26  C   UNL A   1      37.184  33.703  29.905  1.00  0.00     0.325 C 
ATOM     27  C   UNL A   1      35.817  33.910  31.886  1.00  0.00     0.325 C 
ATOM     28  H   UNL A   1      37.697  34.550  31.681  1.00  0.00     0.349 HD
BRANCH  22  29
ATOM     29  C   UNL A   1      34.007  34.185  29.280  1.00  0.00     0.259 C 
ATOM     30  C   UNL A   1      33.217  33.900  28.005  1.00  0.00     0.071 C 
ENDBRANCH  22  29
ENDBRANCH  15  21
ENDBRANCH   9  14
ENDBRANCH   6   8
ENDBRANCH   5   6
ENDBRANCH   4   5
ENDBRANCH   3   4
ENDBRANCH   2   3
ENDBRANCH   1   2
BRANCH   1  31
ATOM     31  C   UNL A   1      41.439  21.165  26.258  1.00  0.00     0.188 C 
BRANCH  31  32
ATOM     32  O   UNL A   1      42.283  21.730  25.275  1.00  0.00    -0.376 OA
BRANCH  32  33
ATOM     33  C   UNL A   1      43.523  22.260  25.712  1.00  0.00     0.202 C 
BRANCH  33  34
ATOM     34  C   UNL A   1      43.729  23.784  25.645  1.00  0.00     0.261 C 
BRANCH  34  35
ATOM     35  O   UNL A   1      44.950  24.291  26.207  1.00  0.00    -0.460 OA
BRANCH  35  36
ATOM     36  C   UNL A   1      45.532  25.331  25.575  1.00  0.00     0.338 C 
ATOM     37  O   UNL A   1      46.119  25.308  24.508  1.00  0.00    -0.246 OA
BRANCH  36  38
ATOM     38  C   UNL A   1      45.204  26.569  26.317  1.00  0.00     0.060 A 
ATOM     39  C   UNL A   1      46.199  27.164  27.102  1.00  0.00     0.016 A 
ATOM     40  C   UNL A   1      43.919  27.117  26.273  1.00  0.00     0.016 A 
ATOM     41  C   UNL A   1      45.894  28.275  27.890  1.00  0.00     0.010 A 
ATOM     42  C   UNL A   1      43.611  28.223  27.074  1.00  0.00     0.010 A 
ATOM     43  C   UNL A   1      44.586  28.777  27.921  1.00  0.00    -0.014 A 
BRANCH  43  44
ATOM     44  C   UNL A   1      44.202  29.725  28.999  1.00  0.00     0.031 A 
ATOM     45  C   UNL A   1      43.891  29.171  30.363  1.00  0.00     0.074 A 
ATOM     46  C   UNL A   1      44.175  31.054  28.795  1.00  0.00     0.049 A 
ATOM     47  N   UNL A   1      43.572  29.795  31.469  1.00  0.00    -0.248 NA
ATOM     48  C   UNL A   1      43.944  27.706  30.495  1.00  0.00     0.031 C 
ATOM     49  C   UNL A   1      44.467  31.720  27.530  1.00  0.00     0.029 A 
ATOM     50  N   UNL A   1      43.883  32.079  29.661  1.00  0.00    -0.354 N 
ATOM     51  C   UNL A   1      43.399  28.804  32.425  1.00  0.00     0.074 A 
ATOM     52  C   UNL A   1      43.596  27.534  31.761  1.00  0.00     0.031 C 
ATOM     53  C   UNL A   1      44.327  33.047  27.697  1.00  0.00     0.029 A 
ATOM     54  C   UNL A   1      43.924  33.320  29.076  1.00  0.00     0.049 A 
ATOM     55  H   UNL A   1      43.663  31.939  30.610  1.00  0.00     0.167 HD
ATOM     56  C   UNL A   1      43.119  28.935  33.744  1.00  0.00     0.037 A 
ATOM     57  C   UNL A   1      43.656  34.535  29.595  1.00  0.00     0.037 A 
ATOM     58  C   UNL A   1      42.906  30.196  34.407  1.00  0.00     0.049 A 
ATOM     59  C   UNL A   1      43.301  34.660  31.054  1.00  0.00     0.074 A 
ATOM     60  C   UNL A   1      42.620  30.436  35.739  1.00  0.00     0.029 A 
ATOM     61  N   UNL A   1      42.946  31.431  33.776  1.00  0.00    -0.354 N 
ATOM     62  N   UNL A   1      43.177  33.721  31.962  1.00  0.00    -0.248 NA
ATOM     63  C   UNL A   1      43.062  36.018  31.565  1.00  0.00     0.031 C 
ATOM     64  C   UNL A   1      42.439  31.814  35.905  1.00  0.00     0.029 A 
ATOM     65  C   UNL A   1      42.671  32.438  34.689  1.00  0.00     0.049 A 
ATOM     66  H   UNL A   1      43.142  31.573  32.822  1.00  0.00     0.167 HD
ATOM     67  C   UNL A   1      42.876  34.372  33.151  1.00  0.00     0.074 A 
ATOM     68  C   UNL A   1      42.848  35.789  32.853  1.00  0.00     0.031 C 
ATOM     69  C   UNL A   1      42.646  33.845  34.380  1.00  0.00     0.037 A 
BRANCH  56  70
ATOM     70  C   UNL A   1      43.004  27.671  34.546  1.00  0.00     0.064 A 
ATOM     71  C   UNL A   1      41.795  26.963  34.636  1.00  0.00     0.173 A 
ATOM     72  C   UNL A   1      44.113  27.165  35.242  1.00  0.00     0.173 A 
ATOM     73  F   UNL A   1      40.700  27.413  34.005  1.00  0.00    -0.203 F 
ATOM     74  C   UNL A   1      41.689  25.820  35.425  1.00  0.00     0.198 A 
ATOM     75  C   UNL A   1      44.011  26.003  36.003  1.00  0.00     0.198 A 
ATOM     76  F   UNL A   1      45.293  27.799  35.187  1.00  0.00    -0.203 F 
ATOM     77  F   UNL A   1      40.508  25.199  35.547  1.00  0.00    -0.200 F 
ATOM     78  C   UNL A   1      42.798  25.339  36.104  1.00  0.00     0.200 A 
ATOM     79  F   UNL A   1      45.088  25.532  36.650  1.00  0.00    -0.200 F 
ATOM     80  F   UNL A   1      42.696  24.240  36.865  1.00  0.00    -0.200 F 
ENDBRANCH  56  70
BRANCH  57  81
ATOM     81  C   UNL A   1      43.720  35.736  28.721  1.00  0.00     0.064 A 
ATOM     82  C   UNL A   1      42.568  36.262  28.119  1.00  0.00     0.173 A 
ATOM     83  C   UNL A   1      44.939  36.381  28.471  1.00  0.00     0.173 A 
ATOM     84  F   UNL A   1      41.382  35.663  28.305  1.00  0.00    -0.203 F 
ATOM     85  C   UNL A   1      42.637  37.380  27.289  1.00  0.00     0.198 A 
ATOM     86  C   UNL A   1      45.003  37.515  27.663  1.00  0.00     0.198 A 
ATOM     87  F   UNL A   1      46.070  35.915  29.020  1.00  0.00    -0.203 F 
ATOM     88  F   UNL A   1      41.527  37.838  26.693  1.00  0.00    -0.200 F 
ATOM     89  C   UNL A   1      43.852  38.010  27.069  1.00  0.00     0.200 A 
ATOM     90  F   UNL A   1      46.178  38.126  27.461  1.00  0.00    -0.200 F 
ATOM     91  F   UNL A   1      43.916  39.088  26.277  1.00  0.00    -0.200 F 
ENDBRANCH  57  81
BRANCH  69  92
ATOM     92  C   UNL A   1      42.379  34.805  35.505  1.00  0.00     0.064 A 
ATOM     93  C   UNL A   1      41.076  35.182  35.864  1.00  0.00     0.173 A 
ATOM     94  C   UNL A   1      43.443  35.329  36.257  1.00  0.00     0.173 A 
ATOM     95  F   UNL A   1      40.025  34.720  35.171  1.00  0.00    -0.203 F 
ATOM     96  C   UNL A   1      40.851  36.075  36.909  1.00  0.00     0.198 A 
ATOM     97  C   UNL A   1      43.212  36.196  37.322  1.00  0.00     0.198 A 
ATOM     98  F   UNL A   1      44.708  34.994  35.963  1.00  0.00    -0.203 F 
ATOM     99  F   UNL A   1      39.601  36.463  37.199  1.00  0.00    -0.200 F 
ATOM    100  C   UNL A   1      41.917  36.575  37.642  1.00  0.00     0.200 A 
ATOM    101  F   UNL A   1      44.242  36.666  38.037  1.00  0.00    -0.200 F 
ATOM    102  F   UNL A   1      41.698  37.430  38.650  1.00  0.00    -0.200 F 
ENDBRANCH  69  92
ENDBRANCH  43  44
ENDBRANCH  36  38
ENDBRANCH  35  36
ENDBRANCH  34  35
ENDBRANCH  33  34
ENDBRANCH  32  33
ENDBRANCH  31  32
ENDBRANCH   1  31
TORSDOF 20
ENDMDL
MODEL 3
REMARK VINA RESULT:      -8.5      0.862      7.038
REMARK SMILES CC[NH+]1CC[NH+]([C@@H]2CC(=O)N(c3ccc(C(=O)OCCOCCOCCOC(=O)c4ccc(-c5c6nc(c(-c7c(F)c(F)c(F)c(F)c7F)c7ccc([nH]7)c(-c7c(F)c(F)c(F)c(F)c7F)c7nc(c(-c8c(F)c(F)c(F)c(F)c8F)c8ccc5[nH]8)C=C7)C=C6)cc4)cc3)C2=O)CC1
REMARK SMILES IDX 22 1 21 2 20 3 19 4 18 5 16 6 17 7 15 8 12 9 13 10 94 11
REMARK SMILES IDX 14 12 93 13 11 14 7 15 8 16 95 17 9 18 96 19 10 20 6 21 3 22
REMARK SMILES IDX 4 23 98 24 5 26 97 27 2 29 1 30 23 31 24 32 25 33 26 34
REMARK SMILES IDX 27 35 28 36 29 37 30 38 31 39 92 40 32 41 91 42 33 43 34 44
REMARK SMILES IDX 35 45 85 46 36 47 90 48 84 49 86 50 37 51 89 52 83 53 82 54
REMARK SMILES IDX 38 56 70 57 50 58 69 59 51 60 54 61 68 62 87 63 52 64 53 65
REMARK SMILES IDX 67 67 88 68 55 69 39 70 40 71 48 72 41 73 42 74 46 75 49 76
REMARK SMILES IDX 43 77 44 78 47 79 45 80 71 81 72 82 80 83 73 84 74 85 78 86
REMARK SMILES IDX 81 87 75 88 76 89 79 90 77 91 56 92 57 93 65 94 58 95 59 96
REMARK SMILES IDX 63 97 66 98 60 99 61 100 64 101 62 102
REMARK H PARENT 3 25 6 28 86 55 54 66
REMARK Flexibility Score: inf
ROOT
ATOM      1  C   UNL A   1      42.412  21.093  26.568  1.00  0.00     0.188 C 
ENDROOT
BRANCH   1   2
ATOM      2  O   UNL A   1      41.610  22.127  27.131  1.00  0.00    -0.376 OA
BRANCH   2   3
ATOM      3  C   UNL A   1      40.234  22.226  26.786  1.00  0.00     0.202 C 
BRANCH   3   4
ATOM      4  C   UNL A   1      39.555  23.602  26.823  1.00  0.00     0.261 C 
BRANCH   4   5
ATOM      5  O   UNL A   1      40.153  24.539  27.731  1.00  0.00    -0.460 OA
BRANCH   5   6
ATOM      6  C   UNL A   1      40.734  25.620  27.146  1.00  0.00     0.338 C 
ATOM      7  O   UNL A   1      41.311  25.662  26.084  1.00  0.00    -0.246 OA
BRANCH   6   8
ATOM      8  C   UNL A   1      40.400  26.839  27.921  1.00  0.00     0.060 A 
ATOM      9  C   UNL A   1      39.761  29.052  29.542  1.00  0.00     0.052 A 
ATOM     10  C   UNL A   1      40.778  28.163  29.917  1.00  0.00     0.028 A 
ATOM     11  C   UNL A   1      39.121  28.848  28.307  1.00  0.00     0.028 A 
ATOM     12  C   UNL A   1      41.073  27.047  29.130  1.00  0.00     0.018 A 
ATOM     13  C   UNL A   1      39.449  27.759  27.488  1.00  0.00     0.018 A 
BRANCH   9  14
ATOM     14  N   UNL A   1      39.325  30.062  30.442  1.00  0.00    -0.245 N 
ATOM     15  C   UNL A   1      37.902  31.550  31.597  1.00  0.00     0.285 C 
ATOM     16  C   UNL A   1      39.332  32.055  31.675  1.00  0.00     0.176 C 
ATOM     17  C   UNL A   1      38.029  30.203  30.887  1.00  0.00     0.292 C 
ATOM     18  C   UNL A   1      40.140  31.069  30.896  1.00  0.00     0.240 C 
ATOM     19  O   UNL A   1      37.110  29.401  30.764  1.00  0.00    -0.267 OA
ATOM     20  O   UNL A   1      41.335  31.237  30.688  1.00  0.00    -0.274 OA
BRANCH  15  21
ATOM     21  N   UNL A   1      36.850  32.401  30.999  1.00  0.00    -0.315 N 
ATOM     22  N   UNL A   1      35.031  34.118  32.702  1.00  0.00    -0.326 N 
ATOM     23  C   UNL A   1      34.793  32.669  32.526  1.00  0.00     0.324 C 
ATOM     24  C   UNL A   1      36.445  34.440  32.441  1.00  0.00     0.324 C 
ATOM     25  H   UNL A   1      34.847  34.374  33.672  1.00  0.00     0.348 HD
ATOM     26  C   UNL A   1      35.465  31.999  31.296  1.00  0.00     0.325 C 
ATOM     27  C   UNL A   1      36.999  33.856  31.127  1.00  0.00     0.325 C 
ATOM     28  H   UNL A   1      37.032  32.199  30.016  1.00  0.00     0.349 HD
BRANCH  22  29
ATOM     29  C   UNL A   1      34.093  34.910  31.893  1.00  0.00     0.259 C 
ATOM     30  C   UNL A   1      33.576  36.148  32.622  1.00  0.00     0.071 C 
ENDBRANCH  22  29
ENDBRANCH  15  21
ENDBRANCH   9  14
ENDBRANCH   6   8
ENDBRANCH   5   6
ENDBRANCH   4   5
ENDBRANCH   3   4
ENDBRANCH   2   3
ENDBRANCH   1   2
BRANCH   1  31
ATOM     31  C   UNL A   1      43.490  21.425  25.514  1.00  0.00     0.188 C 
BRANCH  31  32
ATOM     32  O   UNL A   1      43.197  22.572  24.741  1.00  0.00    -0.376 OA
BRANCH  32  33
ATOM     33  C   UNL A   1      44.286  23.221  24.106  1.00  0.00     0.202 C 
BRANCH  33  34
ATOM     34  C   UNL A   1      45.642  23.247  24.831  1.00  0.00     0.261 C 
BRANCH  34  35
ATOM     35  O   UNL A   1      45.849  24.320  25.764  1.00  0.00    -0.460 OA
BRANCH  35  36
ATOM     36  C   UNL A   1      46.390  25.459  25.280  1.00  0.00     0.338 C 
ATOM     37  O   UNL A   1      47.019  25.592  24.246  1.00  0.00    -0.246 OA
BRANCH  36  38
ATOM     38  C   UNL A   1      45.955  26.581  26.141  1.00  0.00     0.060 A 
ATOM     39  C   UNL A   1      46.903  27.202  26.963  1.00  0.00     0.016 A 
ATOM     40  C   UNL A   1      44.620  26.995  26.167  1.00  0.00     0.016 A 
ATOM     41  C   UNL A   1      46.506  28.198  27.857  1.00  0.00     0.010 A 
ATOM     42  C   UNL A   1      44.220  27.985  27.073  1.00  0.00     0.010 A 
ATOM     43  C   UNL A   1      45.154  28.557  27.954  1.00  0.00    -0.014 A 
BRANCH  43  44
ATOM     44  C   UNL A   1      44.702  29.356  29.122  1.00  0.00     0.031 A 
ATOM     45  C   UNL A   1      44.604  30.850  28.974  1.00  0.00     0.074 A 
ATOM     46  C   UNL A   1      44.336  28.773  30.278  1.00  0.00     0.049 A 
ATOM     47  N   UNL A   1      44.200  31.753  29.831  1.00  0.00    -0.248 NA
ATOM     48  C   UNL A   1      45.026  31.402  27.675  1.00  0.00     0.031 C 
ATOM     49  C   UNL A   1      44.370  27.340  30.549  1.00  0.00     0.029 A 
ATOM     50  N   UNL A   1      43.865  29.330  31.442  1.00  0.00    -0.354 N 
ATOM     51  C   UNL A   1      44.308  32.972  29.174  1.00  0.00     0.074 A 
ATOM     52  C   UNL A   1      44.864  32.701  27.866  1.00  0.00     0.031 C 
ATOM     53  C   UNL A   1      43.949  27.127  31.807  1.00  0.00     0.029 A 
ATOM     54  C   UNL A   1      43.629  28.410  32.433  1.00  0.00     0.049 A 
ATOM     55  H   UNL A   1      43.713  30.295  31.556  1.00  0.00     0.167 HD
ATOM     56  C   UNL A   1      43.959  34.206  29.611  1.00  0.00     0.037 A 
ATOM     57  C   UNL A   1      43.212  28.588  33.703  1.00  0.00     0.037 A 
ATOM     58  C   UNL A   1      43.421  34.482  30.918  1.00  0.00     0.049 A 
ATOM     59  C   UNL A   1      42.872  29.974  34.187  1.00  0.00     0.074 A 
ATOM     60  C   UNL A   1      43.034  35.697  31.455  1.00  0.00     0.029 A 
ATOM     61  N   UNL A   1      43.206  33.524  31.897  1.00  0.00    -0.354 N 
ATOM     62  N   UNL A   1      42.939  31.117  33.548  1.00  0.00    -0.248 NA
ATOM     63  C   UNL A   1      42.383  30.092  35.569  1.00  0.00     0.031 C 
ATOM     64  C   UNL A   1      42.629  35.481  32.777  1.00  0.00     0.029 A 
ATOM     65  C   UNL A   1      42.709  34.123  33.045  1.00  0.00     0.049 A 
ATOM     66  H   UNL A   1      43.380  32.561  31.793  1.00  0.00     0.167 HD
ATOM     67  C   UNL A   1      42.477  32.082  34.433  1.00  0.00     0.074 A 
ATOM     68  C   UNL A   1      42.119  31.388  35.654  1.00  0.00     0.031 C 
ATOM     69  C   UNL A   1      42.356  33.421  34.253  1.00  0.00     0.037 A 
BRANCH  56  70
ATOM     70  C   UNL A   1      44.177  35.351  28.664  1.00  0.00     0.064 A 
ATOM     71  C   UNL A   1      45.429  35.975  28.539  1.00  0.00     0.173 A 
ATOM     72  C   UNL A   1      43.121  35.839  27.880  1.00  0.00     0.173 A 
ATOM     73  F   UNL A   1      46.468  35.558  29.278  1.00  0.00    -0.203 F 
ATOM     74  C   UNL A   1      45.605  37.068  27.694  1.00  0.00     0.198 A 
ATOM     75  C   UNL A   1      43.310  36.911  27.013  1.00  0.00     0.198 A 
ATOM     76  F   UNL A   1      41.906  35.277  27.957  1.00  0.00    -0.203 F 
ATOM     77  F   UNL A   1      46.792  37.688  27.641  1.00  0.00    -0.200 F 
ATOM     78  C   UNL A   1      44.546  37.533  26.929  1.00  0.00     0.200 A 
ATOM     79  F   UNL A   1      42.288  37.353  26.264  1.00  0.00    -0.200 F 
ATOM     80  F   UNL A   1      44.715  38.588  26.119  1.00  0.00    -0.200 F 
ENDBRANCH  56  70
BRANCH  57  81
ATOM     81  C   UNL A   1      43.088  27.414  34.606  1.00  0.00     0.064 A 
ATOM     82  C   UNL A   1      44.170  26.973  35.381  1.00  0.00     0.173 A 
ATOM     83  C   UNL A   1      41.881  26.708  34.709  1.00  0.00     0.173 A 
ATOM     84  F   UNL A   1      45.354  27.598  35.297  1.00  0.00    -0.203 F 
ATOM     85  C   UNL A   1      44.051  25.862  36.215  1.00  0.00     0.198 A 
ATOM     86  C   UNL A   1      41.756  25.614  35.562  1.00  0.00     0.198 A 
ATOM     87  F   UNL A   1      40.818  27.087  33.985  1.00  0.00    -0.203 F 
ATOM     88  F   UNL A   1      45.112  25.436  36.915  1.00  0.00    -0.200 F 
ATOM     89  C   UNL A   1      42.843  25.189  36.311  1.00  0.00     0.200 A 
ATOM     90  F   UNL A   1      40.583  24.973  35.660  1.00  0.00    -0.200 F 
ATOM     91  F   UNL A   1      42.728  24.126  37.118  1.00  0.00    -0.200 F 
ENDBRANCH  57  81
BRANCH  69  92
ATOM     92  C   UNL A   1      41.782  34.223  35.386  1.00  0.00     0.064 A 
ATOM     93  C   UNL A   1      40.398  34.312  35.604  1.00  0.00     0.173 A 
ATOM     94  C   UNL A   1      42.630  34.887  36.287  1.00  0.00     0.173 A 
ATOM     95  F   UNL A   1      39.543  33.707  34.766  1.00  0.00    -0.203 F 
ATOM     96  C   UNL A   1      39.886  35.063  36.660  1.00  0.00     0.198 A 
ATOM     97  C   UNL A   1      42.115  35.610  37.360  1.00  0.00     0.198 A 
ATOM     98  F   UNL A   1      43.961  34.828  36.132  1.00  0.00    -0.203 F 
ATOM     99  F   UNL A   1      38.559  35.178  36.816  1.00  0.00    -0.200 F 
ATOM    100  C   UNL A   1      40.744  35.705  37.541  1.00  0.00     0.200 A 
ATOM    101  F   UNL A   1      42.946  36.217  38.218  1.00  0.00    -0.200 F 
ATOM    102  F   UNL A   1      40.248  36.423  38.558  1.00  0.00    -0.200 F 
ENDBRANCH  69  92
ENDBRANCH  43  44
ENDBRANCH  36  38
ENDBRANCH  35  36
ENDBRANCH  34  35
ENDBRANCH  33  34
ENDBRANCH  32  33
ENDBRANCH  31  32
ENDBRANCH   1  31
TORSDOF 20
ENDMDL
