MODEL 1
REMARK VINA RESULT:     -11.7      0.000      0.000
REMARK SMILES CCc1ccc2c(CC(=O)OCCOCCOCCOC(=O)c3ccc(-c4c5nc(c(-c6c(F)c(F)c(F)c(F)c6F)c6ccc([nH]6)c(-c6c(F)c(F)c(F)c(F)c6F)c6nc(c(-c7c(F)c(F)c(F)c(F)c7F)c7ccc4[nH]7)C=C6)C=C5)cc3)c(C(=O)c3cc(C)ccn3)[nH]c2c1
REMARK SMILES IDX 15 1 14 2 13 3 12 4 11 5 9 6 10 7 8 8 7 9 3 10 4 11 98 12
REMARK SMILES IDX 5 13 97 14 6 15 96 16 86 17 2 19 1 20 87 21 88 22 89 23
REMARK SMILES IDX 90 24 95 25 91 26 94 27 92 28 93 29 16 30 17 31 18 32 19 33
REMARK SMILES IDX 20 34 21 35 22 36 23 37 24 38 85 39 25 40 84 41 26 42 27 43
REMARK SMILES IDX 28 44 78 45 29 46 83 47 77 48 79 49 30 50 82 51 76 52 75 53
REMARK SMILES IDX 31 55 63 56 43 57 62 58 44 59 47 60 61 61 80 62 45 63 46 64
REMARK SMILES IDX 60 66 81 67 48 68 32 69 33 70 41 71 34 72 35 73 39 74 42 75
REMARK SMILES IDX 36 76 37 77 40 78 38 79 64 80 65 81 73 82 66 83 67 84 71 85
REMARK SMILES IDX 74 86 68 87 69 88 72 89 70 90 49 91 50 92 58 93 51 94 52 95
REMARK SMILES IDX 56 96 59 97 53 98 54 99 57 100 55 101
REMARK H PARENT 96 18 79 54 47 65
REMARK Flexibility Score: inf
ROOT
ATOM      1  C   UNL A   1      30.560  28.251  22.422  1.00  0.00     0.188 C 
ENDROOT
BRANCH   1   2
ATOM      2  O   UNL A   1      30.743  26.929  21.922  1.00  0.00    -0.376 OA
BRANCH   2   3
ATOM      3  C   UNL A   1      31.858  26.184  22.392  1.00  0.00     0.202 C 
BRANCH   3   4
ATOM      4  C   UNL A   1      31.520  25.019  23.328  1.00  0.00     0.261 C 
BRANCH   4   5
ATOM      5  O   UNL A   1      31.859  23.741  22.746  1.00  0.00    -0.463 OA
BRANCH   5   6
ATOM      6  C   UNL A   1      33.146  23.332  22.879  1.00  0.00     0.310 C 
ATOM      7  O   UNL A   1      33.955  23.327  21.954  1.00  0.00    -0.252 OA
BRANCH   6   8
ATOM      8  C   UNL A   1      33.571  23.055  24.312  1.00  0.00     0.161 C 
BRANCH   8   9
ATOM      9  C   UNL A   1      34.327  21.786  24.628  1.00  0.00     0.000 A 
ATOM     10  C   UNL A   1      33.439  17.668  24.274  1.00  0.00    -0.046 A 
ATOM     11  C   UNL A   1      32.352  18.544  24.148  1.00  0.00     0.004 A 
ATOM     12  C   UNL A   1      34.692  18.177  24.642  1.00  0.00     0.030 A 
ATOM     13  C   UNL A   1      32.495  19.930  24.334  1.00  0.00     0.011 A 
ATOM     14  C   UNL A   1      34.821  19.561  24.786  1.00  0.00     0.046 A 
ATOM     15  C   UNL A   1      33.772  20.458  24.607  1.00  0.00     0.004 A 
ATOM     16  N   UNL A   1      35.936  20.305  25.063  1.00  0.00    -0.352 N 
ATOM     17  C   UNL A   1      35.720  21.614  24.690  1.00  0.00     0.093 A 
ATOM     18  H   UNL A   1      36.765  19.959  25.466  1.00  0.00     0.167 HD
BRANCH  10  19
ATOM     19  C   UNL A   1      33.282  16.212  23.899  1.00  0.00     0.032 C 
ATOM     20  C   UNL A   1      32.933  15.291  25.062  1.00  0.00     0.009 C 
ENDBRANCH  10  19
BRANCH  17  21
ATOM     21  C   UNL A   1      36.802  22.527  24.351  1.00  0.00     0.227 C 
ATOM     22  O   UNL A   1      36.890  23.098  23.267  1.00  0.00    -0.285 OA
BRANCH  21  23
ATOM     23  C   UNL A   1      37.897  22.742  25.343  1.00  0.00     0.113 A 
ATOM     24  C   UNL A   1      37.975  23.928  26.069  1.00  0.00     0.036 A 
ATOM     25  N   UNL A   1      38.756  21.702  25.498  1.00  0.00    -0.253 NA
ATOM     26  C   UNL A   1      38.979  24.044  27.038  1.00  0.00    -0.047 A 
ATOM     27  C   UNL A   1      39.669  21.819  26.485  1.00  0.00     0.112 A 
ATOM     28  C   UNL A   1      39.164  25.297  27.842  1.00  0.00     0.044 C 
ATOM     29  C   UNL A   1      39.811  22.947  27.275  1.00  0.00     0.023 A 
ENDBRANCH  21  23
ENDBRANCH  17  21
ENDBRANCH   8   9
ENDBRANCH   6   8
ENDBRANCH   5   6
ENDBRANCH   4   5
ENDBRANCH   3   4
ENDBRANCH   2   3
ENDBRANCH   1   2
BRANCH   1  30
ATOM     30  C   UNL A   1      31.594  28.832  23.411  1.00  0.00     0.188 C 
BRANCH  30  31
ATOM     31  O   UNL A   1      31.104  28.945  24.741  1.00  0.00    -0.376 OA
BRANCH  31  32
ATOM     32  C   UNL A   1      31.407  30.181  25.376  1.00  0.00     0.202 C 
BRANCH  32  33
ATOM     33  C   UNL A   1      32.103  29.955  26.715  1.00  0.00     0.261 C 
BRANCH  33  34
ATOM     34  O   UNL A   1      33.506  30.288  26.635  1.00  0.00    -0.460 OA
BRANCH  34  35
ATOM     35  C   UNL A   1      33.943  31.312  27.385  1.00  0.00     0.338 C 
ATOM     36  O   UNL A   1      33.390  32.398  27.541  1.00  0.00    -0.246 OA
BRANCH  35  37
ATOM     37  C   UNL A   1      35.253  30.982  27.990  1.00  0.00     0.060 A 
ATOM     38  C   UNL A   1      35.551  29.703  28.468  1.00  0.00     0.016 A 
ATOM     39  C   UNL A   1      36.174  32.012  28.182  1.00  0.00     0.016 A 
ATOM     40  C   UNL A   1      36.723  29.464  29.191  1.00  0.00     0.010 A 
ATOM     41  C   UNL A   1      37.378  31.756  28.844  1.00  0.00     0.010 A 
ATOM     42  C   UNL A   1      37.657  30.485  29.380  1.00  0.00    -0.014 A 
BRANCH  42  43
ATOM     43  C   UNL A   1      38.911  30.276  30.155  1.00  0.00     0.031 A 
ATOM     44  C   UNL A   1      39.996  29.402  29.592  1.00  0.00     0.074 A 
ATOM     45  C   UNL A   1      39.065  30.802  31.384  1.00  0.00     0.049 A 
ATOM     46  N   UNL A   1      40.996  28.818  30.202  1.00  0.00    -0.248 NA
ATOM     47  C   UNL A   1      39.934  29.144  28.147  1.00  0.00     0.031 C 
ATOM     48  C   UNL A   1      38.148  31.739  32.030  1.00  0.00     0.029 A 
ATOM     49  N   UNL A   1      40.043  30.585  32.327  1.00  0.00    -0.354 N 
ATOM     50  C   UNL A   1      41.645  28.070  29.229  1.00  0.00     0.074 A 
ATOM     51  C   UNL A   1      40.933  28.286  27.986  1.00  0.00     0.031 C 
ATOM     52  C   UNL A   1      38.591  32.000  33.269  1.00  0.00     0.029 A 
ATOM     53  C   UNL A   1      39.769  31.179  33.534  1.00  0.00     0.049 A 
ATOM     54  H   UNL A   1      40.856  30.058  32.153  1.00  0.00     0.167 HD
ATOM     55  C   UNL A   1      42.728  27.266  29.370  1.00  0.00     0.037 A 
ATOM     56  C   UNL A   1      40.349  31.026  34.741  1.00  0.00     0.037 A 
ATOM     57  C   UNL A   1      43.456  27.091  30.602  1.00  0.00     0.049 A 
ATOM     58  C   UNL A   1      41.504  30.076  34.898  1.00  0.00     0.074 A 
ATOM     59  C   UNL A   1      44.584  26.322  30.836  1.00  0.00     0.029 A 
ATOM     60  N   UNL A   1      43.130  27.696  31.808  1.00  0.00    -0.354 N 
ATOM     61  N   UNL A   1      42.084  29.322  33.997  1.00  0.00    -0.248 NA
ATOM     62  C   UNL A   1      42.073  29.942  36.247  1.00  0.00     0.031 C 
ATOM     63  C   UNL A   1      44.908  26.420  32.194  1.00  0.00     0.029 A 
ATOM     64  C   UNL A   1      44.016  27.293  32.796  1.00  0.00     0.049 A 
ATOM     65  H   UNL A   1      42.379  28.318  31.941  1.00  0.00     0.167 HD
ATOM     66  C   UNL A   1      43.091  28.637  34.662  1.00  0.00     0.074 A 
ATOM     67  C   UNL A   1      43.053  29.073  36.042  1.00  0.00     0.031 C 
ATOM     68  C   UNL A   1      43.968  27.728  34.169  1.00  0.00     0.037 A 
BRANCH  55  69
ATOM     69  C   UNL A   1      43.152  26.461  28.177  1.00  0.00     0.064 A 
ATOM     70  C   UNL A   1      43.890  27.016  27.121  1.00  0.00     0.173 A 
ATOM     71  C   UNL A   1      42.828  25.097  28.103  1.00  0.00     0.173 A 
ATOM     72  F   UNL A   1      44.213  28.317  27.133  1.00  0.00    -0.203 F 
ATOM     73  C   UNL A   1      44.257  26.242  26.022  1.00  0.00     0.198 A 
ATOM     74  C   UNL A   1      43.223  24.320  27.018  1.00  0.00     0.198 A 
ATOM     75  F   UNL A   1      42.129  24.514  29.089  1.00  0.00    -0.203 F 
ATOM     76  F   UNL A   1      44.912  26.807  24.998  1.00  0.00    -0.200 F 
ATOM     77  C   UNL A   1      43.929  24.896  25.973  1.00  0.00     0.200 A 
ATOM     78  F   UNL A   1      42.915  23.016  26.981  1.00  0.00    -0.200 F 
ATOM     79  F   UNL A   1      44.283  24.155  24.914  1.00  0.00    -0.200 F 
ENDBRANCH  55  69
BRANCH  56  80
ATOM     80  C   UNL A   1      39.788  31.751  35.909  1.00  0.00     0.064 A 
ATOM     81  C   UNL A   1      40.326  32.975  36.326  1.00  0.00     0.173 A 
ATOM     82  C   UNL A   1      38.680  31.250  36.610  1.00  0.00     0.173 A 
ATOM     83  F   UNL A   1      41.406  33.477  35.709  1.00  0.00    -0.203 F 
ATOM     84  C   UNL A   1      39.772  33.674  37.397  1.00  0.00     0.198 A 
ATOM     85  C   UNL A   1      38.109  31.963  37.660  1.00  0.00     0.198 A 
ATOM     86  F   UNL A   1      38.133  30.078  36.252  1.00  0.00    -0.203 F 
ATOM     87  F   UNL A   1      40.324  34.829  37.797  1.00  0.00    -0.200 F 
ATOM     88  C   UNL A   1      38.658  33.174  38.055  1.00  0.00     0.200 A 
ATOM     89  F   UNL A   1      37.026  31.482  38.284  1.00  0.00    -0.200 F 
ATOM     90  F   UNL A   1      38.116  33.856  39.073  1.00  0.00    -0.200 F 
ENDBRANCH  56  80
BRANCH  68  91
ATOM     91  C   UNL A   1      44.981  27.160  35.121  1.00  0.00     0.064 A 
ATOM     92  C   UNL A   1      44.748  25.967  35.821  1.00  0.00     0.173 A 
ATOM     93  C   UNL A   1      46.217  27.799  35.307  1.00  0.00     0.173 A 
ATOM     94  F   UNL A   1      43.576  25.327  35.690  1.00  0.00    -0.203 F 
ATOM     95  C   UNL A   1      45.707  25.444  36.686  1.00  0.00     0.198 A 
ATOM     96  C   UNL A   1      47.184  27.260  36.152  1.00  0.00     0.198 A 
ATOM     97  F   UNL A   1      46.492  28.940  34.659  1.00  0.00    -0.203 F 
ATOM     98  F   UNL A   1      45.446  24.325  37.375  1.00  0.00    -0.200 F 
ATOM     99  C   UNL A   1      46.926  26.087  36.845  1.00  0.00     0.200 A 
ATOM    100  F   UNL A   1      48.365  27.875  36.295  1.00  0.00    -0.200 F 
ATOM    101  F   UNL A   1      47.850  25.578  37.671  1.00  0.00    -0.200 F 
ENDBRANCH  68  91
ENDBRANCH  42  43
ENDBRANCH  35  37
ENDBRANCH  34  35
ENDBRANCH  33  34
ENDBRANCH  32  33
ENDBRANCH  31  32
ENDBRANCH  30  31
ENDBRANCH   1  30
TORSDOF 21
ENDMDL
MODEL 2
REMARK VINA RESULT:     -10.8      2.969      9.126
REMARK SMILES CCc1ccc2c(CC(=O)OCCOCCOCCOC(=O)c3ccc(-c4c5nc(c(-c6c(F)c(F)c(F)c(F)c6F)c6ccc([nH]6)c(-c6c(F)c(F)c(F)c(F)c6F)c6nc(c(-c7c(F)c(F)c(F)c(F)c7F)c7ccc4[nH]7)C=C6)C=C5)cc3)c(C(=O)c3cc(C)ccn3)[nH]c2c1
REMARK SMILES IDX 15 1 14 2 13 3 12 4 11 5 9 6 10 7 8 8 7 9 3 10 4 11 98 12
REMARK SMILES IDX 5 13 97 14 6 15 96 16 86 17 2 19 1 20 87 21 88 22 89 23
REMARK SMILES IDX 90 24 95 25 91 26 94 27 92 28 93 29 16 30 17 31 18 32 19 33
REMARK SMILES IDX 20 34 21 35 22 36 23 37 24 38 85 39 25 40 84 41 26 42 27 43
REMARK SMILES IDX 28 44 78 45 29 46 83 47 77 48 79 49 30 50 82 51 76 52 75 53
REMARK SMILES IDX 31 55 63 56 43 57 62 58 44 59 47 60 61 61 80 62 45 63 46 64
REMARK SMILES IDX 60 66 81 67 48 68 32 69 33 70 41 71 34 72 35 73 39 74 42 75
REMARK SMILES IDX 36 76 37 77 40 78 38 79 64 80 65 81 73 82 66 83 67 84 71 85
REMARK SMILES IDX 74 86 68 87 69 88 72 89 70 90 49 91 50 92 58 93 51 94 52 95
REMARK SMILES IDX 56 96 59 97 53 98 54 99 57 100 55 101
REMARK H PARENT 96 18 79 54 47 65
REMARK Flexibility Score: inf
ROOT
ATOM      1  C   UNL A   1      34.476  32.560  28.951  1.00  0.00     0.188 C 
ENDROOT
BRANCH   1   2
ATOM      2  O   UNL A   1      34.932  31.282  28.514  1.00  0.00    -0.376 OA
BRANCH   2   3
ATOM      3  C   UNL A   1      34.098  30.538  27.635  1.00  0.00     0.202 C 
BRANCH   3   4
ATOM      4  C   UNL A   1      34.620  29.148  27.256  1.00  0.00     0.261 C 
BRANCH   4   5
ATOM      5  O   UNL A   1      34.020  28.659  26.037  1.00  0.00    -0.463 OA
BRANCH   5   6
ATOM      6  C   UNL A   1      33.671  27.348  26.012  1.00  0.00     0.310 C 
ATOM      7  O   UNL A   1      34.440  26.447  25.687  1.00  0.00    -0.252 OA
BRANCH   6   8
ATOM      8  C   UNL A   1      32.300  27.054  26.601  1.00  0.00     0.161 C 
BRANCH   8   9
ATOM      9  C   UNL A   1      31.118  26.883  25.676  1.00  0.00     0.000 A 
ATOM     10  C   UNL A   1      29.317  29.315  22.725  1.00  0.00    -0.046 A 
ATOM     11  C   UNL A   1      30.227  29.956  23.578  1.00  0.00     0.004 A 
ATOM     12  C   UNL A   1      28.958  27.985  22.979  1.00  0.00     0.030 A 
ATOM     13  C   UNL A   1      30.827  29.284  24.657  1.00  0.00     0.011 A 
ATOM     14  C   UNL A   1      29.593  27.324  24.034  1.00  0.00     0.046 A 
ATOM     15  C   UNL A   1      30.544  27.918  24.857  1.00  0.00     0.004 A 
ATOM     16  N   UNL A   1      29.476  26.021  24.438  1.00  0.00    -0.352 N 
ATOM     17  C   UNL A   1      30.567  25.679  25.206  1.00  0.00     0.093 A 
ATOM     18  H   UNL A   1      28.728  25.422  24.215  1.00  0.00     0.167 HD
BRANCH  10  19
ATOM     19  C   UNL A   1      28.828  30.018  21.479  1.00  0.00     0.032 C 
ATOM     20  C   UNL A   1      27.908  31.204  21.740  1.00  0.00     0.009 C 
ENDBRANCH  10  19
BRANCH  17  21
ATOM     21  C   UNL A   1      31.031  24.307  25.351  1.00  0.00     0.227 C 
ATOM     22  O   UNL A   1      30.510  23.493  26.109  1.00  0.00    -0.285 OA
BRANCH  21  23
ATOM     23  C   UNL A   1      32.240  23.873  24.588  1.00  0.00     0.113 A 
ATOM     24  C   UNL A   1      33.050  22.846  25.066  1.00  0.00     0.036 A 
ATOM     25  N   UNL A   1      32.449  24.517  23.412  1.00  0.00    -0.253 NA
ATOM     26  C   UNL A   1      34.127  22.432  24.272  1.00  0.00    -0.047 A 
ATOM     27  C   UNL A   1      33.452  24.049  22.640  1.00  0.00     0.112 A 
ATOM     28  C   UNL A   1      35.076  21.360  24.720  1.00  0.00     0.044 C 
ATOM     29  C   UNL A   1      34.299  23.020  23.017  1.00  0.00     0.023 A 
ENDBRANCH  21  23
ENDBRANCH  17  21
ENDBRANCH   8   9
ENDBRANCH   6   8
ENDBRANCH   5   6
ENDBRANCH   4   5
ENDBRANCH   3   4
ENDBRANCH   2   3
ENDBRANCH   1   2
BRANCH   1  30
ATOM     30  C   UNL A   1      33.650  33.437  27.985  1.00  0.00     0.188 C 
BRANCH  30  31
ATOM     31  O   UNL A   1      32.834  34.395  28.647  1.00  0.00    -0.376 OA
BRANCH  31  32
ATOM     32  C   UNL A   1      33.487  35.624  28.936  1.00  0.00     0.202 C 
BRANCH  32  33
ATOM     33  C   UNL A   1      32.544  36.598  29.636  1.00  0.00     0.261 C 
BRANCH  33  34
ATOM     34  O   UNL A   1      33.059  36.983  30.928  1.00  0.00    -0.460 OA
BRANCH  34  35
ATOM     35  C   UNL A   1      32.697  36.240  31.986  1.00  0.00     0.338 C 
ATOM     36  O   UNL A   1      31.668  36.357  32.649  1.00  0.00    -0.246 OA
BRANCH  35  37
ATOM     37  C   UNL A   1      33.751  35.252  32.306  1.00  0.00     0.060 A 
ATOM     38  C   UNL A   1      33.454  33.984  32.813  1.00  0.00     0.016 A 
ATOM     39  C   UNL A   1      35.084  35.644  32.193  1.00  0.00     0.016 A 
ATOM     40  C   UNL A   1      34.469  33.140  33.269  1.00  0.00     0.010 A 
ATOM     41  C   UNL A   1      36.103  34.771  32.586  1.00  0.00     0.010 A 
ATOM     42  C   UNL A   1      35.809  33.518  33.153  1.00  0.00    -0.014 A 
BRANCH  42  43
ATOM     43  C   UNL A   1      36.919  32.654  33.639  1.00  0.00     0.031 A 
ATOM     44  C   UNL A   1      37.543  32.928  34.978  1.00  0.00     0.074 A 
ATOM     45  C   UNL A   1      37.422  31.670  32.870  1.00  0.00     0.049 A 
ATOM     46  N   UNL A   1      38.701  32.542  35.453  1.00  0.00    -0.248 NA
ATOM     47  C   UNL A   1      36.757  33.759  35.900  1.00  0.00     0.031 C 
ATOM     48  C   UNL A   1      36.873  31.223  31.592  1.00  0.00     0.029 A 
ATOM     49  N   UNL A   1      38.542  30.891  33.046  1.00  0.00    -0.354 N 
ATOM     50  C   UNL A   1      38.812  33.138  36.702  1.00  0.00     0.074 A 
ATOM     51  C   UNL A   1      37.598  33.898  36.917  1.00  0.00     0.031 C 
ATOM     52  C   UNL A   1      37.667  30.268  31.086  1.00  0.00     0.029 A 
ATOM     53  C   UNL A   1      38.825  30.102  31.958  1.00  0.00     0.049 A 
ATOM     54  H   UNL A   1      39.085  30.899  33.867  1.00  0.00     0.167 HD
ATOM     55  C   UNL A   1      39.844  33.064  37.579  1.00  0.00     0.037 A 
ATOM     56  C   UNL A   1      39.925  29.384  31.656  1.00  0.00     0.037 A 
ATOM     57  C   UNL A   1      41.030  32.270  37.375  1.00  0.00     0.049 A 
ATOM     58  C   UNL A   1      41.090  29.369  32.604  1.00  0.00     0.074 A 
ATOM     59  C   UNL A   1      42.115  32.107  38.220  1.00  0.00     0.029 A 
ATOM     60  N   UNL A   1      41.285  31.503  36.248  1.00  0.00    -0.354 N 
ATOM     61  N   UNL A   1      41.226  29.977  33.757  1.00  0.00    -0.248 NA
ATOM     62  C   UNL A   1      42.265  28.583  32.199  1.00  0.00     0.031 C 
ATOM     63  C   UNL A   1      43.049  31.285  37.580  1.00  0.00     0.029 A 
ATOM     64  C   UNL A   1      42.523  30.889  36.361  1.00  0.00     0.049 A 
ATOM     65  H   UNL A   1      40.676  31.409  35.480  1.00  0.00     0.167 HD
ATOM     66  C   UNL A   1      42.489  29.637  34.222  1.00  0.00     0.074 A 
ATOM     67  C   UNL A   1      43.078  28.759  33.232  1.00  0.00     0.031 C 
ATOM     68  C   UNL A   1      43.104  30.021  35.368  1.00  0.00     0.037 A 
BRANCH  55  69
ATOM     69  C   UNL A   1      39.767  33.917  38.811  1.00  0.00     0.064 A 
ATOM     70  C   UNL A   1      39.185  33.462  40.003  1.00  0.00     0.173 A 
ATOM     71  C   UNL A   1      40.308  35.213  38.799  1.00  0.00     0.173 A 
ATOM     72  F   UNL A   1      38.640  32.239  40.066  1.00  0.00    -0.203 F 
ATOM     73  C   UNL A   1      39.119  34.286  41.126  1.00  0.00     0.198 A 
ATOM     74  C   UNL A   1      40.267  36.021  39.931  1.00  0.00     0.198 A 
ATOM     75  F   UNL A   1      40.881  35.696  37.686  1.00  0.00    -0.203 F 
ATOM     76  F   UNL A   1      38.508  33.850  42.237  1.00  0.00    -0.200 F 
ATOM     77  C   UNL A   1      39.664  35.560  41.091  1.00  0.00     0.200 A 
ATOM     78  F   UNL A   1      40.806  37.248  39.898  1.00  0.00    -0.200 F 
ATOM     79  F   UNL A   1      39.598  36.350  42.173  1.00  0.00    -0.200 F 
ENDBRANCH  55  69
BRANCH  56  80
ATOM     80  C   UNL A   1      39.988  28.674  30.352  1.00  0.00     0.064 A 
ATOM     81  C   UNL A   1      39.393  27.417  30.185  1.00  0.00     0.173 A 
ATOM     82  C   UNL A   1      40.613  29.256  29.239  1.00  0.00     0.173 A 
ATOM     83  F   UNL A   1      38.813  26.807  31.229  1.00  0.00    -0.203 F 
ATOM     84  C   UNL A   1      39.417  26.771  28.950  1.00  0.00     0.198 A 
ATOM     85  C   UNL A   1      40.611  28.623  27.999  1.00  0.00     0.198 A 
ATOM     86  F   UNL A   1      41.202  30.456  29.351  1.00  0.00    -0.203 F 
ATOM     87  F   UNL A   1      38.869  25.554  28.823  1.00  0.00    -0.200 F 
ATOM     88  C   UNL A   1      40.016  27.379  27.856  1.00  0.00     0.200 A 
ATOM     89  F   UNL A   1      41.179  29.220  26.943  1.00  0.00    -0.200 F 
ATOM     90  F   UNL A   1      40.023  26.764  26.666  1.00  0.00    -0.200 F 
ENDBRANCH  56  80
BRANCH  68  91
ATOM     91  C   UNL A   1      44.477  29.472  35.632  1.00  0.00     0.064 A 
ATOM     92  C   UNL A   1      45.634  30.152  35.224  1.00  0.00     0.173 A 
ATOM     93  C   UNL A   1      44.637  28.268  36.336  1.00  0.00     0.173 A 
ATOM     94  F   UNL A   1      45.534  31.298  34.534  1.00  0.00    -0.203 F 
ATOM     95  C   UNL A   1      46.900  29.638  35.494  1.00  0.00     0.198 A 
ATOM     96  C   UNL A   1      45.905  27.770  36.627  1.00  0.00     0.198 A 
ATOM     97  F   UNL A   1      43.564  27.580  36.752  1.00  0.00    -0.203 F 
ATOM     98  F   UNL A   1      47.990  30.284  35.058  1.00  0.00    -0.200 F 
ATOM     99  C   UNL A   1      47.035  28.452  36.200  1.00  0.00     0.200 A 
ATOM    100  F   UNL A   1      46.033  26.631  37.321  1.00  0.00    -0.200 F 
ATOM    101  F   UNL A   1      48.253  27.963  36.466  1.00  0.00    -0.200 F 
ENDBRANCH  68  91
ENDBRANCH  42  43
ENDBRANCH  35  37
ENDBRANCH  34  35
ENDBRANCH  33  34
ENDBRANCH  32  33
ENDBRANCH  31  32
ENDBRANCH  30  31
ENDBRANCH   1  30
TORSDOF 21
ENDMDL
MODEL 3
REMARK VINA RESULT:     -10.8      0.863      3.709
REMARK SMILES CCc1ccc2c(CC(=O)OCCOCCOCCOC(=O)c3ccc(-c4c5nc(c(-c6c(F)c(F)c(F)c(F)c6F)c6ccc([nH]6)c(-c6c(F)c(F)c(F)c(F)c6F)c6nc(c(-c7c(F)c(F)c(F)c(F)c7F)c7ccc4[nH]7)C=C6)C=C5)cc3)c(C(=O)c3cc(C)ccn3)[nH]c2c1
REMARK SMILES IDX 15 1 14 2 13 3 12 4 11 5 9 6 10 7 8 8 7 9 3 10 4 11 98 12
REMARK SMILES IDX 5 13 97 14 6 15 96 16 86 17 2 19 1 20 87 21 88 22 89 23
REMARK SMILES IDX 90 24 95 25 91 26 94 27 92 28 93 29 16 30 17 31 18 32 19 33
REMARK SMILES IDX 20 34 21 35 22 36 23 37 24 38 85 39 25 40 84 41 26 42 27 43
REMARK SMILES IDX 28 44 78 45 29 46 83 47 77 48 79 49 30 50 82 51 76 52 75 53
REMARK SMILES IDX 31 55 63 56 43 57 62 58 44 59 47 60 61 61 80 62 45 63 46 64
REMARK SMILES IDX 60 66 81 67 48 68 32 69 33 70 41 71 34 72 35 73 39 74 42 75
REMARK SMILES IDX 36 76 37 77 40 78 38 79 64 80 65 81 73 82 66 83 67 84 71 85
REMARK SMILES IDX 74 86 68 87 69 88 72 89 70 90 49 91 50 92 58 93 51 94 52 95
REMARK SMILES IDX 56 96 59 97 53 98 54 99 57 100 55 101
REMARK H PARENT 96 18 79 54 47 65
REMARK Flexibility Score: inf
ROOT
ATOM      1  C   UNL A   1      30.382  27.911  23.069  1.00  0.00     0.188 C 
ENDROOT
BRANCH   1   2
ATOM      2  O   UNL A   1      30.005  26.574  22.746  1.00  0.00    -0.376 OA
BRANCH   2   3
ATOM      3  C   UNL A   1      31.007  25.568  22.784  1.00  0.00     0.202 C 
BRANCH   3   4
ATOM      4  C   UNL A   1      30.779  24.454  23.812  1.00  0.00     0.261 C 
BRANCH   4   5
ATOM      5  O   UNL A   1      31.083  23.149  23.273  1.00  0.00    -0.463 OA
BRANCH   5   6
ATOM      6  C   UNL A   1      32.394  22.861  23.075  1.00  0.00     0.310 C 
ATOM      7  O   UNL A   1      32.870  22.590  21.976  1.00  0.00    -0.252 OA
BRANCH   6   8
ATOM      8  C   UNL A   1      33.275  23.081  24.295  1.00  0.00     0.161 C 
BRANCH   8   9
ATOM      9  C   UNL A   1      34.418  22.131  24.563  1.00  0.00     0.000 A 
ATOM     10  C   UNL A   1      38.339  22.600  26.073  1.00  0.00    -0.046 A 
ATOM     11  C   UNL A   1      37.681  23.779  25.695  1.00  0.00     0.004 A 
ATOM     12  C   UNL A   1      37.739  21.363  25.805  1.00  0.00     0.030 A 
ATOM     13  C   UNL A   1      36.410  23.756  25.096  1.00  0.00     0.011 A 
ATOM     14  C   UNL A   1      36.460  21.363  25.241  1.00  0.00     0.046 A 
ATOM     15  C   UNL A   1      35.760  22.519  24.913  1.00  0.00     0.004 A 
ATOM     16  N   UNL A   1      35.638  20.306  24.953  1.00  0.00    -0.352 N 
ATOM     17  C   UNL A   1      34.341  20.753  24.827  1.00  0.00     0.093 A 
ATOM     18  H   UNL A   1      35.929  19.371  24.852  1.00  0.00     0.167 HD
BRANCH  10  19
ATOM     19  C   UNL A   1      39.623  22.675  26.869  1.00  0.00     0.032 C 
ATOM     20  C   UNL A   1      40.391  21.362  26.957  1.00  0.00     0.009 C 
ENDBRANCH  10  19
BRANCH  17  21
ATOM     21  C   UNL A   1      33.186  19.896  25.047  1.00  0.00     0.227 C 
ATOM     22  O   UNL A   1      32.091  20.317  25.415  1.00  0.00    -0.285 OA
BRANCH  21  23
ATOM     23  C   UNL A   1      33.344  18.420  24.878  1.00  0.00     0.113 A 
ATOM     24  C   UNL A   1      32.610  17.534  25.662  1.00  0.00     0.036 A 
ATOM     25  N   UNL A   1      34.205  18.035  23.902  1.00  0.00    -0.253 NA
ATOM     26  C   UNL A   1      32.744  16.163  25.408  1.00  0.00    -0.047 A 
ATOM     27  C   UNL A   1      34.259  16.712  23.637  1.00  0.00     0.112 A 
ATOM     28  C   UNL A   1      32.024  15.131  26.224  1.00  0.00     0.044 C 
ATOM     29  C   UNL A   1      33.553  15.754  24.345  1.00  0.00     0.023 A 
ENDBRANCH  21  23
ENDBRANCH  17  21
ENDBRANCH   8   9
ENDBRANCH   6   8
ENDBRANCH   5   6
ENDBRANCH   4   5
ENDBRANCH   3   4
ENDBRANCH   2   3
ENDBRANCH   1   2
BRANCH   1  30
ATOM     30  C   UNL A   1      31.635  28.150  23.939  1.00  0.00     0.188 C 
BRANCH  30  31
ATOM     31  O   UNL A   1      31.336  28.644  25.238  1.00  0.00    -0.376 OA
BRANCH  31  32
ATOM     32  C   UNL A   1      31.496  30.049  25.384  1.00  0.00     0.202 C 
BRANCH  32  33
ATOM     33  C   UNL A   1      32.060  30.399  26.758  1.00  0.00     0.261 C 
BRANCH  33  34
ATOM     34  O   UNL A   1      33.445  30.793  26.668  1.00  0.00    -0.460 OA
BRANCH  34  35
ATOM     35  C   UNL A   1      33.871  31.759  27.498  1.00  0.00     0.338 C 
ATOM     36  O   UNL A   1      33.305  32.823  27.739  1.00  0.00    -0.246 OA
BRANCH  35  37
ATOM     37  C   UNL A   1      35.184  31.397  28.077  1.00  0.00     0.060 A 
ATOM     38  C   UNL A   1      35.432  30.137  28.627  1.00  0.00     0.016 A 
ATOM     39  C   UNL A   1      36.164  32.384  28.168  1.00  0.00     0.016 A 
ATOM     40  C   UNL A   1      36.616  29.880  29.323  1.00  0.00     0.010 A 
ATOM     41  C   UNL A   1      37.378  32.105  28.803  1.00  0.00     0.010 A 
ATOM     42  C   UNL A   1      37.609  30.858  29.412  1.00  0.00    -0.014 A 
BRANCH  42  43
ATOM     43  C   UNL A   1      38.879  30.630  30.155  1.00  0.00     0.031 A 
ATOM     44  C   UNL A   1      39.946  29.758  29.554  1.00  0.00     0.074 A 
ATOM     45  C   UNL A   1      39.064  31.137  31.388  1.00  0.00     0.049 A 
ATOM     46  N   UNL A   1      40.957  29.159  30.132  1.00  0.00    -0.248 NA
ATOM     47  C   UNL A   1      39.849  29.523  28.107  1.00  0.00     0.031 C 
ATOM     48  C   UNL A   1      38.169  32.069  32.068  1.00  0.00     0.029 A 
ATOM     49  N   UNL A   1      40.063  30.900  32.304  1.00  0.00    -0.354 N 
ATOM     50  C   UNL A   1      41.578  28.423  29.133  1.00  0.00     0.074 A 
ATOM     51  C   UNL A   1      40.839  28.662  27.910  1.00  0.00     0.031 C 
ATOM     52  C   UNL A   1      38.642  32.308  33.301  1.00  0.00     0.029 A 
ATOM     53  C   UNL A   1      39.820  31.476  33.526  1.00  0.00     0.049 A 
ATOM     54  H   UNL A   1      40.868  30.370  32.104  1.00  0.00     0.167 HD
ATOM     55  C   UNL A   1      42.659  27.610  29.237  1.00  0.00     0.037 A 
ATOM     56  C   UNL A   1      40.427  31.302  34.717  1.00  0.00     0.037 A 
ATOM     57  C   UNL A   1      43.414  27.412  30.449  1.00  0.00     0.049 A 
ATOM     58  C   UNL A   1      41.579  30.343  34.833  1.00  0.00     0.074 A 
ATOM     59  C   UNL A   1      44.542  26.634  30.646  1.00  0.00     0.029 A 
ATOM     60  N   UNL A   1      43.119  28.001  31.671  1.00  0.00    -0.354 N 
ATOM     61  N   UNL A   1      42.133  29.600  33.908  1.00  0.00    -0.248 NA
ATOM     62  C   UNL A   1      42.178  30.185  36.167  1.00  0.00     0.031 C 
ATOM     63  C   UNL A   1      44.898  26.709  31.997  1.00  0.00     0.029 A 
ATOM     64  C   UNL A   1      44.026  27.578  32.632  1.00  0.00     0.049 A 
ATOM     65  H   UNL A   1      42.375  28.625  31.831  1.00  0.00     0.167 HD
ATOM     66  C   UNL A   1      43.151  28.899  34.539  1.00  0.00     0.074 A 
ATOM     67  C   UNL A   1      43.148  29.314  35.926  1.00  0.00     0.031 C 
ATOM     68  C   UNL A   1      44.011  27.992  34.013  1.00  0.00     0.037 A 
BRANCH  55  69
ATOM     69  C   UNL A   1      43.051  26.821  28.022  1.00  0.00     0.064 A 
ATOM     70  C   UNL A   1      42.639  25.495  27.824  1.00  0.00     0.173 A 
ATOM     71  C   UNL A   1      43.841  27.418  27.027  1.00  0.00     0.173 A 
ATOM     72  F   UNL A   1      41.896  24.872  28.750  1.00  0.00    -0.203 F 
ATOM     73  C   UNL A   1      43.032  24.787  26.690  1.00  0.00     0.198 A 
ATOM     74  C   UNL A   1      44.206  26.717  25.881  1.00  0.00     0.198 A 
ATOM     75  F   UNL A   1      44.258  28.686  27.164  1.00  0.00    -0.203 F 
ATOM     76  F   UNL A   1      42.674  23.503  26.548  1.00  0.00    -0.200 F 
ATOM     77  C   UNL A   1      43.809  25.399  25.718  1.00  0.00     0.200 A 
ATOM     78  F   UNL A   1      44.947  27.316  24.938  1.00  0.00    -0.200 F 
ATOM     79  F   UNL A   1      44.186  24.714  24.628  1.00  0.00    -0.200 F 
ENDBRANCH  55  69
BRANCH  56  80
ATOM     80  C   UNL A   1      39.897  32.012  35.909  1.00  0.00     0.064 A 
ATOM     81  C   UNL A   1      38.793  31.516  36.614  1.00  0.00     0.173 A 
ATOM     82  C   UNL A   1      40.507  33.183  36.387  1.00  0.00     0.173 A 
ATOM     83  F   UNL A   1      38.157  30.420  36.176  1.00  0.00    -0.203 F 
ATOM     84  C   UNL A   1      38.323  32.161  37.756  1.00  0.00     0.198 A 
ATOM     85  C   UNL A   1      40.055  33.809  37.544  1.00  0.00     0.198 A 
ATOM     86  F   UNL A   1      41.564  33.700  35.742  1.00  0.00    -0.203 F 
ATOM     87  F   UNL A   1      37.246  31.684  38.396  1.00  0.00    -0.200 F 
ATOM     88  C   UNL A   1      38.961  33.300  38.227  1.00  0.00     0.200 A 
ATOM     89  F   UNL A   1      40.682  34.901  38.002  1.00  0.00    -0.200 F 
ATOM     90  F   UNL A   1      38.518  33.909  39.335  1.00  0.00    -0.200 F 
ENDBRANCH  56  80
BRANCH  68  91
ATOM     91  C   UNL A   1      45.043  27.404  34.933  1.00  0.00     0.064 A 
ATOM     92  C   UNL A   1      46.277  28.031  35.154  1.00  0.00     0.173 A 
ATOM     93  C   UNL A   1      44.776  26.216  35.631  1.00  0.00     0.173 A 
ATOM     94  F   UNL A   1      46.586  29.161  34.499  1.00  0.00    -0.203 F 
ATOM     95  C   UNL A   1      47.214  27.482  36.025  1.00  0.00     0.198 A 
ATOM     96  C   UNL A   1      45.705  25.682  36.521  1.00  0.00     0.198 A 
ATOM     97  F   UNL A   1      43.610  25.577  35.459  1.00  0.00    -0.203 F 
ATOM     98  F   UNL A   1      48.404  28.077  36.190  1.00  0.00    -0.200 F 
ATOM     99  C   UNL A   1      46.925  26.312  36.713  1.00  0.00     0.200 A 
ATOM    100  F   UNL A   1      45.418  24.560  37.194  1.00  0.00    -0.200 F 
ATOM    101  F   UNL A   1      47.825  25.790  37.557  1.00  0.00    -0.200 F 
ENDBRANCH  68  91
ENDBRANCH  42  43
ENDBRANCH  35  37
ENDBRANCH  34  35
ENDBRANCH  33  34
ENDBRANCH  32  33
ENDBRANCH  31  32
ENDBRANCH  30  31
ENDBRANCH   1  30
TORSDOF 21
ENDMDL
