MODEL 1
REMARK VINA RESULT:     -11.7      0.000      0.000
REMARK SMILES O=C(OCCOCCOCCOC(=O)[C@H]1CC=CC[C@H]1C(=O)N[C@@H]1CCN(c2cccc(Cl)c2)C1)c1ccc(-c2c3nc(c(-c4c(F)c(F)c(F)c(F)c4F)c4ccc([nH]4)c(-c4c(F)c(F)c(F)c(F)c4F)c4nc(c(-c5c(F)c(F)c(F)c(F)c5F)c5ccc2[nH]5)C=C4)C=C3)cc1
REMARK SMILES IDX 8 1 7 2 6 3 5 4 4 5 3 6 2 7 1 8 36 9 37 10 98 11 38 12 97 13
REMARK SMILES IDX 39 14 40 15 41 16 91 17 42 18 96 19 90 20 92 21 43 22 95 23
REMARK SMILES IDX 89 24 88 25 44 27 76 28 56 29 75 30 57 31 60 32 74 33 93 34
REMARK SMILES IDX 58 35 59 36 73 38 94 39 61 40 45 41 46 42 54 43 47 44 48 45
REMARK SMILES IDX 52 46 55 47 49 48 50 49 53 50 51 51 77 52 78 53 86 54 79 55
REMARK SMILES IDX 80 56 84 57 87 58 81 59 82 60 85 61 83 62 62 63 63 64 71 65
REMARK SMILES IDX 64 66 65 67 69 68 72 69 66 70 67 71 70 72 68 73 9 74 10 75
REMARK SMILES IDX 11 76 12 77 13 78 14 79 15 80 16 81 20 82 17 83 19 84 18 85
REMARK SMILES IDX 21 86 22 87 23 88 24 90 25 91 35 92 26 93 27 94 28 95 29 96
REMARK SMILES IDX 34 97 30 98 32 99 31 100 33 101
REMARK H PARENT 92 26 60 37 23 89
REMARK Flexibility Score: inf
ROOT
ATOM      1  C   UNL A   1      31.714  28.732  27.623  1.00  0.00     0.188 C 
ENDROOT
BRANCH   1   2
ATOM      2  C   UNL A   1      33.114  28.885  27.068  1.00  0.00     0.188 C 
BRANCH   2   3
ATOM      3  O   UNL A   1      33.370  30.197  26.574  1.00  0.00    -0.376 OA
BRANCH   3   4
ATOM      4  C   UNL A   1      33.049  31.226  27.502  1.00  0.00     0.202 C 
BRANCH   4   5
ATOM      5  C   UNL A   1      32.466  32.505  26.875  1.00  0.00     0.261 C 
BRANCH   5   6
ATOM      6  O   UNL A   1      32.175  33.616  27.757  1.00  0.00    -0.460 OA
BRANCH   6   7
ATOM      7  C   UNL A   1      32.938  34.416  28.538  1.00  0.00     0.338 C 
ATOM      8  O   UNL A   1      32.599  35.593  28.661  1.00  0.00    -0.246 OA
BRANCH   7   9
ATOM      9  C   UNL A   1      34.207  33.997  29.214  1.00  0.00     0.060 A 
ATOM     10  C   UNL A   1      35.483  34.248  28.721  1.00  0.00     0.016 A 
ATOM     11  C   UNL A   1      34.102  33.316  30.447  1.00  0.00     0.016 A 
ATOM     12  C   UNL A   1      36.618  33.917  29.446  1.00  0.00     0.010 A 
ATOM     13  C   UNL A   1      35.240  32.894  31.146  1.00  0.00     0.010 A 
ATOM     14  C   UNL A   1      36.502  33.188  30.628  1.00  0.00    -0.014 A 
BRANCH  14  15
ATOM     15  C   UNL A   1      37.735  32.512  31.069  1.00  0.00     0.031 A 
ATOM     16  C   UNL A   1      38.220  32.841  32.449  1.00  0.00     0.074 A 
ATOM     17  C   UNL A   1      38.220  31.468  30.379  1.00  0.00     0.049 A 
ATOM     18  N   UNL A   1      39.161  32.279  33.154  1.00  0.00    -0.248 NA
ATOM     19  C   UNL A   1      37.499  33.918  33.153  1.00  0.00     0.031 C 
ATOM     20  C   UNL A   1      37.689  30.992  29.104  1.00  0.00     0.029 A 
ATOM     21  N   UNL A   1      39.231  30.592  30.673  1.00  0.00    -0.354 N 
ATOM     22  C   UNL A   1      39.128  32.914  34.387  1.00  0.00     0.074 A 
ATOM     23  C   UNL A   1      38.091  33.916  34.335  1.00  0.00     0.031 C 
ATOM     24  C   UNL A   1      38.383  29.905  28.724  1.00  0.00     0.029 A 
ATOM     25  C   UNL A   1      39.425  29.637  29.705  1.00  0.00     0.049 A 
ATOM     26  H   UNL A   1      39.766  30.642  31.498  1.00  0.00     0.167 HD
ATOM     27  C   UNL A   1      39.900  32.671  35.469  1.00  0.00     0.037 A 
ATOM     28  C   UNL A   1      40.363  28.675  29.620  1.00  0.00     0.037 A 
ATOM     29  C   UNL A   1      40.961  31.704  35.470  1.00  0.00     0.049 A 
ATOM     30  C   UNL A   1      41.324  28.539  30.771  1.00  0.00     0.074 A 
ATOM     31  C   UNL A   1      41.905  31.452  36.445  1.00  0.00     0.029 A 
ATOM     32  N   UNL A   1      41.221  30.835  34.417  1.00  0.00    -0.354 N 
ATOM     33  N   UNL A   1      41.341  29.190  31.912  1.00  0.00    -0.248 NA
ATOM     34  C   UNL A   1      42.392  27.544  30.632  1.00  0.00     0.031 C 
ATOM     35  C   UNL A   1      42.768  30.463  35.961  1.00  0.00     0.029 A 
ATOM     36  C   UNL A   1      42.324  30.053  34.712  1.00  0.00     0.049 A 
ATOM     37  H   UNL A   1      40.697  30.781  33.585  1.00  0.00     0.167 HD
ATOM     38  C   UNL A   1      42.405  28.672  32.634  1.00  0.00     0.074 A 
ATOM     39  C   UNL A   1      42.990  27.631  31.811  1.00  0.00     0.031 C 
ATOM     40  C   UNL A   1      42.867  29.024  33.859  1.00  0.00     0.037 A 
BRANCH  27  41
ATOM     41  C   UNL A   1      39.661  33.527  36.676  1.00  0.00     0.064 A 
ATOM     42  C   UNL A   1      38.803  33.124  37.712  1.00  0.00     0.173 A 
ATOM     43  C   UNL A   1      40.256  34.793  36.772  1.00  0.00     0.173 A 
ATOM     44  F   UNL A   1      38.179  31.939  37.649  1.00  0.00    -0.203 F 
ATOM     45  C   UNL A   1      38.531  33.970  38.785  1.00  0.00     0.198 A 
ATOM     46  C   UNL A   1      40.002  35.625  37.860  1.00  0.00     0.198 A 
ATOM     47  F   UNL A   1      41.070  35.233  35.800  1.00  0.00    -0.203 F 
ATOM     48  F   UNL A   1      37.659  33.591  39.732  1.00  0.00    -0.200 F 
ATOM     49  C   UNL A   1      39.132  35.217  38.860  1.00  0.00     0.200 A 
ATOM     50  F   UNL A   1      40.584  36.830  37.928  1.00  0.00    -0.200 F 
ATOM     51  F   UNL A   1      38.862  36.034  39.887  1.00  0.00    -0.200 F 
ENDBRANCH  27  41
BRANCH  28  52
ATOM     52  C   UNL A   1      40.481  27.828  28.398  1.00  0.00     0.064 A 
ATOM     53  C   UNL A   1      39.840  26.586  28.287  1.00  0.00     0.173 A 
ATOM     54  C   UNL A   1      41.294  28.230  27.323  1.00  0.00     0.173 A 
ATOM     55  F   UNL A   1      39.064  26.142  29.287  1.00  0.00    -0.203 F 
ATOM     56  C   UNL A   1      40.034  25.768  27.172  1.00  0.00     0.198 A 
ATOM     57  C   UNL A   1      41.456  27.430  26.195  1.00  0.00     0.198 A 
ATOM     58  F   UNL A   1      41.934  29.408  27.368  1.00  0.00    -0.203 F 
ATOM     59  F   UNL A   1      39.461  24.558  27.125  1.00  0.00    -0.200 F 
ATOM     60  C   UNL A   1      40.840  26.192  26.126  1.00  0.00     0.200 A 
ATOM     61  F   UNL A   1      42.223  27.853  25.180  1.00  0.00    -0.200 F 
ATOM     62  F   UNL A   1      41.030  25.403  25.060  1.00  0.00    -0.200 F 
ENDBRANCH  28  52
BRANCH  40  63
ATOM     63  C   UNL A   1      44.037  28.250  34.385  1.00  0.00     0.064 A 
ATOM     64  C   UNL A   1      45.357  28.663  34.158  1.00  0.00     0.173 A 
ATOM     65  C   UNL A   1      43.829  27.095  35.154  1.00  0.00     0.173 A 
ATOM     66  F   UNL A   1      45.606  29.754  33.415  1.00  0.00    -0.203 F 
ATOM     67  C   UNL A   1      46.429  27.929  34.653  1.00  0.00     0.198 A 
ATOM     68  C   UNL A   1      44.901  26.385  35.680  1.00  0.00     0.198 A 
ATOM     69  F   UNL A   1      42.583  26.664  35.405  1.00  0.00    -0.203 F 
ATOM     70  F   UNL A   1      47.683  28.306  34.373  1.00  0.00    -0.200 F 
ATOM     71  C   UNL A   1      46.200  26.795  35.420  1.00  0.00     0.200 A 
ATOM     72  F   UNL A   1      44.678  25.301  36.435  1.00  0.00    -0.200 F 
ATOM     73  F   UNL A   1      47.234  26.093  35.902  1.00  0.00    -0.200 F 
ENDBRANCH  40  63
ENDBRANCH  14  15
ENDBRANCH   7   9
ENDBRANCH   6   7
ENDBRANCH   5   6
ENDBRANCH   4   5
ENDBRANCH   3   4
ENDBRANCH   2   3
ENDBRANCH   1   2
BRANCH   1  74
ATOM     74  O   UNL A   1      31.212  27.409  27.479  1.00  0.00    -0.376 OA
BRANCH  74  75
ATOM     75  C   UNL A   1      32.001  26.512  26.691  1.00  0.00     0.202 C 
BRANCH  75  76
ATOM     76  C   UNL A   1      31.426  25.111  26.421  1.00  0.00     0.261 C 
BRANCH  76  77
ATOM     77  O   UNL A   1      32.392  24.047  26.539  1.00  0.00    -0.463 OA
BRANCH  77  78
ATOM     78  C   UNL A   1      32.899  23.520  25.395  1.00  0.00     0.310 C 
ATOM     79  O   UNL A   1      32.743  22.358  25.046  1.00  0.00    -0.252 OA
BRANCH  78  80
ATOM     80  C   UNL A   1      33.715  24.565  24.659  1.00  0.00     0.115 C 
ATOM     81  C   UNL A   1      34.914  24.893  25.564  1.00  0.00     0.043 C 
ATOM     82  C   UNL A   1      34.202  24.230  23.239  1.00  0.00     0.096 C 
ATOM     83  C   UNL A   1      35.984  23.846  25.501  1.00  0.00    -0.030 C 
ATOM     84  C   UNL A   1      35.436  23.324  23.124  1.00  0.00     0.041 C 
ATOM     85  C   UNL A   1      36.196  23.118  24.398  1.00  0.00    -0.030 C 
BRANCH  82  86
ATOM     86  C   UNL A   1      33.164  23.966  22.152  1.00  0.00     0.224 C 
ATOM     87  O   UNL A   1      33.278  22.954  21.449  1.00  0.00    -0.275 OA
ATOM     88  N   UNL A   1      32.061  24.722  21.908  1.00  0.00    -0.351 N 
ATOM     89  H   UNL A   1      31.257  24.201  21.680  1.00  0.00     0.163 HD
BRANCH  88  90
ATOM     90  C   UNL A   1      31.851  26.168  21.925  1.00  0.00     0.103 C 
ATOM     91  C   UNL A   1      33.064  27.083  22.093  1.00  0.00     0.048 C 
ATOM     92  C   UNL A   1      30.840  26.619  23.024  1.00  0.00     0.141 C 
ATOM     93  C   UNL A   1      32.857  27.797  23.413  1.00  0.00     0.119 C 
ATOM     94  N   UNL A   1      31.412  27.850  23.561  1.00  0.00    -0.369 N 
BRANCH  94  95
ATOM     95  C   UNL A   1      30.681  29.018  23.462  1.00  0.00     0.038 A 
ATOM     96  C   UNL A   1      30.691  30.010  24.453  1.00  0.00     0.026 A 
ATOM     97  C   UNL A   1      29.873  29.234  22.336  1.00  0.00     0.046 A 
ATOM     98  C   UNL A   1      29.893  31.155  24.349  1.00  0.00     0.004 A 
ATOM     99  C   UNL A   1      29.062  30.366  22.239  1.00  0.00     0.043 A 
ATOM    100  C   UNL A   1      29.063  31.326  23.245  1.00  0.00     0.020 A 
ATOM    101  Cl  UNL A   1      28.028  30.562  20.876  1.00  0.00    -0.084 Cl
ENDBRANCH  94  95
ENDBRANCH  88  90
ENDBRANCH  82  86
ENDBRANCH  78  80
ENDBRANCH  77  78
ENDBRANCH  76  77
ENDBRANCH  75  76
ENDBRANCH  74  75
ENDBRANCH   1  74
TORSDOF 20
ENDMDL
MODEL 2
REMARK VINA RESULT:     -11.3      1.265      2.620
REMARK SMILES O=C(OCCOCCOCCOC(=O)[C@H]1CC=CC[C@H]1C(=O)N[C@@H]1CCN(c2cccc(Cl)c2)C1)c1ccc(-c2c3nc(c(-c4c(F)c(F)c(F)c(F)c4F)c4ccc([nH]4)c(-c4c(F)c(F)c(F)c(F)c4F)c4nc(c(-c5c(F)c(F)c(F)c(F)c5F)c5ccc2[nH]5)C=C4)C=C3)cc1
REMARK SMILES IDX 8 1 7 2 6 3 5 4 4 5 3 6 2 7 1 8 36 9 37 10 98 11 38 12 97 13
REMARK SMILES IDX 39 14 40 15 41 16 91 17 42 18 96 19 90 20 92 21 43 22 95 23
REMARK SMILES IDX 89 24 88 25 44 27 76 28 56 29 75 30 57 31 60 32 74 33 93 34
REMARK SMILES IDX 58 35 59 36 73 38 94 39 61 40 45 41 46 42 54 43 47 44 48 45
REMARK SMILES IDX 52 46 55 47 49 48 50 49 53 50 51 51 77 52 78 53 86 54 79 55
REMARK SMILES IDX 80 56 84 57 87 58 81 59 82 60 85 61 83 62 62 63 63 64 71 65
REMARK SMILES IDX 64 66 65 67 69 68 72 69 66 70 67 71 70 72 68 73 9 74 10 75
REMARK SMILES IDX 11 76 12 77 13 78 14 79 15 80 16 81 20 82 17 83 19 84 18 85
REMARK SMILES IDX 21 86 22 87 23 88 24 90 25 91 35 92 26 93 27 94 28 95 29 96
REMARK SMILES IDX 34 97 30 98 32 99 31 100 33 101
REMARK H PARENT 92 26 60 37 23 89
REMARK Flexibility Score: inf
ROOT
ATOM      1  C   UNL A   1      32.374  28.523  26.811  1.00  0.00     0.188 C 
ENDROOT
BRANCH   1   2
ATOM      2  C   UNL A   1      33.647  29.227  27.231  1.00  0.00     0.188 C 
BRANCH   2   3
ATOM      3  O   UNL A   1      33.743  30.548  26.706  1.00  0.00    -0.376 OA
BRANCH   3   4
ATOM      4  C   UNL A   1      33.341  31.556  27.627  1.00  0.00     0.202 C 
BRANCH   4   5
ATOM      5  C   UNL A   1      32.436  32.650  27.034  1.00  0.00     0.261 C 
BRANCH   5   6
ATOM      6  O   UNL A   1      32.153  33.809  27.855  1.00  0.00    -0.460 OA
BRANCH   6   7
ATOM      7  C   UNL A   1      32.918  34.627  28.615  1.00  0.00     0.338 C 
ATOM      8  O   UNL A   1      32.594  35.813  28.690  1.00  0.00    -0.246 OA
BRANCH   7   9
ATOM      9  C   UNL A   1      34.172  34.217  29.322  1.00  0.00     0.060 A 
ATOM     10  C   UNL A   1      35.457  34.410  28.824  1.00  0.00     0.016 A 
ATOM     11  C   UNL A   1      34.044  33.608  30.590  1.00  0.00     0.016 A 
ATOM     12  C   UNL A   1      36.580  34.092  29.574  1.00  0.00     0.010 A 
ATOM     13  C   UNL A   1      35.168  33.199  31.319  1.00  0.00     0.010 A 
ATOM     14  C   UNL A   1      36.440  33.434  30.794  1.00  0.00    -0.014 A 
BRANCH  14  15
ATOM     15  C   UNL A   1      37.653  32.755  31.281  1.00  0.00     0.031 A 
ATOM     16  C   UNL A   1      38.112  33.115  32.662  1.00  0.00     0.074 A 
ATOM     17  C   UNL A   1      38.140  31.686  30.630  1.00  0.00     0.049 A 
ATOM     18  N   UNL A   1      39.031  32.560  33.402  1.00  0.00    -0.248 NA
ATOM     19  C   UNL A   1      37.391  34.219  33.321  1.00  0.00     0.031 C 
ATOM     20  C   UNL A   1      37.631  31.183  29.357  1.00  0.00     0.029 A 
ATOM     21  N   UNL A   1      39.132  30.806  30.970  1.00  0.00    -0.354 N 
ATOM     22  C   UNL A   1      38.979  33.229  34.617  1.00  0.00     0.074 A 
ATOM     23  C   UNL A   1      37.956  34.242  34.515  1.00  0.00     0.031 C 
ATOM     24  C   UNL A   1      38.319  30.078  29.021  1.00  0.00     0.029 A 
ATOM     25  C   UNL A   1      39.335  29.823  30.033  1.00  0.00     0.049 A 
ATOM     26  H   UNL A   1      39.650  30.871  31.804  1.00  0.00     0.167 HD
ATOM     27  C   UNL A   1      39.724  33.005  35.722  1.00  0.00     0.037 A 
ATOM     28  C   UNL A   1      40.262  28.847  29.994  1.00  0.00     0.037 A 
ATOM     29  C   UNL A   1      40.772  32.025  35.772  1.00  0.00     0.049 A 
ATOM     30  C   UNL A   1      41.195  28.730  31.169  1.00  0.00     0.074 A 
ATOM     31  C   UNL A   1      41.691  31.788  36.775  1.00  0.00     0.029 A 
ATOM     32  N   UNL A   1      41.043  31.125  34.749  1.00  0.00    -0.354 N 
ATOM     33  N   UNL A   1      41.196  29.412  32.293  1.00  0.00    -0.248 NA
ATOM     34  C   UNL A   1      42.254  27.719  31.081  1.00  0.00     0.031 C 
ATOM     35  C   UNL A   1      42.551  30.775  36.337  1.00  0.00     0.029 A 
ATOM     36  C   UNL A   1      42.129  30.338  35.089  1.00  0.00     0.049 A 
ATOM     37  H   UNL A   1      40.537  31.055  33.908  1.00  0.00     0.167 HD
ATOM     38  C   UNL A   1      42.237  28.900  33.051  1.00  0.00     0.074 A 
ATOM     39  C   UNL A   1      42.827  27.830  32.270  1.00  0.00     0.031 C 
ATOM     40  C   UNL A   1      42.677  29.279  34.277  1.00  0.00     0.037 A 
BRANCH  27  41
ATOM     41  C   UNL A   1      39.470  33.896  36.900  1.00  0.00     0.064 A 
ATOM     42  C   UNL A   1      40.019  35.186  36.986  1.00  0.00     0.173 A 
ATOM     43  C   UNL A   1      38.713  33.433  37.986  1.00  0.00     0.173 A 
ATOM     44  F   UNL A   1      40.783  35.661  35.992  1.00  0.00    -0.203 F 
ATOM     45  C   UNL A   1      39.839  35.966  38.126  1.00  0.00     0.198 A 
ATOM     46  C   UNL A   1      38.513  34.226  39.113  1.00  0.00     0.198 A 
ATOM     47  F   UNL A   1      38.181  32.201  37.962  1.00  0.00    -0.203 F 
ATOM     48  F   UNL A   1      40.425  37.169  38.213  1.00  0.00    -0.200 F 
ATOM     49  C   UNL A   1      39.084  35.487  39.187  1.00  0.00     0.200 A 
ATOM     50  F   UNL A   1      37.784  33.760  40.136  1.00  0.00    -0.200 F 
ATOM     51  F   UNL A   1      38.921  36.235  40.286  1.00  0.00    -0.200 F 
ENDBRANCH  27  41
BRANCH  28  52
ATOM     52  C   UNL A   1      40.396  27.966  28.798  1.00  0.00     0.064 A 
ATOM     53  C   UNL A   1      41.138  28.347  27.671  1.00  0.00     0.173 A 
ATOM     54  C   UNL A   1      39.728  26.730  28.739  1.00  0.00     0.173 A 
ATOM     55  F   UNL A   1      41.783  29.523  27.661  1.00  0.00    -0.203 F 
ATOM     56  C   UNL A   1      41.178  27.549  26.526  1.00  0.00     0.198 A 
ATOM     57  C   UNL A   1      39.800  25.916  27.611  1.00  0.00     0.198 A 
ATOM     58  F   UNL A   1      39.002  26.308  29.785  1.00  0.00    -0.203 F 
ATOM     59  F   UNL A   1      41.842  27.970  25.442  1.00  0.00    -0.200 F 
ATOM     60  C   UNL A   1      40.512  26.333  26.498  1.00  0.00     0.200 A 
ATOM     61  F   UNL A   1      39.167  24.735  27.598  1.00  0.00    -0.200 F 
ATOM     62  F   UNL A   1      40.546  25.571  25.397  1.00  0.00    -0.200 F 
ENDBRANCH  28  52
BRANCH  40  63
ATOM     63  C   UNL A   1      43.825  28.504  34.850  1.00  0.00     0.064 A 
ATOM     64  C   UNL A   1      43.625  27.332  35.591  1.00  0.00     0.173 A 
ATOM     65  C   UNL A   1      45.143  28.928  34.624  1.00  0.00     0.173 A 
ATOM     66  F   UNL A   1      42.381  26.896  35.846  1.00  0.00    -0.203 F 
ATOM     67  C   UNL A   1      44.704  26.628  36.116  1.00  0.00     0.198 A 
ATOM     68  C   UNL A   1      46.220  28.201  35.117  1.00  0.00     0.198 A 
ATOM     69  F   UNL A   1      45.384  30.040  33.913  1.00  0.00    -0.203 F 
ATOM     70  F   UNL A   1      44.489  25.545  36.874  1.00  0.00    -0.200 F 
ATOM     71  C   UNL A   1      46.000  27.059  35.871  1.00  0.00     0.200 A 
ATOM     72  F   UNL A   1      47.471  28.608  34.865  1.00  0.00    -0.200 F 
ATOM     73  F   UNL A   1      47.038  26.376  36.372  1.00  0.00    -0.200 F 
ENDBRANCH  40  63
ENDBRANCH  14  15
ENDBRANCH   7   9
ENDBRANCH   6   7
ENDBRANCH   5   6
ENDBRANCH   4   5
ENDBRANCH   3   4
ENDBRANCH   2   3
ENDBRANCH   1   2
BRANCH   1  74
ATOM     74  O   UNL A   1      32.619  27.238  26.254  1.00  0.00    -0.376 OA
BRANCH  74  75
ATOM     75  C   UNL A   1      33.953  26.987  25.798  1.00  0.00     0.202 C 
BRANCH  75  76
ATOM     76  C   UNL A   1      34.196  25.702  24.989  1.00  0.00     0.261 C 
BRANCH  76  77
ATOM     77  O   UNL A   1      35.165  24.811  25.578  1.00  0.00    -0.463 OA
BRANCH  77  78
ATOM     78  C   UNL A   1      34.785  23.531  25.823  1.00  0.00     0.310 C 
ATOM     79  O   UNL A   1      34.635  23.061  26.943  1.00  0.00    -0.252 OA
BRANCH  78  80
ATOM     80  C   UNL A   1      34.630  22.777  24.516  1.00  0.00     0.115 C 
ATOM     81  C   UNL A   1      36.017  22.770  23.854  1.00  0.00     0.043 C 
ATOM     82  C   UNL A   1      34.065  21.347  24.572  1.00  0.00     0.096 C 
ATOM     83  C   UNL A   1      36.939  21.757  24.462  1.00  0.00    -0.030 C 
ATOM     84  C   UNL A   1      35.034  20.233  24.989  1.00  0.00     0.041 C 
ATOM     85  C   UNL A   1      36.481  20.620  25.001  1.00  0.00    -0.030 C 
BRANCH  82  86
ATOM     86  C   UNL A   1      32.650  21.139  25.108  1.00  0.00     0.224 C 
ATOM     87  O   UNL A   1      32.154  20.007  25.059  1.00  0.00    -0.275 OA
ATOM     88  N   UNL A   1      31.880  22.087  25.704  1.00  0.00    -0.351 N 
ATOM     89  H   UNL A   1      31.355  21.758  26.470  1.00  0.00     0.163 HD
BRANCH  88  90
ATOM     90  C   UNL A   1      31.691  23.508  25.416  1.00  0.00     0.103 C 
ATOM     91  C   UNL A   1      31.229  24.429  26.544  1.00  0.00     0.048 C 
ATOM     92  C   UNL A   1      30.692  23.758  24.245  1.00  0.00     0.141 C 
ATOM     93  C   UNL A   1      29.863  24.935  26.124  1.00  0.00     0.119 C 
ATOM     94  N   UNL A   1      29.913  24.916  24.672  1.00  0.00    -0.369 N 
BRANCH  94  95
ATOM     95  C   UNL A   1      29.949  26.060  23.899  1.00  0.00     0.038 A 
ATOM     96  C   UNL A   1      31.083  26.457  23.177  1.00  0.00     0.026 A 
ATOM     97  C   UNL A   1      28.816  26.885  23.833  1.00  0.00     0.046 A 
ATOM     98  C   UNL A   1      31.106  27.653  22.451  1.00  0.00     0.004 A 
ATOM     99  C   UNL A   1      28.843  28.089  23.126  1.00  0.00     0.043 A 
ATOM    100  C   UNL A   1      29.988  28.480  22.439  1.00  0.00     0.020 A 
ATOM    101  Cl  UNL A   1      27.459  29.112  23.127  1.00  0.00    -0.084 Cl
ENDBRANCH  94  95
ENDBRANCH  88  90
ENDBRANCH  82  86
ENDBRANCH  78  80
ENDBRANCH  77  78
ENDBRANCH  76  77
ENDBRANCH  75  76
ENDBRANCH  74  75
ENDBRANCH   1  74
TORSDOF 20
ENDMDL
MODEL 3
REMARK VINA RESULT:     -11.3      2.825      8.425
REMARK SMILES O=C(OCCOCCOCCOC(=O)[C@H]1CC=CC[C@H]1C(=O)N[C@@H]1CCN(c2cccc(Cl)c2)C1)c1ccc(-c2c3nc(c(-c4c(F)c(F)c(F)c(F)c4F)c4ccc([nH]4)c(-c4c(F)c(F)c(F)c(F)c4F)c4nc(c(-c5c(F)c(F)c(F)c(F)c5F)c5ccc2[nH]5)C=C4)C=C3)cc1
REMARK SMILES IDX 8 1 7 2 6 3 5 4 4 5 3 6 2 7 1 8 36 9 37 10 98 11 38 12 97 13
REMARK SMILES IDX 39 14 40 15 41 16 91 17 42 18 96 19 90 20 92 21 43 22 95 23
REMARK SMILES IDX 89 24 88 25 44 27 76 28 56 29 75 30 57 31 60 32 74 33 93 34
REMARK SMILES IDX 58 35 59 36 73 38 94 39 61 40 45 41 46 42 54 43 47 44 48 45
REMARK SMILES IDX 52 46 55 47 49 48 50 49 53 50 51 51 77 52 78 53 86 54 79 55
REMARK SMILES IDX 80 56 84 57 87 58 81 59 82 60 85 61 83 62 62 63 63 64 71 65
REMARK SMILES IDX 64 66 65 67 69 68 72 69 66 70 67 71 70 72 68 73 9 74 10 75
REMARK SMILES IDX 11 76 12 77 13 78 14 79 15 80 16 81 20 82 17 83 19 84 18 85
REMARK SMILES IDX 21 86 22 87 23 88 24 90 25 91 35 92 26 93 27 94 28 95 29 96
REMARK SMILES IDX 34 97 30 98 32 99 31 100 33 101
REMARK H PARENT 92 26 60 37 23 89
REMARK Flexibility Score: inf
ROOT
ATOM      1  C   UNL A   1      33.302  29.101  25.825  1.00  0.00     0.188 C 
ENDROOT
BRANCH   1   2
ATOM      2  C   UNL A   1      31.945  29.418  25.232  1.00  0.00     0.188 C 
BRANCH   2   3
ATOM      3  O   UNL A   1      31.368  30.600  25.778  1.00  0.00    -0.376 OA
BRANCH   3   4
ATOM      4  C   UNL A   1      32.207  31.261  26.717  1.00  0.00     0.202 C 
BRANCH   4   5
ATOM      5  C   UNL A   1      31.981  32.779  26.833  1.00  0.00     0.261 C 
BRANCH   5   6
ATOM      6  O   UNL A   1      32.788  33.510  27.786  1.00  0.00    -0.460 OA
BRANCH   6   7
ATOM      7  C   UNL A   1      34.101  33.832  27.849  1.00  0.00     0.338 C 
ATOM      8  O   UNL A   1      34.464  34.880  27.312  1.00  0.00    -0.246 OA
BRANCH   7   9
ATOM      9  C   UNL A   1      35.166  32.978  28.463  1.00  0.00     0.060 A 
ATOM     10  C   UNL A   1      34.934  31.761  29.096  1.00  0.00     0.016 A 
ATOM     11  C   UNL A   1      36.502  33.430  28.380  1.00  0.00     0.016 A 
ATOM     12  C   UNL A   1      35.977  30.974  29.559  1.00  0.00     0.010 A 
ATOM     13  C   UNL A   1      37.558  32.688  28.925  1.00  0.00     0.010 A 
ATOM     14  C   UNL A   1      37.283  31.460  29.530  1.00  0.00    -0.014 A 
BRANCH  14  15
ATOM     15  C   UNL A   1      38.227  30.772  30.427  1.00  0.00     0.031 A 
ATOM     16  C   UNL A   1      39.208  29.842  29.780  1.00  0.00     0.074 A 
ATOM     17  C   UNL A   1      38.368  31.174  31.701  1.00  0.00     0.049 A 
ATOM     18  N   UNL A   1      40.248  29.245  30.291  1.00  0.00    -0.248 NA
ATOM     19  C   UNL A   1      39.021  29.600  28.337  1.00  0.00     0.031 C 
ATOM     20  C   UNL A   1      37.549  32.196  32.347  1.00  0.00     0.029 A 
ATOM     21  N   UNL A   1      39.277  30.812  32.659  1.00  0.00    -0.354 N 
ATOM     22  C   UNL A   1      40.851  28.582  29.232  1.00  0.00     0.074 A 
ATOM     23  C   UNL A   1      40.056  28.828  28.052  1.00  0.00     0.031 C 
ATOM     24  C   UNL A   1      37.994  32.379  33.603  1.00  0.00     0.029 A 
ATOM     25  C   UNL A   1      39.098  31.463  33.855  1.00  0.00     0.049 A 
ATOM     26  H   UNL A   1      39.988  30.150  32.505  1.00  0.00     0.167 HD
ATOM     27  C   UNL A   1      41.977  27.834  29.251  1.00  0.00     0.037 A 
ATOM     28  C   UNL A   1      39.744  31.307  35.026  1.00  0.00     0.037 A 
ATOM     29  C   UNL A   1      42.713  27.562  30.452  1.00  0.00     0.049 A 
ATOM     30  C   UNL A   1      40.892  30.333  35.060  1.00  0.00     0.074 A 
ATOM     31  C   UNL A   1      43.787  26.715  30.640  1.00  0.00     0.029 A 
ATOM     32  N   UNL A   1      42.428  28.136  31.686  1.00  0.00    -0.354 N 
ATOM     33  N   UNL A   1      41.420  29.646  34.073  1.00  0.00    -0.248 NA
ATOM     34  C   UNL A   1      41.535  30.108  36.359  1.00  0.00     0.031 C 
ATOM     35  C   UNL A   1      44.120  26.738  31.998  1.00  0.00     0.029 A 
ATOM     36  C   UNL A   1      43.296  27.648  32.645  1.00  0.00     0.049 A 
ATOM     37  H   UNL A   1      41.714  28.794  31.852  1.00  0.00     0.167 HD
ATOM     38  C   UNL A   1      42.467  28.924  34.624  1.00  0.00     0.074 A 
ATOM     39  C   UNL A   1      42.517  29.282  36.029  1.00  0.00     0.031 C 
ATOM     40  C   UNL A   1      43.308  28.039  34.034  1.00  0.00     0.037 A 
BRANCH  27  41
ATOM     41  C   UNL A   1      42.396  27.211  27.954  1.00  0.00     0.064 A 
ATOM     42  C   UNL A   1      41.876  25.982  27.520  1.00  0.00     0.173 A 
ATOM     43  C   UNL A   1      43.376  27.825  27.160  1.00  0.00     0.173 A 
ATOM     44  F   UNL A   1      40.965  25.335  28.262  1.00  0.00    -0.203 F 
ATOM     45  C   UNL A   1      42.340  25.379  26.352  1.00  0.00     0.198 A 
ATOM     46  C   UNL A   1      43.819  27.232  25.980  1.00  0.00     0.198 A 
ATOM     47  F   UNL A   1      43.919  28.991  27.539  1.00  0.00    -0.203 F 
ATOM     48  F   UNL A   1      41.874  24.175  25.990  1.00  0.00    -0.200 F 
ATOM     49  C   UNL A   1      43.308  26.006  25.582  1.00  0.00     0.200 A 
ATOM     50  F   UNL A   1      44.755  27.840  25.238  1.00  0.00    -0.200 F 
ATOM     51  F   UNL A   1      43.760  25.422  24.465  1.00  0.00    -0.200 F 
ENDBRANCH  27  41
BRANCH  28  52
ATOM     52  C   UNL A   1      39.288  32.022  36.253  1.00  0.00     0.064 A 
ATOM     53  C   UNL A   1      38.274  31.515  37.077  1.00  0.00     0.173 A 
ATOM     54  C   UNL A   1      39.831  33.273  36.596  1.00  0.00     0.173 A 
ATOM     55  F   UNL A   1      37.706  30.335  36.791  1.00  0.00    -0.203 F 
ATOM     56  C   UNL A   1      37.798  32.242  38.171  1.00  0.00     0.198 A 
ATOM     57  C   UNL A   1      39.382  33.979  37.710  1.00  0.00     0.198 A 
ATOM     58  F   UNL A   1      40.804  33.812  35.848  1.00  0.00    -0.203 F 
ATOM     59  F   UNL A   1      36.784  31.761  38.901  1.00  0.00    -0.200 F 
ATOM     60  C   UNL A   1      38.355  33.471  38.488  1.00  0.00     0.200 A 
ATOM     61  F   UNL A   1      39.937  35.160  38.020  1.00  0.00    -0.200 F 
ATOM     62  F   UNL A   1      37.894  34.171  39.534  1.00  0.00    -0.200 F 
ENDBRANCH  28  52
BRANCH  40  63
ATOM     63  C   UNL A   1      44.367  27.434  34.904  1.00  0.00     0.064 A 
ATOM     64  C   UNL A   1      45.620  28.042  35.072  1.00  0.00     0.173 A 
ATOM     65  C   UNL A   1      44.110  26.246  35.604  1.00  0.00     0.173 A 
ATOM     66  F   UNL A   1      45.917  29.172  34.410  1.00  0.00    -0.203 F 
ATOM     67  C   UNL A   1      46.590  27.462  35.882  1.00  0.00     0.198 A 
ATOM     68  C   UNL A   1      45.068  25.690  36.443  1.00  0.00     0.198 A 
ATOM     69  F   UNL A   1      42.923  25.632  35.482  1.00  0.00    -0.203 F 
ATOM     70  F   UNL A   1      47.801  28.025  35.980  1.00  0.00    -0.200 F 
ATOM     71  C   UNL A   1      46.311  26.292  36.573  1.00  0.00     0.200 A 
ATOM     72  F   UNL A   1      44.790  24.570  37.124  1.00  0.00    -0.200 F 
ATOM     73  F   UNL A   1      47.244  25.740  37.359  1.00  0.00    -0.200 F 
ENDBRANCH  40  63
ENDBRANCH  14  15
ENDBRANCH   7   9
ENDBRANCH   6   7
ENDBRANCH   5   6
ENDBRANCH   4   5
ENDBRANCH   3   4
ENDBRANCH   2   3
ENDBRANCH   1   2
BRANCH   1  74
ATOM     74  O   UNL A   1      33.949  28.023  25.161  1.00  0.00    -0.376 OA
BRANCH  74  75
ATOM     75  C   UNL A   1      33.905  28.039  23.730  1.00  0.00     0.202 C 
BRANCH  75  76
ATOM     76  C   UNL A   1      33.422  26.763  23.021  1.00  0.00     0.261 C 
BRANCH  76  77
ATOM     77  O   UNL A   1      32.397  26.045  23.738  1.00  0.00    -0.463 OA
BRANCH  77  78
ATOM     78  C   UNL A   1      32.470  24.689  23.763  1.00  0.00     0.310 C 
ATOM     79  O   UNL A   1      32.114  23.965  22.844  1.00  0.00    -0.252 OA
BRANCH  78  80
ATOM     80  C   UNL A   1      33.004  24.224  25.104  1.00  0.00     0.115 C 
ATOM     81  C   UNL A   1      32.287  25.067  26.171  1.00  0.00     0.043 C 
ATOM     82  C   UNL A   1      32.886  22.729  25.446  1.00  0.00     0.096 C 
ATOM     83  C   UNL A   1      30.889  24.594  26.433  1.00  0.00    -0.030 C 
ATOM     84  C   UNL A   1      31.516  22.232  25.927  1.00  0.00     0.041 C 
ATOM     85  C   UNL A   1      30.540  23.309  26.292  1.00  0.00    -0.030 C 
BRANCH  82  86
ATOM     86  C   UNL A   1      33.612  21.716  24.564  1.00  0.00     0.224 C 
ATOM     87  O   UNL A   1      32.944  20.955  23.853  1.00  0.00    -0.275 OA
ATOM     88  N   UNL A   1      34.959  21.601  24.432  1.00  0.00    -0.351 N 
ATOM     89  H   UNL A   1      35.261  21.411  23.514  1.00  0.00     0.163 HD
BRANCH  88  90
ATOM     90  C   UNL A   1      36.044  21.710  25.407  1.00  0.00     0.103 C 
ATOM     91  C   UNL A   1      36.287  23.057  26.086  1.00  0.00     0.048 C 
ATOM     92  C   UNL A   1      37.426  21.288  24.822  1.00  0.00     0.141 C 
ATOM     93  C   UNL A   1      37.664  23.500  25.632  1.00  0.00     0.119 C 
ATOM     94  N   UNL A   1      38.368  22.253  25.380  1.00  0.00    -0.369 N 
BRANCH  94  95
ATOM     95  C   UNL A   1      39.399  21.790  26.174  1.00  0.00     0.038 A 
ATOM     96  C   UNL A   1      39.842  22.467  27.319  1.00  0.00     0.026 A 
ATOM     97  C   UNL A   1      40.057  20.601  25.828  1.00  0.00     0.046 A 
ATOM     98  C   UNL A   1      40.929  22.002  28.069  1.00  0.00     0.004 A 
ATOM     99  C   UNL A   1      41.153  20.145  26.563  1.00  0.00     0.043 A 
ATOM    100  C   UNL A   1      41.597  20.845  27.680  1.00  0.00     0.020 A 
ATOM    101  Cl  UNL A   1      41.982  18.720  26.066  1.00  0.00    -0.084 Cl
ENDBRANCH  94  95
ENDBRANCH  88  90
ENDBRANCH  82  86
ENDBRANCH  78  80
ENDBRANCH  77  78
ENDBRANCH  76  77
ENDBRANCH  75  76
ENDBRANCH  74  75
ENDBRANCH   1  74
TORSDOF 20
ENDMDL
