MODEL 1
REMARK VINA RESULT:     -11.3      0.000      0.000
REMARK SMILES Cc1nsc(N(C)S(=O)(=O)c2cn[nH]c2C)c1C(=O)OCCOCCOCCOC(=O)c1ccc(-c2c3nc(c(-c4c(F)c(F)c(F)c(F)c4F)c4ccc([nH]4)c(-c4c(F)c(F)c(F)c(F)c4F)c4nc(c(-c5c(F)c(F)c(F)c(F)c5F)c5ccc2[nH]5)C=C4)C=C3)cc1
REMARK SMILES IDX 24 1 23 2 22 3 21 4 20 5 18 6 19 7 17 8 1 9 2 10 3 11 4 12
REMARK SMILES IDX 5 13 6 14 7 15 8 16 9 17 10 18 11 19 12 20 15 21 13 22 14 23
REMARK SMILES IDX 16 24 25 26 26 27 27 28 28 29 29 30 30 31 31 32 32 33 33 34
REMARK SMILES IDX 94 35 34 36 93 37 35 38 36 39 37 40 87 41 38 42 92 43 86 44
REMARK SMILES IDX 88 45 39 46 91 47 85 48 84 49 40 51 72 52 52 53 71 54 53 55
REMARK SMILES IDX 56 56 70 57 89 58 54 59 55 60 69 62 90 63 57 64 41 65 42 66
REMARK SMILES IDX 50 67 43 68 44 69 48 70 51 71 45 72 46 73 49 74 47 75 73 76
REMARK SMILES IDX 74 77 82 78 75 79 76 80 80 81 83 82 77 83 78 84 81 85 79 86
REMARK SMILES IDX 58 87 59 88 67 89 60 90 61 91 65 92 68 93 62 94 63 95 66 96
REMARK SMILES IDX 64 97
REMARK H PARENT 14 25 88 50 56 61
REMARK Flexibility Score: inf
ROOT
ATOM      1  C   UNL A   1      39.922  21.455  26.504  1.00  0.00     0.188 C 
ENDROOT
BRANCH   1   2
ATOM      2  O   UNL A   1      39.296  22.729  26.500  1.00  0.00    -0.376 OA
BRANCH   2   3
ATOM      3  C   UNL A   1      38.127  22.838  25.695  1.00  0.00     0.202 C 
BRANCH   3   4
ATOM      4  C   UNL A   1      37.261  24.049  26.060  1.00  0.00     0.261 C 
BRANCH   4   5
ATOM      5  O   UNL A   1      35.875  23.682  26.144  1.00  0.00    -0.460 OA
BRANCH   5   6
ATOM      6  C   UNL A   1      35.024  23.992  25.131  1.00  0.00     0.343 C 
ATOM      7  O   UNL A   1      35.349  24.180  23.966  1.00  0.00    -0.246 OA
BRANCH   6   8
ATOM      8  C   UNL A   1      33.664  24.097  25.644  1.00  0.00     0.118 A 
ATOM      9  C   UNL A   1      33.590  26.743  25.456  1.00  0.00     0.069 C 
ATOM     10  C   UNL A   1      33.007  25.400  25.775  1.00  0.00     0.068 A 
ATOM     11  N   UNL A   1      31.757  25.385  26.219  1.00  0.00    -0.195 NA
ATOM     12  S   UNL A   1      31.308  23.842  26.506  1.00  0.00    -0.017 S 
ATOM     13  C   UNL A   1      32.820  23.081  26.115  1.00  0.00     0.140 A 
BRANCH  13  14
ATOM     14  N   UNL A   1      33.011  21.613  26.306  1.00  0.00    -0.258 N 
ATOM     15  C   UNL A   1      33.987  21.215  27.359  1.00  0.00     0.165 C 
BRANCH  14  16
ATOM     16  S   UNL A   1      33.235  20.743  24.836  1.00  0.00     0.268 S 
ATOM     17  O   UNL A   1      32.362  21.321  23.842  1.00  0.00    -0.201 OA
ATOM     18  O   UNL A   1      34.661  20.632  24.607  1.00  0.00    -0.201 OA
BRANCH  16  19
ATOM     19  C   UNL A   1      32.741  19.086  24.830  1.00  0.00     0.128 A 
ATOM     20  C   UNL A   1      32.749  18.199  25.918  1.00  0.00     0.157 A 
ATOM     21  C   UNL A   1      32.464  18.276  23.734  1.00  0.00     0.053 A 
ATOM     22  N   UNL A   1      32.400  16.955  25.576  1.00  0.00    -0.183 NA
ATOM     23  N   UNL A   1      32.233  17.027  24.248  1.00  0.00    -0.281 N 
ATOM     24  C   UNL A   1      32.430  18.504  22.268  1.00  0.00     0.067 C 
ATOM     25  H   UNL A   1      31.970  16.257  23.695  1.00  0.00     0.190 HD
ENDBRANCH  16  19
ENDBRANCH  14  16
ENDBRANCH  13  14
ENDBRANCH   6   8
ENDBRANCH   5   6
ENDBRANCH   4   5
ENDBRANCH   3   4
ENDBRANCH   2   3
ENDBRANCH   1   2
BRANCH   1  26
ATOM     26  C   UNL A   1      41.461  21.482  26.543  1.00  0.00     0.188 C 
BRANCH  26  27
ATOM     27  O   UNL A   1      42.239  21.784  25.391  1.00  0.00    -0.376 OA
BRANCH  27  28
ATOM     28  C   UNL A   1      43.424  22.562  25.487  1.00  0.00     0.202 C 
BRANCH  28  29
ATOM     29  C   UNL A   1      43.369  24.013  25.024  1.00  0.00     0.261 C 
BRANCH  29  30
ATOM     30  O   UNL A   1      42.402  24.774  25.736  1.00  0.00    -0.460 OA
BRANCH  30  31
ATOM     31  C   UNL A   1      42.569  26.111  25.657  1.00  0.00     0.338 C 
ATOM     32  O   UNL A   1      43.597  26.713  25.396  1.00  0.00    -0.246 OA
BRANCH  31  33
ATOM     33  C   UNL A   1      41.316  26.783  26.043  1.00  0.00     0.060 A 
ATOM     34  C   UNL A   1      41.268  28.148  25.758  1.00  0.00     0.016 A 
ATOM     35  C   UNL A   1      40.496  26.188  27.012  1.00  0.00     0.016 A 
ATOM     36  C   UNL A   1      40.722  28.968  26.711  1.00  0.00     0.010 A 
ATOM     37  C   UNL A   1      39.954  27.007  27.970  1.00  0.00     0.010 A 
ATOM     38  C   UNL A   1      40.222  28.371  27.871  1.00  0.00    -0.014 A 
BRANCH  38  39
ATOM     39  C   UNL A   1      40.218  29.190  29.062  1.00  0.00     0.031 A 
ATOM     40  C   UNL A   1      39.086  30.121  29.188  1.00  0.00     0.074 A 
ATOM     41  C   UNL A   1      41.171  29.023  30.001  1.00  0.00     0.049 A 
ATOM     42  N   UNL A   1      39.115  31.406  29.307  1.00  0.00    -0.248 NA
ATOM     43  C   UNL A   1      37.740  29.546  29.074  1.00  0.00     0.031 C 
ATOM     44  C   UNL A   1      42.146  27.931  30.124  1.00  0.00     0.029 A 
ATOM     45  N   UNL A   1      41.381  29.746  31.130  1.00  0.00    -0.354 N 
ATOM     46  C   UNL A   1      37.787  31.798  29.428  1.00  0.00     0.074 A 
ATOM     47  C   UNL A   1      36.983  30.638  29.143  1.00  0.00     0.031 C 
ATOM     48  C   UNL A   1      42.654  27.936  31.377  1.00  0.00     0.029 A 
ATOM     49  C   UNL A   1      42.126  29.086  32.092  1.00  0.00     0.049 A 
ATOM     50  H   UNL A   1      41.033  30.659  31.255  1.00  0.00     0.167 HD
ATOM     51  C   UNL A   1      37.442  33.002  29.955  1.00  0.00     0.037 A 
ATOM     52  C   UNL A   1      42.174  29.407  33.407  1.00  0.00     0.037 A 
ATOM     53  C   UNL A   1      38.535  33.934  29.926  1.00  0.00     0.049 A 
ATOM     54  C   UNL A   1      41.681  30.804  33.547  1.00  0.00     0.074 A 
ATOM     55  C   UNL A   1      39.297  34.491  28.916  1.00  0.00     0.029 A 
ATOM     56  N   UNL A   1      39.220  34.188  31.089  1.00  0.00    -0.354 N 
ATOM     57  N   UNL A   1      42.316  31.859  33.115  1.00  0.00    -0.248 NA
ATOM     58  C   UNL A   1      40.253  30.991  33.777  1.00  0.00     0.031 C 
ATOM     59  C   UNL A   1      40.606  34.616  29.463  1.00  0.00     0.029 A 
ATOM     60  C   UNL A   1      40.554  34.149  30.776  1.00  0.00     0.049 A 
ATOM     61  H   UNL A   1      38.828  34.364  31.974  1.00  0.00     0.167 HD
ATOM     62  C   UNL A   1      41.324  32.709  32.645  1.00  0.00     0.074 A 
ATOM     63  C   UNL A   1      40.072  32.159  33.154  1.00  0.00     0.031 C 
ATOM     64  C   UNL A   1      41.569  33.614  31.652  1.00  0.00     0.037 A 
BRANCH  51  65
ATOM     65  C   UNL A   1      36.201  33.226  30.772  1.00  0.00     0.064 A 
ATOM     66  C   UNL A   1      35.165  34.021  30.247  1.00  0.00     0.173 A 
ATOM     67  C   UNL A   1      36.108  32.928  32.149  1.00  0.00     0.173 A 
ATOM     68  F   UNL A   1      35.171  34.386  28.956  1.00  0.00    -0.203 F 
ATOM     69  C   UNL A   1      34.149  34.531  31.056  1.00  0.00     0.198 A 
ATOM     70  C   UNL A   1      35.058  33.387  32.940  1.00  0.00     0.198 A 
ATOM     71  F   UNL A   1      37.078  32.281  32.807  1.00  0.00    -0.203 F 
ATOM     72  F   UNL A   1      33.255  35.385  30.539  1.00  0.00    -0.200 F 
ATOM     73  C   UNL A   1      34.096  34.216  32.402  1.00  0.00     0.200 A 
ATOM     74  F   UNL A   1      35.035  33.084  34.245  1.00  0.00    -0.200 F 
ATOM     75  F   UNL A   1      33.155  34.749  33.190  1.00  0.00    -0.200 F 
ENDBRANCH  51  65
BRANCH  52  76
ATOM     76  C   UNL A   1      42.256  28.456  34.544  1.00  0.00     0.064 A 
ATOM     77  C   UNL A   1      41.446  27.312  34.593  1.00  0.00     0.173 A 
ATOM     78  C   UNL A   1      43.297  28.525  35.495  1.00  0.00     0.173 A 
ATOM     79  F   UNL A   1      40.474  27.136  33.687  1.00  0.00    -0.203 F 
ATOM     80  C   UNL A   1      41.662  26.301  35.538  1.00  0.00     0.198 A 
ATOM     81  C   UNL A   1      43.500  27.526  36.446  1.00  0.00     0.198 A 
ATOM     82  F   UNL A   1      44.199  29.516  35.465  1.00  0.00    -0.203 F 
ATOM     83  F   UNL A   1      40.902  25.198  35.522  1.00  0.00    -0.200 F 
ATOM     84  C   UNL A   1      42.688  26.409  36.463  1.00  0.00     0.200 A 
ATOM     85  F   UNL A   1      44.522  27.628  37.308  1.00  0.00    -0.200 F 
ATOM     86  F   UNL A   1      42.922  25.422  37.338  1.00  0.00    -0.200 F 
ENDBRANCH  52  76
BRANCH  64  87
ATOM     87  C   UNL A   1      42.992  33.848  31.235  1.00  0.00     0.064 A 
ATOM     88  C   UNL A   1      43.635  33.085  30.246  1.00  0.00     0.173 A 
ATOM     89  C   UNL A   1      43.645  35.000  31.692  1.00  0.00     0.173 A 
ATOM     90  F   UNL A   1      43.026  32.033  29.685  1.00  0.00    -0.203 F 
ATOM     91  C   UNL A   1      44.891  33.444  29.762  1.00  0.00     0.198 A 
ATOM     92  C   UNL A   1      44.884  35.375  31.181  1.00  0.00     0.198 A 
ATOM     93  F   UNL A   1      43.048  35.801  32.590  1.00  0.00    -0.203 F 
ATOM     94  F   UNL A   1      45.481  32.703  28.812  1.00  0.00    -0.200 F 
ATOM     95  C   UNL A   1      45.509  34.595  30.221  1.00  0.00     0.200 A 
ATOM     96  F   UNL A   1      45.455  36.518  31.589  1.00  0.00    -0.200 F 
ATOM     97  F   UNL A   1      46.691  34.972  29.713  1.00  0.00    -0.200 F 
ENDBRANCH  64  87
ENDBRANCH  38  39
ENDBRANCH  31  33
ENDBRANCH  30  31
ENDBRANCH  29  30
ENDBRANCH  28  29
ENDBRANCH  27  28
ENDBRANCH  26  27
ENDBRANCH   1  26
TORSDOF 20
ENDMDL
MODEL 2
REMARK VINA RESULT:     -11.2      1.610      3.473
REMARK SMILES Cc1nsc(N(C)S(=O)(=O)c2cn[nH]c2C)c1C(=O)OCCOCCOCCOC(=O)c1ccc(-c2c3nc(c(-c4c(F)c(F)c(F)c(F)c4F)c4ccc([nH]4)c(-c4c(F)c(F)c(F)c(F)c4F)c4nc(c(-c5c(F)c(F)c(F)c(F)c5F)c5ccc2[nH]5)C=C4)C=C3)cc1
REMARK SMILES IDX 24 1 23 2 22 3 21 4 20 5 18 6 19 7 17 8 1 9 2 10 3 11 4 12
REMARK SMILES IDX 5 13 6 14 7 15 8 16 9 17 10 18 11 19 12 20 15 21 13 22 14 23
REMARK SMILES IDX 16 24 25 26 26 27 27 28 28 29 29 30 30 31 31 32 32 33 33 34
REMARK SMILES IDX 94 35 34 36 93 37 35 38 36 39 37 40 87 41 38 42 92 43 86 44
REMARK SMILES IDX 88 45 39 46 91 47 85 48 84 49 40 51 72 52 52 53 71 54 53 55
REMARK SMILES IDX 56 56 70 57 89 58 54 59 55 60 69 62 90 63 57 64 41 65 42 66
REMARK SMILES IDX 50 67 43 68 44 69 48 70 51 71 45 72 46 73 49 74 47 75 73 76
REMARK SMILES IDX 74 77 82 78 75 79 76 80 80 81 83 82 77 83 78 84 81 85 79 86
REMARK SMILES IDX 58 87 59 88 67 89 60 90 61 91 65 92 68 93 62 94 63 95 66 96
REMARK SMILES IDX 64 97
REMARK H PARENT 14 25 88 50 56 61
REMARK Flexibility Score: inf
ROOT
ATOM      1  C   UNL A   1      38.718  21.909  26.040  1.00  0.00     0.188 C 
ENDROOT
BRANCH   1   2
ATOM      2  O   UNL A   1      38.460  23.297  25.893  1.00  0.00    -0.376 OA
BRANCH   2   3
ATOM      3  C   UNL A   1      37.092  23.654  25.730  1.00  0.00     0.202 C 
BRANCH   3   4
ATOM      4  C   UNL A   1      36.469  23.071  24.457  1.00  0.00     0.261 C 
BRANCH   4   5
ATOM      5  O   UNL A   1      35.492  23.968  23.907  1.00  0.00    -0.460 OA
BRANCH   5   6
ATOM      6  C   UNL A   1      34.309  23.488  23.440  1.00  0.00     0.343 C 
ATOM      7  O   UNL A   1      34.076  23.196  22.275  1.00  0.00    -0.246 OA
BRANCH   6   8
ATOM      8  C   UNL A   1      33.347  23.399  24.531  1.00  0.00     0.118 A 
ATOM      9  C   UNL A   1      33.660  20.784  24.852  1.00  0.00     0.069 C 
ATOM     10  C   UNL A   1      33.069  22.120  25.187  1.00  0.00     0.068 A 
ATOM     11  N   UNL A   1      32.204  22.151  26.193  1.00  0.00    -0.195 NA
ATOM     12  S   UNL A   1      31.678  23.682  26.400  1.00  0.00    -0.017 S 
ATOM     13  C   UNL A   1      32.540  24.408  25.078  1.00  0.00     0.140 A 
BRANCH  13  14
ATOM     14  N   UNL A   1      32.340  25.846  24.728  1.00  0.00    -0.258 N 
ATOM     15  C   UNL A   1      32.159  26.776  25.877  1.00  0.00     0.165 C 
BRANCH  14  16
ATOM     16  S   UNL A   1      31.178  26.102  23.481  1.00  0.00     0.268 S 
ATOM     17  O   UNL A   1      31.613  25.374  22.314  1.00  0.00    -0.201 OA
ATOM     18  O   UNL A   1      29.867  25.883  24.056  1.00  0.00    -0.201 OA
BRANCH  16  19
ATOM     19  C   UNL A   1      31.037  27.713  22.870  1.00  0.00     0.128 A 
ATOM     20  C   UNL A   1      29.875  28.331  22.380  1.00  0.00     0.157 A 
ATOM     21  C   UNL A   1      32.056  28.602  22.546  1.00  0.00     0.053 A 
ATOM     22  N   UNL A   1      30.105  29.552  21.888  1.00  0.00    -0.183 NA
ATOM     23  N   UNL A   1      31.434  29.693  21.999  1.00  0.00    -0.281 N 
ATOM     24  C   UNL A   1      33.536  28.548  22.639  1.00  0.00     0.067 C 
ATOM     25  H   UNL A   1      31.916  30.502  21.715  1.00  0.00     0.190 HD
ENDBRANCH  16  19
ENDBRANCH  14  16
ENDBRANCH  13  14
ENDBRANCH   6   8
ENDBRANCH   5   6
ENDBRANCH   4   5
ENDBRANCH   3   4
ENDBRANCH   2   3
ENDBRANCH   1   2
BRANCH   1  26
ATOM     26  C   UNL A   1      40.124  21.557  26.561  1.00  0.00     0.188 C 
BRANCH  26  27
ATOM     27  O   UNL A   1      41.298  21.815  25.799  1.00  0.00    -0.376 OA
BRANCH  27  28
ATOM     28  C   UNL A   1      42.523  22.158  26.430  1.00  0.00     0.202 C 
BRANCH  28  29
ATOM     29  C   UNL A   1      43.017  23.595  26.307  1.00  0.00     0.261 C 
BRANCH  29  30
ATOM     30  O   UNL A   1      41.959  24.541  26.386  1.00  0.00    -0.460 OA
BRANCH  30  31
ATOM     31  C   UNL A   1      42.278  25.779  25.954  1.00  0.00     0.338 C 
ATOM     32  O   UNL A   1      43.354  26.156  25.519  1.00  0.00    -0.246 OA
BRANCH  31  33
ATOM     33  C   UNL A   1      41.137  26.684  26.177  1.00  0.00     0.060 A 
ATOM     34  C   UNL A   1      41.394  28.031  25.919  1.00  0.00     0.016 A 
ATOM     35  C   UNL A   1      40.089  26.264  27.010  1.00  0.00     0.016 A 
ATOM     36  C   UNL A   1      40.888  28.945  26.806  1.00  0.00     0.010 A 
ATOM     37  C   UNL A   1      39.587  27.177  27.902  1.00  0.00     0.010 A 
ATOM     38  C   UNL A   1      40.125  28.463  27.871  1.00  0.00    -0.014 A 
BRANCH  38  39
ATOM     39  C   UNL A   1      40.112  29.273  29.069  1.00  0.00     0.031 A 
ATOM     40  C   UNL A   1      38.980  30.205  29.193  1.00  0.00     0.074 A 
ATOM     41  C   UNL A   1      41.056  29.097  30.015  1.00  0.00     0.049 A 
ATOM     42  N   UNL A   1      39.010  31.488  29.322  1.00  0.00    -0.248 NA
ATOM     43  C   UNL A   1      37.634  29.632  29.063  1.00  0.00     0.031 C 
ATOM     44  C   UNL A   1      42.029  28.002  30.138  1.00  0.00     0.029 A 
ATOM     45  N   UNL A   1      41.258  29.811  31.151  1.00  0.00    -0.354 N 
ATOM     46  C   UNL A   1      37.681  31.881  29.435  1.00  0.00     0.074 A 
ATOM     47  C   UNL A   1      36.879  30.725  29.134  1.00  0.00     0.031 C 
ATOM     48  C   UNL A   1      42.526  27.997  31.395  1.00  0.00     0.029 A 
ATOM     49  C   UNL A   1      41.994  29.143  32.114  1.00  0.00     0.049 A 
ATOM     50  H   UNL A   1      40.910  30.723  31.280  1.00  0.00     0.167 HD
ATOM     51  C   UNL A   1      37.334  33.082  29.968  1.00  0.00     0.037 A 
ATOM     52  C   UNL A   1      42.032  29.454  33.432  1.00  0.00     0.037 A 
ATOM     53  C   UNL A   1      38.428  34.013  29.955  1.00  0.00     0.049 A 
ATOM     54  C   UNL A   1      41.539  30.851  33.579  1.00  0.00     0.074 A 
ATOM     55  C   UNL A   1      39.200  34.576  28.956  1.00  0.00     0.029 A 
ATOM     56  N   UNL A   1      39.104  34.256  31.125  1.00  0.00    -0.354 N 
ATOM     57  N   UNL A   1      42.180  31.908  33.160  1.00  0.00    -0.248 NA
ATOM     58  C   UNL A   1      40.109  31.038  33.797  1.00  0.00     0.031 C 
ATOM     59  C   UNL A   1      40.504  34.694  29.515  1.00  0.00     0.029 A 
ATOM     60  C   UNL A   1      40.440  34.217  30.824  1.00  0.00     0.049 A 
ATOM     61  H   UNL A   1      38.705  34.427  32.009  1.00  0.00     0.167 HD
ATOM     62  C   UNL A   1      41.192  32.763  32.688  1.00  0.00     0.074 A 
ATOM     63  C   UNL A   1      39.936  32.210  33.183  1.00  0.00     0.031 C 
ATOM     64  C   UNL A   1      41.447  33.674  31.704  1.00  0.00     0.037 A 
BRANCH  51  65
ATOM     65  C   UNL A   1      36.087  33.302  30.776  1.00  0.00     0.064 A 
ATOM     66  C   UNL A   1      35.068  34.124  30.260  1.00  0.00     0.173 A 
ATOM     67  C   UNL A   1      35.973  32.969  32.144  1.00  0.00     0.173 A 
ATOM     68  F   UNL A   1      35.094  34.523  28.980  1.00  0.00    -0.203 F 
ATOM     69  C   UNL A   1      34.049  34.627  31.070  1.00  0.00     0.198 A 
ATOM     70  C   UNL A   1      34.920  33.422  32.934  1.00  0.00     0.198 A 
ATOM     71  F   UNL A   1      36.926  32.291  32.795  1.00  0.00    -0.203 F 
ATOM     72  F   UNL A   1      33.172  35.506  30.566  1.00  0.00    -0.200 F 
ATOM     73  C   UNL A   1      33.976  34.278  32.407  1.00  0.00     0.200 A 
ATOM     74  F   UNL A   1      34.877  33.085  34.231  1.00  0.00    -0.200 F 
ATOM     75  F   UNL A   1      33.032  34.802  33.198  1.00  0.00    -0.200 F 
ENDBRANCH  51  65
BRANCH  52  76
ATOM     76  C   UNL A   1      42.103  28.494  34.562  1.00  0.00     0.064 A 
ATOM     77  C   UNL A   1      41.311  27.336  34.583  1.00  0.00     0.173 A 
ATOM     78  C   UNL A   1      43.120  28.571  35.537  1.00  0.00     0.173 A 
ATOM     79  F   UNL A   1      40.363  27.153  33.653  1.00  0.00    -0.203 F 
ATOM     80  C   UNL A   1      41.521  26.321  35.524  1.00  0.00     0.198 A 
ATOM     81  C   UNL A   1      43.317  27.566  36.485  1.00  0.00     0.198 A 
ATOM     82  F   UNL A   1      44.006  29.576  35.538  1.00  0.00    -0.203 F 
ATOM     83  F   UNL A   1      40.779  25.205  35.480  1.00  0.00    -0.200 F 
ATOM     84  C   UNL A   1      42.524  26.436  36.473  1.00  0.00     0.200 A 
ATOM     85  F   UNL A   1      44.317  27.678  37.371  1.00  0.00    -0.200 F 
ATOM     86  F   UNL A   1      42.752  25.446  37.345  1.00  0.00    -0.200 F 
ENDBRANCH  52  76
BRANCH  64  87
ATOM     87  C   UNL A   1      42.874  33.910  31.300  1.00  0.00     0.064 A 
ATOM     88  C   UNL A   1      43.716  34.820  31.960  1.00  0.00     0.173 A 
ATOM     89  C   UNL A   1      43.459  33.046  30.366  1.00  0.00     0.173 A 
ATOM     90  F   UNL A   1      43.248  35.602  32.941  1.00  0.00    -0.203 F 
ATOM     91  C   UNL A   1      45.078  34.882  31.672  1.00  0.00     0.198 A 
ATOM     92  C   UNL A   1      44.825  33.085  30.105  1.00  0.00     0.198 A 
ATOM     93  F   UNL A   1      42.712  32.112  29.753  1.00  0.00    -0.203 F 
ATOM     94  F   UNL A   1      45.862  35.756  32.321  1.00  0.00    -0.200 F 
ATOM     95  C   UNL A   1      45.633  34.007  30.754  1.00  0.00     0.200 A 
ATOM     96  F   UNL A   1      45.368  32.201  29.256  1.00  0.00    -0.200 F 
ATOM     97  F   UNL A   1      46.953  34.027  30.519  1.00  0.00    -0.200 F 
ENDBRANCH  64  87
ENDBRANCH  38  39
ENDBRANCH  31  33
ENDBRANCH  30  31
ENDBRANCH  29  30
ENDBRANCH  28  29
ENDBRANCH  27  28
ENDBRANCH  26  27
ENDBRANCH   1  26
TORSDOF 20
ENDMDL
MODEL 3
REMARK VINA RESULT:     -11.1      1.308      2.581
REMARK SMILES Cc1nsc(N(C)S(=O)(=O)c2cn[nH]c2C)c1C(=O)OCCOCCOCCOC(=O)c1ccc(-c2c3nc(c(-c4c(F)c(F)c(F)c(F)c4F)c4ccc([nH]4)c(-c4c(F)c(F)c(F)c(F)c4F)c4nc(c(-c5c(F)c(F)c(F)c(F)c5F)c5ccc2[nH]5)C=C4)C=C3)cc1
REMARK SMILES IDX 24 1 23 2 22 3 21 4 20 5 18 6 19 7 17 8 1 9 2 10 3 11 4 12
REMARK SMILES IDX 5 13 6 14 7 15 8 16 9 17 10 18 11 19 12 20 15 21 13 22 14 23
REMARK SMILES IDX 16 24 25 26 26 27 27 28 28 29 29 30 30 31 31 32 32 33 33 34
REMARK SMILES IDX 94 35 34 36 93 37 35 38 36 39 37 40 87 41 38 42 92 43 86 44
REMARK SMILES IDX 88 45 39 46 91 47 85 48 84 49 40 51 72 52 52 53 71 54 53 55
REMARK SMILES IDX 56 56 70 57 89 58 54 59 55 60 69 62 90 63 57 64 41 65 42 66
REMARK SMILES IDX 50 67 43 68 44 69 48 70 51 71 45 72 46 73 49 74 47 75 73 76
REMARK SMILES IDX 74 77 82 78 75 79 76 80 80 81 83 82 77 83 78 84 81 85 79 86
REMARK SMILES IDX 58 87 59 88 67 89 60 90 61 91 65 92 68 93 62 94 63 95 66 96
REMARK SMILES IDX 64 97
REMARK H PARENT 14 25 88 50 56 61
REMARK Flexibility Score: inf
ROOT
ATOM      1  C   UNL A   1      40.515  22.462  26.504  1.00  0.00     0.188 C 
ENDROOT
BRANCH   1   2
ATOM      2  O   UNL A   1      39.637  21.509  25.926  1.00  0.00    -0.376 OA
BRANCH   2   3
ATOM      3  C   UNL A   1      38.279  21.919  25.803  1.00  0.00     0.202 C 
BRANCH   3   4
ATOM      4  C   UNL A   1      37.382  20.838  25.189  1.00  0.00     0.261 C 
BRANCH   4   5
ATOM      5  O   UNL A   1      36.176  21.412  24.662  1.00  0.00    -0.460 OA
BRANCH   5   6
ATOM      6  C   UNL A   1      35.038  21.413  25.404  1.00  0.00     0.343 C 
ATOM      7  O   UNL A   1      34.991  21.362  26.626  1.00  0.00    -0.246 OA
BRANCH   6   8
ATOM      8  C   UNL A   1      33.876  21.456  24.527  1.00  0.00     0.118 A 
ATOM      9  C   UNL A   1      33.602  18.818  24.439  1.00  0.00     0.069 C 
ATOM     10  C   UNL A   1      33.210  20.224  24.097  1.00  0.00     0.068 A 
ATOM     11  N   UNL A   1      32.140  20.372  23.327  1.00  0.00    -0.195 NA
ATOM     12  S   UNL A   1      31.879  21.962  23.072  1.00  0.00    -0.017 S 
ATOM     13  C   UNL A   1      33.258  22.569  23.937  1.00  0.00     0.140 A 
BRANCH  13  14
ATOM     14  N   UNL A   1      33.579  24.027  23.944  1.00  0.00    -0.258 N 
ATOM     15  C   UNL A   1      34.926  24.400  23.430  1.00  0.00     0.165 C 
BRANCH  14  16
ATOM     16  S   UNL A   1      33.195  24.816  25.427  1.00  0.00     0.268 S 
ATOM     17  O   UNL A   1      34.176  24.418  26.407  1.00  0.00    -0.201 OA
ATOM     18  O   UNL A   1      32.958  26.214  25.128  1.00  0.00    -0.201 OA
BRANCH  16  19
ATOM     19  C   UNL A   1      31.714  24.357  26.191  1.00  0.00     0.128 A 
ATOM     20  C   UNL A   1      31.502  23.246  27.022  1.00  0.00     0.157 A 
ATOM     21  C   UNL A   1      30.436  24.855  25.958  1.00  0.00     0.053 A 
ATOM     22  N   UNL A   1      30.223  23.104  27.383  1.00  0.00    -0.183 NA
ATOM     23  N   UNL A   1      29.598  24.091  26.725  1.00  0.00    -0.281 N 
ATOM     24  C   UNL A   1      29.892  25.920  25.080  1.00  0.00     0.067 C 
ATOM     25  H   UNL A   1      28.628  24.250  26.787  1.00  0.00     0.190 HD
ENDBRANCH  16  19
ENDBRANCH  14  16
ENDBRANCH  13  14
ENDBRANCH   6   8
ENDBRANCH   5   6
ENDBRANCH   4   5
ENDBRANCH   3   4
ENDBRANCH   2   3
ENDBRANCH   1   2
BRANCH   1  26
ATOM     26  C   UNL A   1      41.443  21.914  27.604  1.00  0.00     0.188 C 
BRANCH  26  27
ATOM     27  O   UNL A   1      42.325  22.758  28.335  1.00  0.00    -0.376 OA
BRANCH  27  28
ATOM     28  C   UNL A   1      43.605  23.103  27.825  1.00  0.00     0.202 C 
BRANCH  28  29
ATOM     29  C   UNL A   1      43.714  24.332  26.930  1.00  0.00     0.261 C 
BRANCH  29  30
ATOM     30  O   UNL A   1      42.606  25.210  27.076  1.00  0.00    -0.460 OA
BRANCH  30  31
ATOM     31  C   UNL A   1      42.240  25.848  25.945  1.00  0.00     0.338 C 
ATOM     32  O   UNL A   1      42.808  25.823  24.865  1.00  0.00    -0.246 OA
BRANCH  31  33
ATOM     33  C   UNL A   1      41.068  26.697  26.219  1.00  0.00     0.060 A 
ATOM     34  C   UNL A   1      41.239  28.050  25.925  1.00  0.00     0.016 A 
ATOM     35  C   UNL A   1      40.093  26.240  27.118  1.00  0.00     0.016 A 
ATOM     36  C   UNL A   1      40.737  28.954  26.825  1.00  0.00     0.010 A 
ATOM     37  C   UNL A   1      39.595  27.143  28.023  1.00  0.00     0.010 A 
ATOM     38  C   UNL A   1      40.062  28.453  27.940  1.00  0.00    -0.014 A 
BRANCH  38  39
ATOM     39  C   UNL A   1      40.075  29.284  29.124  1.00  0.00     0.031 A 
ATOM     40  C   UNL A   1      38.946  30.218  29.255  1.00  0.00     0.074 A 
ATOM     41  C   UNL A   1      41.039  29.125  30.052  1.00  0.00     0.049 A 
ATOM     42  N   UNL A   1      38.978  31.504  29.361  1.00  0.00    -0.248 NA
ATOM     43  C   UNL A   1      37.597  29.643  29.165  1.00  0.00     0.031 C 
ATOM     44  C   UNL A   1      42.015  28.033  30.172  1.00  0.00     0.029 A 
ATOM     45  N   UNL A   1      41.265  29.859  31.171  1.00  0.00    -0.354 N 
ATOM     46  C   UNL A   1      37.652  31.899  29.496  1.00  0.00     0.074 A 
ATOM     47  C   UNL A   1      36.843  30.737  29.233  1.00  0.00     0.031 C 
ATOM     48  C   UNL A   1      42.539  28.050  31.419  1.00  0.00     0.029 A 
ATOM     49  C   UNL A   1      42.022  29.207  32.129  1.00  0.00     0.049 A 
ATOM     50  H   UNL A   1      40.920  30.773  31.291  1.00  0.00     0.167 HD
ATOM     51  C   UNL A   1      37.315  33.108  30.015  1.00  0.00     0.037 A 
ATOM     52  C   UNL A   1      42.088  29.541  33.440  1.00  0.00     0.037 A 
ATOM     53  C   UNL A   1      38.409  34.039  29.963  1.00  0.00     0.049 A 
ATOM     54  C   UNL A   1      41.598  30.941  33.573  1.00  0.00     0.074 A 
ATOM     55  C   UNL A   1      39.159  34.585  28.938  1.00  0.00     0.029 A 
ATOM     56  N   UNL A   1      39.110  34.303  31.114  1.00  0.00    -0.354 N 
ATOM     57  N   UNL A   1      42.229  31.990  33.122  1.00  0.00    -0.248 NA
ATOM     58  C   UNL A   1      40.174  31.131  33.819  1.00  0.00     0.031 C 
ATOM     59  C   UNL A   1      40.475  34.713  29.466  1.00  0.00     0.029 A 
ATOM     60  C   UNL A   1      40.439  34.259  30.784  1.00  0.00     0.049 A 
ATOM     61  H   UNL A   1      38.730  34.489  32.003  1.00  0.00     0.167 HD
ATOM     62  C   UNL A   1      41.232  32.837  32.657  1.00  0.00     0.074 A 
ATOM     63  C   UNL A   1      39.987  32.293  33.188  1.00  0.00     0.031 C 
ATOM     64  C   UNL A   1      41.465  33.731  31.652  1.00  0.00     0.037 A 
BRANCH  51  65
ATOM     65  C   UNL A   1      36.086  33.342  30.847  1.00  0.00     0.064 A 
ATOM     66  C   UNL A   1      35.060  34.163  30.342  1.00  0.00     0.173 A 
ATOM     67  C   UNL A   1      35.999  33.026  32.220  1.00  0.00     0.173 A 
ATOM     68  F   UNL A   1      35.061  34.546  29.057  1.00  0.00    -0.203 F 
ATOM     69  C   UNL A   1      34.059  34.679  31.167  1.00  0.00     0.198 A 
ATOM     70  C   UNL A   1      34.964  33.492  33.026  1.00  0.00     0.198 A 
ATOM     71  F   UNL A   1      36.963  32.352  32.859  1.00  0.00    -0.203 F 
ATOM     72  F   UNL A   1      33.176  35.556  30.670  1.00  0.00    -0.200 F 
ATOM     73  C   UNL A   1      34.013  34.345  32.509  1.00  0.00     0.200 A 
ATOM     74  F   UNL A   1      34.947  33.170  34.327  1.00  0.00    -0.200 F 
ATOM     75  F   UNL A   1      33.087  34.883  33.313  1.00  0.00    -0.200 F 
ENDBRANCH  51  65
BRANCH  52  76
ATOM     76  C   UNL A   1      42.184  28.601  34.585  1.00  0.00     0.064 A 
ATOM     77  C   UNL A   1      41.394  27.444  34.642  1.00  0.00     0.173 A 
ATOM     78  C   UNL A   1      43.221  28.696  35.537  1.00  0.00     0.173 A 
ATOM     79  F   UNL A   1      40.427  27.244  33.736  1.00  0.00    -0.203 F 
ATOM     80  C   UNL A   1      41.625  26.445  35.596  1.00  0.00     0.198 A 
ATOM     81  C   UNL A   1      43.440  27.709  36.498  1.00  0.00     0.198 A 
ATOM     82  F   UNL A   1      44.106  29.702  35.502  1.00  0.00    -0.203 F 
ATOM     83  F   UNL A   1      40.884  25.328  35.588  1.00  0.00    -0.200 F 
ATOM     84  C   UNL A   1      42.647  26.578  36.522  1.00  0.00     0.200 A 
ATOM     85  F   UNL A   1      44.458  27.836  37.361  1.00  0.00    -0.200 F 
ATOM     86  F   UNL A   1      42.895  25.603  37.406  1.00  0.00    -0.200 F 
ENDBRANCH  52  76
BRANCH  64  87
ATOM     87  C   UNL A   1      42.882  33.959  31.213  1.00  0.00     0.064 A 
ATOM     88  C   UNL A   1      43.511  33.187  30.222  1.00  0.00     0.173 A 
ATOM     89  C   UNL A   1      43.544  35.114  31.652  1.00  0.00     0.173 A 
ATOM     90  F   UNL A   1      42.893  32.132  29.679  1.00  0.00    -0.203 F 
ATOM     91  C   UNL A   1      44.761  33.540  29.718  1.00  0.00     0.198 A 
ATOM     92  C   UNL A   1      44.777  35.483  31.122  1.00  0.00     0.198 A 
ATOM     93  F   UNL A   1      42.960  35.923  32.551  1.00  0.00    -0.203 F 
ATOM     94  F   UNL A   1      45.338  32.789  28.767  1.00  0.00    -0.200 F 
ATOM     95  C   UNL A   1      45.387  34.693  30.159  1.00  0.00     0.200 A 
ATOM     96  F   UNL A   1      45.355  36.628  31.512  1.00  0.00    -0.200 F 
ATOM     97  F   UNL A   1      46.563  35.064  29.633  1.00  0.00    -0.200 F 
ENDBRANCH  64  87
ENDBRANCH  38  39
ENDBRANCH  31  33
ENDBRANCH  30  31
ENDBRANCH  29  30
ENDBRANCH  28  29
ENDBRANCH  27  28
ENDBRANCH  26  27
ENDBRANCH   1  26
TORSDOF 20
ENDMDL
