MODEL 1
REMARK VINA RESULT:     -10.7      0.000      0.000
REMARK SMILES O=C(OCCOCCOCCOC(=O)[C@H]1CCO[C@H]1Cc1ccccc1)c1ccc(-c2c3nc(c(-c4c(F)c(F)c(F)c(F)c4F)c4ccc([nH]4)c(-c4c(F)c(F)c(F)c(F)c4F)c4nc(c(-c5c(F)c(F)c(F)c(F)c5F)c5ccc2[nH]5)C=C4)C=C3)cc1
REMARK SMILES IDX 7 1 6 2 5 3 4 4 3 5 2 6 1 7 27 8 28 9 89 10 29 11 88 12
REMARK SMILES IDX 30 13 31 14 32 15 82 16 33 17 87 18 81 19 83 20 34 21 86 22
REMARK SMILES IDX 80 23 79 24 35 26 67 27 47 28 66 29 48 30 51 31 65 32 84 33
REMARK SMILES IDX 49 34 50 35 64 37 85 38 52 39 36 40 37 41 45 42 38 43 39 44
REMARK SMILES IDX 43 45 46 46 40 47 41 48 44 49 42 50 68 51 69 52 77 53 70 54
REMARK SMILES IDX 71 55 75 56 78 57 72 58 73 59 76 60 74 61 53 62 54 63 62 64
REMARK SMILES IDX 55 65 56 66 60 67 63 68 57 69 58 70 61 71 59 72 8 73 9 74
REMARK SMILES IDX 10 75 11 76 12 77 13 78 14 79 15 80 16 81 19 82 17 83 18 84
REMARK SMILES IDX 20 85 21 86 22 87 26 88 23 89 25 90 24 91
REMARK H PARENT 83 25 51 36
REMARK Flexibility Score: inf
ROOT
ATOM      1  C   UNL A   1      31.781  29.856  25.384  1.00  0.00     0.188 C 
ENDROOT
BRANCH   1   2
ATOM      2  O   UNL A   1      31.427  30.513  26.610  1.00  0.00    -0.376 OA
BRANCH   2   3
ATOM      3  C   UNL A   1      31.397  31.941  26.531  1.00  0.00     0.202 C 
BRANCH   3   4
ATOM      4  C   UNL A   1      32.569  32.669  27.209  1.00  0.00     0.261 C 
BRANCH   4   5
ATOM      5  O   UNL A   1      32.284  33.983  27.721  1.00  0.00    -0.460 OA
BRANCH   5   6
ATOM      6  C   UNL A   1      32.954  34.748  28.615  1.00  0.00     0.338 C 
ATOM      7  O   UNL A   1      32.528  35.884  28.829  1.00  0.00    -0.246 OA
BRANCH   6   8
ATOM      8  C   UNL A   1      34.200  34.332  29.339  1.00  0.00     0.060 A 
ATOM      9  C   UNL A   1      35.500  34.393  28.834  1.00  0.00     0.016 A 
ATOM     10  C   UNL A   1      34.031  33.820  30.643  1.00  0.00     0.016 A 
ATOM     11  C   UNL A   1      36.591  33.941  29.564  1.00  0.00     0.010 A 
ATOM     12  C   UNL A   1      35.119  33.343  31.380  1.00  0.00     0.010 A 
ATOM     13  C   UNL A   1      36.399  33.368  30.815  1.00  0.00    -0.014 A 
BRANCH  13  14
ATOM     14  C   UNL A   1      37.502  32.573  31.379  1.00  0.00     0.031 A 
ATOM     15  C   UNL A   1      38.044  32.997  32.708  1.00  0.00     0.074 A 
ATOM     16  C   UNL A   1      37.905  31.433  30.799  1.00  0.00     0.049 A 
ATOM     17  N   UNL A   1      38.987  32.451  33.425  1.00  0.00    -0.248 NA
ATOM     18  C   UNL A   1      37.391  34.156  33.344  1.00  0.00     0.031 C 
ATOM     19  C   UNL A   1      37.294  30.831  29.622  1.00  0.00     0.029 A 
ATOM     20  N   UNL A   1      38.934  30.588  31.107  1.00  0.00    -0.354 N 
ATOM     21  C   UNL A   1      39.001  33.162  34.614  1.00  0.00     0.074 A 
ATOM     22  C   UNL A   1      38.024  34.219  34.503  1.00  0.00     0.031 C 
ATOM     23  C   UNL A   1      38.030  29.781  29.228  1.00  0.00     0.029 A 
ATOM     24  C   UNL A   1      39.149  29.630  30.145  1.00  0.00     0.049 A 
ATOM     25  H   UNL A   1      39.467  30.657  31.932  1.00  0.00     0.167 HD
ATOM     26  C   UNL A   1      39.750  32.922  35.713  1.00  0.00     0.037 A 
ATOM     27  C   UNL A   1      40.160  28.755  30.015  1.00  0.00     0.037 A 
ATOM     28  C   UNL A   1      40.751  31.893  35.773  1.00  0.00     0.049 A 
ATOM     29  C   UNL A   1      41.151  28.665  31.138  1.00  0.00     0.074 A 
ATOM     30  C   UNL A   1      41.620  31.588  36.801  1.00  0.00     0.029 A 
ATOM     31  N   UNL A   1      41.026  31.010  34.734  1.00  0.00    -0.354 N 
ATOM     32  N   UNL A   1      41.179  29.345  32.261  1.00  0.00    -0.248 NA
ATOM     33  C   UNL A   1      42.213  27.665  31.009  1.00  0.00     0.031 C 
ATOM     34  C   UNL A   1      42.465  30.562  36.360  1.00  0.00     0.029 A 
ATOM     35  C   UNL A   1      42.080  30.183  35.083  1.00  0.00     0.049 A 
ATOM     36  H   UNL A   1      40.543  30.978  33.877  1.00  0.00     0.167 HD
ATOM     37  C   UNL A   1      42.222  28.814  33.001  1.00  0.00     0.074 A 
ATOM     38  C   UNL A   1      42.810  27.764  32.189  1.00  0.00     0.031 C 
ATOM     39  C   UNL A   1      42.638  29.146  34.248  1.00  0.00     0.037 A 
BRANCH  26  40
ATOM     40  C   UNL A   1      39.531  33.823  36.890  1.00  0.00     0.064 A 
ATOM     41  C   UNL A   1      40.181  35.063  37.000  1.00  0.00     0.173 A 
ATOM     42  C   UNL A   1      38.697  33.423  37.942  1.00  0.00     0.173 A 
ATOM     43  F   UNL A   1      41.017  35.476  36.035  1.00  0.00    -0.203 F 
ATOM     44  C   UNL A   1      40.026  35.855  38.136  1.00  0.00     0.198 A 
ATOM     45  C   UNL A   1      38.522  34.229  39.064  1.00  0.00     0.198 A 
ATOM     46  F   UNL A   1      38.065  32.241  37.892  1.00  0.00    -0.203 F 
ATOM     47  F   UNL A   1      40.703  37.006  38.247  1.00  0.00    -0.200 F 
ATOM     48  C   UNL A   1      39.193  35.439  39.164  1.00  0.00     0.200 A 
ATOM     49  F   UNL A   1      37.718  33.826  40.057  1.00  0.00    -0.200 F 
ATOM     50  F   UNL A   1      39.049  36.197  40.260  1.00  0.00    -0.200 F 
ENDBRANCH  26  40
BRANCH  27  51
ATOM     51  C   UNL A   1      40.269  27.918  28.793  1.00  0.00     0.064 A 
ATOM     52  C   UNL A   1      39.640  26.672  28.700  1.00  0.00     0.173 A 
ATOM     53  C   UNL A   1      41.016  28.357  27.686  1.00  0.00     0.173 A 
ATOM     54  F   UNL A   1      38.928  26.202  29.734  1.00  0.00    -0.203 F 
ATOM     55  C   UNL A   1      39.769  25.884  27.557  1.00  0.00     0.198 A 
ATOM     56  C   UNL A   1      41.126  27.577  26.536  1.00  0.00     0.198 A 
ATOM     57  F   UNL A   1      41.644  29.540  27.726  1.00  0.00    -0.203 F 
ATOM     58  F   UNL A   1      39.193  24.675  27.512  1.00  0.00    -0.200 F 
ATOM     59  C   UNL A   1      40.509  26.337  26.475  1.00  0.00     0.200 A 
ATOM     60  F   UNL A   1      41.841  28.020  25.492  1.00  0.00    -0.200 F 
ATOM     61  F   UNL A   1      40.639  25.574  25.382  1.00  0.00    -0.200 F 
ENDBRANCH  27  51
BRANCH  39  62
ATOM     62  C   UNL A   1      43.752  28.327  34.827  1.00  0.00     0.064 A 
ATOM     63  C   UNL A   1      45.095  28.698  34.677  1.00  0.00     0.173 A 
ATOM     64  C   UNL A   1      43.461  27.178  35.576  1.00  0.00     0.173 A 
ATOM     65  F   UNL A   1      45.421  29.778  33.952  1.00  0.00    -0.203 F 
ATOM     66  C   UNL A   1      46.110  27.928  35.235  1.00  0.00     0.198 A 
ATOM     67  C   UNL A   1      44.476  26.432  36.163  1.00  0.00     0.198 A 
ATOM     68  F   UNL A   1      42.189  26.787  35.752  1.00  0.00    -0.203 F 
ATOM     69  F   UNL A   1      47.391  28.268  35.034  1.00  0.00    -0.200 F 
ATOM     70  C   UNL A   1      45.800  26.803  35.985  1.00  0.00     0.200 A 
ATOM     71  F   UNL A   1      44.173  25.356  36.902  1.00  0.00    -0.200 F 
ATOM     72  F   UNL A   1      46.780  26.071  36.531  1.00  0.00    -0.200 F 
ENDBRANCH  39  62
ENDBRANCH  13  14
ENDBRANCH   6   8
ENDBRANCH   5   6
ENDBRANCH   4   5
ENDBRANCH   3   4
ENDBRANCH   2   3
ENDBRANCH   1   2
BRANCH   1  73
ATOM     73  C   UNL A   1      32.245  28.412  25.533  1.00  0.00     0.188 C 
BRANCH  73  74
ATOM     74  O   UNL A   1      32.563  27.878  24.264  1.00  0.00    -0.376 OA
BRANCH  74  75
ATOM     75  C   UNL A   1      31.510  27.183  23.616  1.00  0.00     0.202 C 
BRANCH  75  76
ATOM     76  C   UNL A   1      31.467  25.644  23.589  1.00  0.00     0.261 C 
BRANCH  76  77
ATOM     77  O   UNL A   1      30.465  24.920  24.328  1.00  0.00    -0.463 OA
BRANCH  77  78
ATOM     78  C   UNL A   1      30.653  24.777  25.659  1.00  0.00     0.311 C 
ATOM     79  O   UNL A   1      30.365  25.629  26.496  1.00  0.00    -0.252 OA
BRANCH  78  80
ATOM     80  C   UNL A   1      31.278  23.452  26.032  1.00  0.00     0.131 C 
ATOM     81  C   UNL A   1      31.421  22.402  24.950  1.00  0.00     0.046 C 
ATOM     82  C   UNL A   1      32.684  23.502  26.643  1.00  0.00     0.136 C 
ATOM     83  C   UNL A   1      32.304  21.400  25.663  1.00  0.00     0.161 C 
ATOM     84  O   UNL A   1      33.253  22.180  26.406  1.00  0.00    -0.377 OA
BRANCH  82  85
ATOM     85  C   UNL A   1      33.704  24.521  26.085  1.00  0.00     0.068 C 
BRANCH  85  86
ATOM     86  C   UNL A   1      34.865  23.976  25.286  1.00  0.00    -0.045 A 
ATOM     87  C   UNL A   1      36.085  23.719  25.932  1.00  0.00     0.004 A 
ATOM     88  C   UNL A   1      34.758  23.685  23.921  1.00  0.00     0.004 A 
ATOM     89  C   UNL A   1      37.131  23.085  25.253  1.00  0.00     0.000 A 
ATOM     90  C   UNL A   1      35.792  23.027  23.251  1.00  0.00     0.000 A 
ATOM     91  C   UNL A   1      36.971  22.713  23.920  1.00  0.00     0.000 A 
ENDBRANCH  85  86
ENDBRANCH  82  85
ENDBRANCH  78  80
ENDBRANCH  77  78
ENDBRANCH  76  77
ENDBRANCH  75  76
ENDBRANCH  74  75
ENDBRANCH  73  74
ENDBRANCH   1  73
TORSDOF 19
ENDMDL
MODEL 2
REMARK VINA RESULT:     -10.7      3.294      8.676
REMARK SMILES O=C(OCCOCCOCCOC(=O)[C@H]1CCO[C@H]1Cc1ccccc1)c1ccc(-c2c3nc(c(-c4c(F)c(F)c(F)c(F)c4F)c4ccc([nH]4)c(-c4c(F)c(F)c(F)c(F)c4F)c4nc(c(-c5c(F)c(F)c(F)c(F)c5F)c5ccc2[nH]5)C=C4)C=C3)cc1
REMARK SMILES IDX 7 1 6 2 5 3 4 4 3 5 2 6 1 7 27 8 28 9 89 10 29 11 88 12
REMARK SMILES IDX 30 13 31 14 32 15 82 16 33 17 87 18 81 19 83 20 34 21 86 22
REMARK SMILES IDX 80 23 79 24 35 26 67 27 47 28 66 29 48 30 51 31 65 32 84 33
REMARK SMILES IDX 49 34 50 35 64 37 85 38 52 39 36 40 37 41 45 42 38 43 39 44
REMARK SMILES IDX 43 45 46 46 40 47 41 48 44 49 42 50 68 51 69 52 77 53 70 54
REMARK SMILES IDX 71 55 75 56 78 57 72 58 73 59 76 60 74 61 53 62 54 63 62 64
REMARK SMILES IDX 55 65 56 66 60 67 63 68 57 69 58 70 61 71 59 72 8 73 9 74
REMARK SMILES IDX 10 75 11 76 12 77 13 78 14 79 15 80 16 81 19 82 17 83 18 84
REMARK SMILES IDX 20 85 21 86 22 87 26 88 23 89 25 90 24 91
REMARK H PARENT 83 25 51 36
REMARK Flexibility Score: inf
ROOT
ATOM      1  C   UNL A   1      40.009  21.088  26.350  1.00  0.00     0.188 C 
ENDROOT
BRANCH   1   2
ATOM      2  O   UNL A   1      41.144  21.603  25.640  1.00  0.00    -0.376 OA
BRANCH   2   3
ATOM      3  C   UNL A   1      42.398  21.042  26.040  1.00  0.00     0.202 C 
BRANCH   3   4
ATOM      4  C   UNL A   1      43.641  21.639  25.358  1.00  0.00     0.261 C 
BRANCH   4   5
ATOM      5  O   UNL A   1      43.438  22.871  24.644  1.00  0.00    -0.460 OA
BRANCH   5   6
ATOM      6  C   UNL A   1      43.899  24.120  24.887  1.00  0.00     0.338 C 
ATOM      7  O   UNL A   1      44.977  24.441  24.385  1.00  0.00    -0.246 OA
BRANCH   6   8
ATOM      8  C   UNL A   1      43.215  25.136  25.755  1.00  0.00     0.060 A 
ATOM      9  C   UNL A   1      43.620  26.459  25.941  1.00  0.00     0.016 A 
ATOM     10  C   UNL A   1      42.070  24.700  26.454  1.00  0.00     0.016 A 
ATOM     11  C   UNL A   1      42.947  27.316  26.802  1.00  0.00     0.010 A 
ATOM     12  C   UNL A   1      41.396  25.547  27.340  1.00  0.00     0.010 A 
ATOM     13  C   UNL A   1      41.868  26.849  27.542  1.00  0.00    -0.014 A 
BRANCH  13  14
ATOM     14  C   UNL A   1      41.432  27.651  28.696  1.00  0.00     0.031 A 
ATOM     15  C   UNL A   1      42.226  27.525  29.959  1.00  0.00     0.074 A 
ATOM     16  C   UNL A   1      40.459  28.567  28.579  1.00  0.00     0.049 A 
ATOM     17  N   UNL A   1      42.066  28.141  31.097  1.00  0.00    -0.248 NA
ATOM     18  C   UNL A   1      43.395  26.630  29.912  1.00  0.00     0.031 C 
ATOM     19  C   UNL A   1      39.777  28.909  27.339  1.00  0.00     0.029 A 
ATOM     20  N   UNL A   1      39.860  29.361  29.518  1.00  0.00    -0.354 N 
ATOM     21  C   UNL A   1      43.142  27.753  31.878  1.00  0.00     0.074 A 
ATOM     22  C   UNL A   1      43.913  26.799  31.117  1.00  0.00     0.031 C 
ATOM     23  C   UNL A   1      38.768  29.752  27.606  1.00  0.00     0.029 A 
ATOM     24  C   UNL A   1      38.756  30.022  29.035  1.00  0.00     0.049 A 
ATOM     25  H   UNL A   1      40.186  29.451  30.442  1.00  0.00     0.167 HD
ATOM     26  C   UNL A   1      43.467  28.189  33.116  1.00  0.00     0.037 A 
ATOM     27  C   UNL A   1      37.828  30.737  29.693  1.00  0.00     0.037 A 
ATOM     28  C   UNL A   1      42.649  29.101  33.867  1.00  0.00     0.049 A 
ATOM     29  C   UNL A   1      38.064  31.011  31.149  1.00  0.00     0.074 A 
ATOM     30  C   UNL A   1      42.832  29.570  35.152  1.00  0.00     0.029 A 
ATOM     31  N   UNL A   1      41.470  29.665  33.393  1.00  0.00    -0.354 N 
ATOM     32  N   UNL A   1      39.074  30.635  31.899  1.00  0.00    -0.248 NA
ATOM     33  C   UNL A   1      37.075  31.842  31.838  1.00  0.00     0.031 C 
ATOM     34  C   UNL A   1      41.729  30.368  35.480  1.00  0.00     0.029 A 
ATOM     35  C   UNL A   1      40.892  30.449  34.377  1.00  0.00     0.049 A 
ATOM     36  H   UNL A   1      41.100  29.527  32.491  1.00  0.00     0.167 HD
ATOM     37  C   UNL A   1      38.877  31.233  33.132  1.00  0.00     0.074 A 
ATOM     38  C   UNL A   1      37.639  31.985  33.030  1.00  0.00     0.031 C 
ATOM     39  C   UNL A   1      39.659  31.186  34.238  1.00  0.00     0.037 A 
BRANCH  26  40
ATOM     40  C   UNL A   1      44.722  27.636  33.719  1.00  0.00     0.064 A 
ATOM     41  C   UNL A   1      45.960  28.280  33.564  1.00  0.00     0.173 A 
ATOM     42  C   UNL A   1      44.695  26.425  34.423  1.00  0.00     0.173 A 
ATOM     43  F   UNL A   1      46.044  29.425  32.870  1.00  0.00    -0.203 F 
ATOM     44  C   UNL A   1      47.129  27.714  34.067  1.00  0.00     0.198 A 
ATOM     45  C   UNL A   1      45.862  25.876  34.948  1.00  0.00     0.198 A 
ATOM     46  F   UNL A   1      43.540  25.763  34.586  1.00  0.00    -0.203 F 
ATOM     47  F   UNL A   1      48.309  28.315  33.855  1.00  0.00    -0.200 F 
ATOM     48  C   UNL A   1      47.078  26.516  34.762  1.00  0.00     0.200 A 
ATOM     49  F   UNL A   1      45.811  24.717  35.619  1.00  0.00    -0.200 F 
ATOM     50  F   UNL A   1      48.204  25.967  35.240  1.00  0.00    -0.200 F 
ENDBRANCH  26  40
BRANCH  27  51
ATOM     51  C   UNL A   1      36.621  31.226  28.980  1.00  0.00     0.064 A 
ATOM     52  C   UNL A   1      36.484  32.568  28.606  1.00  0.00     0.173 A 
ATOM     53  C   UNL A   1      35.570  30.349  28.660  1.00  0.00     0.173 A 
ATOM     54  F   UNL A   1      37.452  33.447  28.903  1.00  0.00    -0.203 F 
ATOM     55  C   UNL A   1      35.335  33.022  27.960  1.00  0.00     0.198 A 
ATOM     56  C   UNL A   1      34.432  30.800  27.993  1.00  0.00     0.198 A 
ATOM     57  F   UNL A   1      35.648  29.055  29.001  1.00  0.00    -0.203 F 
ATOM     58  F   UNL A   1      35.212  34.320  27.653  1.00  0.00    -0.200 F 
ATOM     59  C   UNL A   1      34.312  32.138  27.651  1.00  0.00     0.200 A 
ATOM     60  F   UNL A   1      33.446  29.942  27.696  1.00  0.00    -0.200 F 
ATOM     61  F   UNL A   1      33.205  32.578  27.037  1.00  0.00    -0.200 F 
ENDBRANCH  27  51
BRANCH  39  62
ATOM     62  C   UNL A   1      39.222  32.015  35.408  1.00  0.00     0.064 A 
ATOM     63  C   UNL A   1      38.450  31.477  36.446  1.00  0.00     0.173 A 
ATOM     64  C   UNL A   1      39.620  33.357  35.505  1.00  0.00     0.173 A 
ATOM     65  F   UNL A   1      38.031  30.204  36.387  1.00  0.00    -0.203 F 
ATOM     66  C   UNL A   1      38.068  32.263  37.529  1.00  0.00     0.198 A 
ATOM     67  C   UNL A   1      39.268  34.129  36.605  1.00  0.00     0.198 A 
ATOM     68  F   UNL A   1      40.365  33.914  34.537  1.00  0.00    -0.203 F 
ATOM     69  F   UNL A   1      37.284  31.745  38.484  1.00  0.00    -0.200 F 
ATOM     70  C   UNL A   1      38.485  33.583  37.612  1.00  0.00     0.200 A 
ATOM     71  F   UNL A   1      39.685  35.399  36.692  1.00  0.00    -0.200 F 
ATOM     72  F   UNL A   1      38.126  34.334  38.661  1.00  0.00    -0.200 F 
ENDBRANCH  39  62
ENDBRANCH  13  14
ENDBRANCH   6   8
ENDBRANCH   5   6
ENDBRANCH   4   5
ENDBRANCH   3   4
ENDBRANCH   2   3
ENDBRANCH   1   2
BRANCH   1  73
ATOM     73  C   UNL A   1      39.194  20.042  25.597  1.00  0.00     0.188 C 
BRANCH  73  74
ATOM     74  O   UNL A   1      37.891  20.533  25.356  1.00  0.00    -0.376 OA
BRANCH  74  75
ATOM     75  C   UNL A   1      37.802  21.927  25.110  1.00  0.00     0.202 C 
BRANCH  75  76
ATOM     76  C   UNL A   1      36.836  22.819  25.912  1.00  0.00     0.261 C 
BRANCH  76  77
ATOM     77  O   UNL A   1      35.438  22.492  26.011  1.00  0.00    -0.463 OA
BRANCH  77  78
ATOM     78  C   UNL A   1      34.546  23.453  25.680  1.00  0.00     0.311 C 
ATOM     79  O   UNL A   1      34.824  24.470  25.049  1.00  0.00    -0.252 OA
BRANCH  78  80
ATOM     80  C   UNL A   1      33.150  23.166  26.181  1.00  0.00     0.131 C 
ATOM     81  C   UNL A   1      32.071  24.194  25.915  1.00  0.00     0.046 C 
ATOM     82  C   UNL A   1      32.500  21.862  25.702  1.00  0.00     0.136 C 
ATOM     83  C   UNL A   1      30.844  23.408  26.322  1.00  0.00     0.161 C 
ATOM     84  O   UNL A   1      31.065  22.072  25.848  1.00  0.00    -0.377 OA
BRANCH  82  85
ATOM     85  C   UNL A   1      32.727  21.410  24.240  1.00  0.00     0.068 C 
BRANCH  85  86
ATOM     86  C   UNL A   1      33.005  19.945  24.001  1.00  0.00    -0.045 A 
ATOM     87  C   UNL A   1      32.240  19.244  23.054  1.00  0.00     0.004 A 
ATOM     88  C   UNL A   1      34.029  19.262  24.670  1.00  0.00     0.004 A 
ATOM     89  C   UNL A   1      32.565  17.928  22.709  1.00  0.00     0.000 A 
ATOM     90  C   UNL A   1      34.369  17.958  24.305  1.00  0.00     0.000 A 
ATOM     91  C   UNL A   1      33.649  17.296  23.314  1.00  0.00     0.000 A 
ENDBRANCH  85  86
ENDBRANCH  82  85
ENDBRANCH  78  80
ENDBRANCH  77  78
ENDBRANCH  76  77
ENDBRANCH  75  76
ENDBRANCH  74  75
ENDBRANCH  73  74
ENDBRANCH   1  73
TORSDOF 19
ENDMDL
MODEL 3
REMARK VINA RESULT:     -10.6      3.190      8.610
REMARK SMILES O=C(OCCOCCOCCOC(=O)[C@H]1CCO[C@H]1Cc1ccccc1)c1ccc(-c2c3nc(c(-c4c(F)c(F)c(F)c(F)c4F)c4ccc([nH]4)c(-c4c(F)c(F)c(F)c(F)c4F)c4nc(c(-c5c(F)c(F)c(F)c(F)c5F)c5ccc2[nH]5)C=C4)C=C3)cc1
REMARK SMILES IDX 7 1 6 2 5 3 4 4 3 5 2 6 1 7 27 8 28 9 89 10 29 11 88 12
REMARK SMILES IDX 30 13 31 14 32 15 82 16 33 17 87 18 81 19 83 20 34 21 86 22
REMARK SMILES IDX 80 23 79 24 35 26 67 27 47 28 66 29 48 30 51 31 65 32 84 33
REMARK SMILES IDX 49 34 50 35 64 37 85 38 52 39 36 40 37 41 45 42 38 43 39 44
REMARK SMILES IDX 43 45 46 46 40 47 41 48 44 49 42 50 68 51 69 52 77 53 70 54
REMARK SMILES IDX 71 55 75 56 78 57 72 58 73 59 76 60 74 61 53 62 54 63 62 64
REMARK SMILES IDX 55 65 56 66 60 67 63 68 57 69 58 70 61 71 59 72 8 73 9 74
REMARK SMILES IDX 10 75 11 76 12 77 13 78 14 79 15 80 16 81 19 82 17 83 18 84
REMARK SMILES IDX 20 85 21 86 22 87 26 88 23 89 25 90 24 91
REMARK H PARENT 83 25 51 36
REMARK Flexibility Score: inf
ROOT
ATOM      1  C   UNL A   1      39.692  20.876  26.074  1.00  0.00     0.188 C 
ENDROOT
BRANCH   1   2
ATOM      2  O   UNL A   1      40.961  20.211  26.161  1.00  0.00    -0.376 OA
BRANCH   2   3
ATOM      3  C   UNL A   1      42.009  21.005  26.722  1.00  0.00     0.202 C 
BRANCH   3   4
ATOM      4  C   UNL A   1      43.160  21.358  25.764  1.00  0.00     0.261 C 
BRANCH   4   5
ATOM      5  O   UNL A   1      42.940  22.490  24.904  1.00  0.00    -0.460 OA
BRANCH   5   6
ATOM      6  C   UNL A   1      43.406  23.758  24.974  1.00  0.00     0.338 C 
ATOM      7  O   UNL A   1      44.412  24.036  24.320  1.00  0.00    -0.246 OA
BRANCH   6   8
ATOM      8  C   UNL A   1      42.812  24.847  25.819  1.00  0.00     0.060 A 
ATOM      9  C   UNL A   1      43.358  26.116  26.021  1.00  0.00     0.016 A 
ATOM     10  C   UNL A   1      41.600  24.547  26.476  1.00  0.00     0.016 A 
ATOM     11  C   UNL A   1      42.757  27.046  26.859  1.00  0.00     0.010 A 
ATOM     12  C   UNL A   1      40.996  25.467  27.338  1.00  0.00     0.010 A 
ATOM     13  C   UNL A   1      41.606  26.706  27.559  1.00  0.00    -0.014 A 
BRANCH  13  14
ATOM     14  C   UNL A   1      41.224  27.556  28.699  1.00  0.00     0.031 A 
ATOM     15  C   UNL A   1      42.051  27.451  29.942  1.00  0.00     0.074 A 
ATOM     16  C   UNL A   1      40.269  28.491  28.581  1.00  0.00     0.049 A 
ATOM     17  N   UNL A   1      41.940  28.107  31.063  1.00  0.00    -0.248 NA
ATOM     18  C   UNL A   1      43.198  26.526  29.890  1.00  0.00     0.031 C 
ATOM     19  C   UNL A   1      39.559  28.810  27.350  1.00  0.00     0.029 A 
ATOM     20  N   UNL A   1      39.718  29.329  29.509  1.00  0.00    -0.354 N 
ATOM     21  C   UNL A   1      43.030  27.718  31.825  1.00  0.00     0.074 A 
ATOM     22  C   UNL A   1      43.755  26.721  31.073  1.00  0.00     0.031 C 
ATOM     23  C   UNL A   1      38.579  29.685  27.619  1.00  0.00     0.029 A 
ATOM     24  C   UNL A   1      38.616  30.000  29.038  1.00  0.00     0.049 A 
ATOM     25  H   UNL A   1      40.073  29.440  30.421  1.00  0.00     0.167 HD
ATOM     26  C   UNL A   1      43.401  28.185  33.038  1.00  0.00     0.037 A 
ATOM     27  C   UNL A   1      37.724  30.759  29.698  1.00  0.00     0.037 A 
ATOM     28  C   UNL A   1      42.628  29.140  33.782  1.00  0.00     0.049 A 
ATOM     29  C   UNL A   1      38.011  31.074  31.137  1.00  0.00     0.074 A 
ATOM     30  C   UNL A   1      42.860  29.645  35.046  1.00  0.00     0.029 A 
ATOM     31  N   UNL A   1      41.448  29.717  33.325  1.00  0.00    -0.354 N 
ATOM     32  N   UNL A   1      39.033  30.697  31.870  1.00  0.00    -0.248 NA
ATOM     33  C   UNL A   1      37.062  31.951  31.827  1.00  0.00     0.031 C 
ATOM     34  C   UNL A   1      41.786  30.480  35.378  1.00  0.00     0.029 A 
ATOM     35  C   UNL A   1      40.919  30.547  34.298  1.00  0.00     0.049 A 
ATOM     36  H   UNL A   1      41.049  29.560  32.439  1.00  0.00     0.167 HD
ATOM     37  C   UNL A   1      38.886  31.339  33.088  1.00  0.00     0.074 A 
ATOM     38  C   UNL A   1      37.664  32.118  32.997  1.00  0.00     0.031 C 
ATOM     39  C   UNL A   1      39.700  31.309  34.171  1.00  0.00     0.037 A 
BRANCH  26  40
ATOM     40  C   UNL A   1      44.660  27.622  33.622  1.00  0.00     0.064 A 
ATOM     41  C   UNL A   1      44.652  26.460  34.411  1.00  0.00     0.173 A 
ATOM     42  C   UNL A   1      45.885  28.276  33.429  1.00  0.00     0.173 A 
ATOM     43  F   UNL A   1      43.500  25.817  34.655  1.00  0.00    -0.203 F 
ATOM     44  C   UNL A   1      45.820  25.992  35.010  1.00  0.00     0.198 A 
ATOM     45  C   UNL A   1      47.055  27.790  34.006  1.00  0.00     0.198 A 
ATOM     46  F   UNL A   1      45.944  29.397  32.696  1.00  0.00    -0.203 F 
ATOM     47  F   UNL A   1      45.778  24.917  35.809  1.00  0.00    -0.200 F 
ATOM     48  C   UNL A   1      47.020  26.654  34.803  1.00  0.00     0.200 A 
ATOM     49  F   UNL A   1      48.215  28.431  33.805  1.00  0.00    -0.200 F 
ATOM     50  F   UNL A   1      48.143  26.209  35.384  1.00  0.00    -0.200 F 
ENDBRANCH  26  40
BRANCH  27  51
ATOM     51  C   UNL A   1      36.508  31.255  29.005  1.00  0.00     0.064 A 
ATOM     52  C   UNL A   1      35.452  30.399  28.674  1.00  0.00     0.173 A 
ATOM     53  C   UNL A   1      36.384  32.610  28.655  1.00  0.00     0.173 A 
ATOM     54  F   UNL A   1      35.530  29.094  28.972  1.00  0.00    -0.203 F 
ATOM     55  C   UNL A   1      34.327  30.871  28.000  1.00  0.00     0.198 A 
ATOM     56  C   UNL A   1      35.248  33.086  28.002  1.00  0.00     0.198 A 
ATOM     57  F   UNL A   1      37.370  33.471  28.943  1.00  0.00    -0.203 F 
ATOM     58  F   UNL A   1      33.350  30.020  27.656  1.00  0.00    -0.200 F 
ATOM     59  C   UNL A   1      34.224  32.213  27.668  1.00  0.00     0.200 A 
ATOM     60  F   UNL A   1      35.152  34.384  27.682  1.00  0.00    -0.200 F 
ATOM     61  F   UNL A   1      33.145  32.663  27.012  1.00  0.00    -0.200 F 
ENDBRANCH  27  51
BRANCH  39  62
ATOM     62  C   UNL A   1      39.318  32.185  35.326  1.00  0.00     0.064 A 
ATOM     63  C   UNL A   1      39.704  33.531  35.389  1.00  0.00     0.173 A 
ATOM     64  C   UNL A   1      38.521  31.675  36.361  1.00  0.00     0.173 A 
ATOM     65  F   UNL A   1      40.482  34.057  34.432  1.00  0.00    -0.203 F 
ATOM     66  C   UNL A   1      39.326  34.328  36.465  1.00  0.00     0.198 A 
ATOM     67  C   UNL A   1      38.115  32.483  37.415  1.00  0.00     0.198 A 
ATOM     68  F   UNL A   1      38.123  30.393  36.340  1.00  0.00    -0.203 F 
ATOM     69  F   UNL A   1      39.751  35.597  36.535  1.00  0.00    -0.200 F 
ATOM     70  C   UNL A   1      38.526  33.807  37.471  1.00  0.00     0.200 A 
ATOM     71  F   UNL A   1      37.327  31.983  38.376  1.00  0.00    -0.200 F 
ATOM     72  F   UNL A   1      38.153  34.580  38.499  1.00  0.00    -0.200 F 
ENDBRANCH  39  62
ENDBRANCH  13  14
ENDBRANCH   6   8
ENDBRANCH   5   6
ENDBRANCH   4   5
ENDBRANCH   3   4
ENDBRANCH   2   3
ENDBRANCH   1   2
BRANCH   1  73
ATOM     73  C   UNL A   1      38.648  20.169  25.218  1.00  0.00     0.188 C 
BRANCH  73  74
ATOM     74  O   UNL A   1      37.394  20.805  25.370  1.00  0.00    -0.376 OA
BRANCH  74  75
ATOM     75  C   UNL A   1      37.400  22.211  25.185  1.00  0.00     0.202 C 
BRANCH  75  76
ATOM     76  C   UNL A   1      36.560  23.138  26.084  1.00  0.00     0.261 C 
BRANCH  76  77
ATOM     77  O   UNL A   1      35.141  23.275  25.883  1.00  0.00    -0.463 OA
BRANCH  77  78
ATOM     78  C   UNL A   1      34.328  22.461  26.595  1.00  0.00     0.311 C 
ATOM     79  O   UNL A   1      34.703  21.454  27.189  1.00  0.00    -0.252 OA
BRANCH  78  80
ATOM     80  C   UNL A   1      32.884  22.904  26.578  1.00  0.00     0.131 C 
ATOM     81  C   UNL A   1      32.577  24.320  26.137  1.00  0.00     0.046 C 
ATOM     82  C   UNL A   1      31.917  22.068  25.730  1.00  0.00     0.136 C 
ATOM     83  C   UNL A   1      31.070  24.242  26.013  1.00  0.00     0.161 C 
ATOM     84  O   UNL A   1      30.795  22.954  25.441  1.00  0.00    -0.377 OA
BRANCH  82  85
ATOM     85  C   UNL A   1      32.402  21.523  24.367  1.00  0.00     0.068 C 
BRANCH  85  86
ATOM     86  C   UNL A   1      32.506  20.024  24.215  1.00  0.00    -0.045 A 
ATOM     87  C   UNL A   1      32.300  19.443  22.952  1.00  0.00     0.004 A 
ATOM     88  C   UNL A   1      32.835  19.187  25.289  1.00  0.00     0.004 A 
ATOM     89  C   UNL A   1      32.527  18.078  22.751  1.00  0.00     0.000 A 
ATOM     90  C   UNL A   1      33.087  17.830  25.080  1.00  0.00     0.000 A 
ATOM     91  C   UNL A   1      32.950  17.278  23.809  1.00  0.00     0.000 A 
ENDBRANCH  85  86
ENDBRANCH  82  85
ENDBRANCH  78  80
ENDBRANCH  77  78
ENDBRANCH  76  77
ENDBRANCH  75  76
ENDBRANCH  74  75
ENDBRANCH  73  74
ENDBRANCH   1  73
TORSDOF 19
ENDMDL
