MODEL 1
REMARK VINA RESULT:     -10.4      0.000      0.000
REMARK SMILES O=C(OCCOCCOCCOC(=O)c1cc([C@@H]2C=NN=C2c2ccc(F)cc2)c2c(ccc3ccccc32)n1)c1ccc(-c2c3nc(c(-c4c(F)c(F)c(F)c(F)c4F)c4ccc([nH]4)c(-c4c(F)c(F)c(F)c(F)c4F)c4nc(c(-c5c(F)c(F)c(F)c(F)c5F)c5ccc2[nH]5)C=C4)C=C3)cc1
REMARK SMILES IDX 7 1 6 2 5 3 4 4 3 5 2 6 1 7 41 8 42 9 103 10 43 11 102 12
REMARK SMILES IDX 44 13 45 14 46 15 96 16 47 17 101 18 95 19 97 20 48 21
REMARK SMILES IDX 100 22 94 23 93 24 49 26 81 27 61 28 80 29 62 30 65 31 79 32
REMARK SMILES IDX 98 33 63 34 64 35 78 37 99 38 66 39 50 40 51 41 59 42 52 43
REMARK SMILES IDX 53 44 57 45 60 46 54 47 55 48 58 49 56 50 82 51 83 52 91 53
REMARK SMILES IDX 84 54 85 55 89 56 92 57 86 58 87 59 90 60 88 61 67 62 68 63
REMARK SMILES IDX 76 64 69 65 70 66 74 67 77 68 71 69 72 70 75 71 73 72 8 73
REMARK SMILES IDX 9 74 10 75 11 76 12 77 13 78 14 79 15 80 16 81 40 82 17 83
REMARK SMILES IDX 31 84 30 85 32 86 39 87 33 88 34 89 38 90 35 91 37 92 36 93
REMARK SMILES IDX 18 94 19 95 22 96 20 97 21 98 23 99 24 100 29 101 25 102
REMARK SMILES IDX 28 103 26 104 27 105
REMARK H PARENT 97 25 65 36
REMARK Flexibility Score: inf
ROOT
ATOM      1  C   UNL A   1      42.464  18.207  26.073  1.00  0.00     0.188 C 
ENDROOT
BRANCH   1   2
ATOM      2  O   UNL A   1      41.192  18.823  26.172  1.00  0.00    -0.376 OA
BRANCH   2   3
ATOM      3  C   UNL A   1      41.086  19.918  27.060  1.00  0.00     0.202 C 
BRANCH   3   4
ATOM      4  C   UNL A   1      40.219  21.076  26.557  1.00  0.00     0.261 C 
BRANCH   4   5
ATOM      5  O   UNL A   1      40.498  22.353  27.154  1.00  0.00    -0.460 OA
BRANCH   5   6
ATOM      6  C   UNL A   1      39.855  23.520  26.950  1.00  0.00     0.338 C 
ATOM      7  O   UNL A   1      38.820  23.564  26.294  1.00  0.00    -0.246 OA
BRANCH   6   8
ATOM      8  C   UNL A   1      40.543  24.795  27.258  1.00  0.00     0.060 A 
ATOM      9  C   UNL A   1      41.254  25.032  28.435  1.00  0.00     0.016 A 
ATOM     10  C   UNL A   1      40.365  25.837  26.327  1.00  0.00     0.016 A 
ATOM     11  C   UNL A   1      41.689  26.314  28.734  1.00  0.00     0.010 A 
ATOM     12  C   UNL A   1      40.788  27.123  26.627  1.00  0.00     0.010 A 
ATOM     13  C   UNL A   1      41.359  27.364  27.878  1.00  0.00    -0.014 A 
BRANCH  13  14
ATOM     14  C   UNL A   1      41.348  28.695  28.474  1.00  0.00     0.031 A 
ATOM     15  C   UNL A   1      42.452  29.641  28.163  1.00  0.00     0.074 A 
ATOM     16  C   UNL A   1      40.320  29.028  29.286  1.00  0.00     0.049 A 
ATOM     17  N   UNL A   1      43.198  30.314  28.985  1.00  0.00    -0.248 NA
ATOM     18  C   UNL A   1      42.776  29.857  26.746  1.00  0.00     0.031 C 
ATOM     19  C   UNL A   1      39.067  28.290  29.497  1.00  0.00     0.029 A 
ATOM     20  N   UNL A   1      40.136  30.161  30.014  1.00  0.00    -0.354 N 
ATOM     21  C   UNL A   1      43.984  31.150  28.196  1.00  0.00     0.074 A 
ATOM     22  C   UNL A   1      43.737  30.777  26.824  1.00  0.00     0.031 C 
ATOM     23  C   UNL A   1      38.170  29.100  30.094  1.00  0.00     0.029 A 
ATOM     24  C   UNL A   1      38.826  30.352  30.418  1.00  0.00     0.049 A 
ATOM     25  H   UNL A   1      40.863  30.787  30.233  1.00  0.00     0.167 HD
ATOM     26  C   UNL A   1      44.673  32.215  28.692  1.00  0.00     0.037 A 
ATOM     27  C   UNL A   1      38.288  31.504  30.878  1.00  0.00     0.037 A 
ATOM     28  C   UNL A   1      44.923  32.119  30.099  1.00  0.00     0.049 A 
ATOM     29  C   UNL A   1      39.399  32.355  31.367  1.00  0.00     0.074 A 
ATOM     30  C   UNL A   1      45.655  31.261  30.897  1.00  0.00     0.029 A 
ATOM     31  N   UNL A   1      44.160  32.857  30.966  1.00  0.00    -0.354 N 
ATOM     32  N   UNL A   1      40.136  32.076  32.408  1.00  0.00    -0.248 NA
ATOM     33  C   UNL A   1      39.957  33.339  30.453  1.00  0.00     0.031 C 
ATOM     34  C   UNL A   1      44.943  31.195  32.129  1.00  0.00     0.029 A 
ATOM     35  C   UNL A   1      43.827  32.021  32.001  1.00  0.00     0.049 A 
ATOM     36  H   UNL A   1      43.902  33.802  30.864  1.00  0.00     0.167 HD
ATOM     37  C   UNL A   1      41.401  32.548  32.088  1.00  0.00     0.074 A 
ATOM     38  C   UNL A   1      41.204  33.406  30.925  1.00  0.00     0.031 C 
ATOM     39  C   UNL A   1      42.524  31.987  32.623  1.00  0.00     0.037 A 
BRANCH  26  40
ATOM     40  C   UNL A   1      44.905  33.477  27.910  1.00  0.00     0.064 A 
ATOM     41  C   UNL A   1      43.905  34.464  27.773  1.00  0.00     0.173 A 
ATOM     42  C   UNL A   1      46.197  33.849  27.500  1.00  0.00     0.173 A 
ATOM     43  F   UNL A   1      42.669  34.275  28.257  1.00  0.00    -0.203 F 
ATOM     44  C   UNL A   1      44.167  35.716  27.222  1.00  0.00     0.198 A 
ATOM     45  C   UNL A   1      46.468  35.123  26.993  1.00  0.00     0.198 A 
ATOM     46  F   UNL A   1      47.228  33.003  27.645  1.00  0.00    -0.203 F 
ATOM     47  F   UNL A   1      43.175  36.612  27.118  1.00  0.00    -0.200 F 
ATOM     48  C   UNL A   1      45.452  36.053  26.849  1.00  0.00     0.200 A 
ATOM     49  F   UNL A   1      47.726  35.468  26.691  1.00  0.00    -0.200 F 
ATOM     50  F   UNL A   1      45.715  37.286  26.396  1.00  0.00    -0.200 F 
ENDBRANCH  26  40
BRANCH  27  51
ATOM     51  C   UNL A   1      36.944  32.024  30.532  1.00  0.00     0.064 A 
ATOM     52  C   UNL A   1      36.617  32.405  29.213  1.00  0.00     0.173 A 
ATOM     53  C   UNL A   1      36.029  32.386  31.529  1.00  0.00     0.173 A 
ATOM     54  F   UNL A   1      37.473  32.203  28.200  1.00  0.00    -0.203 F 
ATOM     55  C   UNL A   1      35.442  33.090  28.908  1.00  0.00     0.198 A 
ATOM     56  C   UNL A   1      34.859  33.089  31.226  1.00  0.00     0.198 A 
ATOM     57  F   UNL A   1      36.293  32.113  32.816  1.00  0.00    -0.203 F 
ATOM     58  F   UNL A   1      35.195  33.456  27.643  1.00  0.00    -0.200 F 
ATOM     59  C   UNL A   1      34.568  33.442  29.917  1.00  0.00     0.200 A 
ATOM     60  F   UNL A   1      34.034  33.471  32.212  1.00  0.00    -0.200 F 
ATOM     61  F   UNL A   1      33.471  34.159  29.633  1.00  0.00    -0.200 F 
ENDBRANCH  27  51
BRANCH  39  62
ATOM     62  C   UNL A   1      42.345  31.009  33.747  1.00  0.00     0.064 A 
ATOM     63  C   UNL A   1      41.963  29.694  33.457  1.00  0.00     0.173 A 
ATOM     64  C   UNL A   1      42.365  31.395  35.099  1.00  0.00     0.173 A 
ATOM     65  F   UNL A   1      41.856  29.292  32.180  1.00  0.00    -0.203 F 
ATOM     66  C   UNL A   1      41.623  28.802  34.471  1.00  0.00     0.198 A 
ATOM     67  C   UNL A   1      42.058  30.491  36.115  1.00  0.00     0.198 A 
ATOM     68  F   UNL A   1      42.608  32.664  35.445  1.00  0.00    -0.203 F 
ATOM     69  F   UNL A   1      41.202  27.567  34.162  1.00  0.00    -0.200 F 
ATOM     70  C   UNL A   1      41.679  29.198  35.799  1.00  0.00     0.200 A 
ATOM     71  F   UNL A   1      42.079  30.888  37.395  1.00  0.00    -0.200 F 
ATOM     72  F   UNL A   1      41.329  28.344  36.772  1.00  0.00    -0.200 F 
ENDBRANCH  39  62
ENDBRANCH  13  14
ENDBRANCH   6   8
ENDBRANCH   5   6
ENDBRANCH   4   5
ENDBRANCH   3   4
ENDBRANCH   2   3
ENDBRANCH   1   2
BRANCH   1  73
ATOM     73  C   UNL A   1      43.545  19.055  25.366  1.00  0.00     0.188 C 
BRANCH  73  74
ATOM     74  O   UNL A   1      44.554  18.467  24.551  1.00  0.00    -0.376 OA
BRANCH  74  75
ATOM     75  C   UNL A   1      45.475  19.268  23.835  1.00  0.00     0.202 C 
BRANCH  75  76
ATOM     76  C   UNL A   1      45.270  20.785  23.900  1.00  0.00     0.261 C 
BRANCH  76  77
ATOM     77  O   UNL A   1      45.259  21.335  25.226  1.00  0.00    -0.459 OA
BRANCH  77  78
ATOM     78  C   UNL A   1      44.384  22.355  25.417  1.00  0.00     0.357 C 
ATOM     79  O   UNL A   1      43.385  22.608  24.770  1.00  0.00    -0.244 OA
BRANCH  78  80
ATOM     80  C   UNL A   1      44.845  23.197  26.548  1.00  0.00     0.149 A 
ATOM     81  C   UNL A   1      45.163  24.498  26.272  1.00  0.00     0.041 A 
ATOM     82  N   UNL A   1      44.641  22.740  27.795  1.00  0.00    -0.241 NA
ATOM     83  C   UNL A   1      45.111  25.452  27.317  1.00  0.00    -0.021 A 
ATOM     84  C   UNL A   1      44.702  23.605  28.815  1.00  0.00     0.072 A 
ATOM     85  C   UNL A   1      44.907  25.016  28.698  1.00  0.00     0.012 A 
ATOM     86  C   UNL A   1      44.436  23.015  30.031  1.00  0.00     0.029 A 
ATOM     87  C   UNL A   1      44.775  25.789  29.956  1.00  0.00    -0.009 A 
ATOM     88  C   UNL A   1      44.297  23.751  31.197  1.00  0.00     0.011 A 
ATOM     89  C   UNL A   1      44.441  25.128  31.173  1.00  0.00    -0.018 A 
ATOM     90  C   UNL A   1      44.931  27.187  30.104  1.00  0.00     0.009 A 
ATOM     91  C   UNL A   1      44.228  25.826  32.378  1.00  0.00     0.009 A 
ATOM     92  C   UNL A   1      44.710  27.888  31.298  1.00  0.00     0.001 A 
ATOM     93  C   UNL A   1      44.344  27.206  32.439  1.00  0.00     0.001 A 
BRANCH  83  94
ATOM     94  C   UNL A   1      44.984  26.845  26.736  1.00  0.00     0.115 C 
ATOM     95  C   UNL A   1      44.363  27.042  25.409  1.00  0.00     0.123 C 
ATOM     96  C   UNL A   1      46.208  27.687  26.553  1.00  0.00     0.083 C 
ATOM     97  N   UNL A   1      44.996  27.915  24.692  1.00  0.00    -0.162 NA
ATOM     98  N   UNL A   1      46.171  28.328  25.417  1.00  0.00    -0.154 NA
BRANCH  96  99
ATOM     99  C   UNL A   1      47.234  27.920  27.604  1.00  0.00    -0.001 A 
ATOM    100  C   UNL A   1      47.321  29.201  28.163  1.00  0.00     0.013 A 
ATOM    101  C   UNL A   1      48.096  26.921  28.075  1.00  0.00     0.013 A 
ATOM    102  C   UNL A   1      48.234  29.463  29.190  1.00  0.00     0.040 A 
ATOM    103  C   UNL A   1      49.007  27.181  29.102  1.00  0.00     0.040 A 
ATOM    104  C   UNL A   1      49.066  28.450  29.652  1.00  0.00     0.123 A 
ATOM    105  F   UNL A   1      49.939  28.702  30.635  1.00  0.00    -0.207 F 
ENDBRANCH  96  99
ENDBRANCH  83  94
ENDBRANCH  78  80
ENDBRANCH  77  78
ENDBRANCH  76  77
ENDBRANCH  75  76
ENDBRANCH  74  75
ENDBRANCH  73  74
ENDBRANCH   1  73
TORSDOF 19
ENDMDL
MODEL 2
REMARK VINA RESULT:     -10.0      4.643     11.376
REMARK SMILES O=C(OCCOCCOCCOC(=O)c1cc([C@@H]2C=NN=C2c2ccc(F)cc2)c2c(ccc3ccccc32)n1)c1ccc(-c2c3nc(c(-c4c(F)c(F)c(F)c(F)c4F)c4ccc([nH]4)c(-c4c(F)c(F)c(F)c(F)c4F)c4nc(c(-c5c(F)c(F)c(F)c(F)c5F)c5ccc2[nH]5)C=C4)C=C3)cc1
REMARK SMILES IDX 7 1 6 2 5 3 4 4 3 5 2 6 1 7 41 8 42 9 103 10 43 11 102 12
REMARK SMILES IDX 44 13 45 14 46 15 96 16 47 17 101 18 95 19 97 20 48 21
REMARK SMILES IDX 100 22 94 23 93 24 49 26 81 27 61 28 80 29 62 30 65 31 79 32
REMARK SMILES IDX 98 33 63 34 64 35 78 37 99 38 66 39 50 40 51 41 59 42 52 43
REMARK SMILES IDX 53 44 57 45 60 46 54 47 55 48 58 49 56 50 82 51 83 52 91 53
REMARK SMILES IDX 84 54 85 55 89 56 92 57 86 58 87 59 90 60 88 61 67 62 68 63
REMARK SMILES IDX 76 64 69 65 70 66 74 67 77 68 71 69 72 70 75 71 73 72 8 73
REMARK SMILES IDX 9 74 10 75 11 76 12 77 13 78 14 79 15 80 16 81 40 82 17 83
REMARK SMILES IDX 31 84 30 85 32 86 39 87 33 88 34 89 38 90 35 91 37 92 36 93
REMARK SMILES IDX 18 94 19 95 22 96 20 97 21 98 23 99 24 100 29 101 25 102
REMARK SMILES IDX 28 103 26 104 27 105
REMARK H PARENT 97 25 65 36
REMARK Flexibility Score: inf
ROOT
ATOM      1  C   UNL A   1      32.906  35.663  30.031  1.00  0.00     0.188 C 
ENDROOT
BRANCH   1   2
ATOM      2  O   UNL A   1      33.593  34.426  30.107  1.00  0.00    -0.376 OA
BRANCH   2   3
ATOM      3  C   UNL A   1      34.323  34.036  28.961  1.00  0.00     0.202 C 
BRANCH   3   4
ATOM      4  C   UNL A   1      35.602  33.245  29.248  1.00  0.00     0.261 C 
BRANCH   4   5
ATOM      5  O   UNL A   1      35.402  31.867  29.605  1.00  0.00    -0.460 OA
BRANCH   5   6
ATOM      6  C   UNL A   1      36.074  31.145  30.524  1.00  0.00     0.338 C 
ATOM      7  O   UNL A   1      35.897  31.327  31.723  1.00  0.00    -0.246 OA
BRANCH   6   8
ATOM      8  C   UNL A   1      37.245  30.339  30.104  1.00  0.00     0.060 A 
ATOM      9  C   UNL A   1      37.236  28.947  30.004  1.00  0.00     0.016 A 
ATOM     10  C   UNL A   1      38.443  31.048  29.896  1.00  0.00     0.016 A 
ATOM     11  C   UNL A   1      38.424  28.261  29.808  1.00  0.00     0.010 A 
ATOM     12  C   UNL A   1      39.637  30.365  29.711  1.00  0.00     0.010 A 
ATOM     13  C   UNL A   1      39.624  28.971  29.770  1.00  0.00    -0.014 A 
BRANCH  13  14
ATOM     14  C   UNL A   1      40.826  28.214  30.106  1.00  0.00     0.031 A 
ATOM     15  C   UNL A   1      41.304  28.197  31.514  1.00  0.00     0.074 A 
ATOM     16  C   UNL A   1      41.460  27.543  29.121  1.00  0.00     0.049 A 
ATOM     17  N   UNL A   1      42.489  28.462  31.970  1.00  0.00    -0.248 NA
ATOM     18  C   UNL A   1      40.326  27.848  32.554  1.00  0.00     0.031 C 
ATOM     19  C   UNL A   1      40.982  27.289  27.755  1.00  0.00     0.029 A 
ATOM     20  N   UNL A   1      42.628  26.848  29.171  1.00  0.00    -0.354 N 
ATOM     21  C   UNL A   1      42.453  28.171  33.332  1.00  0.00     0.074 A 
ATOM     22  C   UNL A   1      41.079  27.867  33.653  1.00  0.00     0.031 C 
ATOM     23  C   UNL A   1      41.723  26.310  27.199  1.00  0.00     0.029 A 
ATOM     24  C   UNL A   1      42.795  25.970  28.115  1.00  0.00     0.049 A 
ATOM     25  H   UNL A   1      43.290  26.958  29.890  1.00  0.00     0.167 HD
ATOM     26  C   UNL A   1      43.571  28.032  34.097  1.00  0.00     0.037 A 
ATOM     27  C   UNL A   1      43.681  24.950  28.052  1.00  0.00     0.037 A 
ATOM     28  C   UNL A   1      44.721  28.674  33.536  1.00  0.00     0.049 A 
ATOM     29  C   UNL A   1      44.764  25.236  29.023  1.00  0.00     0.074 A 
ATOM     30  C   UNL A   1      45.062  29.983  33.258  1.00  0.00     0.029 A 
ATOM     31  N   UNL A   1      45.672  27.911  32.909  1.00  0.00    -0.354 N 
ATOM     32  N   UNL A   1      45.616  26.219  28.907  1.00  0.00    -0.248 NA
ATOM     33  C   UNL A   1      44.658  24.656  30.352  1.00  0.00     0.031 C 
ATOM     34  C   UNL A   1      45.891  29.918  32.101  1.00  0.00     0.029 A 
ATOM     35  C   UNL A   1      46.004  28.572  31.753  1.00  0.00     0.049 A 
ATOM     36  H   UNL A   1      46.044  27.057  33.226  1.00  0.00     0.167 HD
ATOM     37  C   UNL A   1      45.864  26.632  30.208  1.00  0.00     0.074 A 
ATOM     38  C   UNL A   1      45.334  25.569  31.053  1.00  0.00     0.031 C 
ATOM     39  C   UNL A   1      46.229  27.917  30.486  1.00  0.00     0.037 A 
BRANCH  26  40
ATOM     40  C   UNL A   1      43.656  27.083  35.258  1.00  0.00     0.064 A 
ATOM     41  C   UNL A   1      43.713  25.684  35.076  1.00  0.00     0.173 A 
ATOM     42  C   UNL A   1      43.941  27.547  36.555  1.00  0.00     0.173 A 
ATOM     43  F   UNL A   1      43.597  25.135  33.859  1.00  0.00    -0.203 F 
ATOM     44  C   UNL A   1      43.987  24.808  36.124  1.00  0.00     0.198 A 
ATOM     45  C   UNL A   1      44.265  26.669  37.593  1.00  0.00     0.198 A 
ATOM     46  F   UNL A   1      43.971  28.862  36.817  1.00  0.00    -0.203 F 
ATOM     47  F   UNL A   1      44.027  23.489  35.888  1.00  0.00    -0.200 F 
ATOM     48  C   UNL A   1      44.282  25.301  37.378  1.00  0.00     0.200 A 
ATOM     49  F   UNL A   1      44.611  27.153  38.794  1.00  0.00    -0.200 F 
ATOM     50  F   UNL A   1      44.625  24.460  38.363  1.00  0.00    -0.200 F 
ENDBRANCH  26  40
BRANCH  27  51
ATOM     51  C   UNL A   1      43.404  23.603  27.501  1.00  0.00     0.064 A 
ATOM     52  C   UNL A   1      43.944  23.187  26.264  1.00  0.00     0.173 A 
ATOM     53  C   UNL A   1      42.411  22.784  28.054  1.00  0.00     0.173 A 
ATOM     54  F   UNL A   1      44.821  23.952  25.598  1.00  0.00    -0.203 F 
ATOM     55  C   UNL A   1      43.529  22.017  25.630  1.00  0.00     0.198 A 
ATOM     56  C   UNL A   1      41.982  21.620  27.407  1.00  0.00     0.198 A 
ATOM     57  F   UNL A   1      41.805  23.138  29.196  1.00  0.00    -0.203 F 
ATOM     58  F   UNL A   1      44.052  21.685  24.442  1.00  0.00    -0.200 F 
ATOM     59  C   UNL A   1      42.539  21.239  26.196  1.00  0.00     0.200 A 
ATOM     60  F   UNL A   1      40.989  20.890  27.936  1.00  0.00    -0.200 F 
ATOM     61  F   UNL A   1      42.093  20.151  25.554  1.00  0.00    -0.200 F 
ENDBRANCH  27  51
BRANCH  39  62
ATOM     62  C   UNL A   1      46.588  28.805  29.330  1.00  0.00     0.064 A 
ATOM     63  C   UNL A   1      47.937  29.029  29.031  1.00  0.00     0.173 A 
ATOM     64  C   UNL A   1      45.635  29.572  28.638  1.00  0.00     0.173 A 
ATOM     65  F   UNL A   1      48.893  28.377  29.713  1.00  0.00    -0.203 F 
ATOM     66  C   UNL A   1      48.317  29.972  28.080  1.00  0.00     0.198 A 
ATOM     67  C   UNL A   1      46.014  30.491  27.661  1.00  0.00     0.198 A 
ATOM     68  F   UNL A   1      44.336  29.495  28.950  1.00  0.00    -0.203 F 
ATOM     69  F   UNL A   1      49.617  30.212  27.858  1.00  0.00    -0.200 F 
ATOM     70  C   UNL A   1      47.356  30.697  27.390  1.00  0.00     0.200 A 
ATOM     71  F   UNL A   1      45.084  31.214  27.021  1.00  0.00    -0.200 F 
ATOM     72  F   UNL A   1      47.726  31.620  26.490  1.00  0.00    -0.200 F 
ENDBRANCH  39  62
ENDBRANCH  13  14
ENDBRANCH   6   8
ENDBRANCH   5   6
ENDBRANCH   4   5
ENDBRANCH   3   4
ENDBRANCH   2   3
ENDBRANCH   1   2
BRANCH   1  73
ATOM     73  C   UNL A   1      32.496  36.267  31.393  1.00  0.00     0.188 C 
BRANCH  73  74
ATOM     74  O   UNL A   1      33.411  37.003  32.198  1.00  0.00    -0.376 OA
BRANCH  74  75
ATOM     75  C   UNL A   1      34.468  36.356  32.883  1.00  0.00     0.202 C 
BRANCH  75  76
ATOM     76  C   UNL A   1      34.148  35.005  33.530  1.00  0.00     0.261 C 
BRANCH  76  77
ATOM     77  O   UNL A   1      35.174  34.011  33.388  1.00  0.00    -0.459 OA
BRANCH  77  78
ATOM     78  C   UNL A   1      36.017  33.903  34.447  1.00  0.00     0.357 C 
ATOM     79  O   UNL A   1      35.726  33.832  35.625  1.00  0.00    -0.244 OA
BRANCH  78  80
ATOM     80  C   UNL A   1      37.420  33.926  33.965  1.00  0.00     0.149 A 
ATOM     81  C   UNL A   1      38.314  33.108  34.598  1.00  0.00     0.041 A 
ATOM     82  N   UNL A   1      37.666  34.501  32.776  1.00  0.00    -0.241 NA
ATOM     83  C   UNL A   1      39.482  32.704  33.906  1.00  0.00    -0.021 A 
ATOM     84  C   UNL A   1      38.819  34.225  32.154  1.00  0.00     0.072 A 
ATOM     85  C   UNL A   1      39.812  33.304  32.613  1.00  0.00     0.012 A 
ATOM     86  C   UNL A   1      38.927  34.847  30.929  1.00  0.00     0.029 A 
ATOM     87  C   UNL A   1      40.930  33.044  31.674  1.00  0.00    -0.009 A 
ATOM     88  C   UNL A   1      39.966  34.582  30.052  1.00  0.00     0.011 A 
ATOM     89  C   UNL A   1      40.955  33.676  30.397  1.00  0.00    -0.018 A 
ATOM     90  C   UNL A   1      42.029  32.181  31.893  1.00  0.00     0.009 A 
ATOM     91  C   UNL A   1      41.951  33.402  29.439  1.00  0.00     0.009 A 
ATOM     92  C   UNL A   1      43.017  31.898  30.939  1.00  0.00     0.001 A 
ATOM     93  C   UNL A   1      42.972  32.502  29.701  1.00  0.00     0.001 A 
BRANCH  83  94
ATOM     94  C   UNL A   1      40.046  31.448  34.538  1.00  0.00     0.115 C 
ATOM     95  C   UNL A   1      39.138  30.435  35.114  1.00  0.00     0.123 C 
ATOM     96  C   UNL A   1      41.023  31.561  35.667  1.00  0.00     0.083 C 
ATOM     97  N   UNL A   1      39.575  29.961  36.237  1.00  0.00    -0.162 NA
ATOM     98  N   UNL A   1      40.776  30.676  36.591  1.00  0.00    -0.154 NA
BRANCH  96  99
ATOM     99  C   UNL A   1      42.231  32.428  35.650  1.00  0.00    -0.001 A 
ATOM    100  C   UNL A   1      42.043  33.816  35.643  1.00  0.00     0.013 A 
ATOM    101  C   UNL A   1      43.540  31.927  35.664  1.00  0.00     0.013 A 
ATOM    102  C   UNL A   1      43.145  34.678  35.677  1.00  0.00     0.040 A 
ATOM    103  C   UNL A   1      44.640  32.788  35.700  1.00  0.00     0.040 A 
ATOM    104  C   UNL A   1      44.432  34.156  35.709  1.00  0.00     0.123 A 
ATOM    105  F   UNL A   1      45.485  34.982  35.742  1.00  0.00    -0.207 F 
ENDBRANCH  96  99
ENDBRANCH  83  94
ENDBRANCH  78  80
ENDBRANCH  77  78
ENDBRANCH  76  77
ENDBRANCH  75  76
ENDBRANCH  74  75
ENDBRANCH  73  74
ENDBRANCH   1  73
TORSDOF 19
ENDMDL
MODEL 3
REMARK VINA RESULT:      -9.8      4.731     10.086
REMARK SMILES O=C(OCCOCCOCCOC(=O)c1cc([C@@H]2C=NN=C2c2ccc(F)cc2)c2c(ccc3ccccc32)n1)c1ccc(-c2c3nc(c(-c4c(F)c(F)c(F)c(F)c4F)c4ccc([nH]4)c(-c4c(F)c(F)c(F)c(F)c4F)c4nc(c(-c5c(F)c(F)c(F)c(F)c5F)c5ccc2[nH]5)C=C4)C=C3)cc1
REMARK SMILES IDX 7 1 6 2 5 3 4 4 3 5 2 6 1 7 41 8 42 9 103 10 43 11 102 12
REMARK SMILES IDX 44 13 45 14 46 15 96 16 47 17 101 18 95 19 97 20 48 21
REMARK SMILES IDX 100 22 94 23 93 24 49 26 81 27 61 28 80 29 62 30 65 31 79 32
REMARK SMILES IDX 98 33 63 34 64 35 78 37 99 38 66 39 50 40 51 41 59 42 52 43
REMARK SMILES IDX 53 44 57 45 60 46 54 47 55 48 58 49 56 50 82 51 83 52 91 53
REMARK SMILES IDX 84 54 85 55 89 56 92 57 86 58 87 59 90 60 88 61 67 62 68 63
REMARK SMILES IDX 76 64 69 65 70 66 74 67 77 68 71 69 72 70 75 71 73 72 8 73
REMARK SMILES IDX 9 74 10 75 11 76 12 77 13 78 14 79 15 80 16 81 40 82 17 83
REMARK SMILES IDX 31 84 30 85 32 86 39 87 33 88 34 89 38 90 35 91 37 92 36 93
REMARK SMILES IDX 18 94 19 95 22 96 20 97 21 98 23 99 24 100 29 101 25 102
REMARK SMILES IDX 28 103 26 104 27 105
REMARK H PARENT 97 25 65 36
REMARK Flexibility Score: inf
ROOT
ATOM      1  C   UNL A   1      40.745  21.469  27.579  1.00  0.00     0.188 C 
ENDROOT
BRANCH   1   2
ATOM      2  O   UNL A   1      42.064  21.984  27.632  1.00  0.00    -0.376 OA
BRANCH   2   3
ATOM      3  C   UNL A   1      42.847  21.839  26.464  1.00  0.00     0.202 C 
BRANCH   3   4
ATOM      4  C   UNL A   1      42.881  23.068  25.552  1.00  0.00     0.261 C 
BRANCH   4   5
ATOM      5  O   UNL A   1      42.053  24.165  25.973  1.00  0.00    -0.460 OA
BRANCH   5   6
ATOM      6  C   UNL A   1      42.039  25.423  25.490  1.00  0.00     0.338 C 
ATOM      7  O   UNL A   1      42.798  25.762  24.589  1.00  0.00    -0.246 OA
BRANCH   6   8
ATOM      8  C   UNL A   1      41.324  26.484  26.239  1.00  0.00     0.060 A 
ATOM      9  C   UNL A   1      41.542  27.849  26.054  1.00  0.00     0.016 A 
ATOM     10  C   UNL A   1      40.454  26.046  27.255  1.00  0.00     0.016 A 
ATOM     11  C   UNL A   1      40.987  28.764  26.935  1.00  0.00     0.010 A 
ATOM     12  C   UNL A   1      39.906  26.956  28.148  1.00  0.00     0.010 A 
ATOM     13  C   UNL A   1      40.264  28.301  28.034  1.00  0.00    -0.014 A 
BRANCH  13  14
ATOM     14  C   UNL A   1      40.181  29.208  29.173  1.00  0.00     0.031 A 
ATOM     15  C   UNL A   1      39.065  30.187  29.244  1.00  0.00     0.074 A 
ATOM     16  C   UNL A   1      41.124  29.117  30.136  1.00  0.00     0.049 A 
ATOM     17  N   UNL A   1      39.123  31.470  29.437  1.00  0.00    -0.248 NA
ATOM     18  C   UNL A   1      37.701  29.669  29.066  1.00  0.00     0.031 C 
ATOM     19  C   UNL A   1      42.135  28.065  30.307  1.00  0.00     0.029 A 
ATOM     20  N   UNL A   1      41.305  29.898  31.235  1.00  0.00    -0.354 N 
ATOM     21  C   UNL A   1      37.804  31.902  29.554  1.00  0.00     0.074 A 
ATOM     22  C   UNL A   1      36.968  30.768  29.245  1.00  0.00     0.031 C 
ATOM     23  C   UNL A   1      42.648  28.140  31.552  1.00  0.00     0.029 A 
ATOM     24  C   UNL A   1      42.101  29.313  32.204  1.00  0.00     0.049 A 
ATOM     25  H   UNL A   1      40.908  30.793  31.331  1.00  0.00     0.167 HD
ATOM     26  C   UNL A   1      37.459  33.121  30.057  1.00  0.00     0.037 A 
ATOM     27  C   UNL A   1      42.207  29.701  33.495  1.00  0.00     0.037 A 
ATOM     28  C   UNL A   1      38.521  34.078  29.992  1.00  0.00     0.049 A 
ATOM     29  C   UNL A   1      41.769  31.115  33.577  1.00  0.00     0.074 A 
ATOM     30  C   UNL A   1      39.216  34.688  28.965  1.00  0.00     0.029 A 
ATOM     31  N   UNL A   1      39.225  34.374  31.130  1.00  0.00    -0.354 N 
ATOM     32  N   UNL A   1      42.410  32.117  33.038  1.00  0.00    -0.248 NA
ATOM     33  C   UNL A   1      40.384  31.380  33.933  1.00  0.00     0.031 C 
ATOM     34  C   UNL A   1      40.532  34.893  29.472  1.00  0.00     0.029 A 
ATOM     35  C   UNL A   1      40.550  34.399  30.776  1.00  0.00     0.049 A 
ATOM     36  H   UNL A   1      38.852  34.537  32.027  1.00  0.00     0.167 HD
ATOM     37  C   UNL A   1      41.419  33.000  32.635  1.00  0.00     0.074 A 
ATOM     38  C   UNL A   1      40.208  32.545  33.306  1.00  0.00     0.031 C 
ATOM     39  C   UNL A   1      41.612  33.851  31.586  1.00  0.00     0.037 A 
BRANCH  26  40
ATOM     40  C   UNL A   1      36.200  33.355  30.841  1.00  0.00     0.064 A 
ATOM     41  C   UNL A   1      36.110  33.052  32.217  1.00  0.00     0.173 A 
ATOM     42  C   UNL A   1      35.146  34.119  30.309  1.00  0.00     0.173 A 
ATOM     43  F   UNL A   1      37.118  32.450  32.865  1.00  0.00    -0.203 F 
ATOM     44  C   UNL A   1      35.023  33.443  32.996  1.00  0.00     0.198 A 
ATOM     45  C   UNL A   1      34.081  34.554  31.104  1.00  0.00     0.198 A 
ATOM     46  F   UNL A   1      35.167  34.510  29.026  1.00  0.00    -0.203 F 
ATOM     47  F   UNL A   1      34.995  33.125  34.297  1.00  0.00    -0.200 F 
ATOM     48  C   UNL A   1      34.018  34.210  32.444  1.00  0.00     0.200 A 
ATOM     49  F   UNL A   1      33.139  35.349  30.581  1.00  0.00    -0.200 F 
ATOM     50  F   UNL A   1      33.015  34.653  33.215  1.00  0.00    -0.200 F 
ENDBRANCH  26  40
BRANCH  27  51
ATOM     51  C   UNL A   1      42.277  28.792  34.663  1.00  0.00     0.064 A 
ATOM     52  C   UNL A   1      43.300  28.909  35.629  1.00  0.00     0.173 A 
ATOM     53  C   UNL A   1      41.486  27.638  34.731  1.00  0.00     0.173 A 
ATOM     54  F   UNL A   1      44.180  29.919  35.588  1.00  0.00    -0.203 F 
ATOM     55  C   UNL A   1      43.508  27.941  36.610  1.00  0.00     0.198 A 
ATOM     56  C   UNL A   1      41.707  26.658  35.704  1.00  0.00     0.198 A 
ATOM     57  F   UNL A   1      40.531  27.422  33.815  1.00  0.00    -0.203 F 
ATOM     58  F   UNL A   1      44.514  28.086  37.483  1.00  0.00    -0.200 F 
ATOM     59  C   UNL A   1      42.718  26.809  36.641  1.00  0.00     0.200 A 
ATOM     60  F   UNL A   1      40.969  25.538  35.704  1.00  0.00    -0.200 F 
ATOM     61  F   UNL A   1      42.961  25.847  37.542  1.00  0.00    -0.200 F 
ENDBRANCH  27  51
BRANCH  39  62
ATOM     62  C   UNL A   1      43.003  33.974  31.036  1.00  0.00     0.064 A 
ATOM     63  C   UNL A   1      43.786  35.079  31.393  1.00  0.00     0.173 A 
ATOM     64  C   UNL A   1      43.501  33.125  30.032  1.00  0.00     0.173 A 
ATOM     65  F   UNL A   1      43.328  35.963  32.293  1.00  0.00    -0.203 F 
ATOM     66  C   UNL A   1      45.012  35.321  30.779  1.00  0.00     0.198 A 
ATOM     67  C   UNL A   1      44.744  33.349  29.443  1.00  0.00     0.198 A 
ATOM     68  F   UNL A   1      42.759  32.116  29.559  1.00  0.00    -0.203 F 
ATOM     69  F   UNL A   1      45.712  36.421  31.094  1.00  0.00    -0.200 F 
ATOM     70  C   UNL A   1      45.494  34.453  29.811  1.00  0.00     0.200 A 
ATOM     71  F   UNL A   1      45.191  32.526  28.483  1.00  0.00    -0.200 F 
ATOM     72  F   UNL A   1      46.665  34.701  29.206  1.00  0.00    -0.200 F 
ENDBRANCH  39  62
ENDBRANCH  13  14
ENDBRANCH   6   8
ENDBRANCH   5   6
ENDBRANCH   4   5
ENDBRANCH   3   4
ENDBRANCH   2   3
ENDBRANCH   1   2
BRANCH   1  73
ATOM     73  C   UNL A   1      40.477  20.481  26.422  1.00  0.00     0.188 C 
BRANCH  73  74
ATOM     74  O   UNL A   1      39.226  20.435  25.742  1.00  0.00    -0.376 OA
BRANCH  74  75
ATOM     75  C   UNL A   1      38.380  21.569  25.692  1.00  0.00     0.202 C 
BRANCH  75  76
ATOM     76  C   UNL A   1      36.998  21.373  25.061  1.00  0.00     0.261 C 
BRANCH  76  77
ATOM     77  O   UNL A   1      36.253  22.582  24.854  1.00  0.00    -0.459 OA
BRANCH  77  78
ATOM     78  C   UNL A   1      36.050  22.916  23.554  1.00  0.00     0.357 C 
ATOM     79  O   UNL A   1      36.864  22.915  22.650  1.00  0.00    -0.244 OA
BRANCH  78  80
ATOM     80  C   UNL A   1      34.643  23.349  23.368  1.00  0.00     0.149 A 
ATOM     81  C   UNL A   1      33.763  23.070  24.377  1.00  0.00     0.041 A 
ATOM     82  N   UNL A   1      34.381  24.231  22.389  1.00  0.00    -0.241 NA
ATOM     83  C   UNL A   1      32.595  23.861  24.504  1.00  0.00    -0.021 A 
ATOM     84  C   UNL A   1      33.228  24.908  22.425  1.00  0.00     0.072 A 
ATOM     85  C   UNL A   1      32.248  24.829  23.464  1.00  0.00     0.012 A 
ATOM     86  C   UNL A   1      33.103  25.806  21.387  1.00  0.00     0.029 A 
ATOM     87  C   UNL A   1      31.126  25.793  23.364  1.00  0.00    -0.009 A 
ATOM     88  C   UNL A   1      32.060  26.715  21.314  1.00  0.00     0.011 A 
ATOM     89  C   UNL A   1      31.084  26.736  22.297  1.00  0.00    -0.018 A 
ATOM     90  C   UNL A   1      30.039  25.914  24.260  1.00  0.00     0.009 A 
ATOM     91  C   UNL A   1      30.084  27.724  22.201  1.00  0.00     0.009 A 
ATOM     92  C   UNL A   1      29.047  26.901  24.175  1.00  0.00     0.001 A 
ATOM     93  C   UNL A   1      29.075  27.819  23.147  1.00  0.00     0.001 A 
BRANCH  83  94
ATOM     94  C   UNL A   1      32.049  23.749  25.913  1.00  0.00     0.115 C 
ATOM     95  C   UNL A   1      30.969  22.788  26.217  1.00  0.00     0.123 C 
ATOM     96  C   UNL A   1      31.486  24.961  26.588  1.00  0.00     0.083 C 
ATOM     97  N   UNL A   1      30.075  23.283  27.012  1.00  0.00    -0.162 NA
ATOM     98  N   UNL A   1      30.402  24.667  27.250  1.00  0.00    -0.154 NA
BRANCH  96  99
ATOM     99  C   UNL A   1      32.172  26.278  26.662  1.00  0.00    -0.001 A 
ATOM    100  C   UNL A   1      31.474  27.350  27.233  1.00  0.00     0.013 A 
ATOM    101  C   UNL A   1      33.482  26.492  26.213  1.00  0.00     0.013 A 
ATOM    102  C   UNL A   1      32.089  28.599  27.373  1.00  0.00     0.040 A 
ATOM    103  C   UNL A   1      34.097  27.738  26.354  1.00  0.00     0.040 A 
ATOM    104  C   UNL A   1      33.396  28.780  26.936  1.00  0.00     0.123 A 
ATOM    105  F   UNL A   1      33.983  29.976  27.071  1.00  0.00    -0.207 F 
ENDBRANCH  96  99
ENDBRANCH  83  94
ENDBRANCH  78  80
ENDBRANCH  77  78
ENDBRANCH  76  77
ENDBRANCH  75  76
ENDBRANCH  74  75
ENDBRANCH  73  74
ENDBRANCH   1  73
TORSDOF 19
ENDMDL
