MODEL 1
REMARK VINA RESULT:     -12.5      0.000      0.000
REMARK SMILES Cc1ccc(C)c(S(=O)(=O)N[C@H](CC2=c3ccccc3=NC2)C(=O)OCCOCCOCCOC(=O)c2ccc(-c3c4nc(c(-c5c(F)c(F)c(F)c(F)c5F)c5ccc([nH]5)c(-c5c(F)c(F)c(F)c(F)c5F)c5nc(c(-c6c(F)c(F)c(F)c(F)c6F)c6ccc3[nH]6)C=C5)C=C4)cc2)c1
REMARK SMILES IDX 29 1 28 2 27 3 26 4 25 5 23 6 24 7 12 8 11 9 8 11 9 12 10 13
REMARK SMILES IDX 7 14 1 15 2 16 3 17 100 18 4 19 5 20 6 21 13 22 14 23 15 24
REMARK SMILES IDX 22 25 16 26 20 27 21 28 17 29 19 30 18 31 30 32 31 33 32 34
REMARK SMILES IDX 33 35 34 36 35 37 36 38 37 39 38 40 99 41 39 42 98 43 40 44
REMARK SMILES IDX 41 45 42 46 92 47 43 48 97 49 91 50 93 51 44 52 96 53 90 54
REMARK SMILES IDX 89 55 45 57 77 58 57 59 76 60 58 61 61 62 75 63 94 64 59 65
REMARK SMILES IDX 60 66 74 68 95 69 62 70 46 71 47 72 55 73 48 74 49 75 53 76
REMARK SMILES IDX 56 77 50 78 51 79 54 80 52 81 78 82 79 83 87 84 80 85 81 86
REMARK SMILES IDX 85 87 88 88 82 89 83 90 86 91 84 92 63 93 64 94 72 95 65 96
REMARK SMILES IDX 66 97 70 98 73 99 67 100 68 101 71 102 69 103
REMARK H PARENT 11 10 93 56 61 67
REMARK Flexibility Score: inf
ROOT
ATOM      1  C   UNL A   1      41.790  21.066  27.163  1.00  0.00     0.188 C 
ENDROOT
BRANCH   1   2
ATOM      2  O   UNL A   1      40.388  21.173  27.351  1.00  0.00    -0.376 OA
BRANCH   2   3
ATOM      3  C   UNL A   1      39.703  22.049  26.468  1.00  0.00     0.202 C 
BRANCH   3   4
ATOM      4  C   UNL A   1      38.598  21.485  25.511  1.00  0.00     0.261 C 
BRANCH   4   5
ATOM      5  O   UNL A   1      37.180  21.823  25.833  1.00  0.00    -0.462 OA
BRANCH   5   6
ATOM      6  C   UNL A   1      36.049  21.741  25.022  1.00  0.00     0.324 C 
ATOM      7  O   UNL A   1      35.618  20.618  24.755  1.00  0.00    -0.250 OA
BRANCH   6   8
ATOM      8  C   UNL A   1      35.036  23.062  24.837  1.00  0.00     0.183 C 
BRANCH   8   9
ATOM      9  N   UNL A   1      34.657  23.396  23.402  1.00  0.00    -0.197 NA
ATOM     10  H   UNL A   1      34.907  24.378  23.287  1.00  0.00     0.142 HD
BRANCH   9  11
ATOM     11  S   UNL A   1      33.147  23.252  22.691  1.00  0.00     0.241 S 
ATOM     12  O   UNL A   1      32.770  21.866  22.817  1.00  0.00    -0.207 OA
ATOM     13  O   UNL A   1      33.294  23.866  21.384  1.00  0.00    -0.207 OA
BRANCH  11  14
ATOM     14  C   UNL A   1      31.882  24.245  23.516  1.00  0.00     0.085 A 
ATOM     15  C   UNL A   1      29.861  27.501  23.109  1.00  0.00     0.044 C 
ATOM     16  C   UNL A   1      30.424  26.215  23.648  1.00  0.00    -0.050 A 
ATOM     17  C   UNL A   1      30.000  25.816  24.919  1.00  0.00     0.004 A 
ATOM     18  C   UNL A   1      31.350  25.414  22.938  1.00  0.00     0.025 A 
ATOM     19  C   UNL A   1      30.463  24.628  25.467  1.00  0.00     0.005 A 
ATOM     20  C   UNL A   1      31.384  23.819  24.775  1.00  0.00    -0.031 A 
ATOM     21  C   UNL A   1      31.738  22.525  25.461  1.00  0.00     0.046 C 
ENDBRANCH  11  14
ENDBRANCH   9  11
ENDBRANCH   8   9
BRANCH   8  22
ATOM     22  C   UNL A   1      34.900  24.745  25.626  1.00  0.00     0.065 C 
BRANCH  22  23
ATOM     23  C   UNL A   1      34.131  26.769  25.258  1.00  0.00    -0.037 C 
ATOM     24  C   UNL A   1      33.078  27.635  25.844  1.00  0.00     0.001 A 
ATOM     25  C   UNL A   1      33.980  27.586  23.710  1.00  0.00     0.174 C 
ATOM     26  C   UNL A   1      32.135  27.605  27.025  1.00  0.00     0.010 A 
ATOM     27  C   UNL A   1      32.819  28.828  25.014  1.00  0.00     0.065 A 
ATOM     28  N   UNL A   1      33.232  28.836  23.805  1.00  0.00    -0.280 NA
ATOM     29  C   UNL A   1      31.639  28.727  27.568  1.00  0.00     0.001 A 
ATOM     30  C   UNL A   1      32.206  30.028  25.630  1.00  0.00     0.028 A 
ATOM     31  C   UNL A   1      31.777  29.983  26.896  1.00  0.00     0.002 A 
ENDBRANCH  22  23
ENDBRANCH   8  22
ENDBRANCH   6   8
ENDBRANCH   5   6
ENDBRANCH   4   5
ENDBRANCH   3   4
ENDBRANCH   2   3
ENDBRANCH   1   2
BRANCH   1  32
ATOM     32  C   UNL A   1      42.203  20.034  26.121  1.00  0.00     0.188 C 
BRANCH  32  33
ATOM     33  O   UNL A   1      43.031  20.536  25.112  1.00  0.00    -0.376 OA
BRANCH  33  34
ATOM     34  C   UNL A   1      43.753  21.628  25.681  1.00  0.00     0.202 C 
BRANCH  34  35
ATOM     35  C   UNL A   1      43.997  22.800  24.645  1.00  0.00     0.261 C 
BRANCH  35  36
ATOM     36  O   UNL A   1      44.666  24.294  24.940  1.00  0.00    -0.460 OA
BRANCH  36  37
ATOM     37  C   UNL A   1      45.190  25.508  25.419  1.00  0.00     0.338 C 
ATOM     38  O   UNL A   1      45.759  26.252  24.623  1.00  0.00    -0.246 OA
BRANCH  37  39
ATOM     39  C   UNL A   1      45.221  25.998  26.993  1.00  0.00     0.060 A 
ATOM     40  C   UNL A   1      46.359  27.013  28.101  1.00  0.00     0.016 A 
ATOM     41  C   UNL A   1      43.563  26.408  27.006  1.00  0.00     0.016 A 
ATOM     42  C   UNL A   1      45.661  28.531  28.949  1.00  0.00     0.010 A 
ATOM     43  C   UNL A   1      42.944  27.856  27.814  1.00  0.00     0.010 A 
ATOM     44  C   UNL A   1      43.860  28.931  28.710  1.00  0.00    -0.014 A 
BRANCH  44  45
ATOM     45  C   UNL A   1      42.715  30.096  29.073  1.00  0.00     0.031 A 
ATOM     46  C   UNL A   1      43.511  31.213  28.655  1.00  0.00     0.074 A 
ATOM     47  C   UNL A   1      41.476  30.287  29.798  1.00  0.00     0.049 A 
ATOM     48  N   UNL A   1      44.467  31.631  29.418  1.00  0.00    -0.248 NA
ATOM     49  C   UNL A   1      43.684  31.494  27.227  1.00  0.00     0.031 C 
ATOM     50  C   UNL A   1      40.442  29.303  30.260  1.00  0.00     0.029 A 
ATOM     51  N   UNL A   1      40.832  31.486  30.368  1.00  0.00    -0.354 N 
ATOM     52  C   UNL A   1      44.994  32.649  28.671  1.00  0.00     0.074 A 
ATOM     53  C   UNL A   1      44.766  32.278  27.293  1.00  0.00     0.031 C 
ATOM     54  C   UNL A   1      39.327  29.877  30.805  1.00  0.00     0.029 A 
ATOM     55  C   UNL A   1      39.445  31.320  30.858  1.00  0.00     0.049 A 
ATOM     56  H   UNL A   1      41.300  32.350  30.420  1.00  0.00     0.167 HD
ATOM     57  C   UNL A   1      44.925  33.868  29.261  1.00  0.00     0.037 A 
ATOM     58  C   UNL A   1      38.510  32.209  31.420  1.00  0.00     0.037 A 
ATOM     59  C   UNL A   1      44.824  33.750  30.701  1.00  0.00     0.049 A 
ATOM     60  C   UNL A   1      39.245  33.340  32.001  1.00  0.00     0.074 A 
ATOM     61  C   UNL A   1      45.633  33.246  31.705  1.00  0.00     0.029 A 
ATOM     62  N   UNL A   1      43.543  33.676  31.181  1.00  0.00    -0.354 N 
ATOM     63  N   UNL A   1      39.915  33.259  33.109  1.00  0.00    -0.248 NA
ATOM     64  C   UNL A   1      39.611  34.389  31.074  1.00  0.00     0.031 C 
ATOM     65  C   UNL A   1      44.791  32.907  32.800  1.00  0.00     0.029 A 
ATOM     66  C   UNL A   1      43.508  33.342  32.507  1.00  0.00     0.049 A 
ATOM     67  H   UNL A   1      42.742  33.845  30.635  1.00  0.00     0.167 HD
ATOM     68  C   UNL A   1      41.114  33.824  32.743  1.00  0.00     0.074 A 
ATOM     69  C   UNL A   1      40.848  34.587  31.522  1.00  0.00     0.031 C 
ATOM     70  C   UNL A   1      42.269  33.304  33.233  1.00  0.00     0.037 A 
BRANCH  57  71
ATOM     71  C   UNL A   1      44.400  35.039  28.494  1.00  0.00     0.064 A 
ATOM     72  C   UNL A   1      43.032  35.137  28.252  1.00  0.00     0.173 A 
ATOM     73  C   UNL A   1      45.218  35.990  27.837  1.00  0.00     0.173 A 
ATOM     74  F   UNL A   1      42.197  34.204  28.728  1.00  0.00    -0.203 F 
ATOM     75  C   UNL A   1      42.511  36.171  27.473  1.00  0.00     0.198 A 
ATOM     76  C   UNL A   1      44.697  37.066  27.138  1.00  0.00     0.198 A 
ATOM     77  F   UNL A   1      46.546  35.850  27.753  1.00  0.00    -0.203 F 
ATOM     78  F   UNL A   1      41.200  36.199  27.205  1.00  0.00    -0.200 F 
ATOM     79  C   UNL A   1      43.338  37.154  26.948  1.00  0.00     0.200 A 
ATOM     80  F   UNL A   1      45.528  37.974  26.605  1.00  0.00    -0.200 F 
ATOM     81  F   UNL A   1      42.833  38.151  26.213  1.00  0.00    -0.200 F 
ENDBRANCH  57  71
BRANCH  58  82
ATOM     82  C   UNL A   1      36.978  32.419  31.328  1.00  0.00     0.064 A 
ATOM     83  C   UNL A   1      36.095  32.445  32.466  1.00  0.00     0.173 A 
ATOM     84  C   UNL A   1      36.425  32.980  30.175  1.00  0.00     0.173 A 
ATOM     85  F   UNL A   1      36.461  31.899  33.638  1.00  0.00    -0.203 F 
ATOM     86  C   UNL A   1      34.842  33.103  32.456  1.00  0.00     0.198 A 
ATOM     87  C   UNL A   1      35.186  33.652  30.172  1.00  0.00     0.198 A 
ATOM     88  F   UNL A   1      37.117  32.955  29.032  1.00  0.00    -0.203 F 
ATOM     89  F   UNL A   1      34.089  33.176  33.570  1.00  0.00    -0.200 F 
ATOM     90  C   UNL A   1      34.413  33.749  31.316  1.00  0.00     0.200 A 
ATOM     91  F   UNL A   1      34.784  34.276  29.057  1.00  0.00    -0.200 F 
ATOM     92  F   UNL A   1      33.289  34.483  31.321  1.00  0.00    -0.200 F 
ENDBRANCH  58  82
BRANCH  70  93
ATOM     93  C   UNL A   1      42.243  32.658  34.582  1.00  0.00     0.064 A 
ATOM     94  C   UNL A   1      42.098  31.286  34.833  1.00  0.00     0.173 A 
ATOM     95  C   UNL A   1      42.491  33.498  35.679  1.00  0.00     0.173 A 
ATOM     96  F   UNL A   1      41.891  30.418  33.829  1.00  0.00    -0.203 F 
ATOM     97  C   UNL A   1      42.222  30.783  36.133  1.00  0.00     0.198 A 
ATOM     98  C   UNL A   1      42.636  32.994  36.963  1.00  0.00     0.198 A 
ATOM     99  F   UNL A   1      42.638  34.819  35.485  1.00  0.00    -0.203 F 
ATOM    100  F   UNL A   1      42.109  29.465  36.355  1.00  0.00    -0.200 F 
ATOM    101  C   UNL A   1      42.503  31.636  37.193  1.00  0.00     0.200 A 
ATOM    102  F   UNL A   1      42.932  33.825  37.973  1.00  0.00    -0.200 F 
ATOM    103  F   UNL A   1      42.657  31.149  38.432  1.00  0.00    -0.200 F 
ENDBRANCH  70  93
ENDBRANCH  44  45
ENDBRANCH  37  39
ENDBRANCH  36  37
ENDBRANCH  35  36
ENDBRANCH  34  35
ENDBRANCH  33  34
ENDBRANCH  32  33
ENDBRANCH   1  32
TORSDOF 22
ENDMDL
MODEL 2
REMARK VINA RESULT:     -11.9      1.613      2.632
REMARK SMILES Cc1ccc(C)c(S(=O)(=O)N[C@H](CC2=c3ccccc3=NC2)C(=O)OCCOCCOCCOC(=O)c2ccc(-c3c4nc(c(-c5c(F)c(F)c(F)c(F)c5F)c5ccc([nH]5)c(-c5c(F)c(F)c(F)c(F)c5F)c5nc(c(-c6c(F)c(F)c(F)c(F)c6F)c6ccc3[nH]6)C=C5)C=C4)cc2)c1
REMARK SMILES IDX 29 1 28 2 27 3 26 4 25 5 23 6 24 7 12 8 11 9 8 11 9 12 10 13
REMARK SMILES IDX 7 14 1 15 2 16 3 17 100 18 4 19 5 20 6 21 13 22 14 23 15 24
REMARK SMILES IDX 22 25 16 26 20 27 21 28 17 29 19 30 18 31 30 32 31 33 32 34
REMARK SMILES IDX 33 35 34 36 35 37 36 38 37 39 38 40 99 41 39 42 98 43 40 44
REMARK SMILES IDX 41 45 42 46 92 47 43 48 97 49 91 50 93 51 44 52 96 53 90 54
REMARK SMILES IDX 89 55 45 57 77 58 57 59 76 60 58 61 61 62 75 63 94 64 59 65
REMARK SMILES IDX 60 66 74 68 95 69 62 70 46 71 47 72 55 73 48 74 49 75 53 76
REMARK SMILES IDX 56 77 50 78 51 79 54 80 52 81 78 82 79 83 87 84 80 85 81 86
REMARK SMILES IDX 85 87 88 88 82 89 83 90 86 91 84 92 63 93 64 94 72 95 65 96
REMARK SMILES IDX 66 97 70 98 73 99 67 100 68 101 71 102 69 103
REMARK H PARENT 11 10 93 56 61 67
REMARK Flexibility Score: inf
ROOT
ATOM      1  C   UNL A   1      42.327  22.107  26.975  1.00  0.00     0.188 C 
ENDROOT
BRANCH   1   2
ATOM      2  O   UNL A   1      40.989  22.024  27.439  1.00  0.00    -0.376 OA
BRANCH   2   3
ATOM      3  C   UNL A   1      39.985  22.472  26.540  1.00  0.00     0.202 C 
BRANCH   3   4
ATOM      4  C   UNL A   1      38.953  21.451  25.951  1.00  0.00     0.261 C 
BRANCH   4   5
ATOM      5  O   UNL A   1      37.866  22.002  25.087  1.00  0.00    -0.462 OA
BRANCH   5   6
ATOM      6  C   UNL A   1      36.515  21.664  25.049  1.00  0.00     0.324 C 
ATOM      7  O   UNL A   1      36.214  20.488  25.264  1.00  0.00    -0.250 OA
BRANCH   6   8
ATOM      8  C   UNL A   1      35.337  22.844  25.210  1.00  0.00     0.183 C 
BRANCH   8   9
ATOM      9  N   UNL A   1      33.951  22.452  24.719  1.00  0.00    -0.197 NA
ATOM     10  H   UNL A   1      33.462  23.337  24.584  1.00  0.00     0.142 HD
BRANCH   9  11
ATOM     11  S   UNL A   1      32.842  21.462  25.491  1.00  0.00     0.241 S 
ATOM     12  O   UNL A   1      31.561  22.113  25.368  1.00  0.00    -0.207 OA
ATOM     13  O   UNL A   1      33.422  21.204  26.796  1.00  0.00    -0.207 OA
BRANCH  11  14
ATOM     14  C   UNL A   1      32.705  19.829  24.727  1.00  0.00     0.085 A 
ATOM     15  C   UNL A   1      33.080  16.079  25.535  1.00  0.00     0.044 C 
ATOM     16  C   UNL A   1      32.849  17.380  24.817  1.00  0.00    -0.050 A 
ATOM     17  C   UNL A   1      32.603  17.315  23.442  1.00  0.00     0.004 A 
ATOM     18  C   UNL A   1      32.878  18.640  25.463  1.00  0.00     0.025 A 
ATOM     19  C   UNL A   1      32.360  18.476  22.723  1.00  0.00     0.005 A 
ATOM     20  C   UNL A   1      32.383  19.738  23.347  1.00  0.00    -0.031 A 
ATOM     21  C   UNL A   1      32.029  20.900  22.456  1.00  0.00     0.046 C 
ENDBRANCH  11  14
ENDBRANCH   9  11
ENDBRANCH   8   9
BRANCH   8  22
ATOM     22  C   UNL A   1      35.273  24.691  24.972  1.00  0.00     0.065 C 
BRANCH  22  23
ATOM     23  C   UNL A   1      33.874  26.335  24.571  1.00  0.00    -0.037 C 
ATOM     24  C   UNL A   1      32.981  27.199  25.382  1.00  0.00     0.001 A 
ATOM     25  C   UNL A   1      32.834  26.531  23.167  1.00  0.00     0.174 C 
ATOM     26  C   UNL A   1      32.699  27.457  26.844  1.00  0.00     0.010 A 
ATOM     27  C   UNL A   1      32.053  27.980  24.539  1.00  0.00     0.065 A 
ATOM     28  N   UNL A   1      31.877  27.622  23.325  1.00  0.00    -0.280 NA
ATOM     29  C   UNL A   1      32.189  28.620  27.277  1.00  0.00     0.001 A 
ATOM     30  C   UNL A   1      31.453  29.226  25.073  1.00  0.00     0.028 A 
ATOM     31  C   UNL A   1      31.651  29.568  26.350  1.00  0.00     0.002 A 
ENDBRANCH  22  23
ENDBRANCH   8  22
ENDBRANCH   6   8
ENDBRANCH   5   6
ENDBRANCH   4   5
ENDBRANCH   3   4
ENDBRANCH   2   3
ENDBRANCH   1   2
BRANCH   1  32
ATOM     32  C   UNL A   1      42.453  22.295  25.468  1.00  0.00     0.188 C 
BRANCH  32  33
ATOM     33  O   UNL A   1      43.300  21.373  24.843  1.00  0.00    -0.376 OA
BRANCH  33  34
ATOM     34  C   UNL A   1      44.636  21.787  25.126  1.00  0.00     0.202 C 
BRANCH  34  35
ATOM     35  C   UNL A   1      45.109  22.980  24.199  1.00  0.00     0.261 C 
BRANCH  35  36
ATOM     36  O   UNL A   1      45.750  24.440  24.672  1.00  0.00    -0.460 OA
BRANCH  36  37
ATOM     37  C   UNL A   1      46.073  25.722  25.151  1.00  0.00     0.338 C 
ATOM     38  O   UNL A   1      46.508  26.550  24.355  1.00  0.00    -0.246 OA
BRANCH  37  39
ATOM     39  C   UNL A   1      46.033  26.206  26.728  1.00  0.00     0.060 A 
ATOM     40  C   UNL A   1      47.098  27.257  27.876  1.00  0.00     0.016 A 
ATOM     41  C   UNL A   1      44.363  26.557  26.686  1.00  0.00     0.016 A 
ATOM     42  C   UNL A   1      46.318  28.745  28.704  1.00  0.00     0.010 A 
ATOM     43  C   UNL A   1      43.665  27.979  27.478  1.00  0.00     0.010 A 
ATOM     44  C   UNL A   1      44.512  29.081  28.407  1.00  0.00    -0.014 A 
BRANCH  44  45
ATOM     45  C   UNL A   1      43.314  30.204  28.735  1.00  0.00     0.031 A 
ATOM     46  C   UNL A   1      44.099  31.354  28.391  1.00  0.00     0.074 A 
ATOM     47  C   UNL A   1      42.033  30.339  29.395  1.00  0.00     0.049 A 
ATOM     48  N   UNL A   1      44.999  31.777  29.216  1.00  0.00    -0.248 NA
ATOM     49  C   UNL A   1      44.342  31.678  26.983  1.00  0.00     0.031 C 
ATOM     50  C   UNL A   1      41.004  29.314  29.772  1.00  0.00     0.029 A 
ATOM     51  N   UNL A   1      41.323  31.504  29.958  1.00  0.00    -0.354 N 
ATOM     52  C   UNL A   1      45.536  32.830  28.526  1.00  0.00     0.074 A 
ATOM     53  C   UNL A   1      45.395  32.490  27.129  1.00  0.00     0.031 C 
ATOM     54  C   UNL A   1      39.844  29.842  30.269  1.00  0.00     0.029 A 
ATOM     55  C   UNL A   1      39.917  31.286  30.365  1.00  0.00     0.049 A 
ATOM     56  H   UNL A   1      41.761  32.379  30.058  1.00  0.00     0.167 HD
ATOM     57  C   UNL A   1      45.398  34.030  29.143  1.00  0.00     0.037 A 
ATOM     58  C   UNL A   1      38.926  32.132  30.896  1.00  0.00     0.037 A 
ATOM     59  C   UNL A   1      45.221  33.870  30.572  1.00  0.00     0.049 A 
ATOM     60  C   UNL A   1      39.594  33.267  31.546  1.00  0.00     0.074 A 
ATOM     61  C   UNL A   1      45.988  33.362  31.606  1.00  0.00     0.029 A 
ATOM     62  N   UNL A   1      43.919  33.747  30.977  1.00  0.00    -0.354 N 
ATOM     63  N   UNL A   1      40.204  33.175  32.687  1.00  0.00    -0.248 NA
ATOM     64  C   UNL A   1      39.979  34.351  30.668  1.00  0.00     0.031 C 
ATOM     65  C   UNL A   1      45.097  32.970  32.643  1.00  0.00     0.029 A 
ATOM     66  C   UNL A   1      43.820  33.376  32.290  1.00  0.00     0.049 A 
ATOM     67  H   UNL A   1      43.144  33.908  30.391  1.00  0.00     0.167 HD
ATOM     68  C   UNL A   1      41.403  33.784  32.404  1.00  0.00     0.074 A 
ATOM     69  C   UNL A   1      41.183  34.572  31.190  1.00  0.00     0.031 C 
ATOM     70  C   UNL A   1      42.545  33.284  32.944  1.00  0.00     0.037 A 
BRANCH  57  71
ATOM     71  C   UNL A   1      44.882  35.206  28.378  1.00  0.00     0.064 A 
ATOM     72  C   UNL A   1      45.689  36.330  28.230  1.00  0.00     0.173 A 
ATOM     73  C   UNL A   1      43.546  35.335  27.924  1.00  0.00     0.173 A 
ATOM     74  F   UNL A   1      46.926  36.342  28.747  1.00  0.00    -0.203 F 
ATOM     75  C   UNL A   1      45.217  37.478  27.593  1.00  0.00     0.198 A 
ATOM     76  C   UNL A   1      43.103  36.439  27.213  1.00  0.00     0.198 A 
ATOM     77  F   UNL A   1      42.596  34.452  28.248  1.00  0.00    -0.203 F 
ATOM     78  F   UNL A   1      45.996  38.564  27.526  1.00  0.00    -0.200 F 
ATOM     79  C   UNL A   1      43.939  37.518  27.053  1.00  0.00     0.200 A 
ATOM     80  F   UNL A   1      41.847  36.463  26.744  1.00  0.00    -0.200 F 
ATOM     81  F   UNL A   1      43.494  38.615  26.430  1.00  0.00    -0.200 F 
ENDBRANCH  57  71
BRANCH  58  82
ATOM     82  C   UNL A   1      37.395  32.301  30.724  1.00  0.00     0.064 A 
ATOM     83  C   UNL A   1      36.446  32.219  31.804  1.00  0.00     0.173 A 
ATOM     84  C   UNL A   1      36.893  32.925  29.580  1.00  0.00     0.173 A 
ATOM     85  F   UNL A   1      36.760  31.603  32.956  1.00  0.00    -0.203 F 
ATOM     86  C   UNL A   1      35.173  32.838  31.762  1.00  0.00     0.198 A 
ATOM     87  C   UNL A   1      35.634  33.558  29.547  1.00  0.00     0.198 A 
ATOM     88  F   UNL A   1      37.652  33.003  28.484  1.00  0.00    -0.203 F 
ATOM     89  F   UNL A   1      34.353  32.809  32.829  1.00  0.00    -0.200 F 
ATOM     90  C   UNL A   1      34.791  33.549  30.645  1.00  0.00     0.200 A 
ATOM     91  F   UNL A   1      35.278  34.246  28.455  1.00  0.00    -0.200 F 
ATOM     92  F   UNL A   1      33.643  34.246  30.630  1.00  0.00    -0.200 F 
ENDBRANCH  58  82
BRANCH  70  93
ATOM     93  C   UNL A   1      42.463  32.600  34.273  1.00  0.00     0.064 A 
ATOM     94  C   UNL A   1      42.327  31.220  34.480  1.00  0.00     0.173 A 
ATOM     95  C   UNL A   1      42.647  33.413  35.402  1.00  0.00     0.173 A 
ATOM     96  F   UNL A   1      42.181  30.378  33.444  1.00  0.00    -0.203 F 
ATOM     97  C   UNL A   1      42.396  30.684  35.770  1.00  0.00     0.198 A 
ATOM     98  C   UNL A   1      42.737  32.876  36.679  1.00  0.00     0.198 A 
ATOM     99  F   UNL A   1      42.783  34.741  35.251  1.00  0.00    -0.203 F 
ATOM    100  F   UNL A   1      42.291  29.359  35.951  1.00  0.00    -0.200 F 
ATOM    101  C   UNL A   1      42.613  31.511  36.865  1.00  0.00     0.200 A 
ATOM    102  F   UNL A   1      42.972  33.683  37.723  1.00  0.00    -0.200 F 
ATOM    103  F   UNL A   1      42.714  30.993  38.097  1.00  0.00    -0.200 F 
ENDBRANCH  70  93
ENDBRANCH  44  45
ENDBRANCH  37  39
ENDBRANCH  36  37
ENDBRANCH  35  36
ENDBRANCH  34  35
ENDBRANCH  33  34
ENDBRANCH  32  33
ENDBRANCH   1  32
TORSDOF 22
ENDMDL
MODEL 3
REMARK VINA RESULT:     -11.8      1.618      2.340
REMARK SMILES Cc1ccc(C)c(S(=O)(=O)N[C@H](CC2=c3ccccc3=NC2)C(=O)OCCOCCOCCOC(=O)c2ccc(-c3c4nc(c(-c5c(F)c(F)c(F)c(F)c5F)c5ccc([nH]5)c(-c5c(F)c(F)c(F)c(F)c5F)c5nc(c(-c6c(F)c(F)c(F)c(F)c6F)c6ccc3[nH]6)C=C5)C=C4)cc2)c1
REMARK SMILES IDX 29 1 28 2 27 3 26 4 25 5 23 6 24 7 12 8 11 9 8 11 9 12 10 13
REMARK SMILES IDX 7 14 1 15 2 16 3 17 100 18 4 19 5 20 6 21 13 22 14 23 15 24
REMARK SMILES IDX 22 25 16 26 20 27 21 28 17 29 19 30 18 31 30 32 31 33 32 34
REMARK SMILES IDX 33 35 34 36 35 37 36 38 37 39 38 40 99 41 39 42 98 43 40 44
REMARK SMILES IDX 41 45 42 46 92 47 43 48 97 49 91 50 93 51 44 52 96 53 90 54
REMARK SMILES IDX 89 55 45 57 77 58 57 59 76 60 58 61 61 62 75 63 94 64 59 65
REMARK SMILES IDX 60 66 74 68 95 69 62 70 46 71 47 72 55 73 48 74 49 75 53 76
REMARK SMILES IDX 56 77 50 78 51 79 54 80 52 81 78 82 79 83 87 84 80 85 81 86
REMARK SMILES IDX 85 87 88 88 82 89 83 90 86 91 84 92 63 93 64 94 72 95 65 96
REMARK SMILES IDX 66 97 70 98 73 99 67 100 68 101 71 102 69 103
REMARK H PARENT 11 10 93 56 61 67
REMARK Flexibility Score: inf
ROOT
ATOM      1  C   UNL A   1      41.425  21.430  27.355  1.00  0.00     0.188 C 
ENDROOT
BRANCH   1   2
ATOM      2  O   UNL A   1      40.019  21.597  27.288  1.00  0.00    -0.376 OA
BRANCH   2   3
ATOM      3  C   UNL A   1      39.560  22.876  26.874  1.00  0.00     0.202 C 
BRANCH   3   4
ATOM      4  C   UNL A   1      38.247  22.997  26.026  1.00  0.00     0.261 C 
BRANCH   4   5
ATOM      5  O   UNL A   1      37.692  21.738  25.446  1.00  0.00    -0.462 OA
BRANCH   5   6
ATOM      6  C   UNL A   1      36.386  21.448  25.058  1.00  0.00     0.324 C 
ATOM      7  O   UNL A   1      36.056  20.262  25.000  1.00  0.00    -0.250 OA
BRANCH   6   8
ATOM      8  C   UNL A   1      35.189  22.617  25.155  1.00  0.00     0.183 C 
BRANCH   8   9
ATOM      9  N   UNL A   1      34.231  22.668  23.976  1.00  0.00    -0.197 NA
ATOM     10  H   UNL A   1      34.247  23.639  23.667  1.00  0.00     0.142 HD
BRANCH   9  11
ATOM     11  S   UNL A   1      32.610  22.241  23.964  1.00  0.00     0.241 S 
ATOM     12  O   UNL A   1      32.489  21.082  24.813  1.00  0.00    -0.207 OA
ATOM     13  O   UNL A   1      32.256  22.173  22.558  1.00  0.00    -0.207 OA
BRANCH  11  14
ATOM     14  C   UNL A   1      31.538  23.532  24.637  1.00  0.00     0.085 A 
ATOM     15  C   UNL A   1      29.128  26.330  23.535  1.00  0.00     0.044 C 
ATOM     16  C   UNL A   1      29.968  25.399  24.365  1.00  0.00    -0.050 A 
ATOM     17  C   UNL A   1      29.983  25.614  25.746  1.00  0.00     0.004 A 
ATOM     18  C   UNL A   1      30.730  24.341  23.814  1.00  0.00     0.025 A 
ATOM     19  C   UNL A   1      30.720  24.777  26.573  1.00  0.00     0.005 A 
ATOM     20  C   UNL A   1      31.483  23.719  26.043  1.00  0.00    -0.031 A 
ATOM     21  C   UNL A   1      32.169  22.852  27.066  1.00  0.00     0.046 C 
ENDBRANCH  11  14
ENDBRANCH   9  11
ENDBRANCH   8   9
BRANCH   8  22
ATOM     22  C   UNL A   1      35.113  24.387  25.732  1.00  0.00     0.065 C 
BRANCH  22  23
ATOM     23  C   UNL A   1      33.946  26.233  25.499  1.00  0.00    -0.037 C 
ATOM     24  C   UNL A   1      33.411  27.021  24.362  1.00  0.00     0.001 A 
ATOM     25  C   UNL A   1      34.024  27.676  26.499  1.00  0.00     0.174 C 
ATOM     26  C   UNL A   1      33.294  26.883  22.861  1.00  0.00     0.010 A 
ATOM     27  C   UNL A   1      32.914  28.343  24.792  1.00  0.00     0.065 A 
ATOM     28  N   UNL A   1      33.271  28.792  25.934  1.00  0.00    -0.280 NA
ATOM     29  C   UNL A   1      32.348  27.525  22.159  1.00  0.00     0.001 A 
ATOM     30  C   UNL A   1      31.919  29.058  23.957  1.00  0.00     0.028 A 
ATOM     31  C   UNL A   1      31.574  28.565  22.763  1.00  0.00     0.002 A 
ENDBRANCH  22  23
ENDBRANCH   8  22
ENDBRANCH   6   8
ENDBRANCH   5   6
ENDBRANCH   4   5
ENDBRANCH   3   4
ENDBRANCH   2   3
ENDBRANCH   1   2
BRANCH   1  32
ATOM     32  C   UNL A   1      42.039  20.802  26.109  1.00  0.00     0.188 C 
BRANCH  32  33
ATOM     33  O   UNL A   1      42.992  19.813  26.374  1.00  0.00    -0.376 OA
BRANCH  33  34
ATOM     34  C   UNL A   1      43.911  19.829  25.282  1.00  0.00     0.202 C 
BRANCH  34  35
ATOM     35  C   UNL A   1      44.849  21.104  25.299  1.00  0.00     0.261 C 
BRANCH  35  36
ATOM     36  O   UNL A   1      44.977  22.255  26.493  1.00  0.00    -0.460 OA
BRANCH  36  37
ATOM     37  C   UNL A   1      44.939  23.356  27.366  1.00  0.00     0.338 C 
ATOM     38  O   UNL A   1      44.473  23.192  28.492  1.00  0.00    -0.246 OA
BRANCH  37  39
ATOM     39  C   UNL A   1      45.358  24.907  26.991  1.00  0.00     0.060 A 
ATOM     40  C   UNL A   1      45.334  26.012  25.464  1.00  0.00     0.016 A 
ATOM     41  C   UNL A   1      44.675  25.546  28.419  1.00  0.00     0.016 A 
ATOM     42  C   UNL A   1      44.371  27.617  25.537  1.00  0.00     0.010 A 
ATOM     43  C   UNL A   1      43.765  27.065  28.445  1.00  0.00     0.010 A 
ATOM     44  C   UNL A   1      43.535  28.078  27.135  1.00  0.00    -0.014 A 
BRANCH  44  45
ATOM     45  C   UNL A   1      42.517  29.228  27.799  1.00  0.00     0.031 A 
ATOM     46  C   UNL A   1      43.470  30.299  27.766  1.00  0.00     0.074 A 
ATOM     47  C   UNL A   1      41.262  29.361  28.510  1.00  0.00     0.049 A 
ATOM     48  N   UNL A   1      44.413  30.336  28.649  1.00  0.00    -0.248 NA
ATOM     49  C   UNL A   1      43.775  30.965  26.497  1.00  0.00     0.031 C 
ATOM     50  C   UNL A   1      40.086  28.435  28.618  1.00  0.00     0.029 A 
ATOM     51  N   UNL A   1      40.729  30.412  29.398  1.00  0.00    -0.354 N 
ATOM     52  C   UNL A   1      45.110  31.448  28.264  1.00  0.00     0.074 A 
ATOM     53  C   UNL A   1      44.937  31.538  26.832  1.00  0.00     0.031 C 
ATOM     54  C   UNL A   1      39.013  28.967  29.278  1.00  0.00     0.029 A 
ATOM     55  C   UNL A   1      39.301  30.299  29.771  1.00  0.00     0.049 A 
ATOM     56  H   UNL A   1      41.293  31.149  29.724  1.00  0.00     0.167 HD
ATOM     57  C   UNL A   1      45.147  32.434  29.194  1.00  0.00     0.037 A 
ATOM     58  C   UNL A   1      38.443  31.100  30.547  1.00  0.00     0.037 A 
ATOM     59  C   UNL A   1      44.932  31.907  30.527  1.00  0.00     0.049 A 
ATOM     60  C   UNL A   1      39.266  31.895  31.467  1.00  0.00     0.074 A 
ATOM     61  C   UNL A   1      45.601  31.022  31.354  1.00  0.00     0.029 A 
ATOM     62  N   UNL A   1      43.621  31.870  30.922  1.00  0.00    -0.354 N 
ATOM     63  N   UNL A   1      39.841  31.397  32.518  1.00  0.00    -0.248 NA
ATOM     64  C   UNL A   1      39.821  33.112  30.916  1.00  0.00     0.031 C 
ATOM     65  C   UNL A   1      44.649  30.491  32.267  1.00  0.00     0.029 A 
ATOM     66  C   UNL A   1      43.451  31.165  32.081  1.00  0.00     0.049 A 
ATOM     67  H   UNL A   1      42.886  32.301  30.428  1.00  0.00     0.167 HD
ATOM     68  C   UNL A   1      41.123  31.876  32.379  1.00  0.00     0.074 A 
ATOM     69  C   UNL A   1      41.038  32.997  31.441  1.00  0.00     0.031 C 
ATOM     70  C   UNL A   1      42.169  31.082  32.723  1.00  0.00     0.037 A 
BRANCH  57  71
ATOM     71  C   UNL A   1      44.823  33.840  28.804  1.00  0.00     0.064 A 
ATOM     72  C   UNL A   1      45.805  34.821  28.916  1.00  0.00     0.173 A 
ATOM     73  C   UNL A   1      43.522  34.295  28.481  1.00  0.00     0.173 A 
ATOM     74  F   UNL A   1      47.034  34.498  29.342  1.00  0.00    -0.203 F 
ATOM     75  C   UNL A   1      45.521  36.159  28.638  1.00  0.00     0.198 A 
ATOM     76  C   UNL A   1      43.259  35.607  28.119  1.00  0.00     0.198 A 
ATOM     77  F   UNL A   1      42.442  33.517  28.613  1.00  0.00    -0.203 F 
ATOM     78  F   UNL A   1      46.469  37.086  28.818  1.00  0.00    -0.200 F 
ATOM     79  C   UNL A   1      44.260  36.545  28.205  1.00  0.00     0.200 A 
ATOM     80  F   UNL A   1      42.018  35.954  27.749  1.00  0.00    -0.200 F 
ATOM     81  F   UNL A   1      43.995  37.826  27.927  1.00  0.00    -0.200 F 
ENDBRANCH  57  71
BRANCH  58  82
ATOM     82  C   UNL A   1      36.957  31.534  30.477  1.00  0.00     0.064 A 
ATOM     83  C   UNL A   1      36.113  31.720  31.629  1.00  0.00     0.173 A 
ATOM     84  C   UNL A   1      36.469  32.143  29.318  1.00  0.00     0.173 A 
ATOM     85  F   UNL A   1      36.418  31.155  32.809  1.00  0.00    -0.203 F 
ATOM     86  C   UNL A   1      34.972  32.558  31.623  1.00  0.00     0.198 A 
ATOM     87  C   UNL A   1      35.346  32.993  29.319  1.00  0.00     0.198 A 
ATOM     88  F   UNL A   1      37.126  31.987  28.165  1.00  0.00    -0.203 F 
ATOM     89  F   UNL A   1      34.263  32.771  32.747  1.00  0.00    -0.200 F 
ATOM     90  C   UNL A   1      34.620  33.233  30.473  1.00  0.00     0.200 A 
ATOM     91  F   UNL A   1      35.017  33.642  28.194  1.00  0.00    -0.200 F 
ATOM     92  F   UNL A   1      33.618  34.127  30.477  1.00  0.00    -0.200 F 
ENDBRANCH  58  82
BRANCH  70  93
ATOM     93  C   UNL A   1      41.970  30.073  33.810  1.00  0.00     0.064 A 
ATOM     94  C   UNL A   1      41.553  28.746  33.633  1.00  0.00     0.173 A 
ATOM     95  C   UNL A   1      42.337  30.473  35.104  1.00  0.00     0.173 A 
ATOM     96  F   UNL A   1      41.218  28.284  32.417  1.00  0.00    -0.203 F 
ATOM     97  C   UNL A   1      41.531  27.857  34.713  1.00  0.00     0.198 A 
ATOM     98  C   UNL A   1      42.335  29.584  36.169  1.00  0.00     0.198 A 
ATOM     99  F   UNL A   1      42.743  31.735  35.320  1.00  0.00    -0.203 F 
ATOM    100  F   UNL A   1      41.156  26.582  34.524  1.00  0.00    -0.200 F 
ATOM    101  C   UNL A   1      41.933  28.274  35.976  1.00  0.00     0.200 A 
ATOM    102  F   UNL A   1      42.749  29.993  37.376  1.00  0.00    -0.200 F 
ATOM    103  F   UNL A   1      41.945  27.413  37.002  1.00  0.00    -0.200 F 
ENDBRANCH  70  93
ENDBRANCH  44  45
ENDBRANCH  37  39
ENDBRANCH  36  37
ENDBRANCH  35  36
ENDBRANCH  34  35
ENDBRANCH  33  34
ENDBRANCH  32  33
ENDBRANCH   1  32
TORSDOF 22
ENDMDL
