MODEL 1
REMARK VINA RESULT:     -10.8      0.000      0.000
REMARK SMILES CC(C)(C[S@](=O)c1ccc(C(C)(C)C)cc1)C(=O)OCCOCCOCCOC(=O)c1ccc(-c2c3nc(c(-c4c(F)c(F)c(F)c(F)c4F)c4ccc([nH]4)c(-c4c(F)c(F)c(F)c(F)c4F)c4nc(c(-c5c(F)c(F)c(F)c(F)c5F)c5ccc2[nH]5)C=C4)C=C3)cc1
REMARK SMILES IDX 23 1 22 2 21 3 20 4 19 5 17 6 18 7 2 8 1 9 3 10 4 11 5 12
REMARK SMILES IDX 6 13 7 14 8 15 16 16 9 17 15 18 10 19 11 20 12 21 13 22
REMARK SMILES IDX 14 23 24 24 25 25 26 26 27 27 28 28 29 29 30 30 31 31 32 32
REMARK SMILES IDX 93 33 33 34 92 35 34 36 35 37 36 38 86 39 37 40 91 41 85 42
REMARK SMILES IDX 87 43 38 44 90 45 84 46 83 47 39 49 71 50 51 51 70 52 52 53
REMARK SMILES IDX 55 54 69 55 88 56 53 57 54 58 68 60 89 61 56 62 40 63 41 64
REMARK SMILES IDX 49 65 42 66 43 67 47 68 50 69 44 70 45 71 48 72 46 73 72 74
REMARK SMILES IDX 73 75 81 76 74 77 75 78 79 79 82 80 76 81 77 82 80 83 78 84
REMARK SMILES IDX 57 85 58 86 66 87 59 88 60 89 64 90 67 91 61 92 62 93 65 94
REMARK SMILES IDX 63 95
REMARK H PARENT 87 48 55 59
REMARK Flexibility Score: inf
ROOT
ATOM      1  C   UNL A   1      31.816  29.344  24.952  1.00  0.00     0.188 C 
ENDROOT
BRANCH   1   2
ATOM      2  O   UNL A   1      31.859  28.201  24.113  1.00  0.00    -0.376 OA
BRANCH   2   3
ATOM      3  C   UNL A   1      32.238  28.352  22.751  1.00  0.00     0.202 C 
BRANCH   3   4
ATOM      4  C   UNL A   1      33.656  27.935  22.314  1.00  0.00     0.261 C 
BRANCH   4   5
ATOM      5  O   UNL A   1      33.799  26.664  21.627  1.00  0.00    -0.463 OA
BRANCH   5   6
ATOM      6  C   UNL A   1      32.736  25.822  21.699  1.00  0.00     0.312 C 
ATOM      7  O   UNL A   1      31.747  25.937  20.977  1.00  0.00    -0.252 OA
BRANCH   6   8
ATOM      8  C   UNL A   1      32.796  24.741  22.813  1.00  0.00     0.074 C 
ATOM      9  C   UNL A   1      33.321  23.470  22.140  1.00  0.00     0.024 C 
ATOM     10  C   UNL A   1      31.294  24.480  23.129  1.00  0.00     0.024 C 
BRANCH   8  11
ATOM     11  C   UNL A   1      33.450  25.113  24.167  1.00  0.00     0.128 C 
BRANCH  11  12
ATOM     12  S   UNL A   1      34.064  24.059  25.499  1.00  0.00     0.054 S 
ATOM     13  O   UNL A   1      35.543  24.213  25.663  1.00  0.00    -0.254 OA
BRANCH  12  14
ATOM     14  C   UNL A   1      33.770  22.311  25.349  1.00  0.00     0.039 A 
ATOM     15  C   UNL A   1      34.879  21.509  25.057  1.00  0.00     0.018 A 
ATOM     16  C   UNL A   1      32.512  21.721  25.256  1.00  0.00     0.018 A 
ATOM     17  C   UNL A   1      34.739  20.153  24.728  1.00  0.00     0.005 A 
ATOM     18  C   UNL A   1      32.375  20.342  24.998  1.00  0.00     0.005 A 
ATOM     19  C   UNL A   1      33.483  19.532  24.695  1.00  0.00    -0.043 A 
BRANCH  19  20
ATOM     20  C   UNL A   1      33.379  18.042  24.312  1.00  0.00    -0.013 C 
ATOM     21  C   UNL A   1      34.780  17.388  24.249  1.00  0.00     0.016 C 
ATOM     22  C   UNL A   1      32.494  17.308  25.334  1.00  0.00     0.016 C 
ATOM     23  C   UNL A   1      32.750  17.798  22.940  1.00  0.00     0.016 C 
ENDBRANCH  19  20
ENDBRANCH  12  14
ENDBRANCH  11  12
ENDBRANCH   8  11
ENDBRANCH   6   8
ENDBRANCH   5   6
ENDBRANCH   4   5
ENDBRANCH   3   4
ENDBRANCH   2   3
ENDBRANCH   1   2
BRANCH   1  24
ATOM     24  C   UNL A   1      32.945  29.597  25.960  1.00  0.00     0.188 C 
BRANCH  24  25
ATOM     25  O   UNL A   1      32.783  30.740  26.771  1.00  0.00    -0.376 OA
BRANCH  25  26
ATOM     26  C   UNL A   1      31.637  31.533  26.511  1.00  0.00     0.202 C 
BRANCH  26  27
ATOM     27  C   UNL A   1      31.742  32.995  26.974  1.00  0.00     0.261 C 
BRANCH  27  28
ATOM     28  O   UNL A   1      33.084  33.490  27.160  1.00  0.00    -0.460 OA
BRANCH  28  29
ATOM     29  C   UNL A   1      33.322  34.204  28.288  1.00  0.00     0.338 C 
ATOM     30  O   UNL A   1      32.629  35.086  28.747  1.00  0.00    -0.246 OA
BRANCH  29  31
ATOM     31  C   UNL A   1      34.499  33.609  28.983  1.00  0.00     0.060 A 
ATOM     32  C   UNL A   1      35.747  34.213  28.812  1.00  0.00     0.016 A 
ATOM     33  C   UNL A   1      34.392  32.470  29.790  1.00  0.00     0.016 A 
ATOM     34  C   UNL A   1      36.876  33.670  29.438  1.00  0.00     0.010 A 
ATOM     35  C   UNL A   1      35.533  31.926  30.413  1.00  0.00     0.010 A 
ATOM     36  C   UNL A   1      36.792  32.521  30.245  1.00  0.00    -0.014 A 
BRANCH  36  37
ATOM     37  C   UNL A   1      38.052  31.916  30.784  1.00  0.00     0.031 A 
ATOM     38  C   UNL A   1      38.396  32.142  32.239  1.00  0.00     0.074 A 
ATOM     39  C   UNL A   1      38.775  31.011  30.087  1.00  0.00     0.049 A 
ATOM     40  N   UNL A   1      39.293  31.549  32.991  1.00  0.00    -0.248 NA
ATOM     41  C   UNL A   1      37.574  33.131  32.950  1.00  0.00     0.031 C 
ATOM     42  C   UNL A   1      38.438  30.511  28.758  1.00  0.00     0.029 A 
ATOM     43  N   UNL A   1      39.859  30.239  30.469  1.00  0.00    -0.354 N 
ATOM     44  C   UNL A   1      39.146  32.099  34.259  1.00  0.00     0.074 A 
ATOM     45  C   UNL A   1      38.058  33.050  34.180  1.00  0.00     0.031 C 
ATOM     46  C   UNL A   1      39.221  29.451  28.480  1.00  0.00     0.029 A 
ATOM     47  C   UNL A   1      40.155  29.220  29.587  1.00  0.00     0.049 A 
ATOM     48  H   UNL A   1      40.371  30.401  31.294  1.00  0.00     0.167 HD
ATOM     49  C   UNL A   1      39.862  31.860  35.386  1.00  0.00     0.037 A 
ATOM     50  C   UNL A   1      41.031  28.193  29.677  1.00  0.00     0.037 A 
ATOM     51  C   UNL A   1      40.958  30.935  35.499  1.00  0.00     0.049 A 
ATOM     52  C   UNL A   1      41.900  28.032  30.908  1.00  0.00     0.074 A 
ATOM     53  C   UNL A   1      41.790  30.717  36.586  1.00  0.00     0.029 A 
ATOM     54  N   UNL A   1      41.383  30.079  34.498  1.00  0.00    -0.354 N 
ATOM     55  N   UNL A   1      41.798  28.600  32.084  1.00  0.00    -0.248 NA
ATOM     56  C   UNL A   1      43.020  27.078  30.811  1.00  0.00     0.031 C 
ATOM     57  C   UNL A   1      42.760  29.778  36.220  1.00  0.00     0.029 A 
ATOM     58  C   UNL A   1      42.491  29.360  34.928  1.00  0.00     0.049 A 
ATOM     59  H   UNL A   1      40.962  29.991  33.612  1.00  0.00     0.167 HD
ATOM     60  C   UNL A   1      42.826  28.067  32.861  1.00  0.00     0.074 A 
ATOM     61  C   UNL A   1      43.507  27.090  32.043  1.00  0.00     0.031 C 
ATOM     62  C   UNL A   1      43.184  28.382  34.130  1.00  0.00     0.037 A 
BRANCH  49  63
ATOM     63  C   UNL A   1      39.548  32.709  36.582  1.00  0.00     0.064 A 
ATOM     64  C   UNL A   1      40.244  33.891  36.865  1.00  0.00     0.173 A 
ATOM     65  C   UNL A   1      38.506  32.332  37.444  1.00  0.00     0.173 A 
ATOM     66  F   UNL A   1      41.257  34.286  36.079  1.00  0.00    -0.203 F 
ATOM     67  C   UNL A   1      39.924  34.653  37.987  1.00  0.00     0.198 A 
ATOM     68  C   UNL A   1      38.169  33.111  38.546  1.00  0.00     0.198 A 
ATOM     69  F   UNL A   1      37.806  31.212  37.208  1.00  0.00    -0.203 F 
ATOM     70  F   UNL A   1      40.631  35.755  38.271  1.00  0.00    -0.200 F 
ATOM     71  C   UNL A   1      38.884  34.265  38.822  1.00  0.00     0.200 A 
ATOM     72  F   UNL A   1      37.155  32.742  39.339  1.00  0.00    -0.200 F 
ATOM     73  F   UNL A   1      38.576  35.002  39.898  1.00  0.00    -0.200 F 
ENDBRANCH  49  63
BRANCH  50  74
ATOM     74  C   UNL A   1      41.173  27.197  28.568  1.00  0.00     0.064 A 
ATOM     75  C   UNL A   1      40.362  26.051  28.507  1.00  0.00     0.173 A 
ATOM     76  C   UNL A   1      42.197  27.309  27.614  1.00  0.00     0.173 A 
ATOM     77  F   UNL A   1      39.391  25.866  29.413  1.00  0.00    -0.203 F 
ATOM     78  C   UNL A   1      40.594  25.047  27.564  1.00  0.00     0.198 A 
ATOM     79  C   UNL A   1      42.399  26.327  26.646  1.00  0.00     0.198 A 
ATOM     80  F   UNL A   1      43.022  28.366  27.635  1.00  0.00    -0.203 F 
ATOM     81  F   UNL A   1      39.861  23.925  27.589  1.00  0.00    -0.200 F 
ATOM     82  C   UNL A   1      41.609  25.189  26.631  1.00  0.00     0.200 A 
ATOM     83  F   UNL A   1      43.378  26.474  25.744  1.00  0.00    -0.200 F 
ATOM     84  F   UNL A   1      41.841  24.220  25.736  1.00  0.00    -0.200 F 
ENDBRANCH  50  74
BRANCH  62  85
ATOM     85  C   UNL A   1      44.378  27.686  34.735  1.00  0.00     0.064 A 
ATOM     86  C   UNL A   1      44.260  26.433  35.361  1.00  0.00     0.173 A 
ATOM     87  C   UNL A   1      45.667  28.236  34.631  1.00  0.00     0.173 A 
ATOM     88  F   UNL A   1      43.056  25.857  35.494  1.00  0.00    -0.203 F 
ATOM     89  C   UNL A   1      45.374  25.776  35.882  1.00  0.00     0.198 A 
ATOM     90  C   UNL A   1      46.785  27.559  35.122  1.00  0.00     0.198 A 
ATOM     91  F   UNL A   1      45.851  29.422  34.033  1.00  0.00    -0.203 F 
ATOM     92  F   UNL A   1      45.223  24.605  36.516  1.00  0.00    -0.200 F 
ATOM     93  C   UNL A   1      46.636  26.335  35.754  1.00  0.00     0.200 A 
ATOM     94  F   UNL A   1      48.006  28.091  34.977  1.00  0.00    -0.200 F 
ATOM     95  F   UNL A   1      47.708  25.695  36.242  1.00  0.00    -0.200 F 
ENDBRANCH  62  85
ENDBRANCH  36  37
ENDBRANCH  29  31
ENDBRANCH  28  29
ENDBRANCH  27  28
ENDBRANCH  26  27
ENDBRANCH  25  26
ENDBRANCH  24  25
ENDBRANCH   1  24
TORSDOF 21
ENDMDL
MODEL 2
REMARK VINA RESULT:     -10.7      2.520      8.456
REMARK SMILES CC(C)(C[S@](=O)c1ccc(C(C)(C)C)cc1)C(=O)OCCOCCOCCOC(=O)c1ccc(-c2c3nc(c(-c4c(F)c(F)c(F)c(F)c4F)c4ccc([nH]4)c(-c4c(F)c(F)c(F)c(F)c4F)c4nc(c(-c5c(F)c(F)c(F)c(F)c5F)c5ccc2[nH]5)C=C4)C=C3)cc1
REMARK SMILES IDX 23 1 22 2 21 3 20 4 19 5 17 6 18 7 2 8 1 9 3 10 4 11 5 12
REMARK SMILES IDX 6 13 7 14 8 15 16 16 9 17 15 18 10 19 11 20 12 21 13 22
REMARK SMILES IDX 14 23 24 24 25 25 26 26 27 27 28 28 29 29 30 30 31 31 32 32
REMARK SMILES IDX 93 33 33 34 92 35 34 36 35 37 36 38 86 39 37 40 91 41 85 42
REMARK SMILES IDX 87 43 38 44 90 45 84 46 83 47 39 49 71 50 51 51 70 52 52 53
REMARK SMILES IDX 55 54 69 55 88 56 53 57 54 58 68 60 89 61 56 62 40 63 41 64
REMARK SMILES IDX 49 65 42 66 43 67 47 68 50 69 44 70 45 71 48 72 46 73 72 74
REMARK SMILES IDX 73 75 81 76 74 77 75 78 79 79 82 80 76 81 77 82 80 83 78 84
REMARK SMILES IDX 57 85 58 86 66 87 59 88 60 89 64 90 67 91 61 92 62 93 65 94
REMARK SMILES IDX 63 95
REMARK H PARENT 87 48 55 59
REMARK Flexibility Score: inf
ROOT
ATOM      1  C   UNL A   1      35.086  31.197  28.202  1.00  0.00     0.188 C 
ENDROOT
BRANCH   1   2
ATOM      2  O   UNL A   1      34.048  30.417  27.630  1.00  0.00    -0.376 OA
BRANCH   2   3
ATOM      3  C   UNL A   1      34.384  29.318  26.794  1.00  0.00     0.202 C 
BRANCH   3   4
ATOM      4  C   UNL A   1      33.273  28.356  26.331  1.00  0.00     0.261 C 
BRANCH   4   5
ATOM      5  O   UNL A   1      33.522  26.932  26.462  1.00  0.00    -0.463 OA
BRANCH   5   6
ATOM      6  C   UNL A   1      32.441  26.121  26.330  1.00  0.00     0.312 C 
ATOM      7  O   UNL A   1      31.360  26.362  26.866  1.00  0.00    -0.252 OA
BRANCH   6   8
ATOM      8  C   UNL A   1      32.664  24.810  25.527  1.00  0.00     0.074 C 
ATOM      9  C   UNL A   1      31.339  24.046  25.591  1.00  0.00     0.024 C 
ATOM     10  C   UNL A   1      33.668  24.020  26.417  1.00  0.00     0.024 C 
BRANCH   8  11
ATOM     11  C   UNL A   1      33.327  24.905  24.130  1.00  0.00     0.128 C 
BRANCH  11  12
ATOM     12  S   UNL A   1      32.760  25.713  22.618  1.00  0.00     0.054 S 
ATOM     13  O   UNL A   1      33.916  26.248  21.833  1.00  0.00    -0.254 OA
BRANCH  12  14
ATOM     14  C   UNL A   1      31.625  27.070  22.803  1.00  0.00     0.039 A 
ATOM     15  C   UNL A   1      30.310  26.747  23.157  1.00  0.00     0.018 A 
ATOM     16  C   UNL A   1      31.873  28.376  22.390  1.00  0.00     0.018 A 
ATOM     17  C   UNL A   1      29.288  27.706  23.144  1.00  0.00     0.005 A 
ATOM     18  C   UNL A   1      30.863  29.359  22.446  1.00  0.00     0.005 A 
ATOM     19  C   UNL A   1      29.539  29.040  22.793  1.00  0.00    -0.043 A 
BRANCH  19  20
ATOM     20  C   UNL A   1      28.379  30.055  22.778  1.00  0.00    -0.013 C 
ATOM     21  C   UNL A   1      27.068  29.405  23.283  1.00  0.00     0.016 C 
ATOM     22  C   UNL A   1      28.743  31.268  23.652  1.00  0.00     0.016 C 
ATOM     23  C   UNL A   1      28.055  30.605  21.388  1.00  0.00     0.016 C 
ENDBRANCH  19  20
ENDBRANCH  12  14
ENDBRANCH  11  12
ENDBRANCH   8  11
ENDBRANCH   6   8
ENDBRANCH   5   6
ENDBRANCH   4   5
ENDBRANCH   3   4
ENDBRANCH   2   3
ENDBRANCH   1   2
BRANCH   1  24
ATOM     24  C   UNL A   1      34.741  32.446  29.024  1.00  0.00     0.188 C 
BRANCH  24  25
ATOM     25  O   UNL A   1      33.661  33.211  28.531  1.00  0.00    -0.376 OA
BRANCH  25  26
ATOM     26  C   UNL A   1      33.945  34.565  28.223  1.00  0.00     0.202 C 
BRANCH  26  27
ATOM     27  C   UNL A   1      33.247  35.595  29.125  1.00  0.00     0.261 C 
BRANCH  27  28
ATOM     28  O   UNL A   1      32.587  35.052  30.288  1.00  0.00    -0.460 OA
BRANCH  28  29
ATOM     29  C   UNL A   1      32.847  35.654  31.476  1.00  0.00     0.338 C 
ATOM     30  O   UNL A   1      32.223  36.564  31.977  1.00  0.00    -0.246 OA
BRANCH  29  31
ATOM     31  C   UNL A   1      33.932  34.897  32.161  1.00  0.00     0.060 A 
ATOM     32  C   UNL A   1      35.247  35.347  32.022  1.00  0.00     0.016 A 
ATOM     33  C   UNL A   1      33.675  33.754  32.928  1.00  0.00     0.016 A 
ATOM     34  C   UNL A   1      36.292  34.649  32.640  1.00  0.00     0.010 A 
ATOM     35  C   UNL A   1      34.732  33.054  33.543  1.00  0.00     0.010 A 
ATOM     36  C   UNL A   1      36.057  33.494  33.407  1.00  0.00    -0.014 A 
BRANCH  36  37
ATOM     37  C   UNL A   1      37.225  32.721  33.938  1.00  0.00     0.031 A 
ATOM     38  C   UNL A   1      37.949  31.777  33.005  1.00  0.00     0.074 A 
ATOM     39  C   UNL A   1      37.782  32.988  35.140  1.00  0.00     0.049 A 
ATOM     40  N   UNL A   1      39.107  31.175  33.152  1.00  0.00    -0.248 NA
ATOM     41  C   UNL A   1      37.302  31.527  31.710  1.00  0.00     0.031 C 
ATOM     42  C   UNL A   1      37.341  34.035  36.056  1.00  0.00     0.029 A 
ATOM     43  N   UNL A   1      38.939  32.499  35.724  1.00  0.00    -0.354 N 
ATOM     44  C   UNL A   1      39.320  30.473  31.972  1.00  0.00     0.074 A 
ATOM     45  C   UNL A   1      38.188  30.745  31.111  1.00  0.00     0.031 C 
ATOM     46  C   UNL A   1      38.266  34.186  37.024  1.00  0.00     0.029 A 
ATOM     47  C   UNL A   1      39.346  33.212  36.833  1.00  0.00     0.049 A 
ATOM     48  H   UNL A   1      39.425  31.716  35.380  1.00  0.00     0.167 HD
ATOM     49  C   UNL A   1      40.347  29.654  31.635  1.00  0.00     0.037 A 
ATOM     50  C   UNL A   1      40.475  33.132  37.575  1.00  0.00     0.037 A 
ATOM     51  C   UNL A   1      41.480  29.349  32.467  1.00  0.00     0.049 A 
ATOM     52  C   UNL A   1      41.548  32.118  37.233  1.00  0.00     0.074 A 
ATOM     53  C   UNL A   1      42.507  28.449  32.226  1.00  0.00     0.029 A 
ATOM     54  N   UNL A   1      41.739  29.922  33.700  1.00  0.00    -0.354 N 
ATOM     55  N   UNL A   1      41.711  31.409  36.144  1.00  0.00    -0.248 NA
ATOM     56  C   UNL A   1      42.597  31.894  38.245  1.00  0.00     0.031 C 
ATOM     57  C   UNL A   1      43.349  28.429  33.341  1.00  0.00     0.029 A 
ATOM     58  C   UNL A   1      42.887  29.366  34.249  1.00  0.00     0.049 A 
ATOM     59  H   UNL A   1      41.190  30.621  34.126  1.00  0.00     0.167 HD
ATOM     60  C   UNL A   1      42.878  30.669  36.337  1.00  0.00     0.074 A 
ATOM     61  C   UNL A   1      43.413  31.056  37.622  1.00  0.00     0.031 C 
ATOM     62  C   UNL A   1      43.437  29.736  35.527  1.00  0.00     0.037 A 
BRANCH  49  63
ATOM     63  C   UNL A   1      40.235  28.929  30.326  1.00  0.00     0.064 A 
ATOM     64  C   UNL A   1      40.780  29.435  29.140  1.00  0.00     0.173 A 
ATOM     65  C   UNL A   1      39.583  27.687  30.277  1.00  0.00     0.173 A 
ATOM     66  F   UNL A   1      41.399  30.626  29.133  1.00  0.00    -0.203 F 
ATOM     67  C   UNL A   1      40.654  28.733  27.943  1.00  0.00     0.198 A 
ATOM     68  C   UNL A   1      39.486  26.974  29.087  1.00  0.00     0.198 A 
ATOM     69  F   UNL A   1      39.052  27.158  31.390  1.00  0.00    -0.203 F 
ATOM     70  F   UNL A   1      41.139  29.254  26.808  1.00  0.00    -0.200 F 
ATOM     71  C   UNL A   1      40.012  27.502  27.919  1.00  0.00     0.200 A 
ATOM     72  F   UNL A   1      38.880  25.779  29.072  1.00  0.00    -0.200 F 
ATOM     73  F   UNL A   1      39.896  26.827  26.768  1.00  0.00    -0.200 F 
ENDBRANCH  49  63
BRANCH  50  74
ATOM     74  C   UNL A   1      40.692  34.032  38.752  1.00  0.00     0.064 A 
ATOM     75  C   UNL A   1      41.452  35.210  38.642  1.00  0.00     0.173 A 
ATOM     76  C   UNL A   1      40.246  33.675  40.034  1.00  0.00     0.173 A 
ATOM     77  F   UNL A   1      41.940  35.585  37.451  1.00  0.00    -0.203 F 
ATOM     78  C   UNL A   1      41.783  35.968  39.767  1.00  0.00     0.198 A 
ATOM     79  C   UNL A   1      40.540  34.457  41.150  1.00  0.00     0.198 A 
ATOM     80  F   UNL A   1      39.539  32.550  40.211  1.00  0.00    -0.203 F 
ATOM     81  F   UNL A   1      42.585  37.035  39.641  1.00  0.00    -0.200 F 
ATOM     82  C   UNL A   1      41.323  35.593  41.019  1.00  0.00     0.200 A 
ATOM     83  F   UNL A   1      40.086  34.093  42.356  1.00  0.00    -0.200 F 
ATOM     84  F   UNL A   1      41.653  36.312  42.101  1.00  0.00    -0.200 F 
ENDBRANCH  50  74
BRANCH  62  85
ATOM     85  C   UNL A   1      44.690  29.037  35.993  1.00  0.00     0.064 A 
ATOM     86  C   UNL A   1      45.965  29.580  35.759  1.00  0.00     0.173 A 
ATOM     87  C   UNL A   1      44.622  27.850  36.741  1.00  0.00     0.173 A 
ATOM     88  F   UNL A   1      46.097  30.710  35.049  1.00  0.00    -0.203 F 
ATOM     89  C   UNL A   1      47.118  28.949  36.228  1.00  0.00     0.198 A 
ATOM     90  C   UNL A   1      45.775  27.241  37.240  1.00  0.00     0.198 A 
ATOM     91  F   UNL A   1      43.435  27.286  37.012  1.00  0.00    -0.203 F 
ATOM     92  F   UNL A   1      48.322  29.466  35.948  1.00  0.00    -0.200 F 
ATOM     93  C   UNL A   1      47.021  27.787  36.975  1.00  0.00     0.200 A 
ATOM     94  F   UNL A   1      45.677  26.128  37.980  1.00  0.00    -0.200 F 
ATOM     95  F   UNL A   1      48.129  27.190  37.438  1.00  0.00    -0.200 F 
ENDBRANCH  62  85
ENDBRANCH  36  37
ENDBRANCH  29  31
ENDBRANCH  28  29
ENDBRANCH  27  28
ENDBRANCH  26  27
ENDBRANCH  25  26
ENDBRANCH  24  25
ENDBRANCH   1  24
TORSDOF 21
ENDMDL
MODEL 3
REMARK VINA RESULT:     -10.7      1.897      7.766
REMARK SMILES CC(C)(C[S@](=O)c1ccc(C(C)(C)C)cc1)C(=O)OCCOCCOCCOC(=O)c1ccc(-c2c3nc(c(-c4c(F)c(F)c(F)c(F)c4F)c4ccc([nH]4)c(-c4c(F)c(F)c(F)c(F)c4F)c4nc(c(-c5c(F)c(F)c(F)c(F)c5F)c5ccc2[nH]5)C=C4)C=C3)cc1
REMARK SMILES IDX 23 1 22 2 21 3 20 4 19 5 17 6 18 7 2 8 1 9 3 10 4 11 5 12
REMARK SMILES IDX 6 13 7 14 8 15 16 16 9 17 15 18 10 19 11 20 12 21 13 22
REMARK SMILES IDX 14 23 24 24 25 25 26 26 27 27 28 28 29 29 30 30 31 31 32 32
REMARK SMILES IDX 93 33 33 34 92 35 34 36 35 37 36 38 86 39 37 40 91 41 85 42
REMARK SMILES IDX 87 43 38 44 90 45 84 46 83 47 39 49 71 50 51 51 70 52 52 53
REMARK SMILES IDX 55 54 69 55 88 56 53 57 54 58 68 60 89 61 56 62 40 63 41 64
REMARK SMILES IDX 49 65 42 66 43 67 47 68 50 69 44 70 45 71 48 72 46 73 72 74
REMARK SMILES IDX 73 75 81 76 74 77 75 78 79 79 82 80 76 81 77 82 80 83 78 84
REMARK SMILES IDX 57 85 58 86 66 87 59 88 60 89 64 90 67 91 61 92 62 93 65 94
REMARK SMILES IDX 63 95
REMARK H PARENT 87 48 55 59
REMARK Flexibility Score: inf
ROOT
ATOM      1  C   UNL A   1      34.527  31.689  27.854  1.00  0.00     0.188 C 
ENDROOT
BRANCH   1   2
ATOM      2  O   UNL A   1      33.445  31.159  27.105  1.00  0.00    -0.376 OA
BRANCH   2   3
ATOM      3  C   UNL A   1      33.127  29.778  27.224  1.00  0.00     0.202 C 
BRANCH   3   4
ATOM      4  C   UNL A   1      33.259  28.866  25.989  1.00  0.00     0.261 C 
BRANCH   4   5
ATOM      5  O   UNL A   1      32.194  28.912  25.004  1.00  0.00    -0.463 OA
BRANCH   5   6
ATOM      6  C   UNL A   1      31.389  27.820  24.942  1.00  0.00     0.312 C 
ATOM      7  O   UNL A   1      31.302  27.005  25.858  1.00  0.00    -0.252 OA
BRANCH   6   8
ATOM      8  C   UNL A   1      30.636  27.603  23.600  1.00  0.00     0.074 C 
ATOM      9  C   UNL A   1      29.681  28.791  23.456  1.00  0.00     0.024 C 
ATOM     10  C   UNL A   1      29.747  26.359  23.894  1.00  0.00     0.024 C 
BRANCH   8  11
ATOM     11  C   UNL A   1      31.462  27.239  22.341  1.00  0.00     0.128 C 
BRANCH  11  12
ATOM     12  S   UNL A   1      33.032  26.360  22.185  1.00  0.00     0.054 S 
ATOM     13  O   UNL A   1      33.276  25.949  20.768  1.00  0.00    -0.254 OA
BRANCH  12  14
ATOM     14  C   UNL A   1      33.235  24.887  23.163  1.00  0.00     0.039 A 
ATOM     15  C   UNL A   1      33.828  25.044  24.421  1.00  0.00     0.018 A 
ATOM     16  C   UNL A   1      33.083  23.588  22.686  1.00  0.00     0.018 A 
ATOM     17  C   UNL A   1      34.212  23.940  25.195  1.00  0.00     0.005 A 
ATOM     18  C   UNL A   1      33.401  22.477  23.492  1.00  0.00     0.005 A 
ATOM     19  C   UNL A   1      34.004  22.626  24.753  1.00  0.00    -0.043 A 
BRANCH  19  20
ATOM     20  C   UNL A   1      34.458  21.445  25.634  1.00  0.00    -0.013 C 
ATOM     21  C   UNL A   1      34.414  21.824  27.134  1.00  0.00     0.016 C 
ATOM     22  C   UNL A   1      33.559  20.226  25.365  1.00  0.00     0.016 C 
ATOM     23  C   UNL A   1      35.894  20.991  25.368  1.00  0.00     0.016 C 
ENDBRANCH  19  20
ENDBRANCH  12  14
ENDBRANCH  11  12
ENDBRANCH   8  11
ENDBRANCH   6   8
ENDBRANCH   5   6
ENDBRANCH   4   5
ENDBRANCH   3   4
ENDBRANCH   2   3
ENDBRANCH   1   2
BRANCH   1  24
ATOM     24  C   UNL A   1      34.286  32.841  28.838  1.00  0.00     0.188 C 
BRANCH  24  25
ATOM     25  O   UNL A   1      33.388  33.835  28.392  1.00  0.00    -0.376 OA
BRANCH  25  26
ATOM     26  C   UNL A   1      33.809  35.178  28.558  1.00  0.00     0.202 C 
BRANCH  26  27
ATOM     27  C   UNL A   1      32.910  36.031  29.466  1.00  0.00     0.261 C 
BRANCH  27  28
ATOM     28  O   UNL A   1      32.315  35.333  30.579  1.00  0.00    -0.460 OA
BRANCH  28  29
ATOM     29  C   UNL A   1      32.687  35.731  31.822  1.00  0.00     0.338 C 
ATOM     30  O   UNL A   1      32.084  36.491  32.549  1.00  0.00    -0.246 OA
BRANCH  29  31
ATOM     31  C   UNL A   1      33.886  34.945  32.229  1.00  0.00     0.060 A 
ATOM     32  C   UNL A   1      33.691  33.715  32.860  1.00  0.00     0.016 A 
ATOM     33  C   UNL A   1      35.190  35.404  32.004  1.00  0.00     0.016 A 
ATOM     34  C   UNL A   1      34.797  32.959  33.270  1.00  0.00     0.010 A 
ATOM     35  C   UNL A   1      36.298  34.639  32.423  1.00  0.00     0.010 A 
ATOM     36  C   UNL A   1      36.115  33.405  33.062  1.00  0.00    -0.014 A 
BRANCH  36  37
ATOM     37  C   UNL A   1      37.251  32.612  33.634  1.00  0.00     0.031 A 
ATOM     38  C   UNL A   1      37.977  31.640  32.734  1.00  0.00     0.074 A 
ATOM     39  C   UNL A   1      37.782  32.884  34.847  1.00  0.00     0.049 A 
ATOM     40  N   UNL A   1      39.115  31.014  32.919  1.00  0.00    -0.248 NA
ATOM     41  C   UNL A   1      37.358  31.386  31.425  1.00  0.00     0.031 C 
ATOM     42  C   UNL A   1      37.341  33.954  35.737  1.00  0.00     0.029 A 
ATOM     43  N   UNL A   1      38.911  32.377  35.468  1.00  0.00    -0.354 N 
ATOM     44  C   UNL A   1      39.343  30.290  31.755  1.00  0.00     0.074 A 
ATOM     45  C   UNL A   1      38.240  30.576  30.861  1.00  0.00     0.031 C 
ATOM     46  C   UNL A   1      38.243  34.096  36.727  1.00  0.00     0.029 A 
ATOM     47  C   UNL A   1      39.306  33.096  36.577  1.00  0.00     0.049 A 
ATOM     48  H   UNL A   1      39.388  31.577  35.148  1.00  0.00     0.167 HD
ATOM     49  C   UNL A   1      40.359  29.443  31.456  1.00  0.00     0.037 A 
ATOM     50  C   UNL A   1      40.412  33.000  37.351  1.00  0.00     0.037 A 
ATOM     51  C   UNL A   1      41.463  29.123  32.322  1.00  0.00     0.049 A 
ATOM     52  C   UNL A   1      41.470  31.957  37.051  1.00  0.00     0.074 A 
ATOM     53  C   UNL A   1      42.474  28.198  32.120  1.00  0.00     0.029 A 
ATOM     54  N   UNL A   1      41.702  29.708  33.554  1.00  0.00    -0.354 N 
ATOM     55  N   UNL A   1      41.645  31.229  35.976  1.00  0.00    -0.248 NA
ATOM     56  C   UNL A   1      42.486  31.723  38.093  1.00  0.00     0.031 C 
ATOM     57  C   UNL A   1      43.287  28.173  33.258  1.00  0.00     0.029 A 
ATOM     58  C   UNL A   1      42.822  29.134  34.141  1.00  0.00     0.049 A 
ATOM     59  H   UNL A   1      41.159  30.425  33.955  1.00  0.00     0.167 HD
ATOM     60  C   UNL A   1      42.789  30.466  36.210  1.00  0.00     0.074 A 
ATOM     61  C   UNL A   1      43.299  30.858  37.503  1.00  0.00     0.031 C 
ATOM     62  C   UNL A   1      43.347  29.509  35.428  1.00  0.00     0.037 A 
BRANCH  49  63
ATOM     63  C   UNL A   1      40.264  28.703  30.155  1.00  0.00     0.064 A 
ATOM     64  C   UNL A   1      39.574  27.490  30.031  1.00  0.00     0.173 A 
ATOM     65  C   UNL A   1      40.864  29.242  29.006  1.00  0.00     0.173 A 
ATOM     66  F   UNL A   1      38.997  26.927  31.104  1.00  0.00    -0.203 F 
ATOM     67  C   UNL A   1      39.509  26.831  28.805  1.00  0.00     0.198 A 
ATOM     68  C   UNL A   1      40.772  28.597  27.778  1.00  0.00     0.198 A 
ATOM     69  F   UNL A   1      41.529  30.405  29.074  1.00  0.00    -0.203 F 
ATOM     70  F   UNL A   1      38.886  25.648  28.714  1.00  0.00    -0.200 F 
ATOM     71  C   UNL A   1      40.103  27.387  27.680  1.00  0.00     0.200 A 
ATOM     72  F   UNL A   1      41.332  29.145  26.691  1.00  0.00    -0.200 F 
ATOM     73  F   UNL A   1      40.036  26.753  26.502  1.00  0.00    -0.200 F 
ENDBRANCH  49  63
BRANCH  50  74
ATOM     74  C   UNL A   1      40.619  33.911  38.521  1.00  0.00     0.064 A 
ATOM     75  C   UNL A   1      39.981  33.678  39.751  1.00  0.00     0.173 A 
ATOM     76  C   UNL A   1      41.363  35.096  38.399  1.00  0.00     0.173 A 
ATOM     77  F   UNL A   1      39.224  32.584  39.918  1.00  0.00    -0.203 F 
ATOM     78  C   UNL A   1      40.050  34.606  40.792  1.00  0.00     0.198 A 
ATOM     79  C   UNL A   1      41.467  36.000  39.455  1.00  0.00     0.198 A 
ATOM     80  F   UNL A   1      41.973  35.390  37.242  1.00  0.00    -0.203 F 
ATOM     81  F   UNL A   1      39.357  34.397  41.920  1.00  0.00    -0.200 F 
ATOM     82  C   UNL A   1      40.798  35.764  40.645  1.00  0.00     0.200 A 
ATOM     83  F   UNL A   1      42.197  37.113  39.307  1.00  0.00    -0.200 F 
ATOM     84  F   UNL A   1      40.853  36.661  41.638  1.00  0.00    -0.200 F 
ENDBRANCH  50  74
BRANCH  62  85
ATOM     85  C   UNL A   1      44.571  28.787  35.936  1.00  0.00     0.064 A 
ATOM     86  C   UNL A   1      45.867  29.276  35.693  1.00  0.00     0.173 A 
ATOM     87  C   UNL A   1      44.456  27.636  36.733  1.00  0.00     0.173 A 
ATOM     88  F   UNL A   1      46.044  30.370  34.937  1.00  0.00    -0.203 F 
ATOM     89  C   UNL A   1      46.992  28.627  36.199  1.00  0.00     0.198 A 
ATOM     90  C   UNL A   1      45.582  27.011  37.269  1.00  0.00     0.198 A 
ATOM     91  F   UNL A   1      43.247  27.126  37.014  1.00  0.00    -0.203 F 
ATOM     92  F   UNL A   1      48.216  29.090  35.911  1.00  0.00    -0.200 F 
ATOM     93  C   UNL A   1      46.849  27.502  36.994  1.00  0.00     0.200 A 
ATOM     94  F   UNL A   1      45.439  25.934  38.054  1.00  0.00    -0.200 F 
ATOM     95  F   UNL A   1      47.931  26.888  37.493  1.00  0.00    -0.200 F 
ENDBRANCH  62  85
ENDBRANCH  36  37
ENDBRANCH  29  31
ENDBRANCH  28  29
ENDBRANCH  27  28
ENDBRANCH  26  27
ENDBRANCH  25  26
ENDBRANCH  24  25
ENDBRANCH   1  24
TORSDOF 21
ENDMDL
