MODEL 1
REMARK VINA RESULT:     -11.0      0.000      0.000
REMARK SMILES CCCc1c(C(=O)OCCOCCOCCOC(=O)c2ccc(-c3c4nc(c(-c5c(F)c(F)c(F)c(F)c5F)c5ccc([nH]5)c(-c5c(F)c(F)c(F)c(F)c5F)c5nc(c(-c6c(F)c(F)c(F)c(F)c6F)c6ccc3[nH]6)C=C5)C=C4)cc2)nnn1-c1ccccc1[N+](=O)[O-]
REMARK SMILES IDX 12 1 11 2 10 3 9 4 8 5 6 6 7 7 5 8 4 9 85 10 83 11 84 12
REMARK SMILES IDX 3 13 2 14 1 15 86 16 87 17 91 18 88 19 90 20 89 21 92 22
REMARK SMILES IDX 93 23 94 24 13 25 14 26 15 27 16 28 17 29 18 30 19 31 20 32
REMARK SMILES IDX 21 33 82 34 22 35 81 36 23 37 24 38 25 39 75 40 26 41 80 42
REMARK SMILES IDX 74 43 76 44 27 45 79 46 73 47 72 48 28 50 60 51 40 52 59 53
REMARK SMILES IDX 41 54 44 55 58 56 77 57 42 58 43 59 57 61 78 62 45 63 29 64
REMARK SMILES IDX 30 65 38 66 31 67 32 68 36 69 39 70 33 71 34 72 37 73 35 74
REMARK SMILES IDX 61 75 62 76 70 77 63 78 64 79 68 80 71 81 65 82 66 83 69 84
REMARK SMILES IDX 67 85 46 86 47 87 55 88 48 89 49 90 53 91 56 92 50 93 51 94
REMARK SMILES IDX 54 95 52 96
REMARK H PARENT 76 49 44 60
REMARK Flexibility Score: inf
ROOT
ATOM      1  C   UNL A   1      39.234  22.499  26.266  1.00  0.00     0.188 C 
ENDROOT
BRANCH   1   2
ATOM      2  O   UNL A   1      38.103  22.679  25.442  1.00  0.00    -0.376 OA
BRANCH   2   3
ATOM      3  C   UNL A   1      36.871  22.044  25.743  1.00  0.00     0.202 C 
BRANCH   3   4
ATOM      4  C   UNL A   1      35.484  22.616  25.397  1.00  0.00     0.261 C 
BRANCH   4   5
ATOM      5  O   UNL A   1      34.711  23.098  26.498  1.00  0.00    -0.458 OA
BRANCH   5   6
ATOM      6  C   UNL A   1      33.362  22.906  26.416  1.00  0.00     0.360 C 
ATOM      7  O   UNL A   1      32.815  21.822  26.594  1.00  0.00    -0.244 OA
BRANCH   6   8
ATOM      8  C   UNL A   1      32.611  24.142  26.249  1.00  0.00     0.194 A 
ATOM      9  C   UNL A   1      32.798  25.253  25.428  1.00  0.00     0.080 A 
ATOM     10  N   UNL A   1      31.650  26.005  25.685  1.00  0.00    -0.210 N 
ATOM     11  N   UNL A   1      31.550  24.389  27.095  1.00  0.00    -0.122 NA
ATOM     12  N   UNL A   1      31.079  25.593  26.834  1.00  0.00    -0.061 NA
BRANCH   9  13
ATOM     13  C   UNL A   1      33.890  25.746  24.525  1.00  0.00     0.059 C 
BRANCH  13  14
ATOM     14  C   UNL A   1      33.715  25.578  23.019  1.00  0.00     0.003 C 
ATOM     15  C   UNL A   1      33.028  24.292  22.590  1.00  0.00     0.004 C 
ENDBRANCH  13  14
ENDBRANCH   9  13
BRANCH  10  16
ATOM     16  C   UNL A   1      31.038  27.035  24.940  1.00  0.00     0.144 A 
ATOM     17  C   UNL A   1      30.073  26.686  23.982  1.00  0.00     0.036 A 
ATOM     18  C   UNL A   1      31.404  28.382  25.071  1.00  0.00     0.294 A 
ATOM     19  C   UNL A   1      29.437  27.680  23.230  1.00  0.00     0.003 A 
ATOM     20  C   UNL A   1      30.769  29.380  24.316  1.00  0.00     0.088 A 
ATOM     21  C   UNL A   1      29.776  29.023  23.404  1.00  0.00     0.007 A 
BRANCH  18  22
ATOM     22  N   UNL A   1      32.561  28.798  25.855  1.00  0.00     0.065 N 
ATOM     23  O   UNL A   1      33.478  29.363  25.245  1.00  0.00    -0.258 OA
ATOM     24  O   UNL A   1      32.554  28.548  27.066  1.00  0.00    -0.258 OA
ENDBRANCH  18  22
ENDBRANCH  10  16
ENDBRANCH   6   8
ENDBRANCH   5   6
ENDBRANCH   4   5
ENDBRANCH   3   4
ENDBRANCH   2   3
ENDBRANCH   1   2
BRANCH   1  25
ATOM     25  C   UNL A   1      39.890  21.105  26.364  1.00  0.00     0.188 C 
BRANCH  25  26
ATOM     26  O   UNL A   1      41.073  20.879  27.105  1.00  0.00    -0.376 OA
BRANCH  26  27
ATOM     27  C   UNL A   1      41.714  19.618  27.202  1.00  0.00     0.202 C 
BRANCH  27  28
ATOM     28  C   UNL A   1      42.753  19.076  26.225  1.00  0.00     0.261 C 
BRANCH  28  29
ATOM     29  O   UNL A   1      43.009  19.878  25.096  1.00  0.00    -0.460 OA
BRANCH  29  30
ATOM     30  C   UNL A   1      44.324  20.077  24.882  1.00  0.00     0.338 C 
ATOM     31  O   UNL A   1      45.186  19.233  24.703  1.00  0.00    -0.246 OA
BRANCH  30  32
ATOM     32  C   UNL A   1      44.602  21.506  24.989  1.00  0.00     0.060 A 
ATOM     33  C   UNL A   1      45.627  21.873  25.862  1.00  0.00     0.016 A 
ATOM     34  C   UNL A   1      43.642  22.413  24.519  1.00  0.00     0.016 A 
ATOM     35  C   UNL A   1      45.542  23.103  26.465  1.00  0.00     0.010 A 
ATOM     36  C   UNL A   1      43.546  23.631  25.138  1.00  0.00     0.010 A 
ATOM     37  C   UNL A   1      44.441  23.913  26.166  1.00  0.00    -0.014 A 
BRANCH  37  38
ATOM     38  C   UNL A   1      44.264  25.107  26.955  1.00  0.00     0.031 A 
ATOM     39  C   UNL A   1      45.333  26.101  26.753  1.00  0.00     0.074 A 
ATOM     40  C   UNL A   1      43.173  25.291  27.721  1.00  0.00     0.049 A 
ATOM     41  N   UNL A   1      46.174  26.542  27.625  1.00  0.00    -0.248 NA
ATOM     42  C   UNL A   1      45.594  26.546  25.374  1.00  0.00     0.031 C 
ATOM     43  C   UNL A   1      41.951  24.484  27.761  1.00  0.00     0.029 A 
ATOM     44  N   UNL A   1      42.890  26.322  28.559  1.00  0.00    -0.354 N 
ATOM     45  C   UNL A   1      46.958  27.466  26.946  1.00  0.00     0.074 A 
ATOM     46  C   UNL A   1      46.681  27.296  25.545  1.00  0.00     0.031 C 
ATOM     47  C   UNL A   1      40.983  25.180  28.400  1.00  0.00     0.029 A 
ATOM     48  C   UNL A   1      41.551  26.420  28.907  1.00  0.00     0.049 A 
ATOM     49  H   UNL A   1      43.575  26.945  28.890  1.00  0.00     0.167 HD
ATOM     50  C   UNL A   1      47.563  28.481  27.615  1.00  0.00     0.037 A 
ATOM     51  C   UNL A   1      40.955  27.492  29.483  1.00  0.00     0.037 A 
ATOM     52  C   UNL A   1      47.704  28.173  29.015  1.00  0.00     0.049 A 
ATOM     53  C   UNL A   1      42.029  28.326  30.086  1.00  0.00     0.074 A 
ATOM     54  C   UNL A   1      48.336  27.170  29.726  1.00  0.00     0.029 A 
ATOM     55  N   UNL A   1      46.833  28.763  29.898  1.00  0.00    -0.354 N 
ATOM     56  N   UNL A   1      42.725  27.979  31.131  1.00  0.00    -0.248 NA
ATOM     57  C   UNL A   1      42.623  29.370  29.262  1.00  0.00     0.031 C 
ATOM     58  C   UNL A   1      47.490  26.913  30.844  1.00  0.00     0.029 A 
ATOM     59  C   UNL A   1      46.416  27.800  30.780  1.00  0.00     0.049 A 
ATOM     60  H   UNL A   1      46.558  29.708  29.897  1.00  0.00     0.167 HD
ATOM     61  C   UNL A   1      44.011  28.424  30.861  1.00  0.00     0.074 A 
ATOM     62  C   UNL A   1      43.864  29.365  29.755  1.00  0.00     0.031 C 
ATOM     63  C   UNL A   1      45.097  27.770  31.365  1.00  0.00     0.037 A 
BRANCH  50  64
ATOM     64  C   UNL A   1      47.636  29.889  27.077  1.00  0.00     0.064 A 
ATOM     65  C   UNL A   1      48.851  30.590  27.188  1.00  0.00     0.173 A 
ATOM     66  C   UNL A   1      46.505  30.674  26.756  1.00  0.00     0.173 A 
ATOM     67  F   UNL A   1      49.984  29.948  27.506  1.00  0.00    -0.203 F 
ATOM     68  C   UNL A   1      48.908  31.982  27.081  1.00  0.00     0.198 A 
ATOM     69  C   UNL A   1      46.578  32.055  26.593  1.00  0.00     0.198 A 
ATOM     70  F   UNL A   1      45.268  30.170  26.701  1.00  0.00    -0.203 F 
ATOM     71  F   UNL A   1      50.059  32.619  27.337  1.00  0.00    -0.200 F 
ATOM     72  C   UNL A   1      47.772  32.713  26.792  1.00  0.00     0.200 A 
ATOM     73  F   UNL A   1      45.460  32.745  26.331  1.00  0.00    -0.200 F 
ATOM     74  F   UNL A   1      47.810  34.051  26.759  1.00  0.00    -0.200 F 
ENDBRANCH  50  64
BRANCH  51  75
ATOM     75  C   UNL A   1      39.576  28.001  29.286  1.00  0.00     0.064 A 
ATOM     76  C   UNL A   1      38.691  28.114  30.371  1.00  0.00     0.173 A 
ATOM     77  C   UNL A   1      39.187  28.643  28.094  1.00  0.00     0.173 A 
ATOM     78  F   UNL A   1      39.003  27.569  31.556  1.00  0.00    -0.203 F 
ATOM     79  C   UNL A   1      37.506  28.852  30.279  1.00  0.00     0.198 A 
ATOM     80  C   UNL A   1      37.998  29.368  28.000  1.00  0.00     0.198 A 
ATOM     81  F   UNL A   1      39.993  28.667  27.023  1.00  0.00    -0.203 F 
ATOM     82  F   UNL A   1      36.723  28.996  31.357  1.00  0.00    -0.200 F 
ATOM     83  C   UNL A   1      37.166  29.486  29.096  1.00  0.00     0.200 A 
ATOM     84  F   UNL A   1      37.697  30.004  26.858  1.00  0.00    -0.200 F 
ATOM     85  F   UNL A   1      36.063  30.245  29.025  1.00  0.00    -0.200 F 
ENDBRANCH  51  75
BRANCH  63  86
ATOM     86  C   UNL A   1      44.859  26.761  32.452  1.00  0.00     0.064 A 
ATOM     87  C   UNL A   1      44.737  27.084  33.815  1.00  0.00     0.173 A 
ATOM     88  C   UNL A   1      44.619  25.432  32.079  1.00  0.00     0.173 A 
ATOM     89  F   UNL A   1      44.849  28.349  34.238  1.00  0.00    -0.203 F 
ATOM     90  C   UNL A   1      44.440  26.107  34.763  1.00  0.00     0.198 A 
ATOM     91  C   UNL A   1      44.282  24.467  33.023  1.00  0.00     0.198 A 
ATOM     92  F   UNL A   1      44.666  25.077  30.785  1.00  0.00    -0.203 F 
ATOM     93  F   UNL A   1      44.347  26.436  36.060  1.00  0.00    -0.200 F 
ATOM     94  C   UNL A   1      44.205  24.801  34.365  1.00  0.00     0.200 A 
ATOM     95  F   UNL A   1      44.007  23.216  32.628  1.00  0.00    -0.200 F 
ATOM     96  F   UNL A   1      43.879  23.870  35.272  1.00  0.00    -0.200 F 
ENDBRANCH  63  86
ENDBRANCH  37  38
ENDBRANCH  30  32
ENDBRANCH  29  30
ENDBRANCH  28  29
ENDBRANCH  27  28
ENDBRANCH  26  27
ENDBRANCH  25  26
ENDBRANCH   1  25
TORSDOF 21
ENDMDL
MODEL 2
REMARK VINA RESULT:     -10.7      1.156      1.895
REMARK SMILES CCCc1c(C(=O)OCCOCCOCCOC(=O)c2ccc(-c3c4nc(c(-c5c(F)c(F)c(F)c(F)c5F)c5ccc([nH]5)c(-c5c(F)c(F)c(F)c(F)c5F)c5nc(c(-c6c(F)c(F)c(F)c(F)c6F)c6ccc3[nH]6)C=C5)C=C4)cc2)nnn1-c1ccccc1[N+](=O)[O-]
REMARK SMILES IDX 12 1 11 2 10 3 9 4 8 5 6 6 7 7 5 8 4 9 85 10 83 11 84 12
REMARK SMILES IDX 3 13 2 14 1 15 86 16 87 17 91 18 88 19 90 20 89 21 92 22
REMARK SMILES IDX 93 23 94 24 13 25 14 26 15 27 16 28 17 29 18 30 19 31 20 32
REMARK SMILES IDX 21 33 82 34 22 35 81 36 23 37 24 38 25 39 75 40 26 41 80 42
REMARK SMILES IDX 74 43 76 44 27 45 79 46 73 47 72 48 28 50 60 51 40 52 59 53
REMARK SMILES IDX 41 54 44 55 58 56 77 57 42 58 43 59 57 61 78 62 45 63 29 64
REMARK SMILES IDX 30 65 38 66 31 67 32 68 36 69 39 70 33 71 34 72 37 73 35 74
REMARK SMILES IDX 61 75 62 76 70 77 63 78 64 79 68 80 71 81 65 82 66 83 69 84
REMARK SMILES IDX 67 85 46 86 47 87 55 88 48 89 49 90 53 91 56 92 50 93 51 94
REMARK SMILES IDX 54 95 52 96
REMARK H PARENT 76 49 44 60
REMARK Flexibility Score: inf
ROOT
ATOM      1  C   UNL A   1      39.830  21.689  26.149  1.00  0.00     0.188 C 
ENDROOT
BRANCH   1   2
ATOM      2  O   UNL A   1      38.651  21.585  25.381  1.00  0.00    -0.376 OA
BRANCH   2   3
ATOM      3  C   UNL A   1      37.458  22.237  25.782  1.00  0.00     0.202 C 
BRANCH   3   4
ATOM      4  C   UNL A   1      36.984  23.602  25.249  1.00  0.00     0.261 C 
BRANCH   4   5
ATOM      5  O   UNL A   1      35.592  23.706  24.940  1.00  0.00    -0.458 OA
BRANCH   5   6
ATOM      6  C   UNL A   1      35.271  23.741  23.614  1.00  0.00     0.360 C 
ATOM      7  O   UNL A   1      35.833  23.063  22.759  1.00  0.00    -0.244 OA
BRANCH   6   8
ATOM      8  C   UNL A   1      34.094  24.546  23.324  1.00  0.00     0.194 A 
ATOM      9  C   UNL A   1      33.198  25.231  24.144  1.00  0.00     0.080 A 
ATOM     10  N   UNL A   1      32.391  25.887  23.213  1.00  0.00    -0.210 N 
ATOM     11  N   UNL A   1      33.648  24.618  22.021  1.00  0.00    -0.122 NA
ATOM     12  N   UNL A   1      32.526  25.311  22.001  1.00  0.00    -0.061 NA
BRANCH   9  13
ATOM     13  C   UNL A   1      32.936  25.305  25.619  1.00  0.00     0.059 C 
BRANCH  13  14
ATOM     14  C   UNL A   1      32.002  24.273  26.241  1.00  0.00     0.003 C 
ATOM     15  C   UNL A   1      32.694  23.131  26.965  1.00  0.00     0.004 C 
ENDBRANCH  13  14
ENDBRANCH   9  13
BRANCH  10  16
ATOM     16  C   UNL A   1      31.545  27.008  23.354  1.00  0.00     0.144 A 
ATOM     17  C   UNL A   1      30.166  26.835  23.151  1.00  0.00     0.036 A 
ATOM     18  C   UNL A   1      32.034  28.295  23.619  1.00  0.00     0.294 A 
ATOM     19  C   UNL A   1      29.294  27.920  23.291  1.00  0.00     0.003 A 
ATOM     20  C   UNL A   1      31.159  29.384  23.757  1.00  0.00     0.088 A 
ATOM     21  C   UNL A   1      29.788  29.188  23.604  1.00  0.00     0.007 A 
BRANCH  18  22
ATOM     22  N   UNL A   1      33.458  28.603  23.596  1.00  0.00     0.065 N 
ATOM     23  O   UNL A   1      33.975  28.782  22.485  1.00  0.00    -0.258 OA
ATOM     24  O   UNL A   1      34.053  28.653  24.679  1.00  0.00    -0.258 OA
ENDBRANCH  18  22
ENDBRANCH  10  16
ENDBRANCH   6   8
ENDBRANCH   5   6
ENDBRANCH   4   5
ENDBRANCH   3   4
ENDBRANCH   2   3
ENDBRANCH   1   2
BRANCH   1  25
ATOM     25  C   UNL A   1      40.564  20.407  26.594  1.00  0.00     0.188 C 
BRANCH  25  26
ATOM     26  O   UNL A   1      41.974  20.296  26.567  1.00  0.00    -0.376 OA
BRANCH  26  27
ATOM     27  C   UNL A   1      42.666  19.109  26.221  1.00  0.00     0.202 C 
BRANCH  27  28
ATOM     28  C   UNL A   1      43.785  19.007  25.189  1.00  0.00     0.261 C 
BRANCH  28  29
ATOM     29  O   UNL A   1      43.903  20.095  24.303  1.00  0.00    -0.460 OA
BRANCH  29  30
ATOM     30  C   UNL A   1      45.082  20.738  24.416  1.00  0.00     0.338 C 
ATOM     31  O   UNL A   1      46.191  20.244  24.525  1.00  0.00    -0.246 OA
BRANCH  30  32
ATOM     32  C   UNL A   1      44.825  22.172  24.486  1.00  0.00     0.060 A 
ATOM     33  C   UNL A   1      45.923  22.984  24.774  1.00  0.00     0.016 A 
ATOM     34  C   UNL A   1      43.501  22.611  24.616  1.00  0.00     0.016 A 
ATOM     35  C   UNL A   1      45.689  24.164  25.435  1.00  0.00     0.010 A 
ATOM     36  C   UNL A   1      43.269  23.778  25.296  1.00  0.00     0.010 A 
ATOM     37  C   UNL A   1      44.370  24.483  25.775  1.00  0.00    -0.014 A 
BRANCH  37  38
ATOM     38  C   UNL A   1      44.164  25.618  26.641  1.00  0.00     0.031 A 
ATOM     39  C   UNL A   1      45.173  26.677  26.459  1.00  0.00     0.074 A 
ATOM     40  C   UNL A   1      43.098  25.698  27.458  1.00  0.00     0.049 A 
ATOM     41  N   UNL A   1      46.026  27.110  27.324  1.00  0.00    -0.248 NA
ATOM     42  C   UNL A   1      45.355  27.215  25.101  1.00  0.00     0.031 C 
ATOM     43  C   UNL A   1      41.922  24.826  27.495  1.00  0.00     0.029 A 
ATOM     44  N   UNL A   1      42.798  26.662  28.366  1.00  0.00    -0.354 N 
ATOM     45  C   UNL A   1      46.733  28.112  26.673  1.00  0.00     0.074 A 
ATOM     46  C   UNL A   1      46.408  28.010  25.275  1.00  0.00     0.031 C 
ATOM     47  C   UNL A   1      40.946  25.432  28.210  1.00  0.00     0.029 A 
ATOM     48  C   UNL A   1      41.470  26.668  28.769  1.00  0.00     0.049 A 
ATOM     49  H   UNL A   1      43.463  27.300  28.708  1.00  0.00     0.167 HD
ATOM     50  C   UNL A   1      47.313  29.117  27.378  1.00  0.00     0.037 A 
ATOM     51  C   UNL A   1      40.845  27.672  29.431  1.00  0.00     0.037 A 
ATOM     52  C   UNL A   1      47.526  28.736  28.751  1.00  0.00     0.049 A 
ATOM     53  C   UNL A   1      41.899  28.526  30.043  1.00  0.00     0.074 A 
ATOM     54  C   UNL A   1      48.236  27.728  29.375  1.00  0.00     0.029 A 
ATOM     55  N   UNL A   1      46.663  29.227  29.700  1.00  0.00    -0.354 N 
ATOM     56  N   UNL A   1      42.654  28.155  31.038  1.00  0.00    -0.248 NA
ATOM     57  C   UNL A   1      42.405  29.646  29.261  1.00  0.00     0.031 C 
ATOM     58  C   UNL A   1      47.451  27.362  30.507  1.00  0.00     0.029 A 
ATOM     59  C   UNL A   1      46.332  28.193  30.537  1.00  0.00     0.049 A 
ATOM     60  H   UNL A   1      46.341  30.155  29.767  1.00  0.00     0.167 HD
ATOM     61  C   UNL A   1      43.903  28.683  30.747  1.00  0.00     0.074 A 
ATOM     62  C   UNL A   1      43.664  29.678  29.706  1.00  0.00     0.031 C 
ATOM     63  C   UNL A   1      45.041  28.059  31.169  1.00  0.00     0.037 A 
BRANCH  50  64
ATOM     64  C   UNL A   1      47.293  30.557  26.924  1.00  0.00     0.064 A 
ATOM     65  C   UNL A   1      48.481  31.305  27.004  1.00  0.00     0.173 A 
ATOM     66  C   UNL A   1      46.111  31.307  26.721  1.00  0.00     0.173 A 
ATOM     67  F   UNL A   1      49.659  30.697  27.213  1.00  0.00    -0.203 F 
ATOM     68  C   UNL A   1      48.473  32.701  26.979  1.00  0.00     0.198 A 
ATOM     69  C   UNL A   1      46.116  32.696  26.638  1.00  0.00     0.198 A 
ATOM     70  F   UNL A   1      44.895  30.750  26.711  1.00  0.00    -0.203 F 
ATOM     71  F   UNL A   1      49.609  33.374  27.203  1.00  0.00    -0.200 F 
ATOM     72  C   UNL A   1      47.291  33.395  26.805  1.00  0.00     0.200 A 
ATOM     73  F   UNL A   1      44.955  33.349  26.487  1.00  0.00    -0.200 F 
ATOM     74  F   UNL A   1      47.271  34.733  26.851  1.00  0.00    -0.200 F 
ENDBRANCH  50  64
BRANCH  51  75
ATOM     75  C   UNL A   1      39.435  28.118  29.317  1.00  0.00     0.064 A 
ATOM     76  C   UNL A   1      38.615  28.202  30.455  1.00  0.00     0.173 A 
ATOM     77  C   UNL A   1      38.944  28.732  28.148  1.00  0.00     0.173 A 
ATOM     78  F   UNL A   1      39.024  27.681  31.622  1.00  0.00    -0.203 F 
ATOM     79  C   UNL A   1      37.395  28.885  30.432  1.00  0.00     0.198 A 
ATOM     80  C   UNL A   1      37.721  29.403  28.124  1.00  0.00     0.198 A 
ATOM     81  F   UNL A   1      39.681  28.782  27.029  1.00  0.00    -0.203 F 
ATOM     82  F   UNL A   1      36.674  29.003  31.557  1.00  0.00    -0.200 F 
ATOM     83  C   UNL A   1      36.954  29.494  29.269  1.00  0.00     0.200 A 
ATOM     84  F   UNL A   1      37.322  30.015  27.000  1.00  0.00    -0.200 F 
ATOM     85  F   UNL A   1      35.816  30.202  29.263  1.00  0.00    -0.200 F 
ENDBRANCH  51  75
BRANCH  63  86
ATOM     86  C   UNL A   1      44.899  26.977  32.201  1.00  0.00     0.064 A 
ATOM     87  C   UNL A   1      44.654  25.626  31.897  1.00  0.00     0.173 A 
ATOM     88  C   UNL A   1      45.150  27.303  33.540  1.00  0.00     0.173 A 
ATOM     89  F   UNL A   1      44.508  25.218  30.631  1.00  0.00    -0.203 F 
ATOM     90  C   UNL A   1      44.610  24.659  32.900  1.00  0.00     0.198 A 
ATOM     91  C   UNL A   1      45.145  26.328  34.533  1.00  0.00     0.198 A 
ATOM     92  F   UNL A   1      45.445  28.568  33.881  1.00  0.00    -0.203 F 
ATOM     93  F   UNL A   1      44.355  23.379  32.588  1.00  0.00    -0.200 F 
ATOM     94  C   UNL A   1      44.863  25.010  34.216  1.00  0.00     0.200 A 
ATOM     95  F   UNL A   1      45.441  26.664  35.797  1.00  0.00    -0.200 F 
ATOM     96  F   UNL A   1      44.862  24.073  35.174  1.00  0.00    -0.200 F 
ENDBRANCH  63  86
ENDBRANCH  37  38
ENDBRANCH  30  32
ENDBRANCH  29  30
ENDBRANCH  28  29
ENDBRANCH  27  28
ENDBRANCH  26  27
ENDBRANCH  25  26
ENDBRANCH   1  25
TORSDOF 21
ENDMDL
MODEL 3
REMARK VINA RESULT:     -10.5      3.228      8.809
REMARK SMILES CCCc1c(C(=O)OCCOCCOCCOC(=O)c2ccc(-c3c4nc(c(-c5c(F)c(F)c(F)c(F)c5F)c5ccc([nH]5)c(-c5c(F)c(F)c(F)c(F)c5F)c5nc(c(-c6c(F)c(F)c(F)c(F)c6F)c6ccc3[nH]6)C=C5)C=C4)cc2)nnn1-c1ccccc1[N+](=O)[O-]
REMARK SMILES IDX 12 1 11 2 10 3 9 4 8 5 6 6 7 7 5 8 4 9 85 10 83 11 84 12
REMARK SMILES IDX 3 13 2 14 1 15 86 16 87 17 91 18 88 19 90 20 89 21 92 22
REMARK SMILES IDX 93 23 94 24 13 25 14 26 15 27 16 28 17 29 18 30 19 31 20 32
REMARK SMILES IDX 21 33 82 34 22 35 81 36 23 37 24 38 25 39 75 40 26 41 80 42
REMARK SMILES IDX 74 43 76 44 27 45 79 46 73 47 72 48 28 50 60 51 40 52 59 53
REMARK SMILES IDX 41 54 44 55 58 56 77 57 42 58 43 59 57 61 78 62 45 63 29 64
REMARK SMILES IDX 30 65 38 66 31 67 32 68 36 69 39 70 33 71 34 72 37 73 35 74
REMARK SMILES IDX 61 75 62 76 70 77 63 78 64 79 68 80 71 81 65 82 66 83 69 84
REMARK SMILES IDX 67 85 46 86 47 87 55 88 48 89 49 90 53 91 56 92 50 93 51 94
REMARK SMILES IDX 54 95 52 96
REMARK H PARENT 76 49 44 60
REMARK Flexibility Score: inf
ROOT
ATOM      1  C   UNL A   1      32.052  28.878  24.396  1.00  0.00     0.188 C 
ENDROOT
BRANCH   1   2
ATOM      2  O   UNL A   1      30.864  28.925  23.636  1.00  0.00    -0.376 OA
BRANCH   2   3
ATOM      3  C   UNL A   1      29.820  27.992  23.854  1.00  0.00     0.202 C 
BRANCH   3   4
ATOM      4  C   UNL A   1      29.995  26.462  23.833  1.00  0.00     0.261 C 
BRANCH   4   5
ATOM      5  O   UNL A   1      29.639  25.772  25.034  1.00  0.00    -0.458 OA
BRANCH   5   6
ATOM      6  C   UNL A   1      30.577  25.766  26.025  1.00  0.00     0.360 C 
ATOM      7  O   UNL A   1      30.666  26.636  26.886  1.00  0.00    -0.244 OA
BRANCH   6   8
ATOM      8  C   UNL A   1      31.373  24.547  26.061  1.00  0.00     0.194 A 
ATOM      9  C   UNL A   1      32.183  23.924  25.112  1.00  0.00     0.080 A 
ATOM     10  N   UNL A   1      32.738  22.874  25.845  1.00  0.00    -0.210 N 
ATOM     11  N   UNL A   1      31.291  23.739  27.175  1.00  0.00    -0.122 NA
ATOM     12  N   UNL A   1      32.009  22.653  26.957  1.00  0.00    -0.061 NA
BRANCH   9  13
ATOM     13  C   UNL A   1      32.450  24.105  23.647  1.00  0.00     0.059 C 
BRANCH  13  14
ATOM     14  C   UNL A   1      33.409  25.210  23.218  1.00  0.00     0.003 C 
ATOM     15  C   UNL A   1      34.169  25.880  24.350  1.00  0.00     0.004 C 
ENDBRANCH  13  14
ENDBRANCH   9  13
BRANCH  10  16
ATOM     16  C   UNL A   1      33.892  22.095  25.610  1.00  0.00     0.144 A 
ATOM     17  C   UNL A   1      35.149  22.678  25.832  1.00  0.00     0.036 A 
ATOM     18  C   UNL A   1      33.831  20.790  25.099  1.00  0.00     0.294 A 
ATOM     19  C   UNL A   1      36.316  21.935  25.619  1.00  0.00     0.003 A 
ATOM     20  C   UNL A   1      35.001  20.046  24.883  1.00  0.00     0.088 A 
ATOM     21  C   UNL A   1      36.241  20.620  25.156  1.00  0.00     0.007 A 
BRANCH  18  22
ATOM     22  N   UNL A   1      32.589  20.206  24.610  1.00  0.00     0.065 N 
ATOM     23  O   UNL A   1      32.080  20.728  23.609  1.00  0.00    -0.258 OA
ATOM     24  O   UNL A   1      32.123  19.244  25.231  1.00  0.00    -0.258 OA
ENDBRANCH  18  22
ENDBRANCH  10  16
ENDBRANCH   6   8
ENDBRANCH   5   6
ENDBRANCH   4   5
ENDBRANCH   3   4
ENDBRANCH   2   3
ENDBRANCH   1   2
BRANCH   1  25
ATOM     25  C   UNL A   1      32.043  29.384  25.854  1.00  0.00     0.188 C 
BRANCH  25  26
ATOM     26  O   UNL A   1      31.592  30.679  26.201  1.00  0.00    -0.376 OA
BRANCH  26  27
ATOM     27  C   UNL A   1      32.402  31.653  26.836  1.00  0.00     0.202 C 
BRANCH  27  28
ATOM     28  C   UNL A   1      33.491  31.364  27.865  1.00  0.00     0.261 C 
BRANCH  28  29
ATOM     29  O   UNL A   1      34.772  31.097  27.343  1.00  0.00    -0.460 OA
BRANCH  29  30
ATOM     30  C   UNL A   1      35.721  31.914  27.841  1.00  0.00     0.338 C 
ATOM     31  O   UNL A   1      35.898  33.093  27.584  1.00  0.00    -0.246 OA
BRANCH  30  32
ATOM     32  C   UNL A   1      36.603  31.132  28.701  1.00  0.00     0.060 A 
ATOM     33  C   UNL A   1      37.621  31.835  29.346  1.00  0.00     0.016 A 
ATOM     34  C   UNL A   1      36.614  29.738  28.560  1.00  0.00     0.016 A 
ATOM     35  C   UNL A   1      38.781  31.160  29.634  1.00  0.00     0.010 A 
ATOM     36  C   UNL A   1      37.780  29.069  28.826  1.00  0.00     0.010 A 
ATOM     37  C   UNL A   1      38.871  29.813  29.269  1.00  0.00    -0.014 A 
BRANCH  37  38
ATOM     38  C   UNL A   1      40.159  29.177  29.394  1.00  0.00     0.031 A 
ATOM     39  C   UNL A   1      40.598  29.026  30.792  1.00  0.00     0.074 A 
ATOM     40  C   UNL A   1      40.821  28.707  28.320  1.00  0.00     0.049 A 
ATOM     41  N   UNL A   1      41.632  29.554  31.355  1.00  0.00    -0.248 NA
ATOM     42  C   UNL A   1      39.694  28.322  31.716  1.00  0.00     0.031 C 
ATOM     43  C   UNL A   1      40.333  28.573  26.946  1.00  0.00     0.029 A 
ATOM     44  N   UNL A   1      42.056  28.144  28.267  1.00  0.00    -0.354 N 
ATOM     45  C   UNL A   1      41.610  29.096  32.666  1.00  0.00     0.074 A 
ATOM     46  C   UNL A   1      40.319  28.500  32.878  1.00  0.00     0.031 C 
ATOM     47  C   UNL A   1      41.171  27.763  26.258  1.00  0.00     0.029 A 
ATOM     48  C   UNL A   1      42.301  27.423  27.107  1.00  0.00     0.049 A 
ATOM     49  H   UNL A   1      42.719  28.238  28.987  1.00  0.00     0.167 HD
ATOM     50  C   UNL A   1      42.760  29.000  33.382  1.00  0.00     0.037 A 
ATOM     51  C   UNL A   1      43.315  26.543  26.917  1.00  0.00     0.037 A 
ATOM     52  C   UNL A   1      43.787  29.853  32.838  1.00  0.00     0.049 A 
ATOM     53  C   UNL A   1      44.348  26.825  27.949  1.00  0.00     0.074 A 
ATOM     54  C   UNL A   1      43.897  31.212  32.618  1.00  0.00     0.029 A 
ATOM     55  N   UNL A   1      44.780  29.272  32.088  1.00  0.00    -0.354 N 
ATOM     56  N   UNL A   1      45.095  27.893  27.964  1.00  0.00    -0.248 NA
ATOM     57  C   UNL A   1      44.254  26.113  29.217  1.00  0.00     0.031 C 
ATOM     58  C   UNL A   1      44.640  31.337  31.407  1.00  0.00     0.029 A 
ATOM     59  C   UNL A   1      44.979  30.053  30.980  1.00  0.00     0.049 A 
ATOM     60  H   UNL A   1      45.264  28.442  32.309  1.00  0.00     0.167 HD
ATOM     61  C   UNL A   1      45.201  28.228  29.306  1.00  0.00     0.074 A 
ATOM     62  C   UNL A   1      44.760  27.042  30.033  1.00  0.00     0.031 C 
ATOM     63  C   UNL A   1      45.358  29.528  29.690  1.00  0.00     0.037 A 
BRANCH  50  64
ATOM     64  C   UNL A   1      43.064  27.838  34.295  1.00  0.00     0.064 A 
ATOM     65  C   UNL A   1      43.205  28.083  35.674  1.00  0.00     0.173 A 
ATOM     66  C   UNL A   1      43.529  26.579  33.848  1.00  0.00     0.173 A 
ATOM     67  F   UNL A   1      42.814  29.251  36.203  1.00  0.00    -0.203 F 
ATOM     68  C   UNL A   1      43.849  27.176  36.519  1.00  0.00     0.198 A 
ATOM     69  C   UNL A   1      44.117  25.654  34.706  1.00  0.00     0.198 A 
ATOM     70  F   UNL A   1      43.545  26.232  32.556  1.00  0.00    -0.203 F 
ATOM     71  F   UNL A   1      44.089  27.514  37.793  1.00  0.00    -0.200 F 
ATOM     72  C   UNL A   1      44.312  25.968  36.033  1.00  0.00     0.200 A 
ATOM     73  F   UNL A   1      44.575  24.497  34.209  1.00  0.00    -0.200 F 
ATOM     74  F   UNL A   1      44.991  25.129  36.825  1.00  0.00    -0.200 F 
ENDBRANCH  50  64
BRANCH  51  75
ATOM     75  C   UNL A   1      43.317  25.294  26.118  1.00  0.00     0.064 A 
ATOM     76  C   UNL A   1      44.347  25.033  25.198  1.00  0.00     0.173 A 
ATOM     77  C   UNL A   1      42.472  24.212  26.431  1.00  0.00     0.173 A 
ATOM     78  F   UNL A   1      45.224  25.996  24.875  1.00  0.00    -0.203 F 
ATOM     79  C   UNL A   1      44.538  23.760  24.652  1.00  0.00     0.198 A 
ATOM     80  C   UNL A   1      42.657  22.945  25.875  1.00  0.00     0.198 A 
ATOM     81  F   UNL A   1      41.508  24.329  27.356  1.00  0.00    -0.203 F 
ATOM     82  F   UNL A   1      45.576  23.533  23.833  1.00  0.00    -0.200 F 
ATOM     83  C   UNL A   1      43.699  22.715  24.999  1.00  0.00     0.200 A 
ATOM     84  F   UNL A   1      41.856  21.935  26.246  1.00  0.00    -0.200 F 
ATOM     85  F   UNL A   1      43.920  21.480  24.526  1.00  0.00    -0.200 F 
ENDBRANCH  51  75
BRANCH  63  86
ATOM     86  C   UNL A   1      45.717  30.529  28.629  1.00  0.00     0.064 A 
ATOM     87  C   UNL A   1      44.777  31.184  27.814  1.00  0.00     0.173 A 
ATOM     88  C   UNL A   1      47.055  30.931  28.525  1.00  0.00     0.173 A 
ATOM     89  F   UNL A   1      43.468  30.931  27.927  1.00  0.00    -0.203 F 
ATOM     90  C   UNL A   1      45.173  32.160  26.901  1.00  0.00     0.198 A 
ATOM     91  C   UNL A   1      47.440  31.934  27.641  1.00  0.00     0.198 A 
ATOM     92  F   UNL A   1      47.987  30.380  29.319  1.00  0.00    -0.203 F 
ATOM     93  F   UNL A   1      44.261  32.759  26.120  1.00  0.00    -0.200 F 
ATOM     94  C   UNL A   1      46.503  32.539  26.820  1.00  0.00     0.200 A 
ATOM     95  F   UNL A   1      48.720  32.333  27.603  1.00  0.00    -0.200 F 
ATOM     96  F   UNL A   1      46.877  33.506  25.971  1.00  0.00    -0.200 F 
ENDBRANCH  63  86
ENDBRANCH  37  38
ENDBRANCH  30  32
ENDBRANCH  29  30
ENDBRANCH  28  29
ENDBRANCH  27  28
ENDBRANCH  26  27
ENDBRANCH  25  26
ENDBRANCH   1  25
TORSDOF 21
ENDMDL
