MODEL 1
REMARK VINA RESULT:     -10.0      0.000      0.000
REMARK SMILES O=C(CCc1cc(Cl)cs1)OCCOCCOCCOC(=O)c1ccc(-c2c3nc(c(-c4c(F)c(F)c(F)c(F)c4F)c4ccc([nH]4)c(-c4c(F)c(F)c(F)c(F)c4F)c4nc(c(-c5c(F)c(F)c(F)c(F)c5F)c5ccc2[nH]5)C=C4)C=C3)cc1
REMARK SMILES IDX 15 1 14 2 13 3 12 4 11 5 2 6 1 7 3 8 4 9 5 10 6 11 10 12
REMARK SMILES IDX 7 13 9 14 8 15 16 16 17 17 18 18 19 19 20 20 21 21 22 22
REMARK SMILES IDX 23 23 24 24 85 25 25 26 84 27 26 28 27 29 28 30 78 31 29 32
REMARK SMILES IDX 83 33 77 34 79 35 30 36 82 37 76 38 75 39 31 41 63 42 43 43
REMARK SMILES IDX 62 44 44 45 47 46 61 47 80 48 45 49 46 50 60 52 81 53 48 54
REMARK SMILES IDX 32 55 33 56 41 57 34 58 35 59 39 60 42 61 36 62 37 63 40 64
REMARK SMILES IDX 38 65 64 66 65 67 73 68 66 69 67 70 71 71 74 72 68 73 69 74
REMARK SMILES IDX 72 75 70 76 49 77 50 78 58 79 51 80 52 81 56 82 59 83 53 84
REMARK SMILES IDX 54 85 57 86 55 87
REMARK H PARENT 79 40 47 51
REMARK Flexibility Score: inf
ROOT
ATOM      1  C   UNL A   1      31.322  28.211  24.933  1.00  0.00     0.188 C 
ENDROOT
BRANCH   1   2
ATOM      2  O   UNL A   1      30.309  27.309  24.524  1.00  0.00    -0.376 OA
BRANCH   2   3
ATOM      3  C   UNL A   1      30.240  26.033  25.145  1.00  0.00     0.202 C 
BRANCH   3   4
ATOM      4  C   UNL A   1      30.967  25.801  26.470  1.00  0.00     0.261 C 
BRANCH   4   5
ATOM      5  O   UNL A   1      31.231  24.455  26.928  1.00  0.00    -0.463 OA
BRANCH   5   6
ATOM      6  C   UNL A   1      30.507  23.326  26.861  1.00  0.00     0.306 C 
ATOM      7  O   UNL A   1      29.529  23.192  27.599  1.00  0.00    -0.252 OA
BRANCH   6   8
ATOM      8  C   UNL A   1      30.910  22.203  25.952  1.00  0.00     0.128 C 
BRANCH   8   9
ATOM      9  C   UNL A   1      31.698  22.681  24.742  1.00  0.00     0.058 C 
BRANCH   9  10
ATOM     10  C   UNL A   1      33.165  22.399  24.885  1.00  0.00     0.007 A 
ATOM     11  C   UNL A   1      34.204  22.861  24.099  1.00  0.00     0.036 A 
ATOM     12  S   UNL A   1      33.731  21.363  26.128  1.00  0.00    -0.147 S 
ATOM     13  C   UNL A   1      35.437  22.225  24.416  1.00  0.00     0.052 A 
ATOM     14  C   UNL A   1      35.323  21.387  25.499  1.00  0.00     0.085 A 
ATOM     15  Cl  UNL A   1      36.857  22.460  23.500  1.00  0.00    -0.083 Cl
ENDBRANCH   9  10
ENDBRANCH   8   9
ENDBRANCH   6   8
ENDBRANCH   5   6
ENDBRANCH   4   5
ENDBRANCH   3   4
ENDBRANCH   2   3
ENDBRANCH   1   2
BRANCH   1  16
ATOM     16  C   UNL A   1      31.113  29.705  24.666  1.00  0.00     0.188 C 
BRANCH  16  17
ATOM     17  O   UNL A   1      31.784  30.552  25.589  1.00  0.00    -0.376 OA
BRANCH  17  18
ATOM     18  C   UNL A   1      30.997  31.643  26.066  1.00  0.00     0.202 C 
BRANCH  18  19
ATOM     19  C   UNL A   1      31.775  32.726  26.831  1.00  0.00     0.261 C 
BRANCH  19  20
ATOM     20  O   UNL A   1      32.938  32.285  27.555  1.00  0.00    -0.460 OA
BRANCH  20  21
ATOM     21  C   UNL A   1      33.826  33.225  27.929  1.00  0.00     0.338 C 
ATOM     22  O   UNL A   1      33.623  34.428  28.034  1.00  0.00    -0.246 OA
BRANCH  21  23
ATOM     23  C   UNL A   1      35.083  32.565  28.335  1.00  0.00     0.060 A 
ATOM     24  C   UNL A   1      35.040  31.223  28.731  1.00  0.00     0.016 A 
ATOM     25  C   UNL A   1      36.291  33.268  28.368  1.00  0.00     0.016 A 
ATOM     26  C   UNL A   1      36.200  30.586  29.173  1.00  0.00     0.010 A 
ATOM     27  C   UNL A   1      37.450  32.635  28.838  1.00  0.00     0.010 A 
ATOM     28  C   UNL A   1      37.405  31.298  29.271  1.00  0.00    -0.014 A 
BRANCH  28  29
ATOM     29  C   UNL A   1      38.549  30.680  29.992  1.00  0.00     0.031 A 
ATOM     30  C   UNL A   1      38.789  31.064  31.428  1.00  0.00     0.074 A 
ATOM     31  C   UNL A   1      39.321  29.743  29.415  1.00  0.00     0.049 A 
ATOM     32  N   UNL A   1      39.675  30.606  32.278  1.00  0.00    -0.248 NA
ATOM     33  C   UNL A   1      37.906  32.101  31.983  1.00  0.00     0.031 C 
ATOM     34  C   UNL A   1      39.185  29.265  28.041  1.00  0.00     0.029 A 
ATOM     35  N   UNL A   1      40.374  29.019  29.921  1.00  0.00    -0.354 N 
ATOM     36  C   UNL A   1      39.441  31.281  33.468  1.00  0.00     0.074 A 
ATOM     37  C   UNL A   1      38.366  32.217  33.220  1.00  0.00     0.031 C 
ATOM     38  C   UNL A   1      40.126  28.332  27.809  1.00  0.00     0.029 A 
ATOM     39  C   UNL A   1      40.939  28.156  29.013  1.00  0.00     0.049 A 
ATOM     40  H   UNL A   1      40.695  29.111  30.847  1.00  0.00     0.167 HD
ATOM     41  C   UNL A   1      40.051  31.123  34.668  1.00  0.00     0.037 A 
ATOM     42  C   UNL A   1      41.995  27.327  29.138  1.00  0.00     0.037 A 
ATOM     43  C   UNL A   1      41.138  30.211  34.917  1.00  0.00     0.049 A 
ATOM     44  C   UNL A   1      42.703  27.220  30.468  1.00  0.00     0.074 A 
ATOM     45  C   UNL A   1      41.824  29.987  36.098  1.00  0.00     0.029 A 
ATOM     46  N   UNL A   1      41.704  29.379  33.963  1.00  0.00    -0.354 N 
ATOM     47  N   UNL A   1      42.448  27.833  31.598  1.00  0.00    -0.248 NA
ATOM     48  C   UNL A   1      43.838  26.289  30.539  1.00  0.00     0.031 C 
ATOM     49  C   UNL A   1      42.839  29.056  35.846  1.00  0.00     0.029 A 
ATOM     50  C   UNL A   1      42.745  28.655  34.524  1.00  0.00     0.049 A 
ATOM     51  H   UNL A   1      41.410  29.311  33.026  1.00  0.00     0.167 HD
ATOM     52  C   UNL A   1      43.371  27.346  32.516  1.00  0.00     0.074 A 
ATOM     53  C   UNL A   1      44.173  26.364  31.820  1.00  0.00     0.031 C 
ATOM     54  C   UNL A   1      43.542  27.683  33.820  1.00  0.00     0.037 A 
BRANCH  41  55
ATOM     55  C   UNL A   1      39.559  31.967  35.808  1.00  0.00     0.064 A 
ATOM     56  C   UNL A   1      38.500  31.547  36.627  1.00  0.00     0.173 A 
ATOM     57  C   UNL A   1      40.178  33.189  36.111  1.00  0.00     0.173 A 
ATOM     58  F   UNL A   1      37.866  30.393  36.371  1.00  0.00    -0.203 F 
ATOM     59  C   UNL A   1      38.064  32.328  37.694  1.00  0.00     0.198 A 
ATOM     60  C   UNL A   1      39.758  33.953  37.197  1.00  0.00     0.198 A 
ATOM     61  F   UNL A   1      41.196  33.637  35.362  1.00  0.00    -0.203 F 
ATOM     62  F   UNL A   1      37.023  31.927  38.436  1.00  0.00    -0.200 F 
ATOM     63  C   UNL A   1      38.700  33.527  37.983  1.00  0.00     0.200 A 
ATOM     64  F   UNL A   1      40.381  35.106  37.483  1.00  0.00    -0.200 F 
ATOM     65  F   UNL A   1      38.286  34.273  39.016  1.00  0.00    -0.200 F 
ENDBRANCH  41  55
BRANCH  42  66
ATOM     66  C   UNL A   1      42.466  26.534  27.970  1.00  0.00     0.064 A 
ATOM     67  C   UNL A   1      43.385  27.058  27.052  1.00  0.00     0.173 A 
ATOM     68  C   UNL A   1      41.963  25.247  27.724  1.00  0.00     0.173 A 
ATOM     69  F   UNL A   1      43.873  28.296  27.224  1.00  0.00    -0.203 F 
ATOM     70  C   UNL A   1      43.762  26.340  25.918  1.00  0.00     0.198 A 
ATOM     71  C   UNL A   1      42.365  24.516  26.609  1.00  0.00     0.198 A 
ATOM     72  F   UNL A   1      41.076  24.700  28.569  1.00  0.00    -0.203 F 
ATOM     73  F   UNL A   1      44.593  26.891  25.023  1.00  0.00    -0.200 F 
ATOM     74  C   UNL A   1      43.256  25.067  25.700  1.00  0.00     0.200 A 
ATOM     75  F   UNL A   1      41.880  23.283  26.409  1.00  0.00    -0.200 F 
ATOM     76  F   UNL A   1      43.614  24.378  24.609  1.00  0.00    -0.200 F 
ENDBRANCH  42  66
BRANCH  54  77
ATOM     77  C   UNL A   1      44.621  26.963  34.582  1.00  0.00     0.064 A 
ATOM     78  C   UNL A   1      45.928  27.469  34.665  1.00  0.00     0.173 A 
ATOM     79  C   UNL A   1      44.344  25.758  35.244  1.00  0.00     0.173 A 
ATOM     80  F   UNL A   1      46.251  28.612  34.041  1.00  0.00    -0.203 F 
ATOM     81  C   UNL A   1      46.926  26.772  35.343  1.00  0.00     0.198 A 
ATOM     82  C   UNL A   1      45.335  25.082  35.952  1.00  0.00     0.198 A 
ATOM     83  F   UNL A   1      43.109  25.234  35.209  1.00  0.00    -0.203 F 
ATOM     84  F   UNL A   1      48.181  27.241  35.350  1.00  0.00    -0.200 F 
ATOM     85  C   UNL A   1      46.627  25.582  35.989  1.00  0.00     0.200 A 
ATOM     86  F   UNL A   1      45.041  23.941  36.591  1.00  0.00    -0.200 F 
ATOM     87  F   UNL A   1      47.589  24.912  36.639  1.00  0.00    -0.200 F 
ENDBRANCH  54  77
ENDBRANCH  28  29
ENDBRANCH  21  23
ENDBRANCH  20  21
ENDBRANCH  19  20
ENDBRANCH  18  19
ENDBRANCH  17  18
ENDBRANCH  16  17
ENDBRANCH   1  16
TORSDOF 19
ENDMDL
MODEL 2
REMARK VINA RESULT:      -9.7      0.716      1.815
REMARK SMILES O=C(CCc1cc(Cl)cs1)OCCOCCOCCOC(=O)c1ccc(-c2c3nc(c(-c4c(F)c(F)c(F)c(F)c4F)c4ccc([nH]4)c(-c4c(F)c(F)c(F)c(F)c4F)c4nc(c(-c5c(F)c(F)c(F)c(F)c5F)c5ccc2[nH]5)C=C4)C=C3)cc1
REMARK SMILES IDX 15 1 14 2 13 3 12 4 11 5 2 6 1 7 3 8 4 9 5 10 6 11 10 12
REMARK SMILES IDX 7 13 9 14 8 15 16 16 17 17 18 18 19 19 20 20 21 21 22 22
REMARK SMILES IDX 23 23 24 24 85 25 25 26 84 27 26 28 27 29 28 30 78 31 29 32
REMARK SMILES IDX 83 33 77 34 79 35 30 36 82 37 76 38 75 39 31 41 63 42 43 43
REMARK SMILES IDX 62 44 44 45 47 46 61 47 80 48 45 49 46 50 60 52 81 53 48 54
REMARK SMILES IDX 32 55 33 56 41 57 34 58 35 59 39 60 42 61 36 62 37 63 40 64
REMARK SMILES IDX 38 65 64 66 65 67 73 68 66 69 67 70 71 71 74 72 68 73 69 74
REMARK SMILES IDX 72 75 70 76 49 77 50 78 58 79 51 80 52 81 56 82 59 83 53 84
REMARK SMILES IDX 54 85 57 86 55 87
REMARK H PARENT 79 40 47 51
REMARK Flexibility Score: inf
ROOT
ATOM      1  C   UNL A   1      32.248  27.823  26.359  1.00  0.00     0.188 C 
ENDROOT
BRANCH   1   2
ATOM      2  O   UNL A   1      31.462  27.937  25.186  1.00  0.00    -0.376 OA
BRANCH   2   3
ATOM      3  C   UNL A   1      30.801  26.780  24.693  1.00  0.00     0.202 C 
BRANCH   3   4
ATOM      4  C   UNL A   1      29.906  25.968  25.629  1.00  0.00     0.261 C 
BRANCH   4   5
ATOM      5  O   UNL A   1      30.492  25.039  26.570  1.00  0.00    -0.463 OA
BRANCH   5   6
ATOM      6  C   UNL A   1      30.697  23.714  26.514  1.00  0.00     0.306 C 
ATOM      7  O   UNL A   1      30.636  23.050  27.550  1.00  0.00    -0.252 OA
BRANCH   6   8
ATOM      8  C   UNL A   1      31.063  23.043  25.223  1.00  0.00     0.128 C 
BRANCH   8   9
ATOM      9  C   UNL A   1      31.723  21.688  25.430  1.00  0.00     0.058 C 
BRANCH   9  10
ATOM     10  C   UNL A   1      33.149  21.686  24.965  1.00  0.00     0.007 A 
ATOM     11  C   UNL A   1      34.105  20.704  25.148  1.00  0.00     0.036 A 
ATOM     12  S   UNL A   1      33.788  23.032  24.117  1.00  0.00    -0.147 S 
ATOM     13  C   UNL A   1      35.399  21.136  24.743  1.00  0.00     0.052 A 
ATOM     14  C   UNL A   1      35.371  22.383  24.165  1.00  0.00     0.085 A 
ATOM     15  Cl  UNL A   1      36.807  20.209  25.010  1.00  0.00    -0.083 Cl
ENDBRANCH   9  10
ENDBRANCH   8   9
ENDBRANCH   6   8
ENDBRANCH   5   6
ENDBRANCH   4   5
ENDBRANCH   3   4
ENDBRANCH   2   3
ENDBRANCH   1   2
BRANCH   1  16
ATOM     16  C   UNL A   1      32.408  29.061  27.247  1.00  0.00     0.188 C 
BRANCH  16  17
ATOM     17  O   UNL A   1      32.484  30.281  26.522  1.00  0.00    -0.376 OA
BRANCH  17  18
ATOM     18  C   UNL A   1      31.411  31.187  26.780  1.00  0.00     0.202 C 
BRANCH  18  19
ATOM     19  C   UNL A   1      31.812  32.669  26.861  1.00  0.00     0.261 C 
BRANCH  19  20
ATOM     20  O   UNL A   1      33.224  32.947  26.902  1.00  0.00    -0.460 OA
BRANCH  20  21
ATOM     21  C   UNL A   1      33.711  33.510  28.023  1.00  0.00     0.338 C 
ATOM     22  O   UNL A   1      33.175  34.376  28.704  1.00  0.00    -0.246 OA
BRANCH  21  23
ATOM     23  C   UNL A   1      34.961  32.822  28.402  1.00  0.00     0.060 A 
ATOM     24  C   UNL A   1      34.894  31.490  28.827  1.00  0.00     0.016 A 
ATOM     25  C   UNL A   1      36.190  33.491  28.381  1.00  0.00     0.016 A 
ATOM     26  C   UNL A   1      36.050  30.829  29.246  1.00  0.00     0.010 A 
ATOM     27  C   UNL A   1      37.345  32.834  28.828  1.00  0.00     0.010 A 
ATOM     28  C   UNL A   1      37.276  31.508  29.290  1.00  0.00    -0.014 A 
BRANCH  28  29
ATOM     29  C   UNL A   1      38.426  30.873  29.987  1.00  0.00     0.031 A 
ATOM     30  C   UNL A   1      38.685  31.231  31.426  1.00  0.00     0.074 A 
ATOM     31  C   UNL A   1      39.185  29.940  29.385  1.00  0.00     0.049 A 
ATOM     32  N   UNL A   1      39.579  30.754  32.257  1.00  0.00    -0.248 NA
ATOM     33  C   UNL A   1      37.815  32.263  32.008  1.00  0.00     0.031 C 
ATOM     34  C   UNL A   1      39.030  29.486  28.005  1.00  0.00     0.029 A 
ATOM     35  N   UNL A   1      40.240  29.203  29.866  1.00  0.00    -0.354 N 
ATOM     36  C   UNL A   1      39.362  31.411  33.461  1.00  0.00     0.074 A 
ATOM     37  C   UNL A   1      38.289  32.356  33.241  1.00  0.00     0.031 C 
ATOM     38  C   UNL A   1      39.963  28.552  27.747  1.00  0.00     0.029 A 
ATOM     39  C   UNL A   1      40.789  28.352  28.937  1.00  0.00     0.049 A 
ATOM     40  H   UNL A   1      40.572  29.277  30.790  1.00  0.00     0.167 HD
ATOM     41  C   UNL A   1      39.986  31.229  34.650  1.00  0.00     0.037 A 
ATOM     42  C   UNL A   1      41.842  27.516  29.036  1.00  0.00     0.037 A 
ATOM     43  C   UNL A   1      41.070  30.308  34.871  1.00  0.00     0.049 A 
ATOM     44  C   UNL A   1      42.565  27.382  30.355  1.00  0.00     0.074 A 
ATOM     45  C   UNL A   1      41.769  30.060  36.041  1.00  0.00     0.029 A 
ATOM     46  N   UNL A   1      41.620  29.488  33.897  1.00  0.00    -0.354 N 
ATOM     47  N   UNL A   1      42.327  27.978  31.498  1.00  0.00    -0.248 NA
ATOM     48  C   UNL A   1      43.696  26.444  30.398  1.00  0.00     0.031 C 
ATOM     49  C   UNL A   1      42.776  29.128  35.761  1.00  0.00     0.029 A 
ATOM     50  C   UNL A   1      42.664  28.749  34.434  1.00  0.00     0.049 A 
ATOM     51  H   UNL A   1      41.315  29.438  32.963  1.00  0.00     0.167 HD
ATOM     52  C   UNL A   1      43.258  27.471  32.397  1.00  0.00     0.074 A 
ATOM     53  C   UNL A   1      44.046  26.496  31.675  1.00  0.00     0.031 C 
ATOM     54  C   UNL A   1      43.447  27.785  33.704  1.00  0.00     0.037 A 
BRANCH  41  55
ATOM     55  C   UNL A   1      39.512  32.057  35.810  1.00  0.00     0.064 A 
ATOM     56  C   UNL A   1      40.043  33.330  36.066  1.00  0.00     0.173 A 
ATOM     57  C   UNL A   1      38.491  31.591  36.652  1.00  0.00     0.173 A 
ATOM     58  F   UNL A   1      41.032  33.816  35.300  1.00  0.00    -0.203 F 
ATOM     59  C   UNL A   1      39.583  34.098  37.134  1.00  0.00     0.198 A 
ATOM     60  C   UNL A   1      38.014  32.374  37.700  1.00  0.00     0.198 A 
ATOM     61  F   UNL A   1      37.947  30.381  36.451  1.00  0.00    -0.203 F 
ATOM     62  F   UNL A   1      40.135  35.293  37.385  1.00  0.00    -0.200 F 
ATOM     63  C   UNL A   1      38.563  33.622  37.944  1.00  0.00     0.200 A 
ATOM     64  F   UNL A   1      37.019  31.918  38.475  1.00  0.00    -0.200 F 
ATOM     65  F   UNL A   1      38.115  34.366  38.964  1.00  0.00    -0.200 F 
ENDBRANCH  41  55
BRANCH  42  66
ATOM     66  C   UNL A   1      42.295  26.739  27.850  1.00  0.00     0.064 A 
ATOM     67  C   UNL A   1      43.262  27.244  26.970  1.00  0.00     0.173 A 
ATOM     68  C   UNL A   1      41.728  25.492  27.547  1.00  0.00     0.173 A 
ATOM     69  F   UNL A   1      43.812  28.445  27.197  1.00  0.00    -0.203 F 
ATOM     70  C   UNL A   1      43.623  26.546  25.818  1.00  0.00     0.198 A 
ATOM     71  C   UNL A   1      42.114  24.779  26.414  1.00  0.00     0.198 A 
ATOM     72  F   UNL A   1      40.794  24.965  28.353  1.00  0.00    -0.203 F 
ATOM     73  F   UNL A   1      44.503  27.082  24.961  1.00  0.00    -0.200 F 
ATOM     74  C   UNL A   1      43.053  25.312  25.544  1.00  0.00     0.200 A 
ATOM     75  F   UNL A   1      41.567  23.583  26.159  1.00  0.00    -0.200 F 
ATOM     76  F   UNL A   1      43.397  24.643  24.436  1.00  0.00    -0.200 F 
ENDBRANCH  42  66
BRANCH  54  77
ATOM     77  C   UNL A   1      44.531  27.047  34.441  1.00  0.00     0.064 A 
ATOM     78  C   UNL A   1      44.288  25.819  35.076  1.00  0.00     0.173 A 
ATOM     79  C   UNL A   1      45.832  27.570  34.507  1.00  0.00     0.173 A 
ATOM     80  F   UNL A   1      43.059  25.279  35.053  1.00  0.00    -0.203 F 
ATOM     81  C   UNL A   1      45.292  25.166  35.785  1.00  0.00     0.198 A 
ATOM     82  C   UNL A   1      46.844  26.896  35.186  1.00  0.00     0.198 A 
ATOM     83  F   UNL A   1      46.125  28.734  33.908  1.00  0.00    -0.203 F 
ATOM     84  F   UNL A   1      45.017  24.030  36.440  1.00  0.00    -0.200 F 
ATOM     85  C   UNL A   1      46.570  25.703  35.837  1.00  0.00     0.200 A 
ATOM     86  F   UNL A   1      48.082  27.408  35.220  1.00  0.00    -0.200 F 
ATOM     87  F   UNL A   1      47.535  25.075  36.522  1.00  0.00    -0.200 F 
ENDBRANCH  54  77
ENDBRANCH  28  29
ENDBRANCH  21  23
ENDBRANCH  20  21
ENDBRANCH  19  20
ENDBRANCH  18  19
ENDBRANCH  17  18
ENDBRANCH  16  17
ENDBRANCH   1  16
TORSDOF 19
ENDMDL
MODEL 3
REMARK VINA RESULT:      -9.7      1.573      7.812
REMARK SMILES O=C(CCc1cc(Cl)cs1)OCCOCCOCCOC(=O)c1ccc(-c2c3nc(c(-c4c(F)c(F)c(F)c(F)c4F)c4ccc([nH]4)c(-c4c(F)c(F)c(F)c(F)c4F)c4nc(c(-c5c(F)c(F)c(F)c(F)c5F)c5ccc2[nH]5)C=C4)C=C3)cc1
REMARK SMILES IDX 15 1 14 2 13 3 12 4 11 5 2 6 1 7 3 8 4 9 5 10 6 11 10 12
REMARK SMILES IDX 7 13 9 14 8 15 16 16 17 17 18 18 19 19 20 20 21 21 22 22
REMARK SMILES IDX 23 23 24 24 85 25 25 26 84 27 26 28 27 29 28 30 78 31 29 32
REMARK SMILES IDX 83 33 77 34 79 35 30 36 82 37 76 38 75 39 31 41 63 42 43 43
REMARK SMILES IDX 62 44 44 45 47 46 61 47 80 48 45 49 46 50 60 52 81 53 48 54
REMARK SMILES IDX 32 55 33 56 41 57 34 58 35 59 39 60 42 61 36 62 37 63 40 64
REMARK SMILES IDX 38 65 64 66 65 67 73 68 66 69 67 70 71 71 74 72 68 73 69 74
REMARK SMILES IDX 72 75 70 76 49 77 50 78 58 79 51 80 52 81 56 82 59 83 53 84
REMARK SMILES IDX 54 85 57 86 55 87
REMARK H PARENT 79 40 47 51
REMARK Flexibility Score: inf
ROOT
ATOM      1  C   UNL A   1      30.457  27.595  22.551  1.00  0.00     0.188 C 
ENDROOT
BRANCH   1   2
ATOM      2  O   UNL A   1      30.073  26.887  23.716  1.00  0.00    -0.376 OA
BRANCH   2   3
ATOM      3  C   UNL A   1      30.719  25.657  24.012  1.00  0.00     0.202 C 
BRANCH   3   4
ATOM      4  C   UNL A   1      30.994  24.661  22.884  1.00  0.00     0.261 C 
BRANCH   4   5
ATOM      5  O   UNL A   1      32.328  24.528  22.343  1.00  0.00    -0.463 OA
BRANCH   5   6
ATOM      6  C   UNL A   1      33.491  25.116  22.665  1.00  0.00     0.306 C 
ATOM      7  O   UNL A   1      33.932  26.015  21.948  1.00  0.00    -0.252 OA
BRANCH   6   8
ATOM      8  C   UNL A   1      34.290  24.649  23.846  1.00  0.00     0.128 C 
BRANCH   8   9
ATOM      9  C   UNL A   1      34.951  23.299  23.613  1.00  0.00     0.058 C 
BRANCH   9  10
ATOM     10  C   UNL A   1      36.083  23.060  24.567  1.00  0.00     0.007 A 
ATOM     11  C   UNL A   1      36.630  23.940  25.481  1.00  0.00     0.036 A 
ATOM     12  S   UNL A   1      36.892  21.548  24.591  1.00  0.00    -0.147 S 
ATOM     13  C   UNL A   1      37.818  23.428  26.072  1.00  0.00     0.052 A 
ATOM     14  C   UNL A   1      38.078  22.137  25.677  1.00  0.00     0.085 A 
ATOM     15  Cl  UNL A   1      38.810  24.357  27.104  1.00  0.00    -0.083 Cl
ENDBRANCH   9  10
ENDBRANCH   8   9
ENDBRANCH   6   8
ENDBRANCH   5   6
ENDBRANCH   4   5
ENDBRANCH   3   4
ENDBRANCH   2   3
ENDBRANCH   1   2
BRANCH   1  16
ATOM     16  C   UNL A   1      31.246  28.897  22.722  1.00  0.00     0.188 C 
BRANCH  16  17
ATOM     17  O   UNL A   1      31.875  29.025  23.990  1.00  0.00    -0.376 OA
BRANCH  17  18
ATOM     18  C   UNL A   1      31.239  29.951  24.870  1.00  0.00     0.202 C 
BRANCH  18  19
ATOM     19  C   UNL A   1      31.876  30.071  26.265  1.00  0.00     0.261 C 
BRANCH  19  20
ATOM     20  O   UNL A   1      33.276  30.403  26.301  1.00  0.00    -0.460 OA
BRANCH  20  21
ATOM     21  C   UNL A   1      33.659  31.373  27.151  1.00  0.00     0.338 C 
ATOM     22  O   UNL A   1      33.012  32.359  27.482  1.00  0.00    -0.246 OA
BRANCH  21  23
ATOM     23  C   UNL A   1      34.957  31.003  27.749  1.00  0.00     0.060 A 
ATOM     24  C   UNL A   1      35.170  29.672  28.125  1.00  0.00     0.016 A 
ATOM     25  C   UNL A   1      35.948  31.964  27.978  1.00  0.00     0.016 A 
ATOM     26  C   UNL A   1      36.364  29.301  28.744  1.00  0.00     0.010 A 
ATOM     27  C   UNL A   1      37.136  31.595  28.625  1.00  0.00     0.010 A 
ATOM     28  C   UNL A   1      37.339  30.267  29.038  1.00  0.00    -0.014 A 
BRANCH  28  29
ATOM     29  C   UNL A   1      38.470  29.899  29.929  1.00  0.00     0.031 A 
ATOM     30  C   UNL A   1      39.502  28.927  29.423  1.00  0.00     0.074 A 
ATOM     31  C   UNL A   1      38.627  30.467  31.138  1.00  0.00     0.049 A 
ATOM     32  N   UNL A   1      40.609  28.513  29.989  1.00  0.00    -0.248 NA
ATOM     33  C   UNL A   1      39.254  28.345  28.095  1.00  0.00     0.031 C 
ATOM     34  C   UNL A   1      37.716  31.438  31.740  1.00  0.00     0.029 A 
ATOM     35  N   UNL A   1      39.619  30.310  32.076  1.00  0.00    -0.354 N 
ATOM     36  C   UNL A   1      41.196  27.645  29.079  1.00  0.00     0.074 A 
ATOM     37  C   UNL A   1      40.301  27.548  27.946  1.00  0.00     0.031 C 
ATOM     38  C   UNL A   1      38.187  31.784  32.951  1.00  0.00     0.029 A 
ATOM     39  C   UNL A   1      39.425  31.051  33.216  1.00  0.00     0.049 A 
ATOM     40  H   UNL A   1      40.398  29.721  31.942  1.00  0.00     0.167 HD
ATOM     41  C   UNL A   1      42.385  27.001  29.167  1.00  0.00     0.037 A 
ATOM     42  C   UNL A   1      40.158  31.121  34.345  1.00  0.00     0.037 A 
ATOM     43  C   UNL A   1      43.270  27.072  30.301  1.00  0.00     0.049 A 
ATOM     44  C   UNL A   1      41.446  30.339  34.446  1.00  0.00     0.074 A 
ATOM     45  C   UNL A   1      44.493  26.448  30.483  1.00  0.00     0.029 A 
ATOM     46  N   UNL A   1      43.022  27.807  31.451  1.00  0.00    -0.354 N 
ATOM     47  N   UNL A   1      42.013  29.552  33.565  1.00  0.00    -0.248 NA
ATOM     48  C   UNL A   1      42.203  30.470  35.700  1.00  0.00     0.031 C 
ATOM     49  C   UNL A   1      44.960  26.764  31.765  1.00  0.00     0.029 A 
ATOM     50  C   UNL A   1      44.059  27.634  32.356  1.00  0.00     0.049 A 
ATOM     51  H   UNL A   1      42.228  28.367  31.603  1.00  0.00     0.167 HD
ATOM     52  C   UNL A   1      43.199  29.116  34.144  1.00  0.00     0.074 A 
ATOM     53  C   UNL A   1      43.285  29.750  35.442  1.00  0.00     0.031 C 
ATOM     54  C   UNL A   1      44.132  28.266  33.648  1.00  0.00     0.037 A 
BRANCH  41  55
ATOM     55  C   UNL A   1      42.796  26.148  28.001  1.00  0.00     0.064 A 
ATOM     56  C   UNL A   1      43.623  26.648  26.983  1.00  0.00     0.173 A 
ATOM     57  C   UNL A   1      42.393  24.807  27.919  1.00  0.00     0.173 A 
ATOM     58  F   UNL A   1      44.023  27.928  27.007  1.00  0.00    -0.203 F 
ATOM     59  C   UNL A   1      44.013  25.843  25.916  1.00  0.00     0.198 A 
ATOM     60  C   UNL A   1      42.810  23.997  26.865  1.00  0.00     0.198 A 
ATOM     61  F   UNL A   1      41.604  24.278  28.866  1.00  0.00    -0.203 F 
ATOM     62  F   UNL A   1      44.767  26.355  24.933  1.00  0.00    -0.200 F 
ATOM     63  C   UNL A   1      43.614  24.516  25.863  1.00  0.00     0.200 A 
ATOM     64  F   UNL A   1      42.433  22.711  26.822  1.00  0.00    -0.200 F 
ATOM     65  F   UNL A   1      43.998  23.740  24.841  1.00  0.00    -0.200 F 
ENDBRANCH  41  55
BRANCH  42  66
ATOM     66  C   UNL A   1      39.694  31.956  35.488  1.00  0.00     0.064 A 
ATOM     67  C   UNL A   1      38.746  31.480  36.403  1.00  0.00     0.173 A 
ATOM     68  C   UNL A   1      40.159  33.269  35.655  1.00  0.00     0.173 A 
ATOM     69  F   UNL A   1      38.247  30.243  36.270  1.00  0.00    -0.203 F 
ATOM     70  C   UNL A   1      38.258  32.295  37.424  1.00  0.00     0.198 A 
ATOM     71  C   UNL A   1      39.696  34.072  36.696  1.00  0.00     0.198 A 
ATOM     72  F   UNL A   1      41.063  33.776  34.804  1.00  0.00    -0.203 F 
ATOM     73  F   UNL A   1      37.304  31.837  38.246  1.00  0.00    -0.200 F 
ATOM     74  C   UNL A   1      38.737  33.588  37.573  1.00  0.00     0.200 A 
ATOM     75  F   UNL A   1      40.169  35.316  36.840  1.00  0.00    -0.200 F 
ATOM     76  F   UNL A   1      38.266  34.372  38.551  1.00  0.00    -0.200 F 
ENDBRANCH  42  66
BRANCH  54  77
ATOM     77  C   UNL A   1      45.340  27.994  34.503  1.00  0.00     0.064 A 
ATOM     78  C   UNL A   1      46.492  28.793  34.430  1.00  0.00     0.173 A 
ATOM     79  C   UNL A   1      45.343  26.925  35.414  1.00  0.00     0.173 A 
ATOM     80  F   UNL A   1      46.546  29.821  33.569  1.00  0.00    -0.203 F 
ATOM     81  C   UNL A   1      47.615  28.506  35.201  1.00  0.00     0.198 A 
ATOM     82  C   UNL A   1      46.456  26.663  36.210  1.00  0.00     0.198 A 
ATOM     83  F   UNL A   1      44.266  26.136  35.535  1.00  0.00    -0.203 F 
ATOM     84  F   UNL A   1      48.726  29.242  35.062  1.00  0.00    -0.200 F 
ATOM     85  C   UNL A   1      47.595  27.444  36.093  1.00  0.00     0.200 A 
ATOM     86  F   UNL A   1      46.428  25.648  37.084  1.00  0.00    -0.200 F 
ATOM     87  F   UNL A   1      48.678  27.168  36.832  1.00  0.00    -0.200 F 
ENDBRANCH  54  77
ENDBRANCH  28  29
ENDBRANCH  21  23
ENDBRANCH  20  21
ENDBRANCH  19  20
ENDBRANCH  18  19
ENDBRANCH  17  18
ENDBRANCH  16  17
ENDBRANCH   1  16
TORSDOF 19
ENDMDL
