MODEL 1
REMARK VINA RESULT:     -13.2      0.000      0.000
REMARK SMILES O=C(OCCOCCOCCOC(=O)[C@@H]1CCC[C@@H](C(=O)N2CCN3C(=O)NC[C@@H]3C2)C1)c1ccc(-c2c3nc(c(-c4c(F)c(F)c(F)c(F)c4F)c4ccc([nH]4)c(-c4c(F)c(F)c(F)c(F)c4F)c4nc(c(-c5c(F)c(F)c(F)c(F)c5F)c5ccc2[nH]5)C=C4)C=C3)cc1
REMARK SMILES IDX 7 1 6 2 5 3 4 4 3 5 2 6 1 7 33 8 34 9 95 10 35 11 94 12
REMARK SMILES IDX 36 13 37 14 38 15 88 16 39 17 93 18 87 19 89 20 40 21 92 22
REMARK SMILES IDX 86 23 85 24 41 26 73 27 53 28 72 29 54 30 57 31 71 32 90 33
REMARK SMILES IDX 55 34 56 35 70 37 91 38 58 39 42 40 43 41 51 42 44 43 45 44
REMARK SMILES IDX 49 45 52 46 46 47 47 48 50 49 48 50 74 51 75 52 83 53 76 54
REMARK SMILES IDX 77 55 81 56 84 57 78 58 79 59 82 60 80 61 59 62 60 63 68 64
REMARK SMILES IDX 61 65 62 66 66 67 69 68 63 69 64 70 67 71 65 72 8 73 9 74
REMARK SMILES IDX 10 75 11 76 12 77 13 78 14 79 15 80 16 81 32 82 17 83 19 84
REMARK SMILES IDX 18 85 20 86 21 87 22 88 23 89 31 90 24 91 30 92 25 93 29 94
REMARK SMILES IDX 26 95 28 96 27 97
REMARK H PARENT 89 25 57 36 28 98
REMARK Flexibility Score: inf
ROOT
ATOM      1  C   UNL A   1      44.369  18.833  24.199  1.00  0.00     0.188 C 
ENDROOT
BRANCH   1   2
ATOM      2  O   UNL A   1      45.750  18.576  24.499  1.00  0.00    -0.376 OA
BRANCH   2   3
ATOM      3  C   UNL A   1      46.329  19.555  25.367  1.00  0.00     0.202 C 
BRANCH   3   4
ATOM      4  C   UNL A   1      46.391  20.979  24.784  1.00  0.00     0.261 C 
BRANCH   4   5
ATOM      5  O   UNL A   1      45.524  21.900  25.469  1.00  0.00    -0.460 OA
BRANCH   5   6
ATOM      6  C   UNL A   1      44.505  22.625  24.945  1.00  0.00     0.338 C 
ATOM      7  O   UNL A   1      44.020  22.290  23.867  1.00  0.00    -0.246 OA
BRANCH   6   8
ATOM      8  C   UNL A   1      43.918  23.812  25.640  1.00  0.00     0.060 A 
ATOM      9  C   UNL A   1      42.866  23.736  26.553  1.00  0.00     0.016 A 
ATOM     10  C   UNL A   1      44.531  25.059  25.447  1.00  0.00     0.016 A 
ATOM     11  C   UNL A   1      42.355  24.857  27.186  1.00  0.00     0.010 A 
ATOM     12  C   UNL A   1      44.121  26.170  26.190  1.00  0.00     0.010 A 
ATOM     13  C   UNL A   1      43.040  26.060  27.079  1.00  0.00    -0.014 A 
BRANCH  13  14
ATOM     14  C   UNL A   1      42.785  27.092  28.107  1.00  0.00     0.031 A 
ATOM     15  C   UNL A   1      43.328  26.834  29.535  1.00  0.00     0.074 A 
ATOM     16  C   UNL A   1      41.895  28.047  27.694  1.00  0.00     0.049 A 
ATOM     17  N   UNL A   1      43.108  27.486  30.646  1.00  0.00    -0.248 NA
ATOM     18  C   UNL A   1      44.158  25.647  29.781  1.00  0.00     0.031 C 
ATOM     19  C   UNL A   1      41.280  28.222  26.407  1.00  0.00     0.029 A 
ATOM     20  N   UNL A   1      41.285  29.048  28.381  1.00  0.00    -0.354 N 
ATOM     21  C   UNL A   1      43.576  26.767  31.733  1.00  0.00     0.074 A 
ATOM     22  C   UNL A   1      44.265  25.637  31.113  1.00  0.00     0.031 C 
ATOM     23  C   UNL A   1      40.288  29.123  26.492  1.00  0.00     0.029 A 
ATOM     24  C   UNL A   1      39.942  29.656  28.000  1.00  0.00     0.049 A 
ATOM     25  H   UNL A   1      41.742  29.404  29.177  1.00  0.00     0.167 HD
ATOM     26  C   UNL A   1      43.429  27.017  33.081  1.00  0.00     0.037 A 
ATOM     27  C   UNL A   1      38.605  30.485  28.921  1.00  0.00     0.037 A 
ATOM     28  C   UNL A   1      42.652  28.077  33.795  1.00  0.00     0.049 A 
ATOM     29  C   UNL A   1      38.482  30.853  30.790  1.00  0.00     0.074 A 
ATOM     30  C   UNL A   1      42.957  28.712  34.991  1.00  0.00     0.029 A 
ATOM     31  N   UNL A   1      41.347  28.555  33.526  1.00  0.00    -0.354 N 
ATOM     32  N   UNL A   1      38.963  30.115  31.808  1.00  0.00    -0.248 NA
ATOM     33  C   UNL A   1      37.874  32.069  31.369  1.00  0.00     0.031 C 
ATOM     34  C   UNL A   1      41.922  29.631  35.319  1.00  0.00     0.029 A 
ATOM     35  C   UNL A   1      40.961  29.648  34.309  1.00  0.00     0.049 A 
ATOM     36  H   UNL A   1      40.761  28.153  32.846  1.00  0.00     0.167 HD
ATOM     37  C   UNL A   1      39.034  30.825  32.973  1.00  0.00     0.074 A 
ATOM     38  C   UNL A   1      38.191  31.979  32.674  1.00  0.00     0.031 C 
ATOM     39  C   UNL A   1      39.821  30.603  34.084  1.00  0.00     0.037 A 
BRANCH  26  40
ATOM     40  C   UNL A   1      44.330  26.156  33.928  1.00  0.00     0.064 A 
ATOM     41  C   UNL A   1      45.706  26.446  34.032  1.00  0.00     0.173 A 
ATOM     42  C   UNL A   1      43.844  25.037  34.611  1.00  0.00     0.173 A 
ATOM     43  F   UNL A   1      46.223  27.504  33.388  1.00  0.00    -0.203 F 
ATOM     44  C   UNL A   1      46.566  25.615  34.741  1.00  0.00     0.198 A 
ATOM     45  C   UNL A   1      44.707  24.220  35.342  1.00  0.00     0.198 A 
ATOM     46  F   UNL A   1      42.546  24.713  34.538  1.00  0.00    -0.203 F 
ATOM     47  F   UNL A   1      47.881  25.873  34.761  1.00  0.00    -0.200 F 
ATOM     48  C   UNL A   1      46.065  24.503  35.397  1.00  0.00     0.200 A 
ATOM     49  F   UNL A   1      44.227  23.141  35.976  1.00  0.00    -0.200 F 
ATOM     50  F   UNL A   1      46.896  23.690  36.064  1.00  0.00    -0.200 F 
ENDBRANCH  26  40
BRANCH  27  51
ATOM     51  C   UNL A   1      37.133  31.245  28.581  1.00  0.00     0.064 A 
ATOM     52  C   UNL A   1      35.967  30.480  28.320  1.00  0.00     0.173 A 
ATOM     53  C   UNL A   1      36.949  32.637  28.495  1.00  0.00     0.173 A 
ATOM     54  F   UNL A   1      36.039  29.145  28.227  1.00  0.00    -0.203 F 
ATOM     55  C   UNL A   1      34.702  31.047  28.174  1.00  0.00     0.198 A 
ATOM     56  C   UNL A   1      35.672  33.207  28.398  1.00  0.00     0.198 A 
ATOM     57  F   UNL A   1      37.988  33.476  28.492  1.00  0.00    -0.203 F 
ATOM     58  F   UNL A   1      33.641  30.255  27.969  1.00  0.00    -0.200 F 
ATOM     59  C   UNL A   1      34.548  32.412  28.259  1.00  0.00     0.200 A 
ATOM     60  F   UNL A   1      35.532  34.540  28.443  1.00  0.00    -0.200 F 
ATOM     61  F   UNL A   1      33.327  32.958  28.183  1.00  0.00    -0.200 F 
ENDBRANCH  27  51
BRANCH  39  62
ATOM     62  C   UNL A   1      39.559  31.574  35.199  1.00  0.00     0.064 A 
ATOM     63  C   UNL A   1      40.248  32.794  35.258  1.00  0.00     0.173 A 
ATOM     64  C   UNL A   1      38.599  31.311  36.188  1.00  0.00     0.173 A 
ATOM     65  F   UNL A   1      41.187  33.085  34.345  1.00  0.00    -0.203 F 
ATOM     66  C   UNL A   1      39.994  33.710  36.274  1.00  0.00     0.198 A 
ATOM     67  C   UNL A   1      38.327  32.242  37.185  1.00  0.00     0.198 A 
ATOM     68  F   UNL A   1      37.912  30.160  36.178  1.00  0.00    -0.203 F 
ATOM     69  F   UNL A   1      40.689  34.854  36.332  1.00  0.00    -0.200 F 
ATOM     70  C   UNL A   1      39.027  33.438  37.230  1.00  0.00     0.200 A 
ATOM     71  F   UNL A   1      37.383  31.985  38.100  1.00  0.00    -0.200 F 
ATOM     72  F   UNL A   1      38.776  34.326  38.202  1.00  0.00    -0.200 F 
ENDBRANCH  39  62
ENDBRANCH  13  14
ENDBRANCH   6   8
ENDBRANCH   5   6
ENDBRANCH   4   5
ENDBRANCH   3   4
ENDBRANCH   2   3
ENDBRANCH   1   2
BRANCH   1  73
ATOM     73  C   UNL A   1      43.514  18.799  25.472  1.00  0.00     0.188 C 
BRANCH  73  74
ATOM     74  O   UNL A   1      42.150  19.195  25.295  1.00  0.00    -0.376 OA
BRANCH  74  75
ATOM     75  C   UNL A   1      41.711  20.329  26.037  1.00  0.00     0.202 C 
BRANCH  75  76
ATOM     76  C   UNL A   1      40.272  20.281  26.563  1.00  0.00     0.261 C 
BRANCH  76  77
ATOM     77  O   UNL A   1      39.305  20.941  25.727  1.00  0.00    -0.463 OA
BRANCH  77  78
ATOM     78  C   UNL A   1      38.852  22.133  26.210  1.00  0.00     0.309 C 
ATOM     79  O   UNL A   1      39.538  22.957  26.803  1.00  0.00    -0.252 OA
BRANCH  78  80
ATOM     80  C   UNL A   1      37.357  22.320  25.969  1.00  0.00     0.100 C 
ATOM     81  C   UNL A   1      36.880  21.154  25.095  1.00  0.00     0.015 C 
ATOM     82  C   UNL A   1      37.148  23.708  25.322  1.00  0.00     0.028 C 
ATOM     83  C   UNL A   1      35.545  21.405  24.414  1.00  0.00     0.002 C 
ATOM     84  C   UNL A   1      35.779  23.956  24.672  1.00  0.00     0.079 C 
ATOM     85  C   UNL A   1      35.496  22.771  23.714  1.00  0.00     0.013 C 
BRANCH  84  86
ATOM     86  C   UNL A   1      34.557  24.165  25.579  1.00  0.00     0.225 C 
ATOM     87  O   UNL A   1      34.519  23.614  26.686  1.00  0.00    -0.275 OA
BRANCH  86  88
ATOM     88  N   UNL A   1      33.445  24.929  25.212  1.00  0.00    -0.339 N 
ATOM     89  C   UNL A   1      32.037  24.483  23.991  1.00  0.00     0.141 C 
ATOM     90  C   UNL A   1      33.751  26.710  25.772  1.00  0.00     0.146 C 
ATOM     91  C   UNL A   1      30.718  25.883  23.471  1.00  0.00     0.143 C 
ATOM     92  C   UNL A   1      32.408  28.066  25.389  1.00  0.00     0.125 C 
ATOM     93  N   UNL A   1      30.950  27.609  24.190  1.00  0.00    -0.317 N 
ATOM     94  C   UNL A   1      32.577  29.486  24.994  1.00  0.00     0.144 C 
ATOM     95  C   UNL A   1      30.390  28.783  23.744  1.00  0.00     0.317 C 
ATOM     96  N   UNL A   1      31.342  29.736  24.132  1.00  0.00    -0.336 N 
ATOM     97  O   UNL A   1      29.496  28.917  22.933  1.00  0.00    -0.249 OA
ATOM     98  H   UNL A   1      31.200  30.658  23.816  1.00  0.00     0.165 HD
ENDBRANCH  86  88
ENDBRANCH  84  86
ENDBRANCH  78  80
ENDBRANCH  77  78
ENDBRANCH  76  77
ENDBRANCH  75  76
ENDBRANCH  74  75
ENDBRANCH  73  74
ENDBRANCH   1  73
TORSDOF 19
ENDMDL
MODEL 2
REMARK VINA RESULT:     -12.0      1.443      2.288
REMARK SMILES O=C(OCCOCCOCCOC(=O)[C@@H]1CCC[C@@H](C(=O)N2CCN3C(=O)NC[C@@H]3C2)C1)c1ccc(-c2c3nc(c(-c4c(F)c(F)c(F)c(F)c4F)c4ccc([nH]4)c(-c4c(F)c(F)c(F)c(F)c4F)c4nc(c(-c5c(F)c(F)c(F)c(F)c5F)c5ccc2[nH]5)C=C4)C=C3)cc1
REMARK SMILES IDX 7 1 6 2 5 3 4 4 3 5 2 6 1 7 33 8 34 9 95 10 35 11 94 12
REMARK SMILES IDX 36 13 37 14 38 15 88 16 39 17 93 18 87 19 89 20 40 21 92 22
REMARK SMILES IDX 86 23 85 24 41 26 73 27 53 28 72 29 54 30 57 31 71 32 90 33
REMARK SMILES IDX 55 34 56 35 70 37 91 38 58 39 42 40 43 41 51 42 44 43 45 44
REMARK SMILES IDX 49 45 52 46 46 47 47 48 50 49 48 50 74 51 75 52 83 53 76 54
REMARK SMILES IDX 77 55 81 56 84 57 78 58 79 59 82 60 80 61 59 62 60 63 68 64
REMARK SMILES IDX 61 65 62 66 66 67 69 68 63 69 64 70 67 71 65 72 8 73 9 74
REMARK SMILES IDX 10 75 11 76 12 77 13 78 14 79 15 80 16 81 32 82 17 83 19 84
REMARK SMILES IDX 18 85 20 86 21 87 22 88 23 89 31 90 24 91 30 92 25 93 29 94
REMARK SMILES IDX 26 95 28 96 27 97
REMARK H PARENT 89 25 57 36 28 98
REMARK Flexibility Score: inf
ROOT
ATOM      1  C   UNL A   1      41.423  20.006  26.251  1.00  0.00     0.188 C 
ENDROOT
BRANCH   1   2
ATOM      2  O   UNL A   1      42.830  20.207  26.458  1.00  0.00    -0.376 OA
BRANCH   2   3
ATOM      3  C   UNL A   1      43.606  20.021  25.270  1.00  0.00     0.202 C 
BRANCH   3   4
ATOM      4  C   UNL A   1      45.017  20.635  25.317  1.00  0.00     0.261 C 
BRANCH   4   5
ATOM      5  O   UNL A   1      45.047  22.000  24.867  1.00  0.00    -0.460 OA
BRANCH   5   6
ATOM      6  C   UNL A   1      44.090  22.948  25.029  1.00  0.00     0.338 C 
ATOM      7  O   UNL A   1      43.184  23.036  24.203  1.00  0.00    -0.246 OA
BRANCH   6   8
ATOM      8  C   UNL A   1      44.070  23.885  26.194  1.00  0.00     0.060 A 
ATOM      9  C   UNL A   1      44.772  25.089  26.235  1.00  0.00     0.016 A 
ATOM     10  C   UNL A   1      43.210  23.590  27.262  1.00  0.00     0.016 A 
ATOM     11  C   UNL A   1      44.722  25.937  27.329  1.00  0.00     0.010 A 
ATOM     12  C   UNL A   1      43.036  24.507  28.303  1.00  0.00     0.010 A 
ATOM     13  C   UNL A   1      43.783  25.695  28.323  1.00  0.00    -0.014 A 
BRANCH  13  14
ATOM     14  C   UNL A   1      43.406  26.823  29.204  1.00  0.00     0.031 A 
ATOM     15  C   UNL A   1      43.842  26.752  30.688  1.00  0.00     0.074 A 
ATOM     16  C   UNL A   1      42.516  27.682  28.616  1.00  0.00     0.049 A 
ATOM     17  N   UNL A   1      43.507  27.513  31.697  1.00  0.00    -0.248 NA
ATOM     18  C   UNL A   1      44.694  25.640  31.132  1.00  0.00     0.031 C 
ATOM     19  C   UNL A   1      42.002  27.682  27.274  1.00  0.00     0.029 A 
ATOM     20  N   UNL A   1      41.815  28.723  29.135  1.00  0.00    -0.354 N 
ATOM     21  C   UNL A   1      43.913  26.943  32.892  1.00  0.00     0.074 A 
ATOM     22  C   UNL A   1      44.693  25.785  32.461  1.00  0.00     0.031 C 
ATOM     23  C   UNL A   1      40.973  28.539  27.179  1.00  0.00     0.029 A 
ATOM     24  C   UNL A   1      40.485  29.221  28.585  1.00  0.00     0.049 A 
ATOM     25  H   UNL A   1      42.192  29.188  29.917  1.00  0.00     0.167 HD
ATOM     26  C   UNL A   1      43.647  27.335  34.187  1.00  0.00     0.037 A 
ATOM     27  C   UNL A   1      39.046  30.083  29.300  1.00  0.00     0.037 A 
ATOM     28  C   UNL A   1      42.774  28.430  34.713  1.00  0.00     0.049 A 
ATOM     29  C   UNL A   1      38.758  30.652  31.099  1.00  0.00     0.074 A 
ATOM     30  C   UNL A   1      42.957  29.209  35.848  1.00  0.00     0.029 A 
ATOM     31  N   UNL A   1      41.479  28.813  34.292  1.00  0.00    -0.354 N 
ATOM     32  N   UNL A   1      39.183  30.056  32.229  1.00  0.00    -0.248 NA
ATOM     33  C   UNL A   1      38.059  31.894  31.486  1.00  0.00     0.031 C 
ATOM     34  C   UNL A   1      41.864  30.108  35.988  1.00  0.00     0.029 A 
ATOM     35  C   UNL A   1      40.988  29.967  34.912  1.00  0.00     0.049 A 
ATOM     36  H   UNL A   1      40.965  28.310  33.620  1.00  0.00     0.167 HD
ATOM     37  C   UNL A   1      39.132  30.894  33.306  1.00  0.00     0.074 A 
ATOM     38  C   UNL A   1      38.272  31.966  32.813  1.00  0.00     0.031 C 
ATOM     39  C   UNL A   1      39.835  30.835  34.493  1.00  0.00     0.037 A 
BRANCH  26  40
ATOM     40  C   UNL A   1      44.509  26.618  35.194  1.00  0.00     0.064 A 
ATOM     41  C   UNL A   1      45.798  27.098  35.503  1.00  0.00     0.173 A 
ATOM     42  C   UNL A   1      44.076  25.451  35.829  1.00  0.00     0.173 A 
ATOM     43  F   UNL A   1      46.264  28.210  34.913  1.00  0.00    -0.203 F 
ATOM     44  C   UNL A   1      46.638  26.403  36.366  1.00  0.00     0.198 A 
ATOM     45  C   UNL A   1      44.913  24.770  36.714  1.00  0.00     0.198 A 
ATOM     46  F   UNL A   1      42.862  24.948  35.565  1.00  0.00    -0.203 F 
ATOM     47  F   UNL A   1      47.886  26.842  36.584  1.00  0.00    -0.200 F 
ATOM     48  C   UNL A   1      46.194  25.240  36.972  1.00  0.00     0.200 A 
ATOM     49  F   UNL A   1      44.488  23.642  37.301  1.00  0.00    -0.200 F 
ATOM     50  F   UNL A   1      47.010  24.558  37.789  1.00  0.00    -0.200 F 
ENDBRANCH  26  40
BRANCH  27  51
ATOM     51  C   UNL A   1      37.579  30.730  28.764  1.00  0.00     0.064 A 
ATOM     52  C   UNL A   1      36.495  29.880  28.425  1.00  0.00     0.173 A 
ATOM     53  C   UNL A   1      37.325  32.102  28.579  1.00  0.00     0.173 A 
ATOM     54  F   UNL A   1      36.653  28.549  28.418  1.00  0.00    -0.203 F 
ATOM     55  C   UNL A   1      35.223  30.357  28.114  1.00  0.00     0.198 A 
ATOM     56  C   UNL A   1      36.036  32.583  28.314  1.00  0.00     0.198 A 
ATOM     57  F   UNL A   1      38.308  33.004  28.636  1.00  0.00    -0.203 F 
ATOM     58  F   UNL A   1      34.237  29.490  27.844  1.00  0.00    -0.200 F 
ATOM     59  C   UNL A   1      34.981  31.713  28.104  1.00  0.00     0.200 A 
ATOM     60  F   UNL A   1      35.815  33.905  28.268  1.00  0.00    -0.200 F 
ATOM     61  F   UNL A   1      33.746  32.175  27.868  1.00  0.00    -0.200 F 
ENDBRANCH  27  51
BRANCH  39  62
ATOM     62  C   UNL A   1      39.446  31.912  35.465  1.00  0.00     0.064 A 
ATOM     63  C   UNL A   1      38.467  31.671  36.441  1.00  0.00     0.173 A 
ATOM     64  C   UNL A   1      40.068  33.169  35.452  1.00  0.00     0.173 A 
ATOM     65  F   UNL A   1      37.832  30.490  36.484  1.00  0.00    -0.203 F 
ATOM     66  C   UNL A   1      38.119  32.655  37.361  1.00  0.00     0.198 A 
ATOM     67  C   UNL A   1      39.738  34.139  36.392  1.00  0.00     0.198 A 
ATOM     68  F   UNL A   1      41.010  33.451  34.540  1.00  0.00    -0.203 F 
ATOM     69  F   UNL A   1      37.156  32.417  38.262  1.00  0.00    -0.200 F 
ATOM     70  C   UNL A   1      38.760  33.884  37.342  1.00  0.00     0.200 A 
ATOM     71  F   UNL A   1      40.368  35.322  36.382  1.00  0.00    -0.200 F 
ATOM     72  F   UNL A   1      38.431  34.827  38.235  1.00  0.00    -0.200 F 
ENDBRANCH  39  62
ENDBRANCH  13  14
ENDBRANCH   6   8
ENDBRANCH   5   6
ENDBRANCH   4   5
ENDBRANCH   3   4
ENDBRANCH   2   3
ENDBRANCH   1   2
BRANCH   1  73
ATOM     73  C   UNL A   1      40.598  21.020  27.052  1.00  0.00     0.188 C 
BRANCH  73  74
ATOM     74  O   UNL A   1      40.304  22.240  26.365  1.00  0.00    -0.376 OA
BRANCH  74  75
ATOM     75  C   UNL A   1      39.578  23.226  27.091  1.00  0.00     0.202 C 
BRANCH  75  76
ATOM     76  C   UNL A   1      38.594  24.079  26.283  1.00  0.00     0.261 C 
BRANCH  76  77
ATOM     77  O   UNL A   1      37.214  23.697  26.420  1.00  0.00    -0.463 OA
BRANCH  77  78
ATOM     78  C   UNL A   1      36.728  22.934  25.400  1.00  0.00     0.309 C 
ATOM     79  O   UNL A   1      37.416  22.330  24.586  1.00  0.00    -0.252 OA
BRANCH  78  80
ATOM     80  C   UNL A   1      35.204  22.949  25.347  1.00  0.00     0.100 C 
ATOM     81  C   UNL A   1      34.691  22.143  26.547  1.00  0.00     0.015 C 
ATOM     82  C   UNL A   1      34.769  22.373  23.980  1.00  0.00     0.028 C 
ATOM     83  C   UNL A   1      33.244  21.698  26.413  1.00  0.00     0.002 C 
ATOM     84  C   UNL A   1      33.294  21.964  23.852  1.00  0.00     0.079 C 
ATOM     85  C   UNL A   1      32.959  21.044  25.054  1.00  0.00     0.013 C 
BRANCH  84  86
ATOM     86  C   UNL A   1      32.226  23.065  23.759  1.00  0.00     0.225 C 
ATOM     87  O   UNL A   1      31.171  22.841  23.152  1.00  0.00    -0.275 OA
BRANCH  86  88
ATOM     88  N   UNL A   1      32.386  24.343  24.302  1.00  0.00    -0.339 N 
ATOM     89  C   UNL A   1      31.484  25.127  25.801  1.00  0.00     0.141 C 
ATOM     90  C   UNL A   1      33.336  25.395  23.049  1.00  0.00     0.146 C 
ATOM     91  C   UNL A   1      31.735  27.066  26.184  1.00  0.00     0.143 C 
ATOM     92  C   UNL A   1      33.707  27.260  23.469  1.00  0.00     0.125 C 
ATOM     93  N   UNL A   1      32.835  28.051  25.013  1.00  0.00    -0.317 N 
ATOM     94  C   UNL A   1      33.705  28.451  22.584  1.00  0.00     0.144 C 
ATOM     95  C   UNL A   1      32.899  29.417  24.877  1.00  0.00     0.317 C 
ATOM     96  N   UNL A   1      33.290  29.568  23.538  1.00  0.00    -0.336 N 
ATOM     97  O   UNL A   1      32.412  30.259  25.605  1.00  0.00    -0.249 OA
ATOM     98  H   UNL A   1      33.297  30.485  23.179  1.00  0.00     0.165 HD
ENDBRANCH  86  88
ENDBRANCH  84  86
ENDBRANCH  78  80
ENDBRANCH  77  78
ENDBRANCH  76  77
ENDBRANCH  75  76
ENDBRANCH  74  75
ENDBRANCH  73  74
ENDBRANCH   1  73
TORSDOF 19
ENDMDL
MODEL 3
REMARK VINA RESULT:     -11.3      2.033      7.570
REMARK SMILES O=C(OCCOCCOCCOC(=O)[C@@H]1CCC[C@@H](C(=O)N2CCN3C(=O)NC[C@@H]3C2)C1)c1ccc(-c2c3nc(c(-c4c(F)c(F)c(F)c(F)c4F)c4ccc([nH]4)c(-c4c(F)c(F)c(F)c(F)c4F)c4nc(c(-c5c(F)c(F)c(F)c(F)c5F)c5ccc2[nH]5)C=C4)C=C3)cc1
REMARK SMILES IDX 7 1 6 2 5 3 4 4 3 5 2 6 1 7 33 8 34 9 95 10 35 11 94 12
REMARK SMILES IDX 36 13 37 14 38 15 88 16 39 17 93 18 87 19 89 20 40 21 92 22
REMARK SMILES IDX 86 23 85 24 41 26 73 27 53 28 72 29 54 30 57 31 71 32 90 33
REMARK SMILES IDX 55 34 56 35 70 37 91 38 58 39 42 40 43 41 51 42 44 43 45 44
REMARK SMILES IDX 49 45 52 46 46 47 47 48 50 49 48 50 74 51 75 52 83 53 76 54
REMARK SMILES IDX 77 55 81 56 84 57 78 58 79 59 82 60 80 61 59 62 60 63 68 64
REMARK SMILES IDX 61 65 62 66 66 67 69 68 63 69 64 70 67 71 65 72 8 73 9 74
REMARK SMILES IDX 10 75 11 76 12 77 13 78 14 79 15 80 16 81 32 82 17 83 19 84
REMARK SMILES IDX 18 85 20 86 21 87 22 88 23 89 31 90 24 91 30 92 25 93 29 94
REMARK SMILES IDX 26 95 28 96 27 97
REMARK H PARENT 89 25 57 36 28 98
REMARK Flexibility Score: inf
ROOT
ATOM      1  C   UNL A   1      41.954  21.381  26.095  1.00  0.00     0.188 C 
ENDROOT
BRANCH   1   2
ATOM      2  O   UNL A   1      42.709  22.265  25.252  1.00  0.00    -0.376 OA
BRANCH   2   3
ATOM      3  C   UNL A   1      44.060  21.835  25.052  1.00  0.00     0.202 C 
BRANCH   3   4
ATOM      4  C   UNL A   1      45.103  22.967  25.049  1.00  0.00     0.261 C 
BRANCH   4   5
ATOM      5  O   UNL A   1      44.572  24.214  24.569  1.00  0.00    -0.460 OA
BRANCH   5   6
ATOM      6  C   UNL A   1      44.763  25.453  25.089  1.00  0.00     0.338 C 
ATOM      7  O   UNL A   1      45.733  26.114  24.726  1.00  0.00    -0.246 OA
BRANCH   6   8
ATOM      8  C   UNL A   1      43.822  26.069  26.074  1.00  0.00     0.060 A 
ATOM      9  C   UNL A   1      42.791  25.372  26.704  1.00  0.00     0.016 A 
ATOM     10  C   UNL A   1      44.057  27.394  26.471  1.00  0.00     0.016 A 
ATOM     11  C   UNL A   1      41.944  25.974  27.620  1.00  0.00     0.010 A 
ATOM     12  C   UNL A   1      43.304  27.967  27.500  1.00  0.00     0.010 A 
ATOM     13  C   UNL A   1      42.256  27.243  28.089  1.00  0.00    -0.014 A 
BRANCH  13  14
ATOM     14  C   UNL A   1      41.659  27.668  29.375  1.00  0.00     0.031 A 
ATOM     15  C   UNL A   1      40.367  28.521  29.320  1.00  0.00     0.074 A 
ATOM     16  C   UNL A   1      42.475  27.424  30.447  1.00  0.00     0.049 A 
ATOM     17  N   UNL A   1      39.740  29.154  30.277  1.00  0.00    -0.248 NA
ATOM     18  C   UNL A   1      39.733  28.778  28.020  1.00  0.00     0.031 C 
ATOM     19  C   UNL A   1      43.741  26.746  30.491  1.00  0.00     0.029 A 
ATOM     20  N   UNL A   1      42.369  27.805  31.746  1.00  0.00    -0.354 N 
ATOM     21  C   UNL A   1      38.783  30.005  29.750  1.00  0.00     0.074 A 
ATOM     22  C   UNL A   1      38.802  29.687  28.324  1.00  0.00     0.031 C 
ATOM     23  C   UNL A   1      44.323  26.941  31.686  1.00  0.00     0.029 A 
ATOM     24  C   UNL A   1      43.553  27.980  32.689  1.00  0.00     0.049 A 
ATOM     25  H   UNL A   1      41.468  27.979  32.103  1.00  0.00     0.167 HD
ATOM     26  C   UNL A   1      38.001  30.947  30.385  1.00  0.00     0.037 A 
ATOM     27  C   UNL A   1      43.871  28.995  34.170  1.00  0.00     0.037 A 
ATOM     28  C   UNL A   1      37.997  31.411  31.807  1.00  0.00     0.049 A 
ATOM     29  C   UNL A   1      42.722  30.248  35.038  1.00  0.00     0.074 A 
ATOM     30  C   UNL A   1      36.919  31.832  32.573  1.00  0.00     0.029 A 
ATOM     31  N   UNL A   1      39.096  31.704  32.648  1.00  0.00    -0.354 N 
ATOM     32  N   UNL A   1      41.801  31.051  34.472  1.00  0.00    -0.248 NA
ATOM     33  C   UNL A   1      42.657  30.455  36.499  1.00  0.00     0.031 C 
ATOM     34  C   UNL A   1      37.376  32.218  33.864  1.00  0.00     0.029 A 
ATOM     35  C   UNL A   1      38.748  31.994  33.971  1.00  0.00     0.049 A 
ATOM     36  H   UNL A   1      40.028  31.703  32.330  1.00  0.00     0.167 HD
ATOM     37  C   UNL A   1      40.912  31.541  35.384  1.00  0.00     0.074 A 
ATOM     38  C   UNL A   1      41.594  31.268  36.646  1.00  0.00     0.031 C 
ATOM     39  C   UNL A   1      39.633  32.021  35.186  1.00  0.00     0.037 A 
BRANCH  26  40
ATOM     40  C   UNL A   1      36.886  31.456  29.507  1.00  0.00     0.064 A 
ATOM     41  C   UNL A   1      36.854  32.805  29.102  1.00  0.00     0.173 A 
ATOM     42  C   UNL A   1      35.844  30.623  29.090  1.00  0.00     0.173 A 
ATOM     43  F   UNL A   1      37.826  33.648  29.483  1.00  0.00    -0.203 F 
ATOM     44  C   UNL A   1      35.791  33.310  28.362  1.00  0.00     0.198 A 
ATOM     45  C   UNL A   1      34.791  31.128  28.326  1.00  0.00     0.198 A 
ATOM     46  F   UNL A   1      35.823  29.333  29.454  1.00  0.00    -0.203 F 
ATOM     47  F   UNL A   1      35.748  34.615  28.055  1.00  0.00    -0.200 F 
ATOM     48  C   UNL A   1      34.760  32.471  27.973  1.00  0.00     0.200 A 
ATOM     49  F   UNL A   1      33.791  30.319  27.950  1.00  0.00    -0.200 F 
ATOM     50  F   UNL A   1      33.725  32.961  27.276  1.00  0.00    -0.200 F 
ENDBRANCH  26  40
BRANCH  27  51
ATOM     51  C   UNL A   1      45.106  29.201  35.306  1.00  0.00     0.064 A 
ATOM     52  C   UNL A   1      45.324  28.235  36.321  1.00  0.00     0.173 A 
ATOM     53  C   UNL A   1      45.966  30.314  35.365  1.00  0.00     0.173 A 
ATOM     54  F   UNL A   1      44.483  27.201  36.465  1.00  0.00    -0.203 F 
ATOM     55  C   UNL A   1      46.409  28.280  37.194  1.00  0.00     0.198 A 
ATOM     56  C   UNL A   1      47.085  30.337  36.209  1.00  0.00     0.198 A 
ATOM     57  F   UNL A   1      45.743  31.404  34.626  1.00  0.00    -0.203 F 
ATOM     58  F   UNL A   1      46.571  27.308  38.103  1.00  0.00    -0.200 F 
ATOM     59  C   UNL A   1      47.319  29.311  37.106  1.00  0.00     0.200 A 
ATOM     60  F   UNL A   1      47.946  31.363  36.145  1.00  0.00    -0.200 F 
ATOM     61  F   UNL A   1      48.398  29.326  37.900  1.00  0.00    -0.200 F 
ENDBRANCH  27  51
BRANCH  39  62
ATOM     62  C   UNL A   1      38.994  32.538  36.443  1.00  0.00     0.064 A 
ATOM     63  C   UNL A   1      38.163  31.712  37.213  1.00  0.00     0.173 A 
ATOM     64  C   UNL A   1      39.235  33.842  36.903  1.00  0.00     0.173 A 
ATOM     65  F   UNL A   1      37.889  30.462  36.807  1.00  0.00    -0.203 F 
ATOM     66  C   UNL A   1      37.587  32.176  38.391  1.00  0.00     0.198 A 
ATOM     67  C   UNL A   1      38.681  34.292  38.097  1.00  0.00     0.198 A 
ATOM     68  F   UNL A   1      40.022  34.673  36.205  1.00  0.00    -0.203 F 
ATOM     69  F   UNL A   1      36.767  31.381  39.093  1.00  0.00    -0.200 F 
ATOM     70  C   UNL A   1      37.853  33.461  38.837  1.00  0.00     0.200 A 
ATOM     71  F   UNL A   1      38.951  35.530  38.534  1.00  0.00    -0.200 F 
ATOM     72  F   UNL A   1      37.307  33.904  39.977  1.00  0.00    -0.200 F 
ENDBRANCH  39  62
ENDBRANCH  13  14
ENDBRANCH   6   8
ENDBRANCH   5   6
ENDBRANCH   4   5
ENDBRANCH   3   4
ENDBRANCH   2   3
ENDBRANCH   1   2
BRANCH   1  73
ATOM     73  C   UNL A   1      40.825  22.132  26.810  1.00  0.00     0.188 C 
BRANCH  73  74
ATOM     74  O   UNL A   1      39.558  22.098  26.145  1.00  0.00    -0.376 OA
BRANCH  74  75
ATOM     75  C   UNL A   1      39.092  20.821  25.722  1.00  0.00     0.202 C 
BRANCH  75  76
ATOM     76  C   UNL A   1      37.750  20.799  24.980  1.00  0.00     0.261 C 
BRANCH  76  77
ATOM     77  O   UNL A   1      36.775  21.735  25.474  1.00  0.00    -0.463 OA
BRANCH  77  78
ATOM     78  C   UNL A   1      36.290  22.600  24.539  1.00  0.00     0.309 C 
ATOM     79  O   UNL A   1      36.978  23.297  23.803  1.00  0.00    -0.252 OA
BRANCH  78  80
ATOM     80  C   UNL A   1      34.765  22.646  24.535  1.00  0.00     0.100 C 
ATOM     81  C   UNL A   1      34.259  21.214  24.751  1.00  0.00     0.015 C 
ATOM     82  C   UNL A   1      34.310  23.271  23.197  1.00  0.00     0.028 C 
ATOM     83  C   UNL A   1      32.807  21.011  24.351  1.00  0.00     0.002 C 
ATOM     84  C   UNL A   1      32.831  23.087  22.828  1.00  0.00     0.079 C 
ATOM     85  C   UNL A   1      32.501  21.578  22.957  1.00  0.00     0.013 C 
BRANCH  84  86
ATOM     86  C   UNL A   1      31.772  23.893  23.596  1.00  0.00     0.225 C 
ATOM     87  O   UNL A   1      30.657  23.396  23.799  1.00  0.00    -0.275 OA
BRANCH  86  88
ATOM     88  N   UNL A   1      31.981  25.194  24.063  1.00  0.00    -0.339 N 
ATOM     89  C   UNL A   1      32.604  25.759  25.785  1.00  0.00     0.141 C 
ATOM     90  C   UNL A   1      31.122  26.387  22.873  1.00  0.00     0.146 C 
ATOM     91  C   UNL A   1      32.556  27.696  26.251  1.00  0.00     0.143 C 
ATOM     92  C   UNL A   1      31.182  28.297  23.243  1.00  0.00     0.125 C 
ATOM     93  N   UNL A   1      31.855  28.885  24.967  1.00  0.00    -0.317 N 
ATOM     94  C   UNL A   1      30.137  29.335  23.054  1.00  0.00     0.144 C 
ATOM     95  C   UNL A   1      31.427  30.175  25.169  1.00  0.00     0.317 C 
ATOM     96  N   UNL A   1      30.455  30.328  24.169  1.00  0.00    -0.336 N 
ATOM     97  O   UNL A   1      31.589  30.866  26.155  1.00  0.00    -0.249 OA
ATOM     98  H   UNL A   1      29.925  31.158  24.189  1.00  0.00     0.165 HD
ENDBRANCH  86  88
ENDBRANCH  84  86
ENDBRANCH  78  80
ENDBRANCH  77  78
ENDBRANCH  76  77
ENDBRANCH  75  76
ENDBRANCH  74  75
ENDBRANCH  73  74
ENDBRANCH   1  73
TORSDOF 19
ENDMDL
