MODEL 1
REMARK VINA RESULT:     -11.2      0.000      0.000
REMARK SMILES Cc1c(Cl)ccc2c(OCC(=O)OCCOCCOCCOC(=O)c3ccc(-c4c5nc(c(-c6c(F)c(F)c(F)c(F)c6F)c6ccc([nH]6)c(-c6c(F)c(F)c(F)c(F)c6F)c6nc(c(-c7c(F)c(F)c(F)c(F)c7F)c7ccc4[nH]7)C=C6)C=C5)cc3)ccnc12
REMARK SMILES IDX 17 1 16 2 15 3 14 4 13 5 11 6 12 7 10 8 9 9 8 10 1 11 2 12
REMARK SMILES IDX 3 13 91 14 4 15 5 16 7 17 90 18 6 19 89 20 88 21 18 22 19 23
REMARK SMILES IDX 20 24 21 25 22 26 23 27 24 28 25 29 26 30 87 31 27 32 86 33
REMARK SMILES IDX 28 34 29 35 30 36 80 37 31 38 85 39 79 40 81 41 32 42 84 43
REMARK SMILES IDX 78 44 77 45 33 47 65 48 45 49 64 50 46 51 49 52 63 53 82 54
REMARK SMILES IDX 47 55 48 56 62 58 83 59 50 60 34 61 35 62 43 63 36 64 37 65
REMARK SMILES IDX 41 66 44 67 38 68 39 69 42 70 40 71 66 72 67 73 75 74 68 75
REMARK SMILES IDX 69 76 73 77 76 78 70 79 71 80 74 81 72 82 51 83 52 84 60 85
REMARK SMILES IDX 53 86 54 87 58 88 61 89 55 90 56 91 59 92 57 93
REMARK H PARENT 81 46 49 57
REMARK Flexibility Score: inf
ROOT
ATOM      1  C   UNL A   1      29.354  28.596  22.758  1.00  0.00     0.188 C 
ENDROOT
BRANCH   1   2
ATOM      2  O   UNL A   1      28.323  27.983  23.522  1.00  0.00    -0.376 OA
BRANCH   2   3
ATOM      3  C   UNL A   1      28.466  26.602  23.835  1.00  0.00     0.202 C 
BRANCH   3   4
ATOM      4  C   UNL A   1      29.844  26.207  24.367  1.00  0.00     0.261 C 
BRANCH   4   5
ATOM      5  O   UNL A   1      29.755  25.364  25.537  1.00  0.00    -0.461 OA
BRANCH   5   6
ATOM      6  C   UNL A   1      30.925  24.971  26.110  1.00  0.00     0.344 C 
ATOM      7  O   UNL A   1      31.019  24.424  27.204  1.00  0.00    -0.248 OA
BRANCH   6   8
ATOM      8  C   UNL A   1      32.154  25.361  25.281  1.00  0.00     0.352 C 
BRANCH   8   9
ATOM      9  O   UNL A   1      32.737  24.414  24.402  1.00  0.00    -0.481 OA
BRANCH   9  10
ATOM     10  C   UNL A   1      33.395  23.307  24.880  1.00  0.00     0.131 A 
ATOM     11  C   UNL A   1      33.452  18.355  24.980  1.00  0.00     0.048 C 
ATOM     12  C   UNL A   1      33.175  19.647  24.249  1.00  0.00    -0.006 A 
ATOM     13  C   UNL A   1      32.479  19.625  23.029  1.00  0.00     0.046 A 
ATOM     14  C   UNL A   1      33.569  20.877  24.806  1.00  0.00     0.078 A 
ATOM     15  Cl  UNL A   1      32.054  18.141  22.247  1.00  0.00    -0.084 Cl
ATOM     16  C   UNL A   1      32.109  20.808  22.401  1.00  0.00     0.022 A 
ATOM     17  C   UNL A   1      33.106  22.082  24.224  1.00  0.00     0.043 A 
ATOM     18  N   UNL A   1      34.382  20.904  25.878  1.00  0.00    -0.256 NA
ATOM     19  C   UNL A   1      32.384  22.025  23.016  1.00  0.00     0.016 A 
ATOM     20  C   UNL A   1      34.760  22.093  26.384  1.00  0.00     0.115 A 
ATOM     21  C   UNL A   1      34.260  23.308  25.964  1.00  0.00     0.067 A 
ENDBRANCH   9  10
ENDBRANCH   8   9
ENDBRANCH   6   8
ENDBRANCH   5   6
ENDBRANCH   4   5
ENDBRANCH   3   4
ENDBRANCH   2   3
ENDBRANCH   1   2
BRANCH   1  22
ATOM     22  C   UNL A   1      30.315  29.557  23.485  1.00  0.00     0.188 C 
BRANCH  22  23
ATOM     23  O   UNL A   1      31.694  29.209  23.534  1.00  0.00    -0.376 OA
BRANCH  23  24
ATOM     24  C   UNL A   1      32.343  29.323  24.795  1.00  0.00     0.202 C 
BRANCH  24  25
ATOM     25  C   UNL A   1      31.731  30.376  25.713  1.00  0.00     0.261 C 
BRANCH  25  26
ATOM     26  O   UNL A   1      32.372  30.345  27.000  1.00  0.00    -0.460 OA
BRANCH  26  27
ATOM     27  C   UNL A   1      33.067  31.466  27.296  1.00  0.00     0.338 C 
ATOM     28  O   UNL A   1      32.692  32.617  27.172  1.00  0.00    -0.246 OA
BRANCH  27  29
ATOM     29  C   UNL A   1      34.428  31.109  27.744  1.00  0.00     0.060 A 
ATOM     30  C   UNL A   1      34.805  29.785  27.988  1.00  0.00     0.016 A 
ATOM     31  C   UNL A   1      35.305  32.151  28.040  1.00  0.00     0.016 A 
ATOM     32  C   UNL A   1      36.026  29.506  28.606  1.00  0.00     0.010 A 
ATOM     33  C   UNL A   1      36.544  31.871  28.614  1.00  0.00     0.010 A 
ATOM     34  C   UNL A   1      36.894  30.551  28.947  1.00  0.00    -0.014 A 
BRANCH  34  35
ATOM     35  C   UNL A   1      38.120  30.317  29.747  1.00  0.00     0.031 A 
ATOM     36  C   UNL A   1      39.204  29.441  29.184  1.00  0.00     0.074 A 
ATOM     37  C   UNL A   1      38.267  30.861  30.967  1.00  0.00     0.049 A 
ATOM     38  N   UNL A   1      40.229  28.895  29.786  1.00  0.00    -0.248 NA
ATOM     39  C   UNL A   1      39.116  29.139  27.746  1.00  0.00     0.031 C 
ATOM     40  C   UNL A   1      37.347  31.811  31.586  1.00  0.00     0.029 A 
ATOM     41  N   UNL A   1      39.250  30.680  31.906  1.00  0.00    -0.354 N 
ATOM     42  C   UNL A   1      40.888  28.157  28.810  1.00  0.00     0.074 A 
ATOM     43  C   UNL A   1      40.146  28.323  27.579  1.00  0.00     0.031 C 
ATOM     44  C   UNL A   1      37.812  32.136  32.804  1.00  0.00     0.029 A 
ATOM     45  C   UNL A   1      39.016  31.355  33.078  1.00  0.00     0.049 A 
ATOM     46  H   UNL A   1      40.046  30.119  31.756  1.00  0.00     0.167 HD
ATOM     47  C   UNL A   1      42.008  27.407  28.938  1.00  0.00     0.037 A 
ATOM     48  C   UNL A   1      39.669  31.309  34.255  1.00  0.00     0.037 A 
ATOM     49  C   UNL A   1      42.744  27.256  30.166  1.00  0.00     0.049 A 
ATOM     50  C   UNL A   1      40.841  30.379  34.413  1.00  0.00     0.074 A 
ATOM     51  C   UNL A   1      43.866  26.487  30.414  1.00  0.00     0.029 A 
ATOM     52  N   UNL A   1      42.431  27.902  31.354  1.00  0.00    -0.354 N 
ATOM     53  N   UNL A   1      41.402  29.599  33.522  1.00  0.00    -0.248 NA
ATOM     54  C   UNL A   1      41.449  30.302  35.748  1.00  0.00     0.031 C 
ATOM     55  C   UNL A   1      44.212  26.641  31.763  1.00  0.00     0.029 A 
ATOM     56  C   UNL A   1      43.331  27.540  32.342  1.00  0.00     0.049 A 
ATOM     57  H   UNL A   1      41.678  28.525  31.476  1.00  0.00     0.167 HD
ATOM     58  C   UNL A   1      42.435  28.947  34.181  1.00  0.00     0.074 A 
ATOM     59  C   UNL A   1      42.429  29.431  35.547  1.00  0.00     0.031 C 
ATOM     60  C   UNL A   1      43.307  28.028  33.698  1.00  0.00     0.037 A 
BRANCH  47  61
ATOM     61  C   UNL A   1      42.478  26.659  27.726  1.00  0.00     0.064 A 
ATOM     62  C   UNL A   1      43.453  27.185  26.866  1.00  0.00     0.173 A 
ATOM     63  C   UNL A   1      41.960  25.389  27.432  1.00  0.00     0.173 A 
ATOM     64  F   UNL A   1      43.968  28.403  27.095  1.00  0.00    -0.203 F 
ATOM     65  C   UNL A   1      43.873  26.478  25.742  1.00  0.00     0.198 A 
ATOM     66  C   UNL A   1      42.401  24.674  26.321  1.00  0.00     0.198 A 
ATOM     67  F   UNL A   1      41.027  24.839  28.224  1.00  0.00    -0.203 F 
ATOM     68  F   UNL A   1      44.774  27.018  24.910  1.00  0.00    -0.200 F 
ATOM     69  C   UNL A   1      43.352  25.220  25.475  1.00  0.00     0.200 A 
ATOM     70  F   UNL A   1      41.903  23.455  26.071  1.00  0.00    -0.200 F 
ATOM     71  F   UNL A   1      43.760  24.540  24.395  1.00  0.00    -0.200 F 
ENDBRANCH  47  61
BRANCH  48  72
ATOM     72  C   UNL A   1      39.200  32.157  35.380  1.00  0.00     0.064 A 
ATOM     73  C   UNL A   1      38.417  31.612  36.405  1.00  0.00     0.173 A 
ATOM     74  C   UNL A   1      39.569  33.506  35.482  1.00  0.00     0.173 A 
ATOM     75  F   UNL A   1      38.019  30.333  36.334  1.00  0.00    -0.203 F 
ATOM     76  C   UNL A   1      38.029  32.382  37.499  1.00  0.00     0.198 A 
ATOM     77  C   UNL A   1      39.202  34.269  36.588  1.00  0.00     0.198 A 
ATOM     78  F   UNL A   1      40.316  34.073  34.524  1.00  0.00    -0.203 F 
ATOM     79  F   UNL A   1      37.270  31.842  38.460  1.00  0.00    -0.200 F 
ATOM     80  C   UNL A   1      38.433  33.706  37.597  1.00  0.00     0.200 A 
ATOM     81  F   UNL A   1      39.605  35.542  36.685  1.00  0.00    -0.200 F 
ATOM     82  F   UNL A   1      38.082  34.439  38.661  1.00  0.00    -0.200 F 
ENDBRANCH  48  72
BRANCH  60  83
ATOM     83  C   UNL A   1      44.343  27.499  34.642  1.00  0.00     0.064 A 
ATOM     84  C   UNL A   1      44.131  26.325  35.379  1.00  0.00     0.173 A 
ATOM     85  C   UNL A   1      45.587  28.138  34.763  1.00  0.00     0.173 A 
ATOM     86  F   UNL A   1      42.953  25.687  35.306  1.00  0.00    -0.203 F 
ATOM     87  C   UNL A   1      45.122  25.817  36.215  1.00  0.00     0.198 A 
ATOM     88  C   UNL A   1      46.584  27.615  35.583  1.00  0.00     0.198 A 
ATOM     89  F   UNL A   1      45.840  29.260  34.074  1.00  0.00    -0.203 F 
ATOM     90  F   UNL A   1      44.888  24.712  36.934  1.00  0.00    -0.200 F 
ATOM     91  C   UNL A   1      46.349  26.458  36.310  1.00  0.00     0.200 A 
ATOM     92  F   UNL A   1      47.772  28.228  35.664  1.00  0.00    -0.200 F 
ATOM     93  F   UNL A   1      47.305  25.962  37.106  1.00  0.00    -0.200 F 
ENDBRANCH  60  83
ENDBRANCH  34  35
ENDBRANCH  27  29
ENDBRANCH  26  27
ENDBRANCH  25  26
ENDBRANCH  24  25
ENDBRANCH  23  24
ENDBRANCH  22  23
ENDBRANCH   1  22
TORSDOF 19
ENDMDL
MODEL 2
REMARK VINA RESULT:     -11.1      1.245      2.304
REMARK SMILES Cc1c(Cl)ccc2c(OCC(=O)OCCOCCOCCOC(=O)c3ccc(-c4c5nc(c(-c6c(F)c(F)c(F)c(F)c6F)c6ccc([nH]6)c(-c6c(F)c(F)c(F)c(F)c6F)c6nc(c(-c7c(F)c(F)c(F)c(F)c7F)c7ccc4[nH]7)C=C6)C=C5)cc3)ccnc12
REMARK SMILES IDX 17 1 16 2 15 3 14 4 13 5 11 6 12 7 10 8 9 9 8 10 1 11 2 12
REMARK SMILES IDX 3 13 91 14 4 15 5 16 7 17 90 18 6 19 89 20 88 21 18 22 19 23
REMARK SMILES IDX 20 24 21 25 22 26 23 27 24 28 25 29 26 30 87 31 27 32 86 33
REMARK SMILES IDX 28 34 29 35 30 36 80 37 31 38 85 39 79 40 81 41 32 42 84 43
REMARK SMILES IDX 78 44 77 45 33 47 65 48 45 49 64 50 46 51 49 52 63 53 82 54
REMARK SMILES IDX 47 55 48 56 62 58 83 59 50 60 34 61 35 62 43 63 36 64 37 65
REMARK SMILES IDX 41 66 44 67 38 68 39 69 42 70 40 71 66 72 67 73 75 74 68 75
REMARK SMILES IDX 69 76 73 77 76 78 70 79 71 80 74 81 72 82 51 83 52 84 60 85
REMARK SMILES IDX 53 86 54 87 58 88 61 89 55 90 56 91 59 92 57 93
REMARK H PARENT 81 46 49 57
REMARK Flexibility Score: inf
ROOT
ATOM      1  C   UNL A   1      30.119  28.146  22.755  1.00  0.00     0.188 C 
ENDROOT
BRANCH   1   2
ATOM      2  O   UNL A   1      28.777  27.843  23.114  1.00  0.00    -0.376 OA
BRANCH   2   3
ATOM      3  C   UNL A   1      28.547  26.662  23.874  1.00  0.00     0.202 C 
BRANCH   3   4
ATOM      4  C   UNL A   1      29.810  25.881  24.238  1.00  0.00     0.261 C 
BRANCH   4   5
ATOM      5  O   UNL A   1      30.119  25.972  25.647  1.00  0.00    -0.461 OA
BRANCH   5   6
ATOM      6  C   UNL A   1      30.982  25.050  26.154  1.00  0.00     0.344 C 
ATOM      7  O   UNL A   1      32.122  25.295  26.534  1.00  0.00    -0.248 OA
BRANCH   6   8
ATOM      8  C   UNL A   1      30.416  23.625  26.128  1.00  0.00     0.352 C 
BRANCH   8   9
ATOM      9  O   UNL A   1      31.269  22.537  25.818  1.00  0.00    -0.481 OA
BRANCH   9  10
ATOM     10  C   UNL A   1      32.076  22.557  24.707  1.00  0.00     0.131 A 
ATOM     11  C   UNL A   1      36.744  22.946  23.094  1.00  0.00     0.048 C 
ATOM     12  C   UNL A   1      35.751  22.475  24.130  1.00  0.00    -0.006 A 
ATOM     13  C   UNL A   1      36.208  21.993  25.369  1.00  0.00     0.046 A 
ATOM     14  C   UNL A   1      34.370  22.560  23.880  1.00  0.00     0.078 A 
ATOM     15  Cl  UNL A   1      37.893  21.774  25.698  1.00  0.00    -0.084 Cl
ATOM     16  C   UNL A   1      35.311  21.668  26.378  1.00  0.00     0.022 A 
ATOM     17  C   UNL A   1      33.458  22.329  24.938  1.00  0.00     0.043 A 
ATOM     18  N   UNL A   1      33.923  22.854  22.646  1.00  0.00    -0.256 NA
ATOM     19  C   UNL A   1      33.950  21.875  26.179  1.00  0.00     0.016 A 
ATOM     20  C   UNL A   1      32.596  22.913  22.426  1.00  0.00     0.115 A 
ATOM     21  C   UNL A   1      31.642  22.828  23.418  1.00  0.00     0.067 A 
ENDBRANCH   9  10
ENDBRANCH   8   9
ENDBRANCH   6   8
ENDBRANCH   5   6
ENDBRANCH   4   5
ENDBRANCH   3   4
ENDBRANCH   2   3
ENDBRANCH   1   2
BRANCH   1  22
ATOM     22  C   UNL A   1      30.861  29.217  23.576  1.00  0.00     0.188 C 
BRANCH  22  23
ATOM     23  O   UNL A   1      32.277  29.123  23.670  1.00  0.00    -0.376 OA
BRANCH  23  24
ATOM     24  C   UNL A   1      32.856  29.341  24.951  1.00  0.00     0.202 C 
BRANCH  24  25
ATOM     25  C   UNL A   1      32.038  30.261  25.850  1.00  0.00     0.261 C 
BRANCH  25  26
ATOM     26  O   UNL A   1      32.612  30.308  27.168  1.00  0.00    -0.460 OA
BRANCH  26  27
ATOM     27  C   UNL A   1      33.349  31.415  27.408  1.00  0.00     0.338 C 
ATOM     28  O   UNL A   1      33.008  32.573  27.253  1.00  0.00    -0.246 OA
BRANCH  27  29
ATOM     29  C   UNL A   1      34.708  31.030  27.839  1.00  0.00     0.060 A 
ATOM     30  C   UNL A   1      35.052  29.701  28.107  1.00  0.00     0.016 A 
ATOM     31  C   UNL A   1      35.620  32.053  28.093  1.00  0.00     0.016 A 
ATOM     32  C   UNL A   1      36.278  29.403  28.708  1.00  0.00     0.010 A 
ATOM     33  C   UNL A   1      36.862  31.751  28.649  1.00  0.00     0.010 A 
ATOM     34  C   UNL A   1      37.181  30.430  29.007  1.00  0.00    -0.014 A 
BRANCH  34  35
ATOM     35  C   UNL A   1      38.416  30.179  29.789  1.00  0.00     0.031 A 
ATOM     36  C   UNL A   1      39.476  29.283  29.213  1.00  0.00     0.074 A 
ATOM     37  C   UNL A   1      38.591  30.727  31.003  1.00  0.00     0.049 A 
ATOM     38  N   UNL A   1      40.501  28.723  29.801  1.00  0.00    -0.248 NA
ATOM     39  C   UNL A   1      39.360  28.976  27.778  1.00  0.00     0.031 C 
ATOM     40  C   UNL A   1      37.697  31.695  31.632  1.00  0.00     0.029 A 
ATOM     41  N   UNL A   1      39.586  30.534  31.928  1.00  0.00    -0.354 N 
ATOM     42  C   UNL A   1      41.132  27.970  28.819  1.00  0.00     0.074 A 
ATOM     43  C   UNL A   1      40.374  28.141  27.599  1.00  0.00     0.031 C 
ATOM     44  C   UNL A   1      38.187  32.018  32.841  1.00  0.00     0.029 A 
ATOM     45  C   UNL A   1      39.382  31.219  33.100  1.00  0.00     0.049 A 
ATOM     46  H   UNL A   1      40.370  29.960  31.767  1.00  0.00     0.167 HD
ATOM     47  C   UNL A   1      42.242  27.202  28.933  1.00  0.00     0.037 A 
ATOM     48  C   UNL A   1      40.053  31.167  34.266  1.00  0.00     0.037 A 
ATOM     49  C   UNL A   1      42.995  27.045  30.150  1.00  0.00     0.049 A 
ATOM     50  C   UNL A   1      41.211  30.220  34.411  1.00  0.00     0.074 A 
ATOM     51  C   UNL A   1      44.108  26.258  30.384  1.00  0.00     0.029 A 
ATOM     52  N   UNL A   1      42.711  27.702  31.339  1.00  0.00    -0.354 N 
ATOM     53  N   UNL A   1      41.746  29.426  33.514  1.00  0.00    -0.248 NA
ATOM     54  C   UNL A   1      41.839  30.139  35.736  1.00  0.00     0.031 C 
ATOM     55  C   UNL A   1      44.478  26.413  31.726  1.00  0.00     0.029 A 
ATOM     56  C   UNL A   1      43.621  27.329  32.314  1.00  0.00     0.049 A 
ATOM     57  H   UNL A   1      41.972  28.338  31.470  1.00  0.00     0.167 HD
ATOM     58  C   UNL A   1      42.778  28.761  34.160  1.00  0.00     0.074 A 
ATOM     59  C   UNL A   1      42.802  29.251  35.524  1.00  0.00     0.031 C 
ATOM     60  C   UNL A   1      43.627  27.825  33.668  1.00  0.00     0.037 A 
BRANCH  47  61
ATOM     61  C   UNL A   1      42.681  26.440  27.718  1.00  0.00     0.064 A 
ATOM     62  C   UNL A   1      42.146  25.182  27.402  1.00  0.00     0.173 A 
ATOM     63  C   UNL A   1      43.636  26.983  26.847  1.00  0.00     0.173 A 
ATOM     64  F   UNL A   1      41.240  24.612  28.212  1.00  0.00    -0.203 F 
ATOM     65  C   UNL A   1      42.569  24.487  26.272  1.00  0.00     0.198 A 
ATOM     66  C   UNL A   1      44.039  26.297  25.705  1.00  0.00     0.198 A 
ATOM     67  F   UNL A   1      44.178  28.184  27.102  1.00  0.00    -0.203 F 
ATOM     68  F   UNL A   1      42.077  23.268  26.013  1.00  0.00    -0.200 F 
ATOM     69  C   UNL A   1      43.511  25.048  25.421  1.00  0.00     0.200 A 
ATOM     70  F   UNL A   1      44.942  26.845  24.879  1.00  0.00    -0.200 F 
ATOM     71  F   UNL A   1      43.914  24.379  24.332  1.00  0.00    -0.200 F 
ENDBRANCH  47  61
BRANCH  48  72
ATOM     72  C   UNL A   1      39.616  32.029  35.394  1.00  0.00     0.064 A 
ATOM     73  C   UNL A   1      40.106  33.333  35.526  1.00  0.00     0.173 A 
ATOM     74  C   UNL A   1      38.662  31.589  36.324  1.00  0.00     0.173 A 
ATOM     75  F   UNL A   1      41.038  33.787  34.674  1.00  0.00    -0.203 F 
ATOM     76  C   UNL A   1      39.650  34.173  36.539  1.00  0.00     0.198 A 
ATOM     77  C   UNL A   1      38.189  32.436  37.322  1.00  0.00     0.198 A 
ATOM     78  F   UNL A   1      38.165  30.346  36.240  1.00  0.00    -0.203 F 
ATOM     79  F   UNL A   1      40.144  35.413  36.652  1.00  0.00    -0.200 F 
ATOM     80  C   UNL A   1      38.683  33.729  37.429  1.00  0.00     0.200 A 
ATOM     81  F   UNL A   1      37.245  32.008  38.171  1.00  0.00    -0.200 F 
ATOM     82  F   UNL A   1      38.226  34.544  38.388  1.00  0.00    -0.200 F 
ENDBRANCH  48  72
BRANCH  60  83
ATOM     83  C   UNL A   1      44.669  27.283  34.598  1.00  0.00     0.064 A 
ATOM     84  C   UNL A   1      44.458  26.104  35.327  1.00  0.00     0.173 A 
ATOM     85  C   UNL A   1      45.917  27.916  34.714  1.00  0.00     0.173 A 
ATOM     86  F   UNL A   1      43.277  25.471  35.260  1.00  0.00    -0.203 F 
ATOM     87  C   UNL A   1      45.455  25.585  36.150  1.00  0.00     0.198 A 
ATOM     88  C   UNL A   1      46.919  27.381  35.520  1.00  0.00     0.198 A 
ATOM     89  F   UNL A   1      46.169  29.043  34.031  1.00  0.00    -0.203 F 
ATOM     90  F   UNL A   1      45.222  24.474  36.862  1.00  0.00    -0.200 F 
ATOM     91  C   UNL A   1      46.685  26.219  36.239  1.00  0.00     0.200 A 
ATOM     92  F   UNL A   1      48.110  27.989  35.596  1.00  0.00    -0.200 F 
ATOM     93  F   UNL A   1      47.647  25.712  37.023  1.00  0.00    -0.200 F 
ENDBRANCH  60  83
ENDBRANCH  34  35
ENDBRANCH  27  29
ENDBRANCH  26  27
ENDBRANCH  25  26
ENDBRANCH  24  25
ENDBRANCH  23  24
ENDBRANCH  22  23
ENDBRANCH   1  22
TORSDOF 19
ENDMDL
MODEL 3
REMARK VINA RESULT:     -10.9      4.510      9.965
REMARK SMILES Cc1c(Cl)ccc2c(OCC(=O)OCCOCCOCCOC(=O)c3ccc(-c4c5nc(c(-c6c(F)c(F)c(F)c(F)c6F)c6ccc([nH]6)c(-c6c(F)c(F)c(F)c(F)c6F)c6nc(c(-c7c(F)c(F)c(F)c(F)c7F)c7ccc4[nH]7)C=C6)C=C5)cc3)ccnc12
REMARK SMILES IDX 17 1 16 2 15 3 14 4 13 5 11 6 12 7 10 8 9 9 8 10 1 11 2 12
REMARK SMILES IDX 3 13 91 14 4 15 5 16 7 17 90 18 6 19 89 20 88 21 18 22 19 23
REMARK SMILES IDX 20 24 21 25 22 26 23 27 24 28 25 29 26 30 87 31 27 32 86 33
REMARK SMILES IDX 28 34 29 35 30 36 80 37 31 38 85 39 79 40 81 41 32 42 84 43
REMARK SMILES IDX 78 44 77 45 33 47 65 48 45 49 64 50 46 51 49 52 63 53 82 54
REMARK SMILES IDX 47 55 48 56 62 58 83 59 50 60 34 61 35 62 43 63 36 64 37 65
REMARK SMILES IDX 41 66 44 67 38 68 39 69 42 70 40 71 66 72 67 73 75 74 68 75
REMARK SMILES IDX 69 76 73 77 76 78 70 79 71 80 74 81 72 82 51 83 52 84 60 85
REMARK SMILES IDX 53 86 54 87 58 88 61 89 55 90 56 91 59 92 57 93
REMARK H PARENT 81 46 49 57
REMARK Flexibility Score: inf
ROOT
ATOM      1  C   UNL A   1      32.263  20.121  24.577  1.00  0.00     0.188 C 
ENDROOT
BRANCH   1   2
ATOM      2  O   UNL A   1      32.032  21.256  25.402  1.00  0.00    -0.376 OA
BRANCH   2   3
ATOM      3  C   UNL A   1      32.135  22.542  24.801  1.00  0.00     0.202 C 
BRANCH   3   4
ATOM      4  C   UNL A   1      31.766  22.584  23.318  1.00  0.00     0.261 C 
BRANCH   4   5
ATOM      5  O   UNL A   1      32.930  22.517  22.464  1.00  0.00    -0.461 OA
BRANCH   5   6
ATOM      6  C   UNL A   1      33.649  23.660  22.304  1.00  0.00     0.344 C 
ATOM      7  O   UNL A   1      34.775  23.847  22.754  1.00  0.00    -0.248 OA
BRANCH   6   8
ATOM      8  C   UNL A   1      32.873  24.754  21.561  1.00  0.00     0.352 C 
BRANCH   8   9
ATOM      9  O   UNL A   1      32.799  26.059  22.110  1.00  0.00    -0.481 OA
BRANCH   9  10
ATOM     10  C   UNL A   1      31.932  26.353  23.134  1.00  0.00     0.131 A 
ATOM     11  C   UNL A   1      31.560  28.103  27.754  1.00  0.00     0.048 C 
ATOM     12  C   UNL A   1      32.227  28.114  26.399  1.00  0.00    -0.006 A 
ATOM     13  C   UNL A   1      33.425  28.826  26.214  1.00  0.00     0.046 A 
ATOM     14  C   UNL A   1      31.682  27.377  25.333  1.00  0.00     0.078 A 
ATOM     15  Cl  UNL A   1      34.092  29.828  27.457  1.00  0.00    -0.084 Cl
ATOM     16  C   UNL A   1      34.116  28.752  25.012  1.00  0.00     0.022 A 
ATOM     17  C   UNL A   1      32.434  27.216  24.144  1.00  0.00     0.043 A 
ATOM     18  N   UNL A   1      30.455  26.836  25.443  1.00  0.00    -0.256 NA
ATOM     19  C   UNL A   1      33.646  27.920  24.001  1.00  0.00     0.016 A 
ATOM     20  C   UNL A   1      29.946  26.149  24.403  1.00  0.00     0.115 A 
ATOM     21  C   UNL A   1      30.652  25.835  23.261  1.00  0.00     0.067 A 
ENDBRANCH   9  10
ENDBRANCH   8   9
ENDBRANCH   6   8
ENDBRANCH   5   6
ENDBRANCH   4   5
ENDBRANCH   3   4
ENDBRANCH   2   3
ENDBRANCH   1   2
BRANCH   1  22
ATOM     22  C   UNL A   1      33.648  19.450  24.647  1.00  0.00     0.188 C 
BRANCH  22  23
ATOM     23  O   UNL A   1      34.668  20.102  25.394  1.00  0.00    -0.376 OA
BRANCH  23  24
ATOM     24  C   UNL A   1      35.576  20.922  24.668  1.00  0.00     0.202 C 
BRANCH  24  25
ATOM     25  C   UNL A   1      37.043  20.630  24.962  1.00  0.00     0.261 C 
BRANCH  25  26
ATOM     26  O   UNL A   1      37.693  21.809  25.467  1.00  0.00    -0.460 OA
BRANCH  26  27
ATOM     27  C   UNL A   1      38.907  21.577  26.015  1.00  0.00     0.338 C 
ATOM     28  O   UNL A   1      39.498  20.515  26.066  1.00  0.00    -0.246 OA
BRANCH  27  29
ATOM     29  C   UNL A   1      39.424  22.814  26.634  1.00  0.00     0.060 A 
ATOM     30  C   UNL A   1      38.924  24.076  26.297  1.00  0.00     0.016 A 
ATOM     31  C   UNL A   1      40.521  22.701  27.486  1.00  0.00     0.016 A 
ATOM     32  C   UNL A   1      39.574  25.229  26.744  1.00  0.00     0.010 A 
ATOM     33  C   UNL A   1      41.141  23.851  27.970  1.00  0.00     0.010 A 
ATOM     34  C   UNL A   1      40.704  25.123  27.565  1.00  0.00    -0.014 A 
BRANCH  34  35
ATOM     35  C   UNL A   1      41.517  26.309  27.927  1.00  0.00     0.031 A 
ATOM     36  C   UNL A   1      40.897  27.394  28.762  1.00  0.00     0.074 A 
ATOM     37  C   UNL A   1      42.788  26.432  27.509  1.00  0.00     0.049 A 
ATOM     38  N   UNL A   1      41.315  28.613  28.986  1.00  0.00    -0.248 NA
ATOM     39  C   UNL A   1      39.631  27.056  29.432  1.00  0.00     0.031 C 
ATOM     40  C   UNL A   1      43.545  25.412  26.788  1.00  0.00     0.029 A 
ATOM     41  N   UNL A   1      43.664  27.482  27.629  1.00  0.00    -0.354 N 
ATOM     42  C   UNL A   1      40.347  29.199  29.793  1.00  0.00     0.074 A 
ATOM     43  C   UNL A   1      39.320  28.204  30.017  1.00  0.00     0.031 C 
ATOM     44  C   UNL A   1      44.777  25.884  26.532  1.00  0.00     0.029 A 
ATOM     45  C   UNL A   1      44.865  27.265  27.001  1.00  0.00     0.049 A 
ATOM     46  H   UNL A   1      43.451  28.311  28.117  1.00  0.00     0.167 HD
ATOM     47  C   UNL A   1      40.321  30.456  30.295  1.00  0.00     0.037 A 
ATOM     48  C   UNL A   1      45.897  28.102  26.783  1.00  0.00     0.037 A 
ATOM     49  C   UNL A   1      41.353  31.436  30.074  1.00  0.00     0.049 A 
ATOM     50  C   UNL A   1      45.800  29.530  27.245  1.00  0.00     0.074 A 
ATOM     51  C   UNL A   1      41.404  32.751  30.501  1.00  0.00     0.029 A 
ATOM     52  N   UNL A   1      42.524  31.198  29.368  1.00  0.00    -0.354 N 
ATOM     53  N   UNL A   1      44.840  30.117  27.917  1.00  0.00    -0.248 NA
ATOM     54  C   UNL A   1      46.916  30.417  26.892  1.00  0.00     0.031 C 
ATOM     55  C   UNL A   1      42.592  33.319  30.023  1.00  0.00     0.029 A 
ATOM     56  C   UNL A   1      43.300  32.345  29.337  1.00  0.00     0.049 A 
ATOM     57  H   UNL A   1      42.767  30.340  28.950  1.00  0.00     0.167 HD
ATOM     58  C   UNL A   1      45.238  31.437  28.078  1.00  0.00     0.074 A 
ATOM     59  C   UNL A   1      46.533  31.562  27.441  1.00  0.00     0.031 C 
ATOM     60  C   UNL A   1      44.585  32.453  28.695  1.00  0.00     0.037 A 
BRANCH  47  61
ATOM     61  C   UNL A   1      39.118  30.854  31.096  1.00  0.00     0.064 A 
ATOM     62  C   UNL A   1      39.048  30.638  32.480  1.00  0.00     0.173 A 
ATOM     63  C   UNL A   1      38.026  31.477  30.474  1.00  0.00     0.173 A 
ATOM     64  F   UNL A   1      40.060  30.031  33.120  1.00  0.00    -0.203 F 
ATOM     65  C   UNL A   1      37.920  31.009  33.207  1.00  0.00     0.198 A 
ATOM     66  C   UNL A   1      36.909  31.869  31.207  1.00  0.00     0.198 A 
ATOM     67  F   UNL A   1      38.043  31.709  29.152  1.00  0.00    -0.203 F 
ATOM     68  F   UNL A   1      37.856  30.754  34.521  1.00  0.00    -0.200 F 
ATOM     69  C   UNL A   1      36.854  31.630  32.571  1.00  0.00     0.200 A 
ATOM     70  F   UNL A   1      35.886  32.478  30.593  1.00  0.00    -0.200 F 
ATOM     71  F   UNL A   1      35.770  31.990  33.273  1.00  0.00    -0.200 F 
ENDBRANCH  47  61
BRANCH  48  72
ATOM     72  C   UNL A   1      47.098  27.603  26.067  1.00  0.00     0.064 A 
ATOM     73  C   UNL A   1      47.185  27.693  24.672  1.00  0.00     0.173 A 
ATOM     74  C   UNL A   1      48.200  27.081  26.761  1.00  0.00     0.173 A 
ATOM     75  F   UNL A   1      46.145  28.162  23.967  1.00  0.00    -0.203 F 
ATOM     76  C   UNL A   1      48.335  27.292  23.997  1.00  0.00     0.198 A 
ATOM     77  C   UNL A   1      49.358  26.701  26.088  1.00  0.00     0.198 A 
ATOM     78  F   UNL A   1      48.162  26.971  28.097  1.00  0.00    -0.203 F 
ATOM     79  F   UNL A   1      48.390  27.377  22.662  1.00  0.00    -0.200 F 
ATOM     80  C   UNL A   1      49.426  26.808  24.706  1.00  0.00     0.200 A 
ATOM     81  F   UNL A   1      50.414  26.248  26.776  1.00  0.00    -0.200 F 
ATOM     82  F   UNL A   1      50.541  26.446  24.059  1.00  0.00    -0.200 F 
ENDBRANCH  48  72
BRANCH  60  83
ATOM     83  C   UNL A   1      45.268  33.786  28.733  1.00  0.00     0.064 A 
ATOM     84  C   UNL A   1      46.256  34.075  29.685  1.00  0.00     0.173 A 
ATOM     85  C   UNL A   1      44.976  34.762  27.769  1.00  0.00     0.173 A 
ATOM     86  F   UNL A   1      46.561  33.178  30.635  1.00  0.00    -0.203 F 
ATOM     87  C   UNL A   1      46.918  35.300  29.678  1.00  0.00     0.198 A 
ATOM     88  C   UNL A   1      45.655  35.978  27.751  1.00  0.00     0.198 A 
ATOM     89  F   UNL A   1      44.043  34.531  26.834  1.00  0.00    -0.203 F 
ATOM     90  F   UNL A   1      47.837  35.569  30.615  1.00  0.00    -0.200 F 
ATOM     91  C   UNL A   1      46.623  36.247  28.708  1.00  0.00     0.200 A 
ATOM     92  F   UNL A   1      45.377  36.885  26.806  1.00  0.00    -0.200 F 
ATOM     93  F   UNL A   1      47.268  37.421  28.696  1.00  0.00    -0.200 F 
ENDBRANCH  60  83
ENDBRANCH  34  35
ENDBRANCH  27  29
ENDBRANCH  26  27
ENDBRANCH  25  26
ENDBRANCH  24  25
ENDBRANCH  23  24
ENDBRANCH  22  23
ENDBRANCH   1  22
TORSDOF 19
ENDMDL
