MODEL 1
REMARK VINA RESULT:     -10.6      0.000      0.000
REMARK SMILES O=C1NC[C@@H](CSc2ccnc(C(=O)OCCOCCOCCOC(=O)c3ccc(-c4c5nc(c(-c6c(F)c(F)c(F)c(F)c6F)c6ccc([nH]6)c(-c6c(F)c(F)c(F)c(F)c6F)c6nc(c(-c7c(F)c(F)c(F)c(F)c7F)c7ccc4[nH]7)C=C6)C=C5)cc3)c2)O1
REMARK SMILES IDX 19 1 18 2 17 3 16 4 15 5 13 6 14 7 12 8 8 9 9 10 90 11 10 12
REMARK SMILES IDX 11 13 7 14 6 15 5 16 1 17 2 18 3 19 91 20 4 21 20 23 21 24
REMARK SMILES IDX 22 25 23 26 24 27 25 28 26 29 27 30 28 31 89 32 29 33 88 34
REMARK SMILES IDX 30 35 31 36 32 37 82 38 33 39 87 40 81 41 83 42 34 43 86 44
REMARK SMILES IDX 80 45 79 46 35 48 67 49 47 50 66 51 48 52 51 53 65 54 84 55
REMARK SMILES IDX 49 56 50 57 64 59 85 60 52 61 36 62 37 63 45 64 38 65 39 66
REMARK SMILES IDX 43 67 46 68 40 69 41 70 44 71 42 72 68 73 69 74 77 75 70 76
REMARK SMILES IDX 71 77 75 78 78 79 72 80 73 81 76 82 74 83 53 84 54 85 62 86
REMARK SMILES IDX 55 87 56 88 60 89 63 90 57 91 58 92 61 93 59 94
REMARK H PARENT 3 22 83 47 51 58
REMARK Flexibility Score: inf
ROOT
ATOM      1  C   UNL A   1      39.700  21.882  26.444  1.00  0.00     0.188 C 
ENDROOT
BRANCH   1   2
ATOM      2  O   UNL A   1      39.134  20.903  25.591  1.00  0.00    -0.376 OA
BRANCH   2   3
ATOM      3  C   UNL A   1      37.899  21.242  24.978  1.00  0.00     0.202 C 
BRANCH   3   4
ATOM      4  C   UNL A   1      36.731  21.729  25.861  1.00  0.00     0.261 C 
BRANCH   4   5
ATOM      5  O   UNL A   1      35.560  22.205  25.175  1.00  0.00    -0.459 OA
BRANCH   5   6
ATOM      6  C   UNL A   1      34.367  21.951  25.767  1.00  0.00     0.357 C 
ATOM      7  O   UNL A   1      34.048  20.895  26.290  1.00  0.00    -0.244 OA
BRANCH   6   8
ATOM      8  C   UNL A   1      33.574  23.217  25.861  1.00  0.00     0.149 A 
ATOM      9  C   UNL A   1      33.071  25.485  25.269  1.00  0.00     0.011 A 
ATOM     10  C   UNL A   1      31.915  25.360  26.030  1.00  0.00     0.035 A 
ATOM     11  C   UNL A   1      33.920  24.378  25.167  1.00  0.00     0.051 A 
ATOM     12  C   UNL A   1      31.692  24.205  26.751  1.00  0.00     0.113 A 
ATOM     13  N   UNL A   1      32.501  23.137  26.693  1.00  0.00    -0.249 NA
BRANCH   9  14
ATOM     14  S   UNL A   1      33.330  26.933  24.258  1.00  0.00    -0.122 SA
BRANCH  14  15
ATOM     15  C   UNL A   1      32.258  28.241  25.005  1.00  0.00     0.122 C 
BRANCH  15  16
ATOM     16  C   UNL A   1      30.815  28.439  24.504  1.00  0.00     0.208 C 
ATOM     17  O   UNL A   1      30.019  29.972  21.507  1.00  0.00    -0.225 OA
ATOM     18  C   UNL A   1      30.178  29.229  22.465  1.00  0.00     0.407 C 
ATOM     19  N   UNL A   1      29.910  27.893  22.460  1.00  0.00    -0.318 N 
ATOM     20  O   UNL A   1      30.672  29.605  23.675  1.00  0.00    -0.443 OA
ATOM     21  C   UNL A   1      30.229  27.290  23.707  1.00  0.00     0.165 C 
ATOM     22  H   UNL A   1      29.541  27.407  21.688  1.00  0.00     0.167 HD
ENDBRANCH  15  16
ENDBRANCH  14  15
ENDBRANCH   9  14
ENDBRANCH   6   8
ENDBRANCH   5   6
ENDBRANCH   4   5
ENDBRANCH   3   4
ENDBRANCH   2   3
ENDBRANCH   1   2
BRANCH   1  23
ATOM     23  C   UNL A   1      40.594  21.269  27.542  1.00  0.00     0.188 C 
BRANCH  23  24
ATOM     24  O   UNL A   1      42.004  21.415  27.484  1.00  0.00    -0.376 OA
BRANCH  24  25
ATOM     25  C   UNL A   1      42.721  20.829  26.403  1.00  0.00     0.202 C 
BRANCH  25  26
ATOM     26  C   UNL A   1      43.358  21.680  25.281  1.00  0.00     0.261 C 
BRANCH  26  27
ATOM     27  O   UNL A   1      42.743  22.940  24.970  1.00  0.00    -0.460 OA
BRANCH  27  28
ATOM     28  C   UNL A   1      43.555  24.024  25.006  1.00  0.00     0.338 C 
ATOM     29  O   UNL A   1      44.563  24.224  24.352  1.00  0.00    -0.246 OA
BRANCH  28  30
ATOM     30  C   UNL A   1      42.928  25.052  25.862  1.00  0.00     0.060 A 
ATOM     31  C   UNL A   1      43.414  26.369  25.832  1.00  0.00     0.016 A 
ATOM     32  C   UNL A   1      41.889  24.702  26.723  1.00  0.00     0.016 A 
ATOM     33  C   UNL A   1      42.871  27.340  26.673  1.00  0.00     0.010 A 
ATOM     34  C   UNL A   1      41.366  25.667  27.585  1.00  0.00     0.010 A 
ATOM     35  C   UNL A   1      41.873  26.980  27.586  1.00  0.00    -0.014 A 
BRANCH  35  36
ATOM     36  C   UNL A   1      41.494  27.894  28.689  1.00  0.00     0.031 A 
ATOM     37  C   UNL A   1      42.290  27.828  29.962  1.00  0.00     0.074 A 
ATOM     38  C   UNL A   1      40.446  28.729  28.587  1.00  0.00     0.049 A 
ATOM     39  N   UNL A   1      42.054  28.378  31.124  1.00  0.00    -0.248 NA
ATOM     40  C   UNL A   1      43.518  27.017  29.915  1.00  0.00     0.031 C 
ATOM     41  C   UNL A   1      39.635  28.928  27.390  1.00  0.00     0.029 A 
ATOM     42  N   UNL A   1      39.869  29.545  29.529  1.00  0.00    -0.354 N 
ATOM     43  C   UNL A   1      43.086  27.957  31.953  1.00  0.00     0.074 A 
ATOM     44  C   UNL A   1      43.936  27.089  31.169  1.00  0.00     0.031 C 
ATOM     45  C   UNL A   1      38.642  29.790  27.677  1.00  0.00     0.029 A 
ATOM     46  C   UNL A   1      38.723  30.160  29.090  1.00  0.00     0.049 A 
ATOM     47  H   UNL A   1      40.241  29.676  30.431  1.00  0.00     0.167 HD
ATOM     48  C   UNL A   1      43.301  28.267  33.253  1.00  0.00     0.037 A 
ATOM     49  C   UNL A   1      37.823  30.903  29.767  1.00  0.00     0.037 A 
ATOM     50  C   UNL A   1      42.445  29.124  34.028  1.00  0.00     0.049 A 
ATOM     51  C   UNL A   1      38.035  31.161  31.239  1.00  0.00     0.074 A 
ATOM     52  C   UNL A   1      42.578  29.510  35.350  1.00  0.00     0.029 A 
ATOM     53  N   UNL A   1      41.286  29.720  33.552  1.00  0.00    -0.354 N 
ATOM     54  N   UNL A   1      39.014  30.771  32.020  1.00  0.00    -0.248 NA
ATOM     55  C   UNL A   1      37.013  31.967  31.926  1.00  0.00     0.031 C 
ATOM     56  C   UNL A   1      41.467  30.285  35.691  1.00  0.00     0.029 A 
ATOM     57  C   UNL A   1      40.682  30.451  34.561  1.00  0.00     0.049 A 
ATOM     58  H   UNL A   1      40.944  29.636  32.632  1.00  0.00     0.167 HD
ATOM     59  C   UNL A   1      38.751  31.320  33.270  1.00  0.00     0.074 A 
ATOM     60  C   UNL A   1      37.520  32.070  33.146  1.00  0.00     0.031 C 
ATOM     61  C   UNL A   1      39.471  31.219  34.415  1.00  0.00     0.037 A 
BRANCH  48  62
ATOM     62  C   UNL A   1      44.488  27.641  33.928  1.00  0.00     0.064 A 
ATOM     63  C   UNL A   1      44.429  26.358  34.493  1.00  0.00     0.173 A 
ATOM     64  C   UNL A   1      45.710  28.328  33.990  1.00  0.00     0.173 A 
ATOM     65  F   UNL A   1      43.281  25.664  34.476  1.00  0.00    -0.203 F 
ATOM     66  C   UNL A   1      45.539  25.801  35.124  1.00  0.00     0.198 A 
ATOM     67  C   UNL A   1      46.828  27.753  34.589  1.00  0.00     0.198 A 
ATOM     68  F   UNL A   1      45.824  29.557  33.464  1.00  0.00    -0.203 F 
ATOM     69  F   UNL A   1      45.441  24.599  35.709  1.00  0.00    -0.200 F 
ATOM     70  C   UNL A   1      46.738  26.495  35.164  1.00  0.00     0.200 A 
ATOM     71  F   UNL A   1      47.990  28.420  34.612  1.00  0.00    -0.200 F 
ATOM     72  F   UNL A   1      47.807  25.955  35.766  1.00  0.00    -0.200 F 
ENDBRANCH  48  62
BRANCH  49  73
ATOM     73  C   UNL A   1      36.625  31.442  29.069  1.00  0.00     0.064 A 
ATOM     74  C   UNL A   1      36.531  32.804  28.748  1.00  0.00     0.173 A 
ATOM     75  C   UNL A   1      35.539  30.620  28.736  1.00  0.00     0.173 A 
ATOM     76  F   UNL A   1      37.532  33.638  29.071  1.00  0.00    -0.203 F 
ATOM     77  C   UNL A   1      35.389  33.325  28.142  1.00  0.00     0.198 A 
ATOM     78  C   UNL A   1      34.411  31.136  28.101  1.00  0.00     0.198 A 
ATOM     79  F   UNL A   1      35.573  29.311  29.025  1.00  0.00    -0.203 F 
ATOM     80  F   UNL A   1      35.305  34.641  27.900  1.00  0.00    -0.200 F 
ATOM     81  C   UNL A   1      34.334  32.490  27.813  1.00  0.00     0.200 A 
ATOM     82  F   UNL A   1      33.397  30.323  27.774  1.00  0.00    -0.200 F 
ATOM     83  F   UNL A   1      33.236  32.993  27.231  1.00  0.00    -0.200 F 
ENDBRANCH  49  73
BRANCH  61  84
ATOM     84  C   UNL A   1      39.002  31.998  35.613  1.00  0.00     0.064 A 
ATOM     85  C   UNL A   1      38.233  31.416  36.630  1.00  0.00     0.173 A 
ATOM     86  C   UNL A   1      39.396  33.337  35.774  1.00  0.00     0.173 A 
ATOM     87  F   UNL A   1      37.820  30.144  36.522  1.00  0.00    -0.203 F 
ATOM     88  C   UNL A   1      37.860  32.151  37.754  1.00  0.00     0.198 A 
ATOM     89  C   UNL A   1      39.053  34.057  36.914  1.00  0.00     0.198 A 
ATOM     90  F   UNL A   1      40.141  33.940  34.835  1.00  0.00    -0.203 F 
ATOM     91  F   UNL A   1      37.089  31.587  38.695  1.00  0.00    -0.200 F 
ATOM     92  C   UNL A   1      38.279  33.465  37.901  1.00  0.00     0.200 A 
ATOM     93  F   UNL A   1      39.476  35.319  37.061  1.00  0.00    -0.200 F 
ATOM     94  F   UNL A   1      37.935  34.163  38.991  1.00  0.00    -0.200 F 
ENDBRANCH  61  84
ENDBRANCH  35  36
ENDBRANCH  28  30
ENDBRANCH  27  28
ENDBRANCH  26  27
ENDBRANCH  25  26
ENDBRANCH  24  25
ENDBRANCH  23  24
ENDBRANCH   1  23
TORSDOF 20
ENDMDL
MODEL 2
REMARK VINA RESULT:     -10.4      3.283      5.555
REMARK SMILES O=C1NC[C@@H](CSc2ccnc(C(=O)OCCOCCOCCOC(=O)c3ccc(-c4c5nc(c(-c6c(F)c(F)c(F)c(F)c6F)c6ccc([nH]6)c(-c6c(F)c(F)c(F)c(F)c6F)c6nc(c(-c7c(F)c(F)c(F)c(F)c7F)c7ccc4[nH]7)C=C6)C=C5)cc3)c2)O1
REMARK SMILES IDX 19 1 18 2 17 3 16 4 15 5 13 6 14 7 12 8 8 9 9 10 90 11 10 12
REMARK SMILES IDX 11 13 7 14 6 15 5 16 1 17 2 18 3 19 91 20 4 21 20 23 21 24
REMARK SMILES IDX 22 25 23 26 24 27 25 28 26 29 27 30 28 31 89 32 29 33 88 34
REMARK SMILES IDX 30 35 31 36 32 37 82 38 33 39 87 40 81 41 83 42 34 43 86 44
REMARK SMILES IDX 80 45 79 46 35 48 67 49 47 50 66 51 48 52 51 53 65 54 84 55
REMARK SMILES IDX 49 56 50 57 64 59 85 60 52 61 36 62 37 63 45 64 38 65 39 66
REMARK SMILES IDX 43 67 46 68 40 69 41 70 44 71 42 72 68 73 69 74 77 75 70 76
REMARK SMILES IDX 71 77 75 78 78 79 72 80 73 81 76 82 74 83 53 84 54 85 62 86
REMARK SMILES IDX 55 87 56 88 60 89 63 90 57 91 58 92 61 93 59 94
REMARK H PARENT 3 22 83 47 51 58
REMARK Flexibility Score: inf
ROOT
ATOM      1  C   UNL A   1      34.673  24.816  25.216  1.00  0.00     0.188 C 
ENDROOT
BRANCH   1   2
ATOM      2  O   UNL A   1      33.590  25.690  24.952  1.00  0.00    -0.376 OA
BRANCH   2   3
ATOM      3  C   UNL A   1      33.180  26.524  26.025  1.00  0.00     0.202 C 
BRANCH   3   4
ATOM      4  C   UNL A   1      31.673  26.756  26.262  1.00  0.00     0.261 C 
BRANCH   4   5
ATOM      5  O   UNL A   1      30.770  25.848  25.606  1.00  0.00    -0.459 OA
BRANCH   5   6
ATOM      6  C   UNL A   1      30.244  24.861  26.371  1.00  0.00     0.357 C 
ATOM      7  O   UNL A   1      29.133  24.874  26.876  1.00  0.00    -0.244 OA
BRANCH   6   8
ATOM      8  C   UNL A   1      31.148  23.667  26.342  1.00  0.00     0.149 A 
ATOM      9  C   UNL A   1      32.187  21.787  25.282  1.00  0.00     0.011 A 
ATOM     10  C   UNL A   1      32.965  21.652  26.425  1.00  0.00     0.035 A 
ATOM     11  C   UNL A   1      31.261  22.834  25.229  1.00  0.00     0.051 A 
ATOM     12  C   UNL A   1      32.730  22.468  27.512  1.00  0.00     0.113 A 
ATOM     13  N   UNL A   1      31.831  23.463  27.501  1.00  0.00    -0.249 NA
BRANCH   9  14
ATOM     14  S   UNL A   1      32.539  20.804  23.834  1.00  0.00    -0.122 SA
BRANCH  14  15
ATOM     15  C   UNL A   1      33.701  19.488  24.415  1.00  0.00     0.122 C 
BRANCH  15  16
ATOM     16  C   UNL A   1      33.266  18.010  24.403  1.00  0.00     0.208 C 
ATOM     17  O   UNL A   1      35.351  15.390  25.266  1.00  0.00    -0.225 OA
ATOM     18  C   UNL A   1      34.470  16.230  25.154  1.00  0.00     0.407 C 
ATOM     19  N   UNL A   1      33.475  16.432  26.063  1.00  0.00    -0.318 N 
ATOM     20  O   UNL A   1      34.356  17.114  24.128  1.00  0.00    -0.443 OA
ATOM     21  C   UNL A   1      32.622  17.501  25.678  1.00  0.00     0.165 C 
ATOM     22  H   UNL A   1      33.361  15.901  26.885  1.00  0.00     0.167 HD
ENDBRANCH  15  16
ENDBRANCH  14  15
ENDBRANCH   9  14
ENDBRANCH   6   8
ENDBRANCH   5   6
ENDBRANCH   4   5
ENDBRANCH   3   4
ENDBRANCH   2   3
ENDBRANCH   1   2
BRANCH   1  23
ATOM     23  C   UNL A   1      34.987  23.881  24.029  1.00  0.00     0.188 C 
BRANCH  23  24
ATOM     24  O   UNL A   1      35.637  22.639  24.246  1.00  0.00    -0.376 OA
BRANCH  24  25
ATOM     25  C   UNL A   1      36.458  22.475  25.396  1.00  0.00     0.202 C 
BRANCH  25  26
ATOM     26  C   UNL A   1      37.936  22.928  25.424  1.00  0.00     0.261 C 
BRANCH  26  27
ATOM     27  O   UNL A   1      38.744  22.497  26.529  1.00  0.00    -0.460 OA
BRANCH  27  28
ATOM     28  C   UNL A   1      40.032  22.916  26.526  1.00  0.00     0.338 C 
ATOM     29  O   UNL A   1      41.002  22.343  26.064  1.00  0.00    -0.246 OA
BRANCH  28  30
ATOM     30  C   UNL A   1      40.075  24.304  27.029  1.00  0.00     0.060 A 
ATOM     31  C   UNL A   1      40.638  25.313  26.230  1.00  0.00     0.016 A 
ATOM     32  C   UNL A   1      39.599  24.597  28.306  1.00  0.00     0.016 A 
ATOM     33  C   UNL A   1      40.738  26.618  26.710  1.00  0.00     0.010 A 
ATOM     34  C   UNL A   1      39.726  25.898  28.796  1.00  0.00     0.010 A 
ATOM     35  C   UNL A   1      40.321  26.906  28.015  1.00  0.00    -0.014 A 
BRANCH  35  36
ATOM     36  C   UNL A   1      40.688  28.189  28.659  1.00  0.00     0.031 A 
ATOM     37  C   UNL A   1      42.088  28.337  29.186  1.00  0.00     0.074 A 
ATOM     38  C   UNL A   1      39.796  29.182  28.816  1.00  0.00     0.049 A 
ATOM     39  N   UNL A   1      42.601  29.270  29.943  1.00  0.00    -0.248 NA
ATOM     40  C   UNL A   1      43.034  27.273  28.812  1.00  0.00     0.031 C 
ATOM     41  C   UNL A   1      38.431  29.184  28.299  1.00  0.00     0.029 A 
ATOM     42  N   UNL A   1      39.908  30.374  29.490  1.00  0.00    -0.354 N 
ATOM     43  C   UNL A   1      43.920  28.892  30.161  1.00  0.00     0.074 A 
ATOM     44  C   UNL A   1      44.122  27.635  29.474  1.00  0.00     0.031 C 
ATOM     45  C   UNL A   1      37.817  30.312  28.701  1.00  0.00     0.029 A 
ATOM     46  C   UNL A   1      38.733  31.083  29.542  1.00  0.00     0.049 A 
ATOM     47  H   UNL A   1      40.748  30.689  29.895  1.00  0.00     0.167 HD
ATOM     48  C   UNL A   1      44.875  29.538  30.870  1.00  0.00     0.037 A 
ATOM     49  C   UNL A   1      38.425  32.203  30.227  1.00  0.00     0.037 A 
ATOM     50  C   UNL A   1      44.663  30.783  31.557  1.00  0.00     0.049 A 
ATOM     51  C   UNL A   1      39.480  32.858  31.086  1.00  0.00     0.074 A 
ATOM     52  C   UNL A   1      45.566  31.526  32.297  1.00  0.00     0.029 A 
ATOM     53  N   UNL A   1      43.455  31.466  31.596  1.00  0.00    -0.354 N 
ATOM     54  N   UNL A   1      40.728  32.506  31.284  1.00  0.00    -0.248 NA
ATOM     55  C   UNL A   1      39.082  34.070  31.819  1.00  0.00     0.031 C 
ATOM     56  C   UNL A   1      44.888  32.622  32.838  1.00  0.00     0.029 A 
ATOM     57  C   UNL A   1      43.585  32.608  32.369  1.00  0.00     0.049 A 
ATOM     58  H   UNL A   1      42.629  31.180  31.143  1.00  0.00     0.167 HD
ATOM     59  C   UNL A   1      41.274  33.473  32.121  1.00  0.00     0.074 A 
ATOM     60  C   UNL A   1      40.220  34.427  32.395  1.00  0.00     0.031 C 
ATOM     61  C   UNL A   1      42.535  33.567  32.609  1.00  0.00     0.037 A 
BRANCH  48  62
ATOM     62  C   UNL A   1      46.223  28.884  30.973  1.00  0.00     0.064 A 
ATOM     63  C   UNL A   1      46.528  27.967  31.990  1.00  0.00     0.173 A 
ATOM     64  C   UNL A   1      47.219  29.165  30.025  1.00  0.00     0.173 A 
ATOM     65  F   UNL A   1      45.618  27.675  32.932  1.00  0.00    -0.203 F 
ATOM     66  C   UNL A   1      47.789  27.381  32.073  1.00  0.00     0.198 A 
ATOM     67  C   UNL A   1      48.466  28.549  30.089  1.00  0.00     0.198 A 
ATOM     68  F   UNL A   1      46.982  30.033  29.030  1.00  0.00    -0.203 F 
ATOM     69  F   UNL A   1      48.075  26.554  33.088  1.00  0.00    -0.200 F 
ATOM     70  C   UNL A   1      48.753  27.666  31.119  1.00  0.00     0.200 A 
ATOM     71  F   UNL A   1      49.392  28.815  29.156  1.00  0.00    -0.200 F 
ATOM     72  F   UNL A   1      49.964  27.096  31.196  1.00  0.00    -0.200 F 
ENDBRANCH  48  62
BRANCH  49  73
ATOM     73  C   UNL A   1      37.054  32.773  30.148  1.00  0.00     0.064 A 
ATOM     74  C   UNL A   1      36.101  32.498  31.139  1.00  0.00     0.173 A 
ATOM     75  C   UNL A   1      36.655  33.576  29.069  1.00  0.00     0.173 A 
ATOM     76  F   UNL A   1      36.424  31.711  32.177  1.00  0.00    -0.203 F 
ATOM     77  C   UNL A   1      34.799  32.985  31.043  1.00  0.00     0.198 A 
ATOM     78  C   UNL A   1      35.362  34.090  28.991  1.00  0.00     0.198 A 
ATOM     79  F   UNL A   1      37.525  33.866  28.090  1.00  0.00    -0.203 F 
ATOM     80  F   UNL A   1      33.894  32.658  31.977  1.00  0.00    -0.200 F 
ATOM     81  C   UNL A   1      34.433  33.786  29.973  1.00  0.00     0.200 A 
ATOM     82  F   UNL A   1      35.016  34.873  27.960  1.00  0.00    -0.200 F 
ATOM     83  F   UNL A   1      33.180  34.253  29.881  1.00  0.00    -0.200 F 
ENDBRANCH  49  73
BRANCH  61  84
ATOM     84  C   UNL A   1      42.886  34.779  33.427  1.00  0.00     0.064 A 
ATOM     85  C   UNL A   1      43.271  35.992  32.840  1.00  0.00     0.173 A 
ATOM     86  C   UNL A   1      42.761  34.739  34.826  1.00  0.00     0.173 A 
ATOM     87  F   UNL A   1      43.416  36.083  31.509  1.00  0.00    -0.203 F 
ATOM     88  C   UNL A   1      43.537  37.114  33.624  1.00  0.00     0.198 A 
ATOM     89  C   UNL A   1      42.992  35.870  35.603  1.00  0.00     0.198 A 
ATOM     90  F   UNL A   1      42.386  33.606  35.439  1.00  0.00    -0.203 F 
ATOM     91  F   UNL A   1      43.945  38.252  33.044  1.00  0.00    -0.200 F 
ATOM     92  C   UNL A   1      43.386  37.055  35.001  1.00  0.00     0.200 A 
ATOM     93  F   UNL A   1      42.826  35.815  36.931  1.00  0.00    -0.200 F 
ATOM     94  F   UNL A   1      43.624  38.140  35.750  1.00  0.00    -0.200 F 
ENDBRANCH  61  84
ENDBRANCH  35  36
ENDBRANCH  28  30
ENDBRANCH  27  28
ENDBRANCH  26  27
ENDBRANCH  25  26
ENDBRANCH  24  25
ENDBRANCH  23  24
ENDBRANCH   1  23
TORSDOF 20
ENDMDL
MODEL 3
REMARK VINA RESULT:     -10.3      1.603      7.576
REMARK SMILES O=C1NC[C@@H](CSc2ccnc(C(=O)OCCOCCOCCOC(=O)c3ccc(-c4c5nc(c(-c6c(F)c(F)c(F)c(F)c6F)c6ccc([nH]6)c(-c6c(F)c(F)c(F)c(F)c6F)c6nc(c(-c7c(F)c(F)c(F)c(F)c7F)c7ccc4[nH]7)C=C6)C=C5)cc3)c2)O1
REMARK SMILES IDX 19 1 18 2 17 3 16 4 15 5 13 6 14 7 12 8 8 9 9 10 90 11 10 12
REMARK SMILES IDX 11 13 7 14 6 15 5 16 1 17 2 18 3 19 91 20 4 21 20 23 21 24
REMARK SMILES IDX 22 25 23 26 24 27 25 28 26 29 27 30 28 31 89 32 29 33 88 34
REMARK SMILES IDX 30 35 31 36 32 37 82 38 33 39 87 40 81 41 83 42 34 43 86 44
REMARK SMILES IDX 80 45 79 46 35 48 67 49 47 50 66 51 48 52 51 53 65 54 84 55
REMARK SMILES IDX 49 56 50 57 64 59 85 60 52 61 36 62 37 63 45 64 38 65 39 66
REMARK SMILES IDX 43 67 46 68 40 69 41 70 44 71 42 72 68 73 69 74 77 75 70 76
REMARK SMILES IDX 71 77 75 78 78 79 72 80 73 81 76 82 74 83 53 84 54 85 62 86
REMARK SMILES IDX 55 87 56 88 60 89 63 90 57 91 58 92 61 93 59 94
REMARK H PARENT 3 22 83 47 51 58
REMARK Flexibility Score: inf
ROOT
ATOM      1  C   UNL A   1      40.844  20.189  26.279  1.00  0.00     0.188 C 
ENDROOT
BRANCH   1   2
ATOM      2  O   UNL A   1      40.610  21.584  26.210  1.00  0.00    -0.376 OA
BRANCH   2   3
ATOM      3  C   UNL A   1      39.283  22.013  26.470  1.00  0.00     0.202 C 
BRANCH   3   4
ATOM      4  C   UNL A   1      38.222  21.892  25.357  1.00  0.00     0.261 C 
BRANCH   4   5
ATOM      5  O   UNL A   1      36.882  21.578  25.774  1.00  0.00    -0.459 OA
BRANCH   5   6
ATOM      6  C   UNL A   1      36.249  20.595  25.088  1.00  0.00     0.357 C 
ATOM      7  O   UNL A   1      36.628  19.439  24.999  1.00  0.00    -0.244 OA
BRANCH   6   8
ATOM      8  C   UNL A   1      34.915  21.089  24.621  1.00  0.00     0.149 A 
ATOM      9  C   UNL A   1      33.460  22.680  23.575  1.00  0.00     0.011 A 
ATOM     10  C   UNL A   1      32.449  21.734  23.686  1.00  0.00     0.035 A 
ATOM     11  C   UNL A   1      34.736  22.345  24.041  1.00  0.00     0.051 A 
ATOM     12  C   UNL A   1      32.691  20.548  24.348  1.00  0.00     0.113 A 
ATOM     13  N   UNL A   1      33.897  20.210  24.829  1.00  0.00    -0.249 NA
BRANCH   9  14
ATOM     14  S   UNL A   1      33.192  24.177  22.641  1.00  0.00    -0.122 SA
BRANCH  14  15
ATOM     15  C   UNL A   1      32.608  25.420  23.879  1.00  0.00     0.122 C 
BRANCH  15  16
ATOM     16  C   UNL A   1      31.155  25.381  24.389  1.00  0.00     0.208 C 
ATOM     17  O   UNL A   1      30.168  23.696  27.244  1.00  0.00    -0.225 OA
ATOM     18  C   UNL A   1      30.425  24.497  26.358  1.00  0.00     0.407 C 
ATOM     19  N   UNL A   1      30.352  25.851  26.493  1.00  0.00    -0.318 N 
ATOM     20  O   UNL A   1      30.852  24.173  25.107  1.00  0.00    -0.443 OA
ATOM     21  C   UNL A   1      30.745  26.520  25.303  1.00  0.00     0.165 C 
ATOM     22  H   UNL A   1      30.062  26.309  27.315  1.00  0.00     0.167 HD
ENDBRANCH  15  16
ENDBRANCH  14  15
ENDBRANCH   9  14
ENDBRANCH   6   8
ENDBRANCH   5   6
ENDBRANCH   4   5
ENDBRANCH   3   4
ENDBRANCH   2   3
ENDBRANCH   1   2
BRANCH   1  23
ATOM     23  C   UNL A   1      42.341  19.830  26.175  1.00  0.00     0.188 C 
BRANCH  23  24
ATOM     24  O   UNL A   1      43.123  20.320  25.098  1.00  0.00    -0.376 OA
BRANCH  24  25
ATOM     25  C   UNL A   1      44.033  21.389  25.328  1.00  0.00     0.202 C 
BRANCH  25  26
ATOM     26  C   UNL A   1      44.164  22.584  24.355  1.00  0.00     0.261 C 
BRANCH  26  27
ATOM     27  O   UNL A   1      43.464  23.792  24.687  1.00  0.00    -0.460 OA
BRANCH  27  28
ATOM     28  C   UNL A   1      44.230  24.832  25.095  1.00  0.00     0.338 C 
ATOM     29  O   UNL A   1      45.288  25.209  24.626  1.00  0.00    -0.246 OA
BRANCH  28  30
ATOM     30  C   UNL A   1      43.488  25.585  26.127  1.00  0.00     0.060 A 
ATOM     31  C   UNL A   1      43.870  26.902  26.432  1.00  0.00     0.016 A 
ATOM     32  C   UNL A   1      42.444  24.974  26.820  1.00  0.00     0.016 A 
ATOM     33  C   UNL A   1      43.216  27.609  27.440  1.00  0.00     0.010 A 
ATOM     34  C   UNL A   1      41.810  25.672  27.849  1.00  0.00     0.010 A 
ATOM     35  C   UNL A   1      42.212  26.980  28.184  1.00  0.00    -0.014 A 
BRANCH  35  36
ATOM     36  C   UNL A   1      41.715  27.580  29.444  1.00  0.00     0.031 A 
ATOM     37  C   UNL A   1      40.465  28.412  29.382  1.00  0.00     0.074 A 
ATOM     38  C   UNL A   1      42.374  27.432  30.606  1.00  0.00     0.049 A 
ATOM     39  N   UNL A   1      39.931  29.187  30.289  1.00  0.00    -0.248 NA
ATOM     40  C   UNL A   1      39.723  28.369  28.111  1.00  0.00     0.031 C 
ATOM     41  C   UNL A   1      43.560  26.605  30.808  1.00  0.00     0.029 A 
ATOM     42  N   UNL A   1      42.147  28.008  31.832  1.00  0.00    -0.354 N 
ATOM     43  C   UNL A   1      38.809  29.746  29.690  1.00  0.00     0.074 A 
ATOM     44  C   UNL A   1      38.751  29.239  28.337  1.00  0.00     0.031 C 
ATOM     45  C   UNL A   1      43.977  26.749  32.079  1.00  0.00     0.029 A 
ATOM     46  C   UNL A   1      43.115  27.716  32.760  1.00  0.00     0.049 A 
ATOM     47  H   UNL A   1      41.365  28.574  32.026  1.00  0.00     0.167 HD
ATOM     48  C   UNL A   1      37.910  30.605  30.224  1.00  0.00     0.037 A 
ATOM     49  C   UNL A   1      43.304  28.208  34.002  1.00  0.00     0.037 A 
ATOM     50  C   UNL A   1      37.981  31.111  31.568  1.00  0.00     0.049 A 
ATOM     51  C   UNL A   1      42.340  29.235  34.545  1.00  0.00     0.074 A 
ATOM     52  C   UNL A   1      37.115  31.979  32.210  1.00  0.00     0.029 A 
ATOM     53  N   UNL A   1      38.984  30.801  32.476  1.00  0.00    -0.354 N 
ATOM     54  N   UNL A   1      41.275  29.756  33.983  1.00  0.00    -0.248 NA
ATOM     55  C   UNL A   1      42.605  29.744  35.899  1.00  0.00     0.031 C 
ATOM     56  C   UNL A   1      37.630  32.245  33.482  1.00  0.00     0.029 A 
ATOM     57  C   UNL A   1      38.771  31.480  33.663  1.00  0.00     0.049 A 
ATOM     58  H   UNL A   1      39.735  30.189  32.300  1.00  0.00     0.167 HD
ATOM     59  C   UNL A   1      40.721  30.612  34.927  1.00  0.00     0.074 A 
ATOM     60  C   UNL A   1      41.567  30.543  36.099  1.00  0.00     0.031 C 
ATOM     61  C   UNL A   1      39.606  31.379  34.835  1.00  0.00     0.037 A 
BRANCH  48  62
ATOM     62  C   UNL A   1      36.797  31.084  29.336  1.00  0.00     0.064 A 
ATOM     63  C   UNL A   1      36.768  32.388  28.820  1.00  0.00     0.173 A 
ATOM     64  C   UNL A   1      35.754  30.215  28.978  1.00  0.00     0.173 A 
ATOM     65  F   UNL A   1      37.732  33.265  29.143  1.00  0.00    -0.203 F 
ATOM     66  C   UNL A   1      35.720  32.815  28.008  1.00  0.00     0.198 A 
ATOM     67  C   UNL A   1      34.728  30.634  28.136  1.00  0.00     0.198 A 
ATOM     68  F   UNL A   1      35.733  28.957  29.441  1.00  0.00    -0.203 F 
ATOM     69  F   UNL A   1      35.683  34.084  27.577  1.00  0.00    -0.200 F 
ATOM     70  C   UNL A   1      34.707  31.936  27.660  1.00  0.00     0.200 A 
ATOM     71  F   UNL A   1      33.757  29.777  27.789  1.00  0.00    -0.200 F 
ATOM     72  F   UNL A   1      33.703  32.345  26.873  1.00  0.00    -0.200 F 
ENDBRANCH  48  62
BRANCH  49  73
ATOM     73  C   UNL A   1      44.463  27.753  34.816  1.00  0.00     0.064 A 
ATOM     74  C   UNL A   1      45.698  28.413  34.742  1.00  0.00     0.173 A 
ATOM     75  C   UNL A   1      44.373  26.636  35.658  1.00  0.00     0.173 A 
ATOM     76  F   UNL A   1      45.844  29.471  33.930  1.00  0.00    -0.203 F 
ATOM     77  C   UNL A   1      46.802  27.960  35.462  1.00  0.00     0.198 A 
ATOM     78  C   UNL A   1      45.469  26.203  36.403  1.00  0.00     0.198 A 
ATOM     79  F   UNL A   1      43.217  25.963  35.762  1.00  0.00    -0.203 F 
ATOM     80  F   UNL A   1      47.984  28.577  35.328  1.00  0.00    -0.200 F 
ATOM     81  C   UNL A   1      46.684  26.860  36.296  1.00  0.00     0.200 A 
ATOM     82  F   UNL A   1      45.347  25.145  37.216  1.00  0.00    -0.200 F 
ATOM     83  F   UNL A   1      47.747  26.424  36.988  1.00  0.00    -0.200 F 
ENDBRANCH  49  73
BRANCH  61  84
ATOM     84  C   UNL A   1      39.177  32.149  36.053  1.00  0.00     0.064 A 
ATOM     85  C   UNL A   1      39.618  33.454  36.307  1.00  0.00     0.173 A 
ATOM     86  C   UNL A   1      38.248  31.586  36.944  1.00  0.00     0.173 A 
ATOM     87  F   UNL A   1      40.514  34.035  35.495  1.00  0.00    -0.203 F 
ATOM     88  C   UNL A   1      39.160  34.161  37.418  1.00  0.00     0.198 A 
ATOM     89  C   UNL A   1      37.764  32.307  38.031  1.00  0.00     0.198 A 
ATOM     90  F   UNL A   1      37.785  30.343  36.742  1.00  0.00    -0.203 F 
ATOM     91  F   UNL A   1      39.627  35.393  37.665  1.00  0.00    -0.200 F 
ATOM     92  C   UNL A   1      38.226  33.592  38.271  1.00  0.00     0.200 A 
ATOM     93  F   UNL A   1      36.848  31.762  38.842  1.00  0.00    -0.200 F 
ATOM     94  F   UNL A   1      37.773  34.281  39.328  1.00  0.00    -0.200 F 
ENDBRANCH  61  84
ENDBRANCH  35  36
ENDBRANCH  28  30
ENDBRANCH  27  28
ENDBRANCH  26  27
ENDBRANCH  25  26
ENDBRANCH  24  25
ENDBRANCH  23  24
ENDBRANCH   1  23
TORSDOF 20
ENDMDL
