MODEL 1
REMARK VINA RESULT:      -9.9      0.000      0.000
REMARK SMILES COc1cc(-c2cccc(C(N)=O)c2)ccc1C(=O)OCCOCCOCCOC(=O)c1ccc(-c2c3nc(c(-c4c(F)c(F)c(F)c(F)c4F)c4ccc([nH]4)c(-c4c(F)c(F)c(F)c(F)c4F)c4nc(c(-c5c(F)c(F)c(F)c(F)c5F)c5ccc2[nH]5)C=C4)C=C3)cc1
REMARK SMILES IDX 24 1 23 2 22 3 21 4 20 5 18 6 19 7 17 8 3 9 4 10 5 11 16 12
REMARK SMILES IDX 15 13 2 14 1 15 6 16 7 17 14 18 8 19 10 20 9 21 11 22 12 23
REMARK SMILES IDX 13 24 25 27 26 28 27 29 28 30 29 31 30 32 31 33 32 34 33 35
REMARK SMILES IDX 94 36 34 37 93 38 35 39 36 40 37 41 87 42 38 43 92 44 86 45
REMARK SMILES IDX 88 46 39 47 91 48 85 49 84 50 40 52 72 53 52 54 71 55 53 56
REMARK SMILES IDX 56 57 70 58 89 59 54 60 55 61 69 63 90 64 57 65 41 66 42 67
REMARK SMILES IDX 50 68 43 69 44 70 48 71 51 72 45 73 46 74 49 75 47 76 73 77
REMARK SMILES IDX 74 78 82 79 75 80 76 81 80 82 83 83 77 84 78 85 81 86 79 87
REMARK SMILES IDX 58 88 59 89 67 90 60 91 61 92 65 93 68 94 62 95 63 96 66 97
REMARK SMILES IDX 64 98
REMARK H PARENT 12 25 12 26 88 51 56 62
REMARK Flexibility Score: inf
ROOT
ATOM      1  C   UNL A   1      47.448  20.917  36.471  1.00  0.00     0.188 C 
ENDROOT
BRANCH   1   2
ATOM      2  O   UNL A   1      47.751  21.105  37.851  1.00  0.00    -0.376 OA
BRANCH   2   3
ATOM      3  C   UNL A   1      46.873  21.900  38.643  1.00  0.00     0.202 C 
BRANCH   3   4
ATOM      4  C   UNL A   1      46.101  21.185  39.757  1.00  0.00     0.261 C 
BRANCH   4   5
ATOM      5  O   UNL A   1      46.425  19.787  39.837  1.00  0.00    -0.460 OA
BRANCH   5   6
ATOM      6  C   UNL A   1      46.918  19.363  41.027  1.00  0.00     0.342 C 
ATOM      7  O   UNL A   1      47.888  19.809  41.607  1.00  0.00    -0.246 OA
BRANCH   6   8
ATOM      8  C   UNL A   1      46.018  18.366  41.656  1.00  0.00     0.102 A 
ATOM      9  C   UNL A   1      44.736  18.623  42.153  1.00  0.00     0.134 A 
ATOM     10  C   UNL A   1      43.977  17.569  42.690  1.00  0.00     0.056 A 
ATOM     11  C   UNL A   1      44.471  16.253  42.735  1.00  0.00    -0.015 A 
ATOM     12  C   UNL A   1      46.538  17.062  41.749  1.00  0.00     0.020 A 
ATOM     13  C   UNL A   1      45.778  16.022  42.292  1.00  0.00     0.010 A 
BRANCH   9  14
ATOM     14  O   UNL A   1      44.159  19.860  42.257  1.00  0.00    -0.496 OA
ATOM     15  C   UNL A   1      44.359  20.490  43.519  1.00  0.00     0.278 C 
ENDBRANCH   9  14
BRANCH  11  16
ATOM     16  C   UNL A   1      43.614  15.132  43.140  1.00  0.00    -0.017 A 
ATOM     17  C   UNL A   1      43.610  14.718  44.481  1.00  0.00     0.009 A 
ATOM     18  C   UNL A   1      42.756  14.480  42.240  1.00  0.00     0.022 A 
ATOM     19  C   UNL A   1      42.776  13.688  44.915  1.00  0.00     0.001 A 
ATOM     20  C   UNL A   1      41.915  13.433  42.666  1.00  0.00     0.040 A 
ATOM     21  C   UNL A   1      41.928  13.047  44.011  1.00  0.00     0.014 A 
BRANCH  20  22
ATOM     22  C   UNL A   1      41.031  12.788  41.650  1.00  0.00     0.248 C 
ATOM     23  N   UNL A   1      40.859  13.404  40.440  1.00  0.00    -0.366 N 
ATOM     24  O   UNL A   1      40.459  11.730  41.883  1.00  0.00    -0.270 OA
ATOM     25  H   UNL A   1      41.318  14.254  40.252  1.00  0.00     0.159 HD
ATOM     26  H   UNL A   1      40.277  12.997  39.759  1.00  0.00     0.159 HD
ENDBRANCH  20  22
ENDBRANCH  11  16
ENDBRANCH   6   8
ENDBRANCH   5   6
ENDBRANCH   4   5
ENDBRANCH   3   4
ENDBRANCH   2   3
ENDBRANCH   1   2
BRANCH   1  27
ATOM     27  C   UNL A   1      46.969  22.118  35.627  1.00  0.00     0.188 C 
BRANCH  27  28
ATOM     28  O   UNL A   1      48.019  22.822  34.985  1.00  0.00    -0.376 OA
BRANCH  28  29
ATOM     29  C   UNL A   1      48.658  23.823  35.762  1.00  0.00     0.202 C 
BRANCH  29  30
ATOM     30  C   UNL A   1      48.775  25.190  35.078  1.00  0.00     0.261 C 
BRANCH  30  31
ATOM     31  O   UNL A   1      48.638  26.329  35.944  1.00  0.00    -0.460 OA
BRANCH  31  32
ATOM     32  C   UNL A   1      47.519  26.402  36.699  1.00  0.00     0.338 C 
ATOM     33  O   UNL A   1      47.438  26.285  37.907  1.00  0.00    -0.246 OA
BRANCH  32  34
ATOM     34  C   UNL A   1      46.410  26.824  35.815  1.00  0.00     0.060 A 
ATOM     35  C   UNL A   1      46.516  28.032  35.113  1.00  0.00     0.016 A 
ATOM     36  C   UNL A   1      45.276  26.021  35.668  1.00  0.00     0.016 A 
ATOM     37  C   UNL A   1      45.473  28.453  34.284  1.00  0.00     0.010 A 
ATOM     38  C   UNL A   1      44.225  26.452  34.855  1.00  0.00     0.010 A 
ATOM     39  C   UNL A   1      44.305  27.684  34.182  1.00  0.00    -0.014 A 
BRANCH  39  40
ATOM     40  C   UNL A   1      43.084  28.250  33.556  1.00  0.00     0.031 A 
ATOM     41  C   UNL A   1      42.817  27.926  32.111  1.00  0.00     0.074 A 
ATOM     42  C   UNL A   1      42.242  29.050  34.233  1.00  0.00     0.049 A 
ATOM     43  N   UNL A   1      41.879  28.371  31.314  1.00  0.00    -0.248 NA
ATOM     44  C   UNL A   1      43.744  26.975  31.479  1.00  0.00     0.031 C 
ATOM     45  C   UNL A   1      42.368  29.415  35.641  1.00  0.00     0.029 A 
ATOM     46  N   UNL A   1      41.115  29.714  33.811  1.00  0.00    -0.354 N 
ATOM     47  C   UNL A   1      42.106  27.757  30.090  1.00  0.00     0.074 A 
ATOM     48  C   UNL A   1      43.286  26.933  30.238  1.00  0.00     0.031 C 
ATOM     49  C   UNL A   1      41.369  30.256  35.963  1.00  0.00     0.029 A 
ATOM     50  C   UNL A   1      40.553  30.512  34.776  1.00  0.00     0.049 A 
ATOM     51  H   UNL A   1      40.747  29.626  32.903  1.00  0.00     0.167 HD
ATOM     52  C   UNL A   1      41.393  27.866  28.945  1.00  0.00     0.037 A 
ATOM     53  C   UNL A   1      39.514  31.368  34.699  1.00  0.00     0.037 A 
ATOM     54  C   UNL A   1      40.227  28.692  28.792  1.00  0.00     0.049 A 
ATOM     55  C   UNL A   1      38.776  31.526  33.392  1.00  0.00     0.074 A 
ATOM     56  C   UNL A   1      39.432  28.866  27.672  1.00  0.00     0.029 A 
ATOM     57  N   UNL A   1      39.691  29.490  29.791  1.00  0.00    -0.354 N 
ATOM     58  N   UNL A   1      38.979  30.926  32.245  1.00  0.00    -0.248 NA
ATOM     59  C   UNL A   1      37.658  32.484  33.370  1.00  0.00     0.031 C 
ATOM     60  C   UNL A   1      38.443  29.805  27.981  1.00  0.00     0.029 A 
ATOM     61  C   UNL A   1      38.589  30.175  29.308  1.00  0.00     0.049 A 
ATOM     62  H   UNL A   1      40.044  29.561  30.708  1.00  0.00     0.167 HD
ATOM     63  C   UNL A   1      38.001  31.402  31.380  1.00  0.00     0.074 A 
ATOM     64  C   UNL A   1      37.198  32.340  32.136  1.00  0.00     0.031 C 
ATOM     65  C   UNL A   1      37.786  31.089  30.080  1.00  0.00     0.037 A 
BRANCH  52  66
ATOM     66  C   UNL A   1      41.877  27.088  27.757  1.00  0.00     0.064 A 
ATOM     67  C   UNL A   1      41.407  25.795  27.484  1.00  0.00     0.173 A 
ATOM     68  C   UNL A   1      42.806  27.652  26.870  1.00  0.00     0.173 A 
ATOM     69  F   UNL A   1      40.531  25.207  28.312  1.00  0.00    -0.203 F 
ATOM     70  C   UNL A   1      41.872  25.083  26.381  1.00  0.00     0.198 A 
ATOM     71  C   UNL A   1      43.246  26.949  25.753  1.00  0.00     0.198 A 
ATOM     72  F   UNL A   1      43.284  28.887  27.085  1.00  0.00    -0.203 F 
ATOM     73  F   UNL A   1      41.445  23.831  26.166  1.00  0.00    -0.200 F 
ATOM     74  C   UNL A   1      42.784  25.663  25.513  1.00  0.00     0.200 A 
ATOM     75  F   UNL A   1      44.121  27.514  24.908  1.00  0.00    -0.200 F 
ATOM     76  F   UNL A   1      43.225  24.980  24.448  1.00  0.00    -0.200 F 
ENDBRANCH  52  66
BRANCH  53  77
ATOM     77  C   UNL A   1      39.112  32.163  35.889  1.00  0.00     0.064 A 
ATOM     78  C   UNL A   1      39.601  33.461  36.093  1.00  0.00     0.173 A 
ATOM     79  C   UNL A   1      38.257  31.630  36.866  1.00  0.00     0.173 A 
ATOM     80  F   UNL A   1      40.447  34.004  35.205  1.00  0.00    -0.203 F 
ATOM     81  C   UNL A   1      39.267  34.187  37.235  1.00  0.00     0.198 A 
ATOM     82  C   UNL A   1      37.901  32.367  37.993  1.00  0.00     0.198 A 
ATOM     83  F   UNL A   1      37.767  30.389  36.723  1.00  0.00    -0.203 F 
ATOM     84  F   UNL A   1      39.792  35.405  37.429  1.00  0.00    -0.200 F 
ATOM     85  C   UNL A   1      38.414  33.642  38.182  1.00  0.00     0.200 A 
ATOM     86  F   UNL A   1      37.072  31.839  38.903  1.00  0.00    -0.200 F 
ATOM     87  F   UNL A   1      38.095  34.338  39.281  1.00  0.00    -0.200 F 
ENDBRANCH  53  77
BRANCH  65  88
ATOM     88  C   UNL A   1      36.606  31.717  29.396  1.00  0.00     0.064 A 
ATOM     89  C   UNL A   1      36.585  33.077  29.058  1.00  0.00     0.173 A 
ATOM     90  C   UNL A   1      35.507  30.928  29.019  1.00  0.00     0.173 A 
ATOM     91  F   UNL A   1      37.605  33.876  29.406  1.00  0.00    -0.203 F 
ATOM     92  C   UNL A   1      35.499  33.629  28.382  1.00  0.00     0.198 A 
ATOM     93  C   UNL A   1      34.436  31.478  28.319  1.00  0.00     0.198 A 
ATOM     94  F   UNL A   1      35.481  29.620  29.312  1.00  0.00    -0.203 F 
ATOM     95  F   UNL A   1      35.482  34.939  28.101  1.00  0.00    -0.200 F 
ATOM     96  C   UNL A   1      34.430  32.828  28.006  1.00  0.00     0.200 A 
ATOM     97  F   UNL A   1      33.412  30.699  27.944  1.00  0.00    -0.200 F 
ATOM     98  F   UNL A   1      33.392  33.359  27.345  1.00  0.00    -0.200 F 
ENDBRANCH  65  88
ENDBRANCH  39  40
ENDBRANCH  32  34
ENDBRANCH  31  32
ENDBRANCH  30  31
ENDBRANCH  29  30
ENDBRANCH  28  29
ENDBRANCH  27  28
ENDBRANCH   1  27
TORSDOF 20
ENDMDL
MODEL 2
REMARK VINA RESULT:      -9.9      7.421     11.773
REMARK SMILES COc1cc(-c2cccc(C(N)=O)c2)ccc1C(=O)OCCOCCOCCOC(=O)c1ccc(-c2c3nc(c(-c4c(F)c(F)c(F)c(F)c4F)c4ccc([nH]4)c(-c4c(F)c(F)c(F)c(F)c4F)c4nc(c(-c5c(F)c(F)c(F)c(F)c5F)c5ccc2[nH]5)C=C4)C=C3)cc1
REMARK SMILES IDX 24 1 23 2 22 3 21 4 20 5 18 6 19 7 17 8 3 9 4 10 5 11 16 12
REMARK SMILES IDX 15 13 2 14 1 15 6 16 7 17 14 18 8 19 10 20 9 21 11 22 12 23
REMARK SMILES IDX 13 24 25 27 26 28 27 29 28 30 29 31 30 32 31 33 32 34 33 35
REMARK SMILES IDX 94 36 34 37 93 38 35 39 36 40 37 41 87 42 38 43 92 44 86 45
REMARK SMILES IDX 88 46 39 47 91 48 85 49 84 50 40 52 72 53 52 54 71 55 53 56
REMARK SMILES IDX 56 57 70 58 89 59 54 60 55 61 69 63 90 64 57 65 41 66 42 67
REMARK SMILES IDX 50 68 43 69 44 70 48 71 51 72 45 73 46 74 49 75 47 76 73 77
REMARK SMILES IDX 74 78 82 79 75 80 76 81 80 82 83 83 77 84 78 85 81 86 79 87
REMARK SMILES IDX 58 88 59 89 67 90 60 91 61 92 65 93 68 94 62 95 63 96 66 97
REMARK SMILES IDX 64 98
REMARK H PARENT 12 25 12 26 88 51 56 62
REMARK Flexibility Score: inf
ROOT
ATOM      1  C   UNL A   1      49.659  25.270  26.904  1.00  0.00     0.188 C 
ENDROOT
BRANCH   1   2
ATOM      2  O   UNL A   1      48.502  25.500  27.702  1.00  0.00    -0.376 OA
BRANCH   2   3
ATOM      3  C   UNL A   1      47.249  25.700  27.052  1.00  0.00     0.202 C 
BRANCH   3   4
ATOM      4  C   UNL A   1      46.550  27.043  27.287  1.00  0.00     0.261 C 
BRANCH   4   5
ATOM      5  O   UNL A   1      45.124  26.951  27.129  1.00  0.00    -0.460 OA
BRANCH   5   6
ATOM      6  C   UNL A   1      44.554  27.905  26.353  1.00  0.00     0.342 C 
ATOM      7  O   UNL A   1      45.044  28.425  25.370  1.00  0.00    -0.246 OA
BRANCH   6   8
ATOM      8  C   UNL A   1      43.142  28.142  26.744  1.00  0.00     0.102 A 
ATOM      9  C   UNL A   1      42.024  27.527  26.172  1.00  0.00     0.134 A 
ATOM     10  C   UNL A   1      40.742  27.819  26.671  1.00  0.00     0.056 A 
ATOM     11  C   UNL A   1      40.554  28.713  27.741  1.00  0.00    -0.015 A 
ATOM     12  C   UNL A   1      42.954  29.077  27.777  1.00  0.00     0.020 A 
ATOM     13  C   UNL A   1      41.675  29.367  28.262  1.00  0.00     0.010 A 
BRANCH   9  14
ATOM     14  O   UNL A   1      42.042  26.709  25.075  1.00  0.00    -0.496 OA
ATOM     15  C   UNL A   1      42.278  25.337  25.376  1.00  0.00     0.278 C 
ENDBRANCH   9  14
BRANCH  11  16
ATOM     16  C   UNL A   1      39.236  28.884  28.365  1.00  0.00    -0.017 A 
ATOM     17  C   UNL A   1      39.019  28.393  29.662  1.00  0.00     0.009 A 
ATOM     18  C   UNL A   1      38.186  29.565  27.728  1.00  0.00     0.022 A 
ATOM     19  C   UNL A   1      37.796  28.576  30.307  1.00  0.00     0.001 A 
ATOM     20  C   UNL A   1      36.945  29.748  28.367  1.00  0.00     0.040 A 
ATOM     21  C   UNL A   1      36.761  29.253  29.663  1.00  0.00     0.014 A 
BRANCH  20  22
ATOM     22  C   UNL A   1      35.877  30.483  27.626  1.00  0.00     0.248 C 
ATOM     23  N   UNL A   1      34.998  29.769  26.858  1.00  0.00    -0.366 N 
ATOM     24  O   UNL A   1      35.782  31.703  27.689  1.00  0.00    -0.270 OA
ATOM     25  H   UNL A   1      35.073  28.789  26.807  1.00  0.00     0.159 HD
ATOM     26  H   UNL A   1      34.290  30.235  26.358  1.00  0.00     0.159 HD
ENDBRANCH  20  22
ENDBRANCH  11  16
ENDBRANCH   6   8
ENDBRANCH   5   6
ENDBRANCH   4   5
ENDBRANCH   3   4
ENDBRANCH   2   3
ENDBRANCH   1   2
BRANCH   1  27
ATOM     27  C   UNL A   1      49.800  25.988  25.544  1.00  0.00     0.188 C 
BRANCH  27  28
ATOM     28  O   UNL A   1      50.555  27.187  25.604  1.00  0.00    -0.376 OA
BRANCH  28  29
ATOM     29  C   UNL A   1      51.960  27.040  25.465  1.00  0.00     0.202 C 
BRANCH  29  30
ATOM     30  C   UNL A   1      52.794  27.994  26.331  1.00  0.00     0.261 C 
BRANCH  30  31
ATOM     31  O   UNL A   1      52.067  28.698  27.352  1.00  0.00    -0.460 OA
BRANCH  31  32
ATOM     32  C   UNL A   1      52.083  30.048  27.304  1.00  0.00     0.338 C 
ATOM     33  O   UNL A   1      52.954  30.758  26.840  1.00  0.00    -0.246 OA
BRANCH  32  34
ATOM     34  C   UNL A   1      50.761  30.527  27.767  1.00  0.00     0.060 A 
ATOM     35  C   UNL A   1      50.657  31.144  29.021  1.00  0.00     0.016 A 
ATOM     36  C   UNL A   1      49.631  30.380  26.959  1.00  0.00     0.016 A 
ATOM     37  C   UNL A   1      49.415  31.591  29.480  1.00  0.00     0.010 A 
ATOM     38  C   UNL A   1      48.386  30.808  27.427  1.00  0.00     0.010 A 
ATOM     39  C   UNL A   1      48.266  31.388  28.702  1.00  0.00    -0.014 A 
BRANCH  39  40
ATOM     40  C   UNL A   1      46.916  31.578  29.290  1.00  0.00     0.031 A 
ATOM     41  C   UNL A   1      46.265  30.397  29.958  1.00  0.00     0.074 A 
ATOM     42  C   UNL A   1      46.268  32.753  29.218  1.00  0.00     0.049 A 
ATOM     43  N   UNL A   1      45.062  30.279  30.459  1.00  0.00    -0.248 NA
ATOM     44  C   UNL A   1      47.085  29.180  30.065  1.00  0.00     0.031 C 
ATOM     45  C   UNL A   1      46.798  33.978  28.627  1.00  0.00     0.029 A 
ATOM     46  N   UNL A   1      45.004  33.096  29.635  1.00  0.00    -0.354 N 
ATOM     47  C   UNL A   1      44.982  28.978  30.937  1.00  0.00     0.074 A 
ATOM     48  C   UNL A   1      46.244  28.336  30.640  1.00  0.00     0.031 C 
ATOM     49  C   UNL A   1      45.857  34.938  28.701  1.00  0.00     0.029 A 
ATOM     50  C   UNL A   1      44.650  34.384  29.315  1.00  0.00     0.049 A 
ATOM     51  H   UNL A   1      44.410  32.478  30.118  1.00  0.00     0.167 HD
ATOM     52  C   UNL A   1      43.951  28.373  31.570  1.00  0.00     0.037 A 
ATOM     53  C   UNL A   1      43.477  35.028  29.477  1.00  0.00     0.037 A 
ATOM     54  C   UNL A   1      42.692  29.004  31.858  1.00  0.00     0.049 A 
ATOM     55  C   UNL A   1      42.317  34.311  30.125  1.00  0.00     0.074 A 
ATOM     56  C   UNL A   1      41.587  28.476  32.500  1.00  0.00     0.029 A 
ATOM     57  N   UNL A   1      42.370  30.308  31.512  1.00  0.00    -0.354 N 
ATOM     58  N   UNL A   1      42.254  33.089  30.596  1.00  0.00    -0.248 NA
ATOM     59  C   UNL A   1      41.061  35.066  30.263  1.00  0.00     0.031 C 
ATOM     60  C   UNL A   1      40.578  29.445  32.502  1.00  0.00     0.029 A 
ATOM     61  C   UNL A   1      41.075  30.595  31.909  1.00  0.00     0.049 A 
ATOM     62  H   UNL A   1      42.972  30.936  31.050  1.00  0.00     0.167 HD
ATOM     63  C   UNL A   1      40.974  32.941  31.116  1.00  0.00     0.074 A 
ATOM     64  C   UNL A   1      40.291  34.201  30.907  1.00  0.00     0.031 C 
ATOM     65  C   UNL A   1      40.416  31.861  31.714  1.00  0.00     0.037 A 
BRANCH  52  66
ATOM     66  C   UNL A   1      44.137  26.939  31.972  1.00  0.00     0.064 A 
ATOM     67  C   UNL A   1      44.000  25.893  31.049  1.00  0.00     0.173 A 
ATOM     68  C   UNL A   1      44.477  26.612  33.294  1.00  0.00     0.173 A 
ATOM     69  F   UNL A   1      43.661  26.154  29.778  1.00  0.00    -0.203 F 
ATOM     70  C   UNL A   1      44.171  24.567  31.440  1.00  0.00     0.198 A 
ATOM     71  C   UNL A   1      44.675  25.288  33.673  1.00  0.00     0.198 A 
ATOM     72  F   UNL A   1      44.622  27.577  34.215  1.00  0.00    -0.203 F 
ATOM     73  F   UNL A   1      43.989  23.580  30.552  1.00  0.00    -0.200 F 
ATOM     74  C   UNL A   1      44.514  24.266  32.749  1.00  0.00     0.200 A 
ATOM     75  F   UNL A   1      45.017  24.999  34.937  1.00  0.00    -0.200 F 
ATOM     76  F   UNL A   1      44.684  22.991  33.123  1.00  0.00    -0.200 F 
ENDBRANCH  52  66
BRANCH  53  77
ATOM     77  C   UNL A   1      43.324  36.430  29.006  1.00  0.00     0.064 A 
ATOM     78  C   UNL A   1      43.715  37.511  29.808  1.00  0.00     0.173 A 
ATOM     79  C   UNL A   1      42.751  36.720  27.758  1.00  0.00     0.173 A 
ATOM     80  F   UNL A   1      44.238  37.287  31.023  1.00  0.00    -0.203 F 
ATOM     81  C   UNL A   1      43.523  38.827  29.390  1.00  0.00     0.198 A 
ATOM     82  C   UNL A   1      42.586  38.035  27.329  1.00  0.00     0.198 A 
ATOM     83  F   UNL A   1      42.352  35.723  26.955  1.00  0.00    -0.203 F 
ATOM     84  F   UNL A   1      43.858  39.841  30.200  1.00  0.00    -0.200 F 
ATOM     85  C   UNL A   1      42.963  39.088  28.149  1.00  0.00     0.200 A 
ATOM     86  F   UNL A   1      42.050  38.283  26.126  1.00  0.00    -0.200 F 
ATOM     87  F   UNL A   1      42.776  40.352  27.747  1.00  0.00    -0.200 F 
ENDBRANCH  53  77
BRANCH  65  88
ATOM     88  C   UNL A   1      39.017  32.000  32.241  1.00  0.00     0.064 A 
ATOM     89  C   UNL A   1      38.750  32.103  33.613  1.00  0.00     0.173 A 
ATOM     90  C   UNL A   1      37.935  32.092  31.351  1.00  0.00     0.173 A 
ATOM     91  F   UNL A   1      39.748  32.009  34.505  1.00  0.00    -0.203 F 
ATOM     92  C   UNL A   1      37.448  32.277  34.077  1.00  0.00     0.198 A 
ATOM     93  C   UNL A   1      36.638  32.294  31.817  1.00  0.00     0.198 A 
ATOM     94  F   UNL A   1      38.138  32.007  30.028  1.00  0.00    -0.203 F 
ATOM     95  F   UNL A   1      37.209  32.336  35.394  1.00  0.00    -0.200 F 
ATOM     96  C   UNL A   1      36.395  32.381  33.179  1.00  0.00     0.200 A 
ATOM     97  F   UNL A   1      35.625  32.408  30.947  1.00  0.00    -0.200 F 
ATOM     98  F   UNL A   1      35.145  32.561  33.627  1.00  0.00    -0.200 F 
ENDBRANCH  65  88
ENDBRANCH  39  40
ENDBRANCH  32  34
ENDBRANCH  31  32
ENDBRANCH  30  31
ENDBRANCH  29  30
ENDBRANCH  28  29
ENDBRANCH  27  28
ENDBRANCH   1  27
TORSDOF 20
ENDMDL
MODEL 3
REMARK VINA RESULT:      -9.7      8.320     12.306
REMARK SMILES COc1cc(-c2cccc(C(N)=O)c2)ccc1C(=O)OCCOCCOCCOC(=O)c1ccc(-c2c3nc(c(-c4c(F)c(F)c(F)c(F)c4F)c4ccc([nH]4)c(-c4c(F)c(F)c(F)c(F)c4F)c4nc(c(-c5c(F)c(F)c(F)c(F)c5F)c5ccc2[nH]5)C=C4)C=C3)cc1
REMARK SMILES IDX 24 1 23 2 22 3 21 4 20 5 18 6 19 7 17 8 3 9 4 10 5 11 16 12
REMARK SMILES IDX 15 13 2 14 1 15 6 16 7 17 14 18 8 19 10 20 9 21 11 22 12 23
REMARK SMILES IDX 13 24 25 27 26 28 27 29 28 30 29 31 30 32 31 33 32 34 33 35
REMARK SMILES IDX 94 36 34 37 93 38 35 39 36 40 37 41 87 42 38 43 92 44 86 45
REMARK SMILES IDX 88 46 39 47 91 48 85 49 84 50 40 52 72 53 52 54 71 55 53 56
REMARK SMILES IDX 56 57 70 58 89 59 54 60 55 61 69 63 90 64 57 65 41 66 42 67
REMARK SMILES IDX 50 68 43 69 44 70 48 71 51 72 45 73 46 74 49 75 47 76 73 77
REMARK SMILES IDX 74 78 82 79 75 80 76 81 80 82 83 83 77 84 78 85 81 86 79 87
REMARK SMILES IDX 58 88 59 89 67 90 60 91 61 92 65 93 68 94 62 95 63 96 66 97
REMARK SMILES IDX 64 98
REMARK H PARENT 12 25 12 26 88 51 56 62
REMARK Flexibility Score: inf
ROOT
ATOM      1  C   UNL A   1      44.511  20.394  24.870  1.00  0.00     0.188 C 
ENDROOT
BRANCH   1   2
ATOM      2  O   UNL A   1      44.911  21.279  23.828  1.00  0.00    -0.376 OA
BRANCH   2   3
ATOM      3  C   UNL A   1      44.762  22.683  24.026  1.00  0.00     0.202 C 
BRANCH   3   4
ATOM      4  C   UNL A   1      45.769  23.366  24.955  1.00  0.00     0.261 C 
BRANCH   4   5
ATOM      5  O   UNL A   1      46.085  24.703  24.531  1.00  0.00    -0.460 OA
BRANCH   5   6
ATOM      6  C   UNL A   1      46.344  25.591  25.521  1.00  0.00     0.342 C 
ATOM      7  O   UNL A   1      45.524  26.153  26.220  1.00  0.00    -0.246 OA
BRANCH   6   8
ATOM      8  C   UNL A   1      47.800  25.687  25.789  1.00  0.00     0.102 A 
ATOM      9  C   UNL A   1      48.712  26.463  25.067  1.00  0.00     0.134 A 
ATOM     10  C   UNL A   1      50.062  26.488  25.457  1.00  0.00     0.056 A 
ATOM     11  C   UNL A   1      50.522  25.756  26.567  1.00  0.00    -0.015 A 
ATOM     12  C   UNL A   1      48.266  24.910  26.865  1.00  0.00     0.020 A 
ATOM     13  C   UNL A   1      49.612  24.935  27.242  1.00  0.00     0.010 A 
BRANCH   9  14
ATOM     14  O   UNL A   1      48.432  27.154  23.919  1.00  0.00    -0.496 OA
ATOM     15  C   UNL A   1      48.937  26.544  22.735  1.00  0.00     0.278 C 
ENDBRANCH   9  14
BRANCH  11  16
ATOM     16  C   UNL A   1      51.892  25.918  27.070  1.00  0.00    -0.017 A 
ATOM     17  C   UNL A   1      52.974  25.589  26.238  1.00  0.00     0.009 A 
ATOM     18  C   UNL A   1      52.167  26.435  28.346  1.00  0.00     0.022 A 
ATOM     19  C   UNL A   1      54.291  25.771  26.662  1.00  0.00     0.001 A 
ATOM     20  C   UNL A   1      53.493  26.616  28.787  1.00  0.00     0.040 A 
ATOM     21  C   UNL A   1      54.551  26.285  27.932  1.00  0.00     0.014 A 
BRANCH  20  22
ATOM     22  C   UNL A   1      53.705  27.170  30.156  1.00  0.00     0.248 C 
ATOM     23  N   UNL A   1      54.973  27.520  30.536  1.00  0.00    -0.366 N 
ATOM     24  O   UNL A   1      52.773  27.310  30.939  1.00  0.00    -0.270 OA
ATOM     25  H   UNL A   1      55.722  27.409  29.909  1.00  0.00     0.159 HD
ATOM     26  H   UNL A   1      55.134  27.884  31.437  1.00  0.00     0.159 HD
ENDBRANCH  20  22
ENDBRANCH  11  16
ENDBRANCH   6   8
ENDBRANCH   5   6
ENDBRANCH   4   5
ENDBRANCH   3   4
ENDBRANCH   2   3
ENDBRANCH   1   2
BRANCH   1  27
ATOM     27  C   UNL A   1      43.309  20.765  25.764  1.00  0.00     0.188 C 
BRANCH  27  28
ATOM     28  O   UNL A   1      42.206  19.882  25.638  1.00  0.00    -0.376 OA
BRANCH  28  29
ATOM     29  C   UNL A   1      41.294  19.875  26.726  1.00  0.00     0.202 C 
BRANCH  29  30
ATOM     30  C   UNL A   1      40.805  21.261  27.164  1.00  0.00     0.261 C 
BRANCH  30  31
ATOM     31  O   UNL A   1      40.441  22.154  26.097  1.00  0.00    -0.460 OA
BRANCH  31  32
ATOM     32  C   UNL A   1      39.235  22.759  26.182  1.00  0.00     0.338 C 
ATOM     33  O   UNL A   1      38.147  22.267  25.954  1.00  0.00    -0.246 OA
BRANCH  32  34
ATOM     34  C   UNL A   1      39.450  24.100  26.772  1.00  0.00     0.060 A 
ATOM     35  C   UNL A   1      40.199  25.048  26.062  1.00  0.00     0.016 A 
ATOM     36  C   UNL A   1      38.899  24.423  28.014  1.00  0.00     0.016 A 
ATOM     37  C   UNL A   1      40.423  26.314  26.610  1.00  0.00     0.010 A 
ATOM     38  C   UNL A   1      39.140  25.682  28.570  1.00  0.00     0.010 A 
ATOM     39  C   UNL A   1      39.928  26.624  27.885  1.00  0.00    -0.014 A 
BRANCH  39  40
ATOM     40  C   UNL A   1      40.401  27.834  28.602  1.00  0.00     0.031 A 
ATOM     41  C   UNL A   1      41.836  27.871  29.055  1.00  0.00     0.074 A 
ATOM     42  C   UNL A   1      39.584  28.867  28.870  1.00  0.00     0.049 A 
ATOM     43  N   UNL A   1      42.461  28.765  29.777  1.00  0.00    -0.248 NA
ATOM     44  C   UNL A   1      42.675  26.736  28.641  1.00  0.00     0.031 C 
ATOM     45  C   UNL A   1      38.187  28.970  28.461  1.00  0.00     0.029 A 
ATOM     46  N   UNL A   1      39.818  30.026  29.571  1.00  0.00    -0.354 N 
ATOM     47  C   UNL A   1      43.762  28.298  29.905  1.00  0.00     0.074 A 
ATOM     48  C   UNL A   1      43.831  27.029  29.213  1.00  0.00     0.031 C 
ATOM     49  C   UNL A   1      37.678  30.122  28.937  1.00  0.00     0.029 A 
ATOM     50  C   UNL A   1      38.706  30.819  29.710  1.00  0.00     0.049 A 
ATOM     51  H   UNL A   1      40.699  30.263  29.940  1.00  0.00     0.167 HD
ATOM     52  C   UNL A   1      44.809  28.876  30.539  1.00  0.00     0.037 A 
ATOM     53  C   UNL A   1      38.536  31.963  30.403  1.00  0.00     0.037 A 
ATOM     54  C   UNL A   1      44.742  30.131  31.236  1.00  0.00     0.049 A 
ATOM     55  C   UNL A   1      39.700  32.555  31.160  1.00  0.00     0.074 A 
ATOM     56  C   UNL A   1      45.749  30.803  31.906  1.00  0.00     0.029 A 
ATOM     57  N   UNL A   1      43.596  30.902  31.359  1.00  0.00    -0.354 N 
ATOM     58  N   UNL A   1      40.934  32.122  31.258  1.00  0.00    -0.248 NA
ATOM     59  C   UNL A   1      39.446  33.799  31.906  1.00  0.00     0.031 C 
ATOM     60  C   UNL A   1      45.202  31.958  32.473  1.00  0.00     0.029 A 
ATOM     61  C   UNL A   1      43.866  32.033  32.112  1.00  0.00     0.049 A 
ATOM     62  H   UNL A   1      42.719  30.678  30.970  1.00  0.00     0.167 HD
ATOM     63  C   UNL A   1      41.608  33.052  32.040  1.00  0.00     0.074 A 
ATOM     64  C   UNL A   1      40.648  34.078  32.389  1.00  0.00     0.031 C 
ATOM     65  C   UNL A   1      42.905  33.057  32.431  1.00  0.00     0.037 A 
BRANCH  52  66
ATOM     66  C   UNL A   1      46.114  28.136  30.527  1.00  0.00     0.064 A 
ATOM     67  C   UNL A   1      46.412  27.154  31.484  1.00  0.00     0.173 A 
ATOM     68  C   UNL A   1      47.070  28.399  29.534  1.00  0.00     0.173 A 
ATOM     69  F   UNL A   1      45.537  26.879  32.462  1.00  0.00    -0.203 F 
ATOM     70  C   UNL A   1      47.630  26.481  31.462  1.00  0.00     0.198 A 
ATOM     71  C   UNL A   1      48.274  27.703  29.499  1.00  0.00     0.198 A 
ATOM     72  F   UNL A   1      46.832  29.327  28.595  1.00  0.00    -0.203 F 
ATOM     73  F   UNL A   1      47.913  25.580  32.413  1.00  0.00    -0.200 F 
ATOM     74  C   UNL A   1      48.557  26.750  30.467  1.00  0.00     0.200 A 
ATOM     75  F   UNL A   1      49.165  27.958  28.530  1.00  0.00    -0.200 F 
ATOM     76  F   UNL A   1      49.726  26.097  30.443  1.00  0.00    -0.200 F 
ENDBRANCH  52  66
BRANCH  53  77
ATOM     77  C   UNL A   1      37.205  32.626  30.434  1.00  0.00     0.064 A 
ATOM     78  C   UNL A   1      36.285  32.356  31.457  1.00  0.00     0.173 A 
ATOM     79  C   UNL A   1      36.813  33.517  29.424  1.00  0.00     0.173 A 
ATOM     80  F   UNL A   1      36.601  31.487  32.428  1.00  0.00    -0.203 F 
ATOM     81  C   UNL A   1      35.017  32.937  31.458  1.00  0.00     0.198 A 
ATOM     82  C   UNL A   1      35.556  34.118  29.441  1.00  0.00     0.198 A 
ATOM     83  F   UNL A   1      37.652  33.803  28.418  1.00  0.00    -0.203 F 
ATOM     84  F   UNL A   1      34.139  32.619  32.419  1.00  0.00    -0.200 F 
ATOM     85  C   UNL A   1      34.655  33.820  30.452  1.00  0.00     0.200 A 
ATOM     86  F   UNL A   1      35.212  34.976  28.471  1.00  0.00    -0.200 F 
ATOM     87  F   UNL A   1      33.436  34.376  30.452  1.00  0.00    -0.200 F 
ENDBRANCH  53  77
BRANCH  65  88
ATOM     88  C   UNL A   1      43.389  34.231  33.234  1.00  0.00     0.064 A 
ATOM     89  C   UNL A   1      43.348  34.235  34.634  1.00  0.00     0.173 A 
ATOM     90  C   UNL A   1      43.958  35.340  32.588  1.00  0.00     0.173 A 
ATOM     91  F   UNL A   1      42.802  33.205  35.298  1.00  0.00    -0.203 F 
ATOM     92  C   UNL A   1      43.844  35.316  35.361  1.00  0.00     0.198 A 
ATOM     93  C   UNL A   1      44.479  36.405  33.318  1.00  0.00     0.198 A 
ATOM     94  F   UNL A   1      44.029  35.381  31.249  1.00  0.00    -0.203 F 
ATOM     95  F   UNL A   1      43.761  35.317  36.698  1.00  0.00    -0.200 F 
ATOM     96  C   UNL A   1      44.416  36.395  34.703  1.00  0.00     0.200 A 
ATOM     97  F   UNL A   1      45.044  37.440  32.681  1.00  0.00    -0.200 F 
ATOM     98  F   UNL A   1      44.904  37.428  35.404  1.00  0.00    -0.200 F 
ENDBRANCH  65  88
ENDBRANCH  39  40
ENDBRANCH  32  34
ENDBRANCH  31  32
ENDBRANCH  30  31
ENDBRANCH  29  30
ENDBRANCH  28  29
ENDBRANCH  27  28
ENDBRANCH   1  27
TORSDOF 20
ENDMDL
