MODEL 1
REMARK VINA RESULT:     -13.1      0.000      0.000
REMARK SMILES C=CC[NH+](CC(=O)OCCOCCOCCOC(=O)c1ccc(-c2c3nc(c(-c4c(F)c(F)c(F)c(F)c4F)c4ccc([nH]4)c(-c4c(F)c(F)c(F)c(F)c4F)c4nc(c(-c5c(F)c(F)c(F)c(F)c5F)c5ccc2[nH]5)C=C4)C=C3)cc1)Cc1cccc2ccccc12
REMARK SMILES IDX 12 1 11 2 10 3 9 4 8 5 6 6 7 7 5 8 4 9 3 11 2 12 1 13 83 14
REMARK SMILES IDX 84 15 85 16 93 17 86 18 88 19 92 20 87 21 89 22 91 23 90 24
REMARK SMILES IDX 13 25 14 26 15 27 16 28 17 29 18 30 19 31 20 32 21 33 82 34
REMARK SMILES IDX 22 35 81 36 23 37 24 38 25 39 75 40 26 41 80 42 74 43 76 44
REMARK SMILES IDX 27 45 79 46 73 47 72 48 28 50 60 51 40 52 59 53 41 54 44 55
REMARK SMILES IDX 58 56 77 57 42 58 43 59 57 61 78 62 45 63 29 64 30 65 38 66
REMARK SMILES IDX 31 67 32 68 36 69 39 70 33 71 34 72 37 73 35 74 61 75 62 76
REMARK SMILES IDX 70 77 63 78 64 79 68 80 71 81 65 82 66 83 69 84 67 85 46 86
REMARK SMILES IDX 47 87 55 88 48 89 49 90 53 91 56 92 50 93 51 94 54 95 52 96
REMARK H PARENT 4 10 76 49 44 60
REMARK Flexibility Score: inf
ROOT
ATOM      1  C   UNL A   1      34.867  24.584  26.111  1.00  0.00     0.188 C 
ENDROOT
BRANCH   1   2
ATOM      2  O   UNL A   1      34.939  23.655  27.205  1.00  0.00    -0.376 OA
BRANCH   2   3
ATOM      3  C   UNL A   1      34.045  22.591  27.548  1.00  0.00     0.202 C 
BRANCH   3   4
ATOM      4  C   UNL A   1      32.570  22.481  27.122  1.00  0.00     0.261 C 
BRANCH   4   5
ATOM      5  O   UNL A   1      31.773  23.629  27.368  1.00  0.00    -0.459 OA
BRANCH   5   6
ATOM      6  C   UNL A   1      30.693  23.752  26.564  1.00  0.00     0.361 C 
ATOM      7  O   UNL A   1      29.688  24.395  26.849  1.00  0.00    -0.245 OA
BRANCH   6   8
ATOM      8  C   UNL A   1      30.881  23.047  25.227  1.00  0.00     0.387 C 
BRANCH   8   9
ATOM      9  N   UNL A   1      31.183  23.927  24.096  1.00  0.00    -0.319 N 
ATOM     10  H   UNL A   1      30.724  23.096  24.469  1.00  0.00     0.349 HD
BRANCH   9  11
ATOM     11  C   UNL A   1      30.211  24.840  23.571  1.00  0.00     0.291 C 
BRANCH  11  12
ATOM     12  C   UNL A   1      30.731  26.255  23.641  1.00  0.00     0.025 C 
ATOM     13  C   UNL A   1      30.100  27.307  23.098  1.00  0.00     0.010 C 
ENDBRANCH  11  12
ENDBRANCH   9  11
BRANCH   9  14
ATOM     14  C   UNL A   1      32.485  23.927  23.487  1.00  0.00     0.300 C 
BRANCH  14  15
ATOM     15  C   UNL A   1      33.086  22.574  22.845  1.00  0.00     0.014 A 
ATOM     16  C   UNL A   1      31.980  21.264  22.421  1.00  0.00     0.010 A 
ATOM     17  C   UNL A   1      34.548  22.250  23.758  1.00  0.00    -0.010 A 
ATOM     18  C   UNL A   1      32.116  19.639  23.178  1.00  0.00     0.001 A 
ATOM     19  C   UNL A   1      34.744  20.728  24.628  1.00  0.00    -0.018 A 
ATOM     20  C   UNL A   1      35.652  23.030  23.438  1.00  0.00     0.009 A 
ATOM     21  C   UNL A   1      33.395  19.400  24.421  1.00  0.00     0.009 A 
ATOM     22  C   UNL A   1      36.085  20.746  25.106  1.00  0.00     0.009 A 
ATOM     23  C   UNL A   1      36.917  22.487  23.587  1.00  0.00     0.001 A 
ATOM     24  C   UNL A   1      37.128  21.404  24.424  1.00  0.00     0.001 A 
ENDBRANCH  14  15
ENDBRANCH   9  14
ENDBRANCH   8   9
ENDBRANCH   6   8
ENDBRANCH   5   6
ENDBRANCH   4   5
ENDBRANCH   3   4
ENDBRANCH   2   3
ENDBRANCH   1   2
BRANCH   1  25
ATOM     25  C   UNL A   1      34.020  26.093  25.852  1.00  0.00     0.188 C 
BRANCH  25  26
ATOM     26  O   UNL A   1      32.367  26.817  26.757  1.00  0.00    -0.376 OA
BRANCH  26  27
ATOM     27  C   UNL A   1      31.926  28.263  27.552  1.00  0.00     0.202 C 
BRANCH  27  28
ATOM     28  C   UNL A   1      31.576  29.849  26.866  1.00  0.00     0.261 C 
BRANCH  28  29
ATOM     29  O   UNL A   1      32.678  30.860  26.520  1.00  0.00    -0.460 OA
BRANCH  29  30
ATOM     30  C   UNL A   1      33.359  31.750  27.303  1.00  0.00     0.338 C 
ATOM     31  O   UNL A   1      32.866  32.772  27.760  1.00  0.00    -0.246 OA
BRANCH  30  32
ATOM     32  C   UNL A   1      34.797  31.306  27.728  1.00  0.00     0.060 A 
ATOM     33  C   UNL A   1      35.156  30.029  28.241  1.00  0.00     0.016 A 
ATOM     34  C   UNL A   1      35.786  32.273  27.864  1.00  0.00     0.016 A 
ATOM     35  C   UNL A   1      36.425  29.691  28.768  1.00  0.00     0.010 A 
ATOM     36  C   UNL A   1      37.050  31.965  28.444  1.00  0.00     0.010 A 
ATOM     37  C   UNL A   1      37.385  30.677  28.907  1.00  0.00    -0.014 A 
BRANCH  37  38
ATOM     38  C   UNL A   1      38.635  30.449  29.696  1.00  0.00     0.031 A 
ATOM     39  C   UNL A   1      39.669  29.500  29.148  1.00  0.00     0.074 A 
ATOM     40  C   UNL A   1      38.853  31.020  30.897  1.00  0.00     0.049 A 
ATOM     41  N   UNL A   1      40.640  28.868  29.758  1.00  0.00    -0.248 NA
ATOM     42  C   UNL A   1      39.585  29.226  27.706  1.00  0.00     0.031 C 
ATOM     43  C   UNL A   1      38.042  32.074  31.497  1.00  0.00     0.029 A 
ATOM     44  N   UNL A   1      39.814  30.752  31.849  1.00  0.00    -0.354 N 
ATOM     45  C   UNL A   1      41.245  28.075  28.789  1.00  0.00     0.074 A 
ATOM     46  C   UNL A   1      40.542  28.323  27.547  1.00  0.00     0.031 C 
ATOM     47  C   UNL A   1      38.493  32.316  32.743  1.00  0.00     0.029 A 
ATOM     48  C   UNL A   1      39.583  31.390  33.048  1.00  0.00     0.049 A 
ATOM     49  H   UNL A   1      40.586  30.163  31.689  1.00  0.00     0.167 HD
ATOM     50  C   UNL A   1      42.271  27.200  28.932  1.00  0.00     0.037 A 
ATOM     51  C   UNL A   1      40.139  31.199  34.264  1.00  0.00     0.037 A 
ATOM     52  C   UNL A   1      42.959  26.960  30.177  1.00  0.00     0.049 A 
ATOM     53  C   UNL A   1      41.203  30.141  34.435  1.00  0.00     0.074 A 
ATOM     54  C   UNL A   1      43.993  26.079  30.441  1.00  0.00     0.029 A 
ATOM     55  N   UNL A   1      42.677  27.608  31.371  1.00  0.00    -0.354 N 
ATOM     56  N   UNL A   1      41.725  29.332  33.544  1.00  0.00    -0.248 NA
ATOM     57  C   UNL A   1      41.755  29.968  35.789  1.00  0.00     0.031 C 
ATOM     58  C   UNL A   1      44.294  26.149  31.806  1.00  0.00     0.029 A 
ATOM     59  C   UNL A   1      43.502  27.132  32.379  1.00  0.00     0.049 A 
ATOM     60  H   UNL A   1      41.991  28.305  31.487  1.00  0.00     0.167 HD
ATOM     61  C   UNL A   1      42.686  28.584  34.216  1.00  0.00     0.074 A 
ATOM     62  C   UNL A   1      42.685  29.047  35.588  1.00  0.00     0.031 C 
ATOM     63  C   UNL A   1      43.498  27.605  33.741  1.00  0.00     0.037 A 
BRANCH  50  64
ATOM     64  C   UNL A   1      42.662  26.381  27.731  1.00  0.00     0.064 A 
ATOM     65  C   UNL A   1      42.055  25.152  27.430  1.00  0.00     0.173 A 
ATOM     66  C   UNL A   1      43.658  26.845  26.855  1.00  0.00     0.173 A 
ATOM     67  F   UNL A   1      41.106  24.652  28.237  1.00  0.00    -0.203 F 
ATOM     68  C   UNL A   1      42.454  24.405  26.323  1.00  0.00     0.198 A 
ATOM     69  C   UNL A   1      44.028  26.113  25.730  1.00  0.00     0.198 A 
ATOM     70  F   UNL A   1      44.270  28.016  27.085  1.00  0.00    -0.203 F 
ATOM     71  F   UNL A   1      41.900  23.206  26.091  1.00  0.00    -0.200 F 
ATOM     72  C   UNL A   1      43.434  24.888  25.471  1.00  0.00     0.200 A 
ATOM     73  F   UNL A   1      44.965  26.592  24.899  1.00  0.00    -0.200 F 
ATOM     74  F   UNL A   1      43.814  24.169  24.405  1.00  0.00    -0.200 F 
ENDBRANCH  50  64
BRANCH  51  75
ATOM     75  C   UNL A   1      39.667  31.989  35.439  1.00  0.00     0.064 A 
ATOM     76  C   UNL A   1      38.671  31.491  36.292  1.00  0.00     0.173 A 
ATOM     77  C   UNL A   1      40.174  33.268  35.717  1.00  0.00     0.173 A 
ATOM     78  F   UNL A   1      38.119  30.293  36.049  1.00  0.00    -0.203 F 
ATOM     79  C   UNL A   1      38.195  32.242  37.367  1.00  0.00     0.198 A 
ATOM     80  C   UNL A   1      39.723  34.004  36.812  1.00  0.00     0.198 A 
ATOM     81  F   UNL A   1      41.114  33.805  34.924  1.00  0.00    -0.203 F 
ATOM     82  F   UNL A   1      37.204  31.762  38.131  1.00  0.00    -0.200 F 
ATOM     83  C   UNL A   1      38.729  33.494  37.633  1.00  0.00     0.200 A 
ATOM     84  F   UNL A   1      40.248  35.211  37.069  1.00  0.00    -0.200 F 
ATOM     85  F   UNL A   1      38.278  34.212  38.670  1.00  0.00    -0.200 F 
ENDBRANCH  51  75
BRANCH  63  86
ATOM     86  C   UNL A   1      44.502  27.019  34.698  1.00  0.00     0.064 A 
ATOM     87  C   UNL A   1      45.768  27.590  34.898  1.00  0.00     0.173 A 
ATOM     88  C   UNL A   1      44.188  25.859  35.427  1.00  0.00     0.173 A 
ATOM     89  F   UNL A   1      46.127  28.691  34.221  1.00  0.00    -0.203 F 
ATOM     90  C   UNL A   1      46.698  26.994  35.748  1.00  0.00     0.198 A 
ATOM     91  C   UNL A   1      45.105  25.291  36.307  1.00  0.00     0.198 A 
ATOM     92  F   UNL A   1      42.988  25.276  35.287  1.00  0.00    -0.203 F 
ATOM     93  F   UNL A   1      47.928  27.515  35.862  1.00  0.00    -0.200 F 
ATOM     94  C   UNL A   1      46.364  25.849  36.455  1.00  0.00     0.200 A 
ATOM     95  F   UNL A   1      44.772  24.195  37.003  1.00  0.00    -0.200 F 
ATOM     96  F   UNL A   1      47.262  25.275  37.268  1.00  0.00    -0.200 F 
ENDBRANCH  63  86
ENDBRANCH  37  38
ENDBRANCH  30  32
ENDBRANCH  29  30
ENDBRANCH  28  29
ENDBRANCH  27  28
ENDBRANCH  26  27
ENDBRANCH  25  26
ENDBRANCH   1  25
TORSDOF 22
ENDMDL
MODEL 2
REMARK VINA RESULT:     -12.2      5.117      9.304
REMARK SMILES C=CC[NH+](CC(=O)OCCOCCOCCOC(=O)c1ccc(-c2c3nc(c(-c4c(F)c(F)c(F)c(F)c4F)c4ccc([nH]4)c(-c4c(F)c(F)c(F)c(F)c4F)c4nc(c(-c5c(F)c(F)c(F)c(F)c5F)c5ccc2[nH]5)C=C4)C=C3)cc1)Cc1cccc2ccccc12
REMARK SMILES IDX 12 1 11 2 10 3 9 4 8 5 6 6 7 7 5 8 4 9 3 11 2 12 1 13 83 14
REMARK SMILES IDX 84 15 85 16 93 17 86 18 88 19 92 20 87 21 89 22 91 23 90 24
REMARK SMILES IDX 13 25 14 26 15 27 16 28 17 29 18 30 19 31 20 32 21 33 82 34
REMARK SMILES IDX 22 35 81 36 23 37 24 38 25 39 75 40 26 41 80 42 74 43 76 44
REMARK SMILES IDX 27 45 79 46 73 47 72 48 28 50 60 51 40 52 59 53 41 54 44 55
REMARK SMILES IDX 58 56 77 57 42 58 43 59 57 61 78 62 45 63 29 64 30 65 38 66
REMARK SMILES IDX 31 67 32 68 36 69 39 70 33 71 34 72 37 73 35 74 61 75 62 76
REMARK SMILES IDX 70 77 63 78 64 79 68 80 71 81 65 82 66 83 69 84 67 85 46 86
REMARK SMILES IDX 47 87 55 88 48 89 49 90 53 91 56 92 50 93 51 94 54 95 52 96
REMARK H PARENT 4 10 76 49 44 60
REMARK Flexibility Score: inf
ROOT
ATOM      1  C   UNL A   1      38.259  21.438  25.176  1.00  0.00     0.188 C 
ENDROOT
BRANCH   1   2
ATOM      2  O   UNL A   1      36.846  21.439  25.436  1.00  0.00    -0.376 OA
BRANCH   2   3
ATOM      3  C   UNL A   1      35.871  20.432  25.143  1.00  0.00     0.202 C 
BRANCH   3   4
ATOM      4  C   UNL A   1      34.367  20.671  24.923  1.00  0.00     0.261 C 
BRANCH   4   5
ATOM      5  O   UNL A   1      33.897  21.969  25.254  1.00  0.00    -0.459 OA
BRANCH   5   6
ATOM      6  C   UNL A   1      33.247  22.608  24.256  1.00  0.00     0.361 C 
ATOM      7  O   UNL A   1      32.695  22.044  23.316  1.00  0.00    -0.245 OA
BRANCH   6   8
ATOM      8  C   UNL A   1      33.221  24.118  24.453  1.00  0.00     0.387 C 
BRANCH   8   9
ATOM      9  N   UNL A   1      31.931  24.671  24.869  1.00  0.00    -0.319 N 
ATOM     10  H   UNL A   1      32.564  23.875  24.786  1.00  0.00     0.349 HD
BRANCH   9  11
ATOM     11  C   UNL A   1      31.630  24.926  26.248  1.00  0.00     0.291 C 
BRANCH  11  12
ATOM     12  C   UNL A   1      31.060  26.314  26.410  1.00  0.00     0.025 C 
ATOM     13  C   UNL A   1      31.777  27.368  26.828  1.00  0.00     0.010 C 
ENDBRANCH  11  12
ENDBRANCH   9  11
BRANCH   9  14
ATOM     14  C   UNL A   1      30.924  25.009  23.901  1.00  0.00     0.300 C 
BRANCH  14  15
ATOM     15  C   UNL A   1      31.214  26.132  22.779  1.00  0.00     0.014 A 
ATOM     16  C   UNL A   1      32.829  26.238  22.073  1.00  0.00     0.010 A 
ATOM     17  C   UNL A   1      30.395  27.571  23.358  1.00  0.00    -0.010 A 
ATOM     18  C   UNL A   1      33.824  27.727  22.223  1.00  0.00     0.001 A 
ATOM     19  C   UNL A   1      31.294  29.063  23.642  1.00  0.00    -0.018 A 
ATOM     20  C   UNL A   1      29.017  27.596  23.192  1.00  0.00     0.009 A 
ATOM     21  C   UNL A   1      33.135  29.101  23.160  1.00  0.00     0.009 A 
ATOM     22  C   UNL A   1      30.302  30.039  23.941  1.00  0.00     0.009 A 
ATOM     23  C   UNL A   1      28.390  28.816  23.005  1.00  0.00     0.001 A 
ATOM     24  C   UNL A   1      29.001  29.993  23.403  1.00  0.00     0.001 A 
ENDBRANCH  14  15
ENDBRANCH   9  14
ENDBRANCH   8   9
ENDBRANCH   6   8
ENDBRANCH   5   6
ENDBRANCH   4   5
ENDBRANCH   3   4
ENDBRANCH   2   3
ENDBRANCH   1   2
BRANCH   1  25
ATOM     25  C   UNL A   1      39.681  21.404  26.193  1.00  0.00     0.188 C 
BRANCH  25  26
ATOM     26  O   UNL A   1      41.416  20.400  25.952  1.00  0.00    -0.376 OA
BRANCH  26  27
ATOM     27  C   UNL A   1      42.029  18.867  26.390  1.00  0.00     0.202 C 
BRANCH  27  28
ATOM     28  C   UNL A   1      43.686  18.268  26.322  1.00  0.00     0.261 C 
BRANCH  28  29
ATOM     29  O   UNL A   1      44.472  18.164  25.008  1.00  0.00    -0.460 OA
BRANCH  29  30
ATOM     30  C   UNL A   1      45.156  19.107  24.293  1.00  0.00     0.338 C 
ATOM     31  O   UNL A   1      45.880  18.847  23.341  1.00  0.00    -0.246 OA
BRANCH  30  32
ATOM     32  C   UNL A   1      44.837  20.592  24.663  1.00  0.00     0.060 A 
ATOM     33  C   UNL A   1      44.338  21.582  23.773  1.00  0.00     0.016 A 
ATOM     34  C   UNL A   1      45.290  21.093  25.878  1.00  0.00     0.016 A 
ATOM     35  C   UNL A   1      44.202  22.958  24.080  1.00  0.00     0.010 A 
ATOM     36  C   UNL A   1      45.213  22.483  26.182  1.00  0.00     0.010 A 
ATOM     37  C   UNL A   1      44.676  23.432  25.289  1.00  0.00    -0.014 A 
BRANCH  37  38
ATOM     38  C   UNL A   1      44.809  24.897  25.559  1.00  0.00     0.031 A 
ATOM     39  C   UNL A   1      46.165  25.537  25.413  1.00  0.00     0.074 A 
ATOM     40  C   UNL A   1      43.776  25.658  25.972  1.00  0.00     0.049 A 
ATOM     41  N   UNL A   1      46.623  26.660  25.905  1.00  0.00    -0.248 NA
ATOM     42  C   UNL A   1      47.138  24.794  24.599  1.00  0.00     0.031 C 
ATOM     43  C   UNL A   1      42.377  25.243  26.013  1.00  0.00     0.029 A 
ATOM     44  N   UNL A   1      43.761  26.939  26.482  1.00  0.00    -0.354 N 
ATOM     45  C   UNL A   1      47.956  26.731  25.512  1.00  0.00     0.074 A 
ATOM     46  C   UNL A   1      48.223  25.545  24.724  1.00  0.00     0.031 C 
ATOM     47  C   UNL A   1      41.649  26.221  26.585  1.00  0.00     0.029 A 
ATOM     48  C   UNL A   1      42.540  27.302  27.005  1.00  0.00     0.049 A 
ATOM     49  H   UNL A   1      44.545  27.535  26.473  1.00  0.00     0.167 HD
ATOM     50  C   UNL A   1      48.876  27.682  25.809  1.00  0.00     0.037 A 
ATOM     51  C   UNL A   1      42.197  28.346  27.789  1.00  0.00     0.037 A 
ATOM     52  C   UNL A   1      48.596  28.856  26.599  1.00  0.00     0.049 A 
ATOM     53  C   UNL A   1      43.256  29.340  28.206  1.00  0.00     0.074 A 
ATOM     54  C   UNL A   1      49.458  29.870  26.982  1.00  0.00     0.029 A 
ATOM     55  N   UNL A   1      47.353  29.171  27.130  1.00  0.00    -0.354 N 
ATOM     56  N   UNL A   1      44.533  29.371  27.907  1.00  0.00    -0.248 NA
ATOM     57  C   UNL A   1      42.824  30.443  29.078  1.00  0.00     0.031 C 
ATOM     58  C   UNL A   1      48.751  30.764  27.795  1.00  0.00     0.029 A 
ATOM     59  C   UNL A   1      47.430  30.351  27.855  1.00  0.00     0.049 A 
ATOM     60  H   UNL A   1      46.536  28.635  27.011  1.00  0.00     0.167 HD
ATOM     61  C   UNL A   1      45.046  30.510  28.519  1.00  0.00     0.074 A 
ATOM     62  C   UNL A   1      43.937  31.151  29.194  1.00  0.00     0.031 C 
ATOM     63  C   UNL A   1      46.318  30.985  28.518  1.00  0.00     0.037 A 
BRANCH  50  64
ATOM     64  C   UNL A   1      50.289  27.455  25.342  1.00  0.00     0.064 A 
ATOM     65  C   UNL A   1      50.697  27.724  24.026  1.00  0.00     0.173 A 
ATOM     66  C   UNL A   1      51.258  26.971  26.237  1.00  0.00     0.173 A 
ATOM     67  F   UNL A   1      49.813  28.176  23.124  1.00  0.00    -0.203 F 
ATOM     68  C   UNL A   1      52.007  27.482  23.616  1.00  0.00     0.198 A 
ATOM     69  C   UNL A   1      52.575  26.765  25.833  1.00  0.00     0.198 A 
ATOM     70  F   UNL A   1      50.930  26.702  27.509  1.00  0.00    -0.203 F 
ATOM     71  F   UNL A   1      52.357  27.690  22.339  1.00  0.00    -0.200 F 
ATOM     72  C   UNL A   1      52.946  27.010  24.520  1.00  0.00     0.200 A 
ATOM     73  F   UNL A   1      53.484  26.325  26.715  1.00  0.00    -0.200 F 
ATOM     74  F   UNL A   1      54.207  26.783  24.125  1.00  0.00    -0.200 F 
ENDBRANCH  50  64
BRANCH  51  75
ATOM     75  C   UNL A   1      40.796  28.489  28.283  1.00  0.00     0.064 A 
ATOM     76  C   UNL A   1      39.795  29.043  27.472  1.00  0.00     0.173 A 
ATOM     77  C   UNL A   1      40.433  28.106  29.584  1.00  0.00     0.173 A 
ATOM     78  F   UNL A   1      40.095  29.467  26.235  1.00  0.00    -0.203 F 
ATOM     79  C   UNL A   1      38.494  29.219  27.943  1.00  0.00     0.198 A 
ATOM     80  C   UNL A   1      39.124  28.249  30.044  1.00  0.00     0.198 A 
ATOM     81  F   UNL A   1      41.352  27.589  30.414  1.00  0.00    -0.203 F 
ATOM     82  F   UNL A   1      37.574  29.802  27.163  1.00  0.00    -0.200 F 
ATOM     83  C   UNL A   1      38.157  28.812  29.226  1.00  0.00     0.200 A 
ATOM     84  F   UNL A   1      38.802  27.848  31.281  1.00  0.00    -0.200 F 
ATOM     85  F   UNL A   1      36.905  28.973  29.675  1.00  0.00    -0.200 F 
ENDBRANCH  51  75
BRANCH  63  86
ATOM     86  C   UNL A   1      46.563  32.298  29.214  1.00  0.00     0.064 A 
ATOM     87  C   UNL A   1      46.435  33.531  28.555  1.00  0.00     0.173 A 
ATOM     88  C   UNL A   1      46.935  32.319  30.569  1.00  0.00     0.173 A 
ATOM     89  F   UNL A   1      46.093  33.571  27.258  1.00  0.00    -0.203 F 
ATOM     90  C   UNL A   1      46.721  34.727  29.209  1.00  0.00     0.198 A 
ATOM     91  C   UNL A   1      47.180  33.520  31.230  1.00  0.00     0.198 A 
ATOM     92  F   UNL A   1      47.059  31.173  31.255  1.00  0.00    -0.203 F 
ATOM     93  F   UNL A   1      46.668  35.885  28.536  1.00  0.00    -0.200 F 
ATOM     94  C   UNL A   1      47.089  34.721  30.546  1.00  0.00     0.200 A 
ATOM     95  F   UNL A   1      47.515  33.512  32.528  1.00  0.00    -0.200 F 
ATOM     96  F   UNL A   1      47.369  35.873  31.172  1.00  0.00    -0.200 F 
ENDBRANCH  63  86
ENDBRANCH  37  38
ENDBRANCH  30  32
ENDBRANCH  29  30
ENDBRANCH  28  29
ENDBRANCH  27  28
ENDBRANCH  26  27
ENDBRANCH  25  26
ENDBRANCH   1  25
TORSDOF 22
ENDMDL
MODEL 3
REMARK VINA RESULT:     -11.9      4.480      7.146
REMARK SMILES C=CC[NH+](CC(=O)OCCOCCOCCOC(=O)c1ccc(-c2c3nc(c(-c4c(F)c(F)c(F)c(F)c4F)c4ccc([nH]4)c(-c4c(F)c(F)c(F)c(F)c4F)c4nc(c(-c5c(F)c(F)c(F)c(F)c5F)c5ccc2[nH]5)C=C4)C=C3)cc1)Cc1cccc2ccccc12
REMARK SMILES IDX 12 1 11 2 10 3 9 4 8 5 6 6 7 7 5 8 4 9 3 11 2 12 1 13 83 14
REMARK SMILES IDX 84 15 85 16 93 17 86 18 88 19 92 20 87 21 89 22 91 23 90 24
REMARK SMILES IDX 13 25 14 26 15 27 16 28 17 29 18 30 19 31 20 32 21 33 82 34
REMARK SMILES IDX 22 35 81 36 23 37 24 38 25 39 75 40 26 41 80 42 74 43 76 44
REMARK SMILES IDX 27 45 79 46 73 47 72 48 28 50 60 51 40 52 59 53 41 54 44 55
REMARK SMILES IDX 58 56 77 57 42 58 43 59 57 61 78 62 45 63 29 64 30 65 38 66
REMARK SMILES IDX 31 67 32 68 36 69 39 70 33 71 34 72 37 73 35 74 61 75 62 76
REMARK SMILES IDX 70 77 63 78 64 79 68 80 71 81 65 82 66 83 69 84 67 85 46 86
REMARK SMILES IDX 47 87 55 88 48 89 49 90 53 91 56 92 50 93 51 94 54 95 52 96
REMARK H PARENT 4 10 76 49 44 60
REMARK Flexibility Score: inf
ROOT
ATOM      1  C   UNL A   1      34.604  29.868  26.972  1.00  0.00     0.188 C 
ENDROOT
BRANCH   1   2
ATOM      2  O   UNL A   1      33.316  29.730  26.351  1.00  0.00    -0.376 OA
BRANCH   2   3
ATOM      3  C   UNL A   1      32.634  28.540  25.939  1.00  0.00     0.202 C 
BRANCH   3   4
ATOM      4  C   UNL A   1      31.596  28.443  24.806  1.00  0.00     0.261 C 
BRANCH   4   5
ATOM      5  O   UNL A   1      30.725  27.325  24.866  1.00  0.00    -0.459 OA
BRANCH   5   6
ATOM      6  C   UNL A   1      30.244  26.915  23.671  1.00  0.00     0.361 C 
ATOM      7  O   UNL A   1      29.864  27.670  22.782  1.00  0.00    -0.245 OA
BRANCH   6   8
ATOM      8  C   UNL A   1      30.279  25.400  23.520  1.00  0.00     0.387 C 
BRANCH   8   9
ATOM      9  N   UNL A   1      31.567  24.845  23.098  1.00  0.00    -0.319 N 
ATOM     10  H   UNL A   1      30.556  24.917  22.979  1.00  0.00     0.349 HD
BRANCH   9  11
ATOM     11  C   UNL A   1      32.241  25.315  21.923  1.00  0.00     0.291 C 
BRANCH  11  12
ATOM     12  C   UNL A   1      33.489  26.073  22.304  1.00  0.00     0.025 C 
ATOM     13  C   UNL A   1      33.655  27.387  22.091  1.00  0.00     0.010 C 
ENDBRANCH  11  12
ENDBRANCH   9  11
BRANCH   9  14
ATOM     14  C   UNL A   1      32.220  23.823  23.869  1.00  0.00     0.300 C 
BRANCH  14  15
ATOM     15  C   UNL A   1      32.918  22.567  23.136  1.00  0.00     0.014 A 
ATOM     16  C   UNL A   1      31.937  21.150  22.749  1.00  0.00     0.010 A 
ATOM     17  C   UNL A   1      34.473  22.387  23.926  1.00  0.00    -0.010 A 
ATOM     18  C   UNL A   1      32.312  19.531  23.435  1.00  0.00     0.001 A 
ATOM     19  C   UNL A   1      34.906  20.875  24.724  1.00  0.00    -0.018 A 
ATOM     20  C   UNL A   1      35.454  23.297  23.553  1.00  0.00     0.009 A 
ATOM     21  C   UNL A   1      33.703  19.407  24.570  1.00  0.00     0.009 A 
ATOM     22  C   UNL A   1      36.270  21.034  25.101  1.00  0.00     0.009 A 
ATOM     23  C   UNL A   1      36.780  22.900  23.589  1.00  0.00     0.001 A 
ATOM     24  C   UNL A   1      37.176  21.826  24.368  1.00  0.00     0.001 A 
ENDBRANCH  14  15
ENDBRANCH   9  14
ENDBRANCH   8   9
ENDBRANCH   6   8
ENDBRANCH   5   6
ENDBRANCH   4   5
ENDBRANCH   3   4
ENDBRANCH   2   3
ENDBRANCH   1   2
BRANCH   1  25
ATOM     25  C   UNL A   1      35.194  30.747  28.364  1.00  0.00     0.188 C 
BRANCH  25  26
ATOM     26  O   UNL A   1      34.411  32.355  29.302  1.00  0.00    -0.376 OA
BRANCH  26  27
ATOM     27  C   UNL A   1      34.793  33.290  30.680  1.00  0.00     0.202 C 
BRANCH  27  28
ATOM     28  C   UNL A   1      34.931  32.786  32.364  1.00  0.00     0.261 C 
BRANCH  28  29
ATOM     29  O   UNL A   1      35.923  31.709  32.824  1.00  0.00    -0.460 OA
BRANCH  29  30
ATOM     30  C   UNL A   1      37.131  31.811  33.456  1.00  0.00     0.338 C 
ATOM     31  O   UNL A   1      37.270  31.773  34.671  1.00  0.00    -0.246 OA
BRANCH  30  32
ATOM     32  C   UNL A   1      38.381  31.821  32.516  1.00  0.00     0.060 A 
ATOM     33  C   UNL A   1      38.386  32.189  31.143  1.00  0.00     0.016 A 
ATOM     34  C   UNL A   1      39.547  31.197  32.944  1.00  0.00     0.016 A 
ATOM     35  C   UNL A   1      39.487  32.044  30.266  1.00  0.00     0.010 A 
ATOM     36  C   UNL A   1      40.646  30.992  32.060  1.00  0.00     0.010 A 
ATOM     37  C   UNL A   1      40.629  31.406  30.713  1.00  0.00    -0.014 A 
BRANCH  37  38
ATOM     38  C   UNL A   1      41.712  30.984  29.771  1.00  0.00     0.031 A 
ATOM     39  C   UNL A   1      41.634  29.613  29.151  1.00  0.00     0.074 A 
ATOM     40  C   UNL A   1      42.776  31.761  29.489  1.00  0.00     0.049 A 
ATOM     41  N   UNL A   1      42.572  28.882  28.603  1.00  0.00    -0.248 NA
ATOM     42  C   UNL A   1      40.306  28.982  29.159  1.00  0.00     0.031 C 
ATOM     43  C   UNL A   1      42.932  33.161  29.871  1.00  0.00     0.029 A 
ATOM     44  N   UNL A   1      43.958  31.456  28.846  1.00  0.00    -0.354 N 
ATOM     45  C   UNL A   1      41.963  27.680  28.257  1.00  0.00     0.074 A 
ATOM     46  C   UNL A   1      40.571  27.792  28.639  1.00  0.00     0.031 C 
ATOM     47  C   UNL A   1      44.164  33.576  29.519  1.00  0.00     0.029 A 
ATOM     48  C   UNL A   1      44.903  32.452  28.945  1.00  0.00     0.049 A 
ATOM     49  H   UNL A   1      44.110  30.610  28.366  1.00  0.00     0.167 HD
ATOM     50  C   UNL A   1      42.523  26.578  27.700  1.00  0.00     0.037 A 
ATOM     51  C   UNL A   1      46.225  32.437  28.669  1.00  0.00     0.037 A 
ATOM     52  C   UNL A   1      43.914  26.480  27.328  1.00  0.00     0.049 A 
ATOM     53  C   UNL A   1      46.861  31.166  28.155  1.00  0.00     0.074 A 
ATOM     54  C   UNL A   1      44.592  25.404  26.782  1.00  0.00     0.029 A 
ATOM     55  N   UNL A   1      44.842  27.503  27.469  1.00  0.00    -0.354 N 
ATOM     56  N   UNL A   1      46.311  30.003  27.901  1.00  0.00    -0.248 NA
ATOM     57  C   UNL A   1      48.309  31.207  27.894  1.00  0.00     0.031 C 
ATOM     58  C   UNL A   1      45.941  25.755  26.650  1.00  0.00     0.029 A 
ATOM     59  C   UNL A   1      46.089  27.076  27.040  1.00  0.00     0.049 A 
ATOM     60  H   UNL A   1      44.643  28.400  27.822  1.00  0.00     0.167 HD
ATOM     61  C   UNL A   1      47.330  29.190  27.417  1.00  0.00     0.074 A 
ATOM     62  C   UNL A   1      48.531  29.999  27.400  1.00  0.00     0.031 C 
ATOM     63  C   UNL A   1      47.277  27.893  27.020  1.00  0.00     0.037 A 
BRANCH  50  64
ATOM     64  C   UNL A   1      41.651  25.363  27.529  1.00  0.00     0.064 A 
ATOM     65  C   UNL A   1      41.820  24.204  28.302  1.00  0.00     0.173 A 
ATOM     66  C   UNL A   1      40.615  25.366  26.580  1.00  0.00     0.173 A 
ATOM     67  F   UNL A   1      42.800  24.137  29.216  1.00  0.00    -0.203 F 
ATOM     68  C   UNL A   1      41.011  23.085  28.105  1.00  0.00     0.198 A 
ATOM     69  C   UNL A   1      39.787  24.260  26.411  1.00  0.00     0.198 A 
ATOM     70  F   UNL A   1      40.400  26.448  25.816  1.00  0.00    -0.203 F 
ATOM     71  F   UNL A   1      41.231  21.968  28.814  1.00  0.00    -0.200 F 
ATOM     72  C   UNL A   1      39.992  23.116  27.166  1.00  0.00     0.200 A 
ATOM     73  F   UNL A   1      38.791  24.300  25.514  1.00  0.00    -0.200 F 
ATOM     74  F   UNL A   1      39.213  22.040  26.982  1.00  0.00    -0.200 F 
ENDBRANCH  50  64
BRANCH  51  75
ATOM     75  C   UNL A   1      47.061  33.647  28.922  1.00  0.00     0.064 A 
ATOM     76  C   UNL A   1      47.267  34.606  27.919  1.00  0.00     0.173 A 
ATOM     77  C   UNL A   1      47.698  33.857  30.155  1.00  0.00     0.173 A 
ATOM     78  F   UNL A   1      46.719  34.435  26.707  1.00  0.00    -0.203 F 
ATOM     79  C   UNL A   1      48.082  35.717  28.135  1.00  0.00     0.198 A 
ATOM     80  C   UNL A   1      48.484  34.986  30.382  1.00  0.00     0.198 A 
ATOM     81  F   UNL A   1      47.555  32.963  31.146  1.00  0.00    -0.203 F 
ATOM     82  F   UNL A   1      48.304  36.587  27.140  1.00  0.00    -0.200 F 
ATOM     83  C   UNL A   1      48.682  35.912  29.370  1.00  0.00     0.200 A 
ATOM     84  F   UNL A   1      49.056  35.172  31.580  1.00  0.00    -0.200 F 
ATOM     85  F   UNL A   1      49.458  36.984  29.580  1.00  0.00    -0.200 F 
ENDBRANCH  51  75
BRANCH  63  86
ATOM     86  C   UNL A   1      48.542  27.291  26.467  1.00  0.00     0.064 A 
ATOM     87  C   UNL A   1      48.844  27.311  25.096  1.00  0.00     0.173 A 
ATOM     88  C   UNL A   1      49.468  26.679  27.329  1.00  0.00     0.173 A 
ATOM     89  F   UNL A   1      47.992  27.871  24.225  1.00  0.00    -0.203 F 
ATOM     90  C   UNL A   1      49.995  26.697  24.606  1.00  0.00     0.198 A 
ATOM     91  C   UNL A   1      50.637  26.103  26.839  1.00  0.00     0.198 A 
ATOM     92  F   UNL A   1      49.240  26.641  28.650  1.00  0.00    -0.203 F 
ATOM     93  F   UNL A   1      50.222  26.661  23.285  1.00  0.00    -0.200 F 
ATOM     94  C   UNL A   1      50.892  26.098  25.477  1.00  0.00     0.200 A 
ATOM     95  F   UNL A   1      51.512  25.543  27.686  1.00  0.00    -0.200 F 
ATOM     96  F   UNL A   1      51.996  25.504  25.003  1.00  0.00    -0.200 F 
ENDBRANCH  63  86
ENDBRANCH  37  38
ENDBRANCH  30  32
ENDBRANCH  29  30
ENDBRANCH  28  29
ENDBRANCH  27  28
ENDBRANCH  26  27
ENDBRANCH  25  26
ENDBRANCH   1  25
TORSDOF 22
ENDMDL
