MODEL 1
REMARK VINA RESULT:     -12.7      0.000      0.000
REMARK SMILES Cc1cccc(NC(=O)C[C@@H]2CCCCO2)c1C(=O)OCCOCCOCCOC(=O)c1ccc(-c2c3nc(c(-c4c(F)c(F)c(F)c(F)c4F)c4ccc([nH]4)c(-c4c(F)c(F)c(F)c(F)c4F)c4nc(c(-c5c(F)c(F)c(F)c(F)c5F)c5ccc2[nH]5)C=C4)C=C3)cc1
REMARK SMILES IDX 24 1 23 2 22 3 21 4 20 5 18 6 19 7 17 8 1 9 2 10 3 11 4 12
REMARK SMILES IDX 6 13 5 14 7 15 8 16 9 18 10 19 11 20 12 21 16 22 13 23 15 24
REMARK SMILES IDX 14 25 25 26 26 27 27 28 28 29 29 30 30 31 31 32 32 33 33 34
REMARK SMILES IDX 94 35 34 36 93 37 35 38 36 39 37 40 87 41 38 42 92 43 86 44
REMARK SMILES IDX 88 45 39 46 91 47 85 48 84 49 40 51 72 52 52 53 71 54 53 55
REMARK SMILES IDX 56 56 70 57 89 58 54 59 55 60 69 62 90 63 57 64 41 65 42 66
REMARK SMILES IDX 50 67 43 68 44 69 48 70 51 71 45 72 46 73 49 74 47 75 73 76
REMARK SMILES IDX 74 77 82 78 75 79 76 80 80 81 83 82 77 83 78 84 81 85 79 86
REMARK SMILES IDX 58 87 59 88 67 89 60 90 61 91 65 92 68 93 62 94 63 95 66 96
REMARK SMILES IDX 64 97
REMARK H PARENT 7 17 88 50 56 61
REMARK Flexibility Score: inf
ROOT
ATOM      1  C   UNL A   1      33.581  33.526  27.996  1.00  0.00     0.188 C 
ENDROOT
BRANCH   1   2
ATOM      2  O   UNL A   1      33.470  32.101  28.196  1.00  0.00    -0.376 OA
BRANCH   2   3
ATOM      3  C   UNL A   1      33.965  31.060  27.326  1.00  0.00     0.202 C 
BRANCH   3   4
ATOM      4  C   UNL A   1      34.302  29.358  27.614  1.00  0.00     0.261 C 
BRANCH   4   5
ATOM      5  O   UNL A   1      34.362  27.882  26.575  1.00  0.00    -0.460 OA
BRANCH   5   6
ATOM      6  C   UNL A   1      33.465  26.897  25.893  1.00  0.00     0.340 C 
ATOM      7  O   UNL A   1      33.843  25.867  25.322  1.00  0.00    -0.246 OA
BRANCH   6   8
ATOM      8  C   UNL A   1      32.027  26.959  25.499  1.00  0.00     0.086 A 
ATOM      9  C   UNL A   1      32.272  29.211  24.336  1.00  0.00     0.045 C 
ATOM     10  C   UNL A   1      31.564  27.926  24.611  1.00  0.00    -0.034 A 
ATOM     11  C   UNL A   1      30.337  27.698  23.956  1.00  0.00     0.004 A 
ATOM     12  C   UNL A   1      29.577  26.543  24.159  1.00  0.00     0.002 A 
ATOM     13  C   UNL A   1      31.140  25.814  25.833  1.00  0.00     0.056 A 
ATOM     14  C   UNL A   1      29.972  25.609  25.100  1.00  0.00     0.027 A 
BRANCH  13  15
ATOM     15  N   UNL A   1      31.437  24.866  26.873  1.00  0.00    -0.325 N 
ATOM     16  C   UNL A   1      31.859  23.555  26.873  1.00  0.00     0.227 C 
ATOM     17  H   UNL A   1      31.313  25.233  27.778  1.00  0.00     0.169 HD
ATOM     18  O   UNL A   1      32.342  23.062  27.896  1.00  0.00    -0.275 OA
BRANCH  16  19
ATOM     19  C   UNL A   1      31.775  22.641  25.675  1.00  0.00     0.132 C 
BRANCH  19  20
ATOM     20  C   UNL A   1      33.076  22.272  24.940  1.00  0.00     0.127 C 
ATOM     21  C   UNL A   1      33.182  23.053  23.623  1.00  0.00     0.033 C 
ATOM     22  O   UNL A   1      33.314  20.897  24.660  1.00  0.00    -0.378 OA
ATOM     23  C   UNL A   1      32.098  22.601  22.652  1.00  0.00     0.005 C 
ATOM     24  C   UNL A   1      32.482  20.286  23.694  1.00  0.00     0.160 C 
ATOM     25  C   UNL A   1      32.153  21.095  22.448  1.00  0.00     0.029 C 
ENDBRANCH  19  20
ENDBRANCH  16  19
ENDBRANCH  13  15
ENDBRANCH   6   8
ENDBRANCH   5   6
ENDBRANCH   4   5
ENDBRANCH   3   4
ENDBRANCH   2   3
ENDBRANCH   1   2
BRANCH   1  26
ATOM     26  C   UNL A   1      33.806  34.527  29.123  1.00  0.00     0.188 C 
BRANCH  26  27
ATOM     27  O   UNL A   1      32.571  34.956  29.647  1.00  0.00    -0.376 OA
BRANCH  27  28
ATOM     28  C   UNL A   1      32.614  36.083  30.499  1.00  0.00     0.202 C 
BRANCH  28  29
ATOM     29  C   UNL A   1      32.453  35.748  31.996  1.00  0.00     0.261 C 
BRANCH  29  30
ATOM     30  O   UNL A   1      33.728  35.481  32.633  1.00  0.00    -0.460 OA
BRANCH  30  31
ATOM     31  C   UNL A   1      34.070  34.168  32.868  1.00  0.00     0.338 C 
ATOM     32  O   UNL A   1      33.261  33.263  33.031  1.00  0.00    -0.246 OA
BRANCH  31  33
ATOM     33  C   UNL A   1      35.546  34.059  33.112  1.00  0.00     0.060 A 
ATOM     34  C   UNL A   1      36.580  34.821  32.543  1.00  0.00     0.016 A 
ATOM     35  C   UNL A   1      35.920  32.886  33.652  1.00  0.00     0.016 A 
ATOM     36  C   UNL A   1      37.908  34.258  32.298  1.00  0.00     0.010 A 
ATOM     37  C   UNL A   1      37.044  32.317  33.087  1.00  0.00     0.010 A 
ATOM     38  C   UNL A   1      38.183  32.895  32.436  1.00  0.00    -0.014 A 
BRANCH  38  39
ATOM     39  C   UNL A   1      39.686  32.079  32.016  1.00  0.00     0.031 A 
ATOM     40  C   UNL A   1      39.989  30.571  31.098  1.00  0.00     0.074 A 
ATOM     41  C   UNL A   1      40.809  32.533  32.611  1.00  0.00     0.049 A 
ATOM     42  N   UNL A   1      40.923  29.682  31.377  1.00  0.00    -0.248 NA
ATOM     43  C   UNL A   1      39.175  29.898  29.961  1.00  0.00     0.031 C 
ATOM     44  C   UNL A   1      42.191  32.154  32.325  1.00  0.00     0.029 A 
ATOM     45  N   UNL A   1      40.927  33.442  33.673  1.00  0.00    -0.354 N 
ATOM     46  C   UNL A   1      40.820  28.646  30.425  1.00  0.00     0.074 A 
ATOM     47  C   UNL A   1      39.507  28.627  29.956  1.00  0.00     0.031 C 
ATOM     48  C   UNL A   1      42.966  32.560  33.346  1.00  0.00     0.029 A 
ATOM     49  C   UNL A   1      42.079  33.061  34.379  1.00  0.00     0.049 A 
ATOM     50  H   UNL A   1      40.325  34.193  33.881  1.00  0.00     0.167 HD
ATOM     51  C   UNL A   1      41.890  28.055  29.827  1.00  0.00     0.037 A 
ATOM     52  C   UNL A   1      41.975  32.580  35.647  1.00  0.00     0.037 A 
ATOM     53  C   UNL A   1      42.999  28.226  30.721  1.00  0.00     0.049 A 
ATOM     54  C   UNL A   1      42.477  31.147  35.750  1.00  0.00     0.074 A 
ATOM     55  C   UNL A   1      44.032  29.133  30.790  1.00  0.00     0.029 A 
ATOM     56  N   UNL A   1      42.826  27.702  31.993  1.00  0.00    -0.354 N 
ATOM     57  N   UNL A   1      42.719  30.363  34.729  1.00  0.00    -0.248 NA
ATOM     58  C   UNL A   1      42.777  30.499  37.021  1.00  0.00     0.031 C 
ATOM     59  C   UNL A   1      44.352  29.279  32.176  1.00  0.00     0.029 A 
ATOM     60  C   UNL A   1      43.566  28.408  32.916  1.00  0.00     0.049 A 
ATOM     61  H   UNL A   1      42.252  26.931  32.207  1.00  0.00     0.167 HD
ATOM     62  C   UNL A   1      43.148  29.139  35.170  1.00  0.00     0.074 A 
ATOM     63  C   UNL A   1      43.206  29.293  36.611  1.00  0.00     0.031 C 
ATOM     64  C   UNL A   1      43.406  28.088  34.331  1.00  0.00     0.037 A 
BRANCH  51  65
ATOM     65  C   UNL A   1      41.931  27.457  28.405  1.00  0.00     0.064 A 
ATOM     66  C   UNL A   1      42.128  26.068  28.251  1.00  0.00     0.173 A 
ATOM     67  C   UNL A   1      41.912  28.158  27.162  1.00  0.00     0.173 A 
ATOM     68  F   UNL A   1      42.214  25.269  29.322  1.00  0.00    -0.203 F 
ATOM     69  C   UNL A   1      42.276  25.449  26.995  1.00  0.00     0.198 A 
ATOM     70  C   UNL A   1      42.001  27.530  25.910  1.00  0.00     0.198 A 
ATOM     71  F   UNL A   1      41.887  29.491  27.067  1.00  0.00    -0.203 F 
ATOM     72  F   UNL A   1      42.520  24.133  26.928  1.00  0.00    -0.200 F 
ATOM     73  C   UNL A   1      42.197  26.175  25.825  1.00  0.00     0.200 A 
ATOM     74  F   UNL A   1      41.933  28.269  24.790  1.00  0.00    -0.200 F 
ATOM     75  F   UNL A   1      42.339  25.585  24.630  1.00  0.00    -0.200 F 
ENDBRANCH  51  65
BRANCH  52  76
ATOM     76  C   UNL A   1      40.846  33.204  36.413  1.00  0.00     0.064 A 
ATOM     77  C   UNL A   1      39.608  32.536  36.510  1.00  0.00     0.173 A 
ATOM     78  C   UNL A   1      41.081  34.211  37.349  1.00  0.00     0.173 A 
ATOM     79  F   UNL A   1      39.319  31.541  35.656  1.00  0.00    -0.203 F 
ATOM     80  C   UNL A   1      38.710  32.788  37.552  1.00  0.00     0.198 A 
ATOM     81  C   UNL A   1      40.153  34.506  38.365  1.00  0.00     0.198 A 
ATOM     82  F   UNL A   1      42.297  34.757  37.382  1.00  0.00    -0.203 F 
ATOM     83  F   UNL A   1      37.613  32.027  37.692  1.00  0.00    -0.200 F 
ATOM     84  C   UNL A   1      38.992  33.761  38.490  1.00  0.00     0.200 A 
ATOM     85  F   UNL A   1      40.453  35.384  39.334  1.00  0.00    -0.200 F 
ATOM     86  F   UNL A   1      38.194  33.922  39.558  1.00  0.00    -0.200 F 
ENDBRANCH  52  76
BRANCH  64  87
ATOM     87  C   UNL A   1      43.536  26.636  34.768  1.00  0.00     0.064 A 
ATOM     88  C   UNL A   1      42.444  25.787  35.010  1.00  0.00     0.173 A 
ATOM     89  C   UNL A   1      44.805  26.000  34.803  1.00  0.00     0.173 A 
ATOM     90  F   UNL A   1      41.181  26.200  34.851  1.00  0.00    -0.203 F 
ATOM     91  C   UNL A   1      42.609  24.444  35.362  1.00  0.00     0.198 A 
ATOM     92  C   UNL A   1      44.958  24.636  35.050  1.00  0.00     0.198 A 
ATOM     93  F   UNL A   1      45.941  26.671  34.560  1.00  0.00    -0.203 F 
ATOM     94  F   UNL A   1      41.534  23.703  35.667  1.00  0.00    -0.200 F 
ATOM     95  C   UNL A   1      43.862  23.866  35.366  1.00  0.00     0.200 A 
ATOM     96  F   UNL A   1      46.172  24.075  34.959  1.00  0.00    -0.200 F 
ATOM     97  F   UNL A   1      44.010  22.564  35.650  1.00  0.00    -0.200 F 
ENDBRANCH  64  87
ENDBRANCH  38  39
ENDBRANCH  31  33
ENDBRANCH  30  31
ENDBRANCH  29  30
ENDBRANCH  28  29
ENDBRANCH  27  28
ENDBRANCH  26  27
ENDBRANCH   1  26
TORSDOF 20
ENDMDL
MODEL 2
REMARK VINA RESULT:     -12.2      4.208      6.980
REMARK SMILES Cc1cccc(NC(=O)C[C@@H]2CCCCO2)c1C(=O)OCCOCCOCCOC(=O)c1ccc(-c2c3nc(c(-c4c(F)c(F)c(F)c(F)c4F)c4ccc([nH]4)c(-c4c(F)c(F)c(F)c(F)c4F)c4nc(c(-c5c(F)c(F)c(F)c(F)c5F)c5ccc2[nH]5)C=C4)C=C3)cc1
REMARK SMILES IDX 24 1 23 2 22 3 21 4 20 5 18 6 19 7 17 8 1 9 2 10 3 11 4 12
REMARK SMILES IDX 6 13 5 14 7 15 8 16 9 18 10 19 11 20 12 21 16 22 13 23 15 24
REMARK SMILES IDX 14 25 25 26 26 27 27 28 28 29 29 30 30 31 31 32 32 33 33 34
REMARK SMILES IDX 94 35 34 36 93 37 35 38 36 39 37 40 87 41 38 42 92 43 86 44
REMARK SMILES IDX 88 45 39 46 91 47 85 48 84 49 40 51 72 52 52 53 71 54 53 55
REMARK SMILES IDX 56 56 70 57 89 58 54 59 55 60 69 62 90 63 57 64 41 65 42 66
REMARK SMILES IDX 50 67 43 68 44 69 48 70 51 71 45 72 46 73 49 74 47 75 73 76
REMARK SMILES IDX 74 77 82 78 75 79 76 80 80 81 83 82 77 83 78 84 81 85 79 86
REMARK SMILES IDX 58 87 59 88 67 89 60 90 61 91 65 92 68 93 62 94 63 95 66 96
REMARK SMILES IDX 64 97
REMARK H PARENT 7 17 88 50 56 61
REMARK Flexibility Score: inf
ROOT
ATOM      1  C   UNL A   1      36.993  30.789  29.517  1.00  0.00     0.188 C 
ENDROOT
BRANCH   1   2
ATOM      2  O   UNL A   1      36.273  29.636  29.032  1.00  0.00    -0.376 OA
BRANCH   2   3
ATOM      3  C   UNL A   1      35.791  29.412  27.690  1.00  0.00     0.202 C 
BRANCH   3   4
ATOM      4  C   UNL A   1      34.170  29.165  27.055  1.00  0.00     0.261 C 
BRANCH   4   5
ATOM      5  O   UNL A   1      33.086  27.733  26.864  1.00  0.00    -0.460 OA
BRANCH   5   6
ATOM      6  C   UNL A   1      31.684  27.372  26.480  1.00  0.00     0.340 C 
ATOM      7  O   UNL A   1      30.775  27.104  27.274  1.00  0.00    -0.246 OA
BRANCH   6   8
ATOM      8  C   UNL A   1      31.070  27.006  25.170  1.00  0.00     0.086 A 
ATOM      9  C   UNL A   1      31.277  29.361  24.226  1.00  0.00     0.045 C 
ATOM     10  C   UNL A   1      31.091  27.886  24.093  1.00  0.00    -0.034 A 
ATOM     11  C   UNL A   1      30.891  27.363  22.799  1.00  0.00     0.004 A 
ATOM     12  C   UNL A   1      30.680  26.002  22.561  1.00  0.00     0.002 A 
ATOM     13  C   UNL A   1      30.684  25.591  24.929  1.00  0.00     0.056 A 
ATOM     14  C   UNL A   1      30.568  25.121  23.622  1.00  0.00     0.027 A 
BRANCH  13  15
ATOM     15  N   UNL A   1      30.446  24.648  25.988  1.00  0.00    -0.325 N 
ATOM     16  C   UNL A   1      31.174  23.604  26.514  1.00  0.00     0.227 C 
ATOM     17  H   UNL A   1      29.577  24.777  26.433  1.00  0.00     0.169 HD
ATOM     18  O   UNL A   1      30.887  23.147  27.625  1.00  0.00    -0.275 OA
BRANCH  16  19
ATOM     19  C   UNL A   1      32.341  22.951  25.813  1.00  0.00     0.132 C 
BRANCH  19  20
ATOM     20  C   UNL A   1      33.766  23.350  26.234  1.00  0.00     0.127 C 
ATOM     21  C   UNL A   1      34.142  24.705  25.620  1.00  0.00     0.033 C 
ATOM     22  O   UNL A   1      34.820  22.432  25.963  1.00  0.00    -0.378 OA
ATOM     23  C   UNL A   1      34.252  24.586  24.104  1.00  0.00     0.005 C 
ATOM     24  C   UNL A   1      35.171  22.241  24.607  1.00  0.00     0.160 C 
ATOM     25  C   UNL A   1      35.220  23.478  23.721  1.00  0.00     0.029 C 
ENDBRANCH  19  20
ENDBRANCH  16  19
ENDBRANCH  13  15
ENDBRANCH   6   8
ENDBRANCH   5   6
ENDBRANCH   4   5
ENDBRANCH   3   4
ENDBRANCH   2   3
ENDBRANCH   1   2
BRANCH   1  26
ATOM     26  C   UNL A   1      36.408  31.810  30.486  1.00  0.00     0.188 C 
BRANCH  26  27
ATOM     27  O   UNL A   1      37.388  32.755  30.848  1.00  0.00    -0.376 OA
BRANCH  27  28
ATOM     28  C   UNL A   1      37.938  32.616  32.142  1.00  0.00     0.202 C 
BRANCH  28  29
ATOM     29  C   UNL A   1      37.195  31.602  33.038  1.00  0.00     0.261 C 
BRANCH  29  30
ATOM     30  O   UNL A   1      37.741  30.264  32.912  1.00  0.00    -0.460 OA
BRANCH  30  31
ATOM     31  C   UNL A   1      38.786  29.912  33.736  1.00  0.00     0.338 C 
ATOM     32  O   UNL A   1      39.072  30.495  34.775  1.00  0.00    -0.246 OA
BRANCH  31  33
ATOM     33  C   UNL A   1      39.636  28.873  33.069  1.00  0.00     0.060 A 
ATOM     34  C   UNL A   1      41.038  28.788  33.031  1.00  0.00     0.016 A 
ATOM     35  C   UNL A   1      38.987  28.168  32.125  1.00  0.00     0.016 A 
ATOM     36  C   UNL A   1      41.745  28.216  31.885  1.00  0.00     0.010 A 
ATOM     37  C   UNL A   1      39.693  27.974  30.955  1.00  0.00     0.010 A 
ATOM     38  C   UNL A   1      41.100  27.890  30.690  1.00  0.00    -0.014 A 
BRANCH  38  39
ATOM     39  C   UNL A   1      41.862  27.352  29.196  1.00  0.00     0.031 A 
ATOM     40  C   UNL A   1      42.606  25.784  28.752  1.00  0.00     0.074 A 
ATOM     41  C   UNL A   1      42.104  28.299  28.264  1.00  0.00     0.049 A 
ATOM     42  N   UNL A   1      43.686  25.635  28.011  1.00  0.00    -0.248 NA
ATOM     43  C   UNL A   1      42.304  24.345  29.248  1.00  0.00     0.031 C 
ATOM     44  C   UNL A   1      42.566  28.108  26.892  1.00  0.00     0.029 A 
ATOM     45  N   UNL A   1      42.013  29.693  28.393  1.00  0.00    -0.354 N 
ATOM     46  C   UNL A   1      43.943  24.251  27.909  1.00  0.00     0.074 A 
ATOM     47  C   UNL A   1      43.384  23.631  29.025  1.00  0.00     0.031 C 
ATOM     48  C   UNL A   1      43.005  29.288  26.420  1.00  0.00     0.029 A 
ATOM     49  C   UNL A   1      42.984  30.222  27.530  1.00  0.00     0.049 A 
ATOM     50  H   UNL A   1      41.395  30.197  28.971  1.00  0.00     0.167 HD
ATOM     51  C   UNL A   1      44.325  23.633  26.758  1.00  0.00     0.037 A 
ATOM     52  C   UNL A   1      44.057  30.889  28.035  1.00  0.00     0.037 A 
ATOM     53  C   UNL A   1      44.956  24.635  25.949  1.00  0.00     0.049 A 
ATOM     54  C   UNL A   1      45.367  30.192  27.695  1.00  0.00     0.074 A 
ATOM     55  C   UNL A   1      44.521  25.434  24.916  1.00  0.00     0.029 A 
ATOM     56  N   UNL A   1      46.048  25.266  26.525  1.00  0.00    -0.354 N 
ATOM     57  N   UNL A   1      45.466  28.973  27.225  1.00  0.00    -0.248 NA
ATOM     58  C   UNL A   1      46.668  30.835  27.828  1.00  0.00     0.031 C 
ATOM     59  C   UNL A   1      45.264  26.652  25.004  1.00  0.00     0.029 A 
ATOM     60  C   UNL A   1      46.186  26.546  26.035  1.00  0.00     0.049 A 
ATOM     61  H   UNL A   1      46.644  24.854  27.192  1.00  0.00     0.167 HD
ATOM     62  C   UNL A   1      46.784  28.650  27.037  1.00  0.00     0.074 A 
ATOM     63  C   UNL A   1      47.490  29.866  27.391  1.00  0.00     0.031 C 
ATOM     64  C   UNL A   1      47.202  27.413  26.625  1.00  0.00     0.037 A 
BRANCH  51  65
ATOM     65  C   UNL A   1      44.003  22.180  26.349  1.00  0.00     0.064 A 
ATOM     66  C   UNL A   1      45.022  21.386  25.783  1.00  0.00     0.173 A 
ATOM     67  C   UNL A   1      42.731  21.532  26.356  1.00  0.00     0.173 A 
ATOM     68  F   UNL A   1      46.269  21.861  25.661  1.00  0.00    -0.203 F 
ATOM     69  C   UNL A   1      44.799  20.085  25.291  1.00  0.00     0.198 A 
ATOM     70  C   UNL A   1      42.524  20.214  25.920  1.00  0.00     0.198 A 
ATOM     71  F   UNL A   1      41.595  22.142  26.706  1.00  0.00    -0.203 F 
ATOM     72  F   UNL A   1      45.803  19.412  24.713  1.00  0.00    -0.200 F 
ATOM     73  C   UNL A   1      43.555  19.493  25.374  1.00  0.00     0.200 A 
ATOM     74  F   UNL A   1      41.297  19.673  26.001  1.00  0.00    -0.200 F 
ATOM     75  F   UNL A   1      43.343  18.256  24.905  1.00  0.00    -0.200 F 
ENDBRANCH  51  65
BRANCH  52  76
ATOM     76  C   UNL A   1      43.731  31.647  29.289  1.00  0.00     0.064 A 
ATOM     77  C   UNL A   1      44.059  31.100  30.546  1.00  0.00     0.173 A 
ATOM     78  C   UNL A   1      43.482  33.018  29.256  1.00  0.00     0.173 A 
ATOM     79  F   UNL A   1      44.332  29.790  30.652  1.00  0.00    -0.203 F 
ATOM     80  C   UNL A   1      44.234  31.901  31.679  1.00  0.00     0.198 A 
ATOM     81  C   UNL A   1      43.602  33.819  30.407  1.00  0.00     0.198 A 
ATOM     82  F   UNL A   1      43.319  33.593  28.063  1.00  0.00    -0.203 F 
ATOM     83  F   UNL A   1      44.690  31.360  32.819  1.00  0.00    -0.200 F 
ATOM     84  C   UNL A   1      44.023  33.264  31.604  1.00  0.00     0.200 A 
ATOM     85  F   UNL A   1      43.489  35.153  30.330  1.00  0.00    -0.200 F 
ATOM     86  F   UNL A   1      44.308  34.050  32.654  1.00  0.00    -0.200 F 
ENDBRANCH  52  76
BRANCH  64  87
ATOM     87  C   UNL A   1      48.627  26.892  26.738  1.00  0.00     0.064 A 
ATOM     88  C   UNL A   1      49.155  26.289  27.891  1.00  0.00     0.173 A 
ATOM     89  C   UNL A   1      49.474  26.845  25.600  1.00  0.00     0.173 A 
ATOM     90  F   UNL A   1      48.417  26.109  28.993  1.00  0.00    -0.203 F 
ATOM     91  C   UNL A   1      50.456  25.779  27.935  1.00  0.00     0.198 A 
ATOM     92  C   UNL A   1      50.730  26.240  25.619  1.00  0.00     0.198 A 
ATOM     93  F   UNL A   1      49.098  27.350  24.415  1.00  0.00    -0.203 F 
ATOM     94  F   UNL A   1      50.937  25.294  29.088  1.00  0.00    -0.200 F 
ATOM     95  C   UNL A   1      51.236  25.740  26.797  1.00  0.00     0.200 A 
ATOM     96  F   UNL A   1      51.435  26.130  24.484  1.00  0.00    -0.200 F 
ATOM     97  F   UNL A   1      52.462  25.199  26.832  1.00  0.00    -0.200 F 
ENDBRANCH  64  87
ENDBRANCH  38  39
ENDBRANCH  31  33
ENDBRANCH  30  31
ENDBRANCH  29  30
ENDBRANCH  28  29
ENDBRANCH  27  28
ENDBRANCH  26  27
ENDBRANCH   1  26
TORSDOF 20
ENDMDL
MODEL 3
REMARK VINA RESULT:     -12.2      3.442      9.429
REMARK SMILES Cc1cccc(NC(=O)C[C@@H]2CCCCO2)c1C(=O)OCCOCCOCCOC(=O)c1ccc(-c2c3nc(c(-c4c(F)c(F)c(F)c(F)c4F)c4ccc([nH]4)c(-c4c(F)c(F)c(F)c(F)c4F)c4nc(c(-c5c(F)c(F)c(F)c(F)c5F)c5ccc2[nH]5)C=C4)C=C3)cc1
REMARK SMILES IDX 24 1 23 2 22 3 21 4 20 5 18 6 19 7 17 8 1 9 2 10 3 11 4 12
REMARK SMILES IDX 6 13 5 14 7 15 8 16 9 18 10 19 11 20 12 21 16 22 13 23 15 24
REMARK SMILES IDX 14 25 25 26 26 27 27 28 28 29 29 30 30 31 31 32 32 33 33 34
REMARK SMILES IDX 94 35 34 36 93 37 35 38 36 39 37 40 87 41 38 42 92 43 86 44
REMARK SMILES IDX 88 45 39 46 91 47 85 48 84 49 40 51 72 52 52 53 71 54 53 55
REMARK SMILES IDX 56 56 70 57 89 58 54 59 55 60 69 62 90 63 57 64 41 65 42 66
REMARK SMILES IDX 50 67 43 68 44 69 48 70 51 71 45 72 46 73 49 74 47 75 73 76
REMARK SMILES IDX 74 77 82 78 75 79 76 80 80 81 83 82 77 83 78 84 81 85 79 86
REMARK SMILES IDX 58 87 59 88 67 89 60 90 61 91 65 92 68 93 62 94 63 95 66 96
REMARK SMILES IDX 64 97
REMARK H PARENT 7 17 88 50 56 61
REMARK Flexibility Score: inf
ROOT
ATOM      1  C   UNL A   1      40.711  22.278  27.286  1.00  0.00     0.188 C 
ENDROOT
BRANCH   1   2
ATOM      2  O   UNL A   1      39.839  21.360  26.593  1.00  0.00    -0.376 OA
BRANCH   2   3
ATOM      3  C   UNL A   1      38.701  21.695  25.769  1.00  0.00     0.202 C 
BRANCH   3   4
ATOM      4  C   UNL A   1      37.745  23.165  25.637  1.00  0.00     0.261 C 
BRANCH   4   5
ATOM      5  O   UNL A   1      36.343  23.680  24.622  1.00  0.00    -0.460 OA
BRANCH   5   6
ATOM      6  C   UNL A   1      35.324  23.131  23.672  1.00  0.00     0.340 C 
ATOM      7  O   UNL A   1      35.417  23.154  22.439  1.00  0.00    -0.246 OA
BRANCH   6   8
ATOM      8  C   UNL A   1      33.920  22.669  23.870  1.00  0.00     0.086 A 
ATOM      9  C   UNL A   1      34.619  20.468  24.943  1.00  0.00     0.045 C 
ATOM     10  C   UNL A   1      33.632  21.546  24.640  1.00  0.00    -0.034 A 
ATOM     11  C   UNL A   1      32.321  21.397  25.139  1.00  0.00     0.004 A 
ATOM     12  C   UNL A   1      31.311  22.330  24.894  1.00  0.00     0.002 A 
ATOM     13  C   UNL A   1      32.805  23.571  23.478  1.00  0.00     0.056 A 
ATOM     14  C   UNL A   1      31.549  23.409  24.060  1.00  0.00     0.027 A 
BRANCH  13  15
ATOM     15  N   UNL A   1      32.957  24.646  22.535  1.00  0.00    -0.325 N 
ATOM     16  C   UNL A   1      33.458  25.924  22.621  1.00  0.00     0.227 C 
ATOM     17  H   UNL A   1      32.632  24.417  21.633  1.00  0.00     0.169 HD
ATOM     18  O   UNL A   1      33.765  26.540  21.596  1.00  0.00    -0.275 OA
BRANCH  16  19
ATOM     19  C   UNL A   1      33.674  26.660  23.922  1.00  0.00     0.132 C 
BRANCH  19  20
ATOM     20  C   UNL A   1      32.737  27.832  24.267  1.00  0.00     0.127 C 
ATOM     21  C   UNL A   1      32.769  28.110  25.776  1.00  0.00     0.033 C 
ATOM     22  O   UNL A   1      31.376  27.736  23.862  1.00  0.00    -0.378 OA
ATOM     23  C   UNL A   1      32.157  26.943  26.542  1.00  0.00     0.005 C 
ATOM     24  C   UNL A   1      30.576  26.776  24.525  1.00  0.00     0.160 C 
ATOM     25  C   UNL A   1      30.758  26.640  26.030  1.00  0.00     0.029 C 
ENDBRANCH  19  20
ENDBRANCH  16  19
ENDBRANCH  13  15
ENDBRANCH   6   8
ENDBRANCH   5   6
ENDBRANCH   4   5
ENDBRANCH   3   4
ENDBRANCH   2   3
ENDBRANCH   1   2
BRANCH   1  26
ATOM     26  C   UNL A   1      42.195  22.026  27.522  1.00  0.00     0.188 C 
BRANCH  26  27
ATOM     27  O   UNL A   1      42.954  22.547  26.456  1.00  0.00    -0.376 OA
BRANCH  27  28
ATOM     28  C   UNL A   1      43.890  23.551  26.790  1.00  0.00     0.202 C 
BRANCH  28  29
ATOM     29  C   UNL A   1      43.270  24.790  27.470  1.00  0.00     0.261 C 
BRANCH  29  30
ATOM     30  O   UNL A   1      43.547  26.008  26.734  1.00  0.00    -0.460 OA
BRANCH  30  31
ATOM     31  C   UNL A   1      42.638  26.407  25.779  1.00  0.00     0.338 C 
ATOM     32  O   UNL A   1      42.642  26.016  24.618  1.00  0.00    -0.246 OA
BRANCH  31  33
ATOM     33  C   UNL A   1      41.803  27.535  26.306  1.00  0.00     0.060 A 
ATOM     34  C   UNL A   1      42.233  28.772  26.816  1.00  0.00     0.016 A 
ATOM     35  C   UNL A   1      40.554  27.170  26.645  1.00  0.00     0.016 A 
ATOM     36  C   UNL A   1      41.494  29.471  27.868  1.00  0.00     0.010 A 
ATOM     37  C   UNL A   1      40.106  27.680  27.848  1.00  0.00     0.010 A 
ATOM     38  C   UNL A   1      40.431  28.883  28.557  1.00  0.00    -0.014 A 
BRANCH  38  39
ATOM     39  C   UNL A   1      39.576  29.555  29.941  1.00  0.00     0.031 A 
ATOM     40  C   UNL A   1      38.711  31.111  30.149  1.00  0.00     0.074 A 
ATOM     41  C   UNL A   1      39.716  28.905  31.116  1.00  0.00     0.049 A 
ATOM     42  N   UNL A   1      38.711  31.843  31.246  1.00  0.00    -0.248 NA
ATOM     43  C   UNL A   1      37.972  32.002  29.116  1.00  0.00     0.031 C 
ATOM     44  C   UNL A   1      38.998  29.144  32.365  1.00  0.00     0.029 A 
ATOM     45  N   UNL A   1      40.609  27.872  31.439  1.00  0.00    -0.354 N 
ATOM     46  C   UNL A   1      37.924  32.986  30.992  1.00  0.00     0.074 A 
ATOM     47  C   UNL A   1      37.938  33.217  29.617  1.00  0.00     0.031 C 
ATOM     48  C   UNL A   1      39.660  28.534  33.363  1.00  0.00     0.029 A 
ATOM     49  C   UNL A   1      40.899  28.029  32.803  1.00  0.00     0.049 A 
ATOM     50  H   UNL A   1      40.961  27.180  30.833  1.00  0.00     0.167 HD
ATOM     51  C   UNL A   1      37.035  33.509  31.881  1.00  0.00     0.037 A 
ATOM     52  C   UNL A   1      42.155  28.371  33.199  1.00  0.00     0.037 A 
ATOM     53  C   UNL A   1      37.480  33.105  33.183  1.00  0.00     0.049 A 
ATOM     54  C   UNL A   1      42.175  29.712  33.919  1.00  0.00     0.074 A 
ATOM     55  C   UNL A   1      37.129  32.078  34.031  1.00  0.00     0.029 A 
ATOM     56  N   UNL A   1      38.766  33.496  33.523  1.00  0.00    -0.354 N 
ATOM     57  N   UNL A   1      41.187  30.572  33.925  1.00  0.00    -0.248 NA
ATOM     58  C   UNL A   1      43.305  30.169  34.718  1.00  0.00     0.031 C 
ATOM     59  C   UNL A   1      38.307  31.737  34.765  1.00  0.00     0.029 A 
ATOM     60  C   UNL A   1      39.328  32.606  34.411  1.00  0.00     0.049 A 
ATOM     61  H   UNL A   1      39.215  34.301  33.177  1.00  0.00     0.167 HD
ATOM     62  C   UNL A   1      41.535  31.678  34.656  1.00  0.00     0.074 A 
ATOM     63  C   UNL A   1      42.854  31.353  35.164  1.00  0.00     0.031 C 
ATOM     64  C   UNL A   1      40.730  32.779  34.779  1.00  0.00     0.037 A 
BRANCH  51  65
ATOM     65  C   UNL A   1      35.729  34.256  31.539  1.00  0.00     0.064 A 
ATOM     66  C   UNL A   1      35.251  35.242  32.427  1.00  0.00     0.173 A 
ATOM     67  C   UNL A   1      34.833  33.998  30.458  1.00  0.00     0.173 A 
ATOM     68  F   UNL A   1      35.952  35.573  33.520  1.00  0.00    -0.203 F 
ATOM     69  C   UNL A   1      34.022  35.906  32.249  1.00  0.00     0.198 A 
ATOM     70  C   UNL A   1      33.637  34.703  30.251  1.00  0.00     0.198 A 
ATOM     71  F   UNL A   1      35.003  33.007  29.579  1.00  0.00    -0.203 F 
ATOM     72  F   UNL A   1      33.605  36.789  33.166  1.00  0.00    -0.200 F 
ATOM     73  C   UNL A   1      33.222  35.649  31.154  1.00  0.00     0.200 A 
ATOM     74  F   UNL A   1      32.875  34.418  29.182  1.00  0.00    -0.200 F 
ATOM     75  F   UNL A   1      32.052  36.280  30.985  1.00  0.00    -0.200 F 
ENDBRANCH  51  65
BRANCH  52  76
ATOM     76  C   UNL A   1      43.220  27.803  32.307  1.00  0.00     0.064 A 
ATOM     77  C   UNL A   1      43.758  28.589  31.268  1.00  0.00     0.173 A 
ATOM     78  C   UNL A   1      43.970  26.694  32.696  1.00  0.00     0.173 A 
ATOM     79  F   UNL A   1      43.102  29.685  30.853  1.00  0.00    -0.203 F 
ATOM     80  C   UNL A   1      45.024  28.339  30.730  1.00  0.00     0.198 A 
ATOM     81  C   UNL A   1      45.220  26.407  32.117  1.00  0.00     0.198 A 
ATOM     82  F   UNL A   1      43.567  26.019  33.774  1.00  0.00    -0.203 F 
ATOM     83  F   UNL A   1      45.562  29.198  29.849  1.00  0.00    -0.200 F 
ATOM     84  C   UNL A   1      45.763  27.258  31.169  1.00  0.00     0.200 A 
ATOM     85  F   UNL A   1      45.986  25.415  32.595  1.00  0.00    -0.200 F 
ATOM     86  F   UNL A   1      47.025  27.086  30.745  1.00  0.00    -0.200 F 
ENDBRANCH  52  76
BRANCH  64  87
ATOM     87  C   UNL A   1      41.192  34.145  35.266  1.00  0.00     0.064 A 
ATOM     88  C   UNL A   1      41.292  34.504  36.620  1.00  0.00     0.173 A 
ATOM     89  C   UNL A   1      41.712  35.102  34.355  1.00  0.00     0.173 A 
ATOM     90  F   UNL A   1      40.997  33.643  37.601  1.00  0.00    -0.203 F 
ATOM     91  C   UNL A   1      41.770  35.754  37.024  1.00  0.00     0.198 A 
ATOM     92  C   UNL A   1      42.284  36.303  34.770  1.00  0.00     0.198 A 
ATOM     93  F   UNL A   1      41.718  34.890  33.031  1.00  0.00    -0.203 F 
ATOM     94  F   UNL A   1      41.760  36.075  38.326  1.00  0.00    -0.200 F 
ATOM     95  C   UNL A   1      42.280  36.646  36.103  1.00  0.00     0.200 A 
ATOM     96  F   UNL A   1      42.858  37.115  33.869  1.00  0.00    -0.200 F 
ATOM     97  F   UNL A   1      42.787  37.820  36.502  1.00  0.00    -0.200 F 
ENDBRANCH  64  87
ENDBRANCH  38  39
ENDBRANCH  31  33
ENDBRANCH  30  31
ENDBRANCH  29  30
ENDBRANCH  28  29
ENDBRANCH  27  28
ENDBRANCH  26  27
ENDBRANCH   1  26
TORSDOF 20
ENDMDL
