MODEL 1
REMARK VINA RESULT:     -11.3      0.000      0.000
REMARK SMILES Cc1nc(-c2ccc3c(c2)CCN3S(=O)(=O)c2ccc(F)c(C(=O)OCCOCCOCCOC(=O)c3ccc(-c4c5nc(c(-c6c(F)c(F)c(F)c(F)c6F)c6ccc([nH]6)c(-c6c(F)c(F)c(F)c(F)c6F)c6nc(c(-c7c(F)c(F)c(F)c(F)c7F)c7ccc4[nH]7)C=C6)C=C5)cc3)c2)cs1
REMARK SMILES IDX 29 1 28 2 27 3 26 4 25 5 23 6 24 7 22 8 17 9 18 10 100 11
REMARK SMILES IDX 19 12 20 13 21 14 14 15 15 16 16 17 13 18 5 19 6 20 10 21
REMARK SMILES IDX 7 22 9 23 8 24 11 25 12 26 4 27 1 28 2 29 3 30 102 31 101 32
REMARK SMILES IDX 30 33 31 34 32 35 33 36 34 37 35 38 36 39 37 40 38 41 99 42
REMARK SMILES IDX 39 43 98 44 40 45 41 46 42 47 92 48 43 49 97 50 91 51 93 52
REMARK SMILES IDX 44 53 96 54 90 55 89 56 45 58 77 59 57 60 76 61 58 62 61 63
REMARK SMILES IDX 75 64 94 65 59 66 60 67 74 69 95 70 62 71 46 72 47 73 55 74
REMARK SMILES IDX 48 75 49 76 53 77 56 78 50 79 51 80 54 81 52 82 78 83 79 84
REMARK SMILES IDX 87 85 80 86 81 87 85 88 88 89 82 90 83 91 86 92 84 93 63 94
REMARK SMILES IDX 64 95 72 96 65 97 66 98 70 99 73 100 67 101 68 102 71 103
REMARK SMILES IDX 69 104
REMARK H PARENT 93 57 61 68
REMARK Flexibility Score: inf
ROOT
ATOM      1  C   UNL A   1      35.272  32.195  27.984  1.00  0.00     0.188 C 
ENDROOT
BRANCH   1   2
ATOM      2  O   UNL A   1      34.995  31.041  28.770  1.00  0.00    -0.376 OA
BRANCH   2   3
ATOM      3  C   UNL A   1      35.501  29.772  28.364  1.00  0.00     0.202 C 
BRANCH   3   4
ATOM      4  C   UNL A   1      35.451  29.395  26.878  1.00  0.00     0.261 C 
BRANCH   4   5
ATOM      5  O   UNL A   1      34.382  28.488  26.570  1.00  0.00    -0.460 OA
BRANCH   5   6
ATOM      6  C   UNL A   1      33.409  28.965  25.755  1.00  0.00     0.341 C 
ATOM      7  O   UNL A   1      32.937  30.080  25.738  1.00  0.00    -0.246 OA
BRANCH   6   8
ATOM      8  C   UNL A   1      33.147  27.975  24.692  1.00  0.00     0.097 A 
ATOM      9  C   UNL A   1      31.939  26.025  23.942  1.00  0.00     0.089 A 
ATOM     10  C   UNL A   1      32.584  26.097  22.698  1.00  0.00     0.025 A 
ATOM     11  C   UNL A   1      32.178  26.985  24.931  1.00  0.00     0.041 A 
ATOM     12  C   UNL A   1      33.536  27.090  22.470  1.00  0.00     0.041 A 
ATOM     13  C   UNL A   1      33.828  28.012  23.474  1.00  0.00     0.137 A 
ATOM     14  F   UNL A   1      34.787  28.919  23.244  1.00  0.00    -0.206 F 
BRANCH   9  15
ATOM     15  S   UNL A   1      30.905  24.623  24.293  1.00  0.00     0.264 S 
ATOM     16  O   UNL A   1      30.069  24.413  23.127  1.00  0.00    -0.201 OA
ATOM     17  O   UNL A   1      30.297  24.874  25.585  1.00  0.00    -0.201 OA
BRANCH  15  18
ATOM     18  N   UNL A   1      31.941  23.275  24.451  1.00  0.00    -0.266 N 
ATOM     19  C   UNL A   1      36.063  23.078  25.317  1.00  0.00     0.001 A 
ATOM     20  C   UNL A   1      35.279  23.974  26.053  1.00  0.00     0.012 A 
ATOM     21  C   UNL A   1      35.468  22.315  24.304  1.00  0.00     0.016 A 
ATOM     22  C   UNL A   1      33.920  24.117  25.793  1.00  0.00     0.028 A 
ATOM     23  C   UNL A   1      34.102  22.480  24.058  1.00  0.00    -0.021 A 
ATOM     24  C   UNL A   1      33.336  23.410  24.761  1.00  0.00     0.055 A 
ATOM     25  C   UNL A   1      33.231  21.628  23.189  1.00  0.00     0.060 C 
ATOM     26  C   UNL A   1      31.880  22.361  23.247  1.00  0.00     0.140 C 
BRANCH  19  27
ATOM     27  C   UNL A   1      37.439  22.912  25.745  1.00  0.00     0.081 A 
ATOM     28  C   UNL A   1      40.183  20.541  26.133  1.00  0.00     0.079 C 
ATOM     29  C   UNL A   1      39.261  21.710  26.116  1.00  0.00     0.090 A 
ATOM     30  N   UNL A   1      38.051  21.676  25.608  1.00  0.00    -0.242 NA
ATOM     31  S   UNL A   1      39.727  23.215  26.799  1.00  0.00    -0.127 S 
ATOM     32  C   UNL A   1      38.196  23.875  26.375  1.00  0.00     0.095 A 
ENDBRANCH  19  27
ENDBRANCH  15  18
ENDBRANCH   9  15
ENDBRANCH   6   8
ENDBRANCH   5   6
ENDBRANCH   4   5
ENDBRANCH   3   4
ENDBRANCH   2   3
ENDBRANCH   1   2
BRANCH   1  33
ATOM     33  C   UNL A   1      35.218  33.597  28.628  1.00  0.00     0.188 C 
BRANCH  33  34
ATOM     34  O   UNL A   1      34.459  34.544  27.922  1.00  0.00    -0.376 OA
BRANCH  34  35
ATOM     35  C   UNL A   1      34.154  35.798  28.502  1.00  0.00     0.202 C 
BRANCH  35  36
ATOM     36  C   UNL A   1      32.903  36.105  29.350  1.00  0.00     0.261 C 
BRANCH  36  37
ATOM     37  O   UNL A   1      32.526  35.179  30.371  1.00  0.00    -0.460 OA
BRANCH  37  38
ATOM     38  C   UNL A   1      32.626  35.613  31.649  1.00  0.00     0.338 C 
ATOM     39  O   UNL A   1      31.833  36.305  32.261  1.00  0.00    -0.246 OA
BRANCH  38  40
ATOM     40  C   UNL A   1      33.798  34.960  32.266  1.00  0.00     0.060 A 
ATOM     41  C   UNL A   1      35.037  35.611  32.220  1.00  0.00     0.016 A 
ATOM     42  C   UNL A   1      33.675  33.706  32.868  1.00  0.00     0.016 A 
ATOM     43  C   UNL A   1      36.169  34.993  32.754  1.00  0.00     0.010 A 
ATOM     44  C   UNL A   1      34.813  33.078  33.381  1.00  0.00     0.010 A 
ATOM     45  C   UNL A   1      36.070  33.705  33.299  1.00  0.00    -0.014 A 
BRANCH  45  46
ATOM     46  C   UNL A   1      37.299  32.945  33.634  1.00  0.00     0.031 A 
ATOM     47  C   UNL A   1      37.993  33.233  34.935  1.00  0.00     0.074 A 
ATOM     48  C   UNL A   1      37.783  32.002  32.806  1.00  0.00     0.049 A 
ATOM     49  N   UNL A   1      39.106  32.737  35.413  1.00  0.00    -0.248 NA
ATOM     50  C   UNL A   1      37.344  34.216  35.820  1.00  0.00     0.031 C 
ATOM     51  C   UNL A   1      37.171  31.593  31.545  1.00  0.00     0.029 A 
ATOM     52  N   UNL A   1      38.908  31.221  32.907  1.00  0.00    -0.354 N 
ATOM     53  C   UNL A   1      39.286  33.341  36.650  1.00  0.00     0.074 A 
ATOM     54  C   UNL A   1      38.190  34.266  36.838  1.00  0.00     0.031 C 
ATOM     55  C   UNL A   1      37.934  30.638  30.983  1.00  0.00     0.029 A 
ATOM     56  C   UNL A   1      39.101  30.394  31.829  1.00  0.00     0.049 A 
ATOM     57  H   UNL A   1      39.517  31.252  33.680  1.00  0.00     0.167 HD
ATOM     58  C   UNL A   1      40.271  33.131  37.554  1.00  0.00     0.037 A 
ATOM     59  C   UNL A   1      40.113  29.547  31.553  1.00  0.00     0.037 A 
ATOM     60  C   UNL A   1      41.359  32.208  37.368  1.00  0.00     0.049 A 
ATOM     61  C   UNL A   1      41.247  29.397  32.536  1.00  0.00     0.074 A 
ATOM     62  C   UNL A   1      42.401  31.923  38.232  1.00  0.00     0.029 A 
ATOM     63  N   UNL A   1      41.546  31.423  36.241  1.00  0.00    -0.354 N 
ATOM     64  N   UNL A   1      41.407  29.964  33.707  1.00  0.00    -0.248 NA
ATOM     65  C   UNL A   1      42.338  28.487  32.159  1.00  0.00     0.031 C 
ATOM     66  C   UNL A   1      43.247  31.004  37.608  1.00  0.00     0.029 A 
ATOM     67  C   UNL A   1      42.702  30.672  36.378  1.00  0.00     0.049 A 
ATOM     68  H   UNL A   1      40.946  31.402  35.461  1.00  0.00     0.167 HD
ATOM     69  C   UNL A   1      42.597  29.461  34.217  1.00  0.00     0.074 A 
ATOM     70  C   UNL A   1      43.115  28.534  33.234  1.00  0.00     0.031 C 
ATOM     71  C   UNL A   1      43.203  29.743  35.397  1.00  0.00     0.037 A 
BRANCH  58  72
ATOM     72  C   UNL A   1      40.231  33.918  38.829  1.00  0.00     0.064 A 
ATOM     73  C   UNL A   1      39.442  33.487  39.906  1.00  0.00     0.173 A 
ATOM     74  C   UNL A   1      40.912  35.138  38.959  1.00  0.00     0.173 A 
ATOM     75  F   UNL A   1      38.768  32.330  39.831  1.00  0.00    -0.203 F 
ATOM     76  C   UNL A   1      39.320  34.260  41.058  1.00  0.00     0.198 A 
ATOM     77  C   UNL A   1      40.810  35.894  40.122  1.00  0.00     0.198 A 
ATOM     78  F   UNL A   1      41.691  35.586  37.961  1.00  0.00    -0.203 F 
ATOM     79  F   UNL A   1      38.531  33.846  42.060  1.00  0.00    -0.200 F 
ATOM     80  C   UNL A   1      40.006  35.460  41.166  1.00  0.00     0.200 A 
ATOM     81  F   UNL A   1      41.489  37.044  40.235  1.00  0.00    -0.200 F 
ATOM     82  F   UNL A   1      39.890  36.201  42.278  1.00  0.00    -0.200 F 
ENDBRANCH  58  72
BRANCH  59  83
ATOM     83  C   UNL A   1      40.101  28.773  30.284  1.00  0.00     0.064 A 
ATOM     84  C   UNL A   1      40.711  29.269  29.122  1.00  0.00     0.173 A 
ATOM     85  C   UNL A   1      39.477  27.521  30.210  1.00  0.00     0.173 A 
ATOM     86  F   UNL A   1      41.331  30.458  29.143  1.00  0.00    -0.203 F 
ATOM     87  C   UNL A   1      40.681  28.548  27.930  1.00  0.00     0.198 A 
ATOM     88  C   UNL A   1      39.471  26.789  29.023  1.00  0.00     0.198 A 
ATOM     89  F   UNL A   1      38.905  26.990  31.301  1.00  0.00    -0.203 F 
ATOM     90  F   UNL A   1      41.252  29.056  26.828  1.00  0.00    -0.200 F 
ATOM     91  C   UNL A   1      40.066  27.307  27.882  1.00  0.00     0.200 A 
ATOM     92  F   UNL A   1      38.901  25.577  28.990  1.00  0.00    -0.200 F 
ATOM     93  F   UNL A   1      40.054  26.605  26.741  1.00  0.00    -0.200 F 
ENDBRANCH  59  83
BRANCH  71  94
ATOM     94  C   UNL A   1      44.481  29.025  35.721  1.00  0.00     0.064 A 
ATOM     95  C   UNL A   1      44.455  27.819  36.441  1.00  0.00     0.173 A 
ATOM     96  C   UNL A   1      45.732  29.571  35.401  1.00  0.00     0.173 A 
ATOM     97  F   UNL A   1      43.284  27.260  36.781  1.00  0.00    -0.203 F 
ATOM     98  C   UNL A   1      45.635  27.199  36.845  1.00  0.00     0.198 A 
ATOM     99  C   UNL A   1      46.910  28.932  35.781  1.00  0.00     0.198 A 
ATOM    100  F   UNL A   1      45.811  30.715  34.705  1.00  0.00    -0.203 F 
ATOM    101  F   UNL A   1      45.584  26.071  37.566  1.00  0.00    -0.200 F 
ATOM    102  C   UNL A   1      46.860  27.754  36.511  1.00  0.00     0.200 A 
ATOM    103  F   UNL A   1      48.094  29.457  35.439  1.00  0.00    -0.200 F 
ATOM    104  F   UNL A   1      47.995  27.153  36.894  1.00  0.00    -0.200 F 
ENDBRANCH  71  94
ENDBRANCH  45  46
ENDBRANCH  38  40
ENDBRANCH  37  38
ENDBRANCH  36  37
ENDBRANCH  35  36
ENDBRANCH  34  35
ENDBRANCH  33  34
ENDBRANCH   1  33
TORSDOF 20
ENDMDL
MODEL 2
REMARK VINA RESULT:     -10.7      5.137      9.458
REMARK SMILES Cc1nc(-c2ccc3c(c2)CCN3S(=O)(=O)c2ccc(F)c(C(=O)OCCOCCOCCOC(=O)c3ccc(-c4c5nc(c(-c6c(F)c(F)c(F)c(F)c6F)c6ccc([nH]6)c(-c6c(F)c(F)c(F)c(F)c6F)c6nc(c(-c7c(F)c(F)c(F)c(F)c7F)c7ccc4[nH]7)C=C6)C=C5)cc3)c2)cs1
REMARK SMILES IDX 29 1 28 2 27 3 26 4 25 5 23 6 24 7 22 8 17 9 18 10 100 11
REMARK SMILES IDX 19 12 20 13 21 14 14 15 15 16 16 17 13 18 5 19 6 20 10 21
REMARK SMILES IDX 7 22 9 23 8 24 11 25 12 26 4 27 1 28 2 29 3 30 102 31 101 32
REMARK SMILES IDX 30 33 31 34 32 35 33 36 34 37 35 38 36 39 37 40 38 41 99 42
REMARK SMILES IDX 39 43 98 44 40 45 41 46 42 47 92 48 43 49 97 50 91 51 93 52
REMARK SMILES IDX 44 53 96 54 90 55 89 56 45 58 77 59 57 60 76 61 58 62 61 63
REMARK SMILES IDX 75 64 94 65 59 66 60 67 74 69 95 70 62 71 46 72 47 73 55 74
REMARK SMILES IDX 48 75 49 76 53 77 56 78 50 79 51 80 54 81 52 82 78 83 79 84
REMARK SMILES IDX 87 85 80 86 81 87 85 88 88 89 82 90 83 91 86 92 84 93 63 94
REMARK SMILES IDX 64 95 72 96 65 97 66 98 70 99 73 100 67 101 68 102 71 103
REMARK SMILES IDX 69 104
REMARK H PARENT 93 57 61 68
REMARK Flexibility Score: inf
ROOT
ATOM      1  C   UNL A   1      34.550  33.243  28.624  1.00  0.00     0.188 C 
ENDROOT
BRANCH   1   2
ATOM      2  O   UNL A   1      33.676  32.120  28.627  1.00  0.00    -0.376 OA
BRANCH   2   3
ATOM      3  C   UNL A   1      33.799  31.127  27.612  1.00  0.00     0.202 C 
BRANCH   3   4
ATOM      4  C   UNL A   1      32.536  30.645  26.889  1.00  0.00     0.261 C 
BRANCH   4   5
ATOM      5  O   UNL A   1      32.823  29.973  25.654  1.00  0.00    -0.460 OA
BRANCH   5   6
ATOM      6  C   UNL A   1      31.753  29.641  24.891  1.00  0.00     0.341 C 
ATOM      7  O   UNL A   1      30.737  30.278  24.721  1.00  0.00    -0.246 OA
BRANCH   6   8
ATOM      8  C   UNL A   1      32.094  28.458  24.077  1.00  0.00     0.097 A 
ATOM      9  C   UNL A   1      31.852  26.090  23.677  1.00  0.00     0.089 A 
ATOM     10  C   UNL A   1      32.676  26.192  22.545  1.00  0.00     0.025 A 
ATOM     11  C   UNL A   1      31.517  27.224  24.424  1.00  0.00     0.041 A 
ATOM     12  C   UNL A   1      33.234  27.423  22.205  1.00  0.00     0.041 A 
ATOM     13  C   UNL A   1      32.958  28.547  22.984  1.00  0.00     0.137 A 
ATOM     14  F   UNL A   1      33.553  29.704  22.664  1.00  0.00    -0.206 F 
BRANCH   9  15
ATOM     15  S   UNL A   1      31.341  24.479  24.223  1.00  0.00     0.264 S 
ATOM     16  O   UNL A   1      30.614  23.872  23.126  1.00  0.00    -0.201 OA
ATOM     17  O   UNL A   1      30.691  24.667  25.506  1.00  0.00    -0.201 OA
BRANCH  15  18
ATOM     18  N   UNL A   1      32.764  23.571  24.483  1.00  0.00    -0.266 N 
ATOM     19  C   UNL A   1      33.319  19.412  24.905  1.00  0.00     0.001 A 
ATOM     20  C   UNL A   1      32.449  19.862  23.903  1.00  0.00     0.012 A 
ATOM     21  C   UNL A   1      33.937  20.345  25.747  1.00  0.00     0.016 A 
ATOM     22  C   UNL A   1      32.192  21.217  23.734  1.00  0.00     0.028 A 
ATOM     23  C   UNL A   1      33.658  21.702  25.561  1.00  0.00    -0.021 A 
ATOM     24  C   UNL A   1      32.753  22.140  24.594  1.00  0.00     0.055 A 
ATOM     25  C   UNL A   1      34.360  22.864  26.191  1.00  0.00     0.060 C 
ATOM     26  C   UNL A   1      33.548  24.064  25.678  1.00  0.00     0.140 C 
BRANCH  19  27
ATOM     27  C   UNL A   1      33.617  17.993  24.921  1.00  0.00     0.081 A 
ATOM     28  C   UNL A   1      32.342  14.679  25.751  1.00  0.00     0.079 C 
ATOM     29  C   UNL A   1      33.130  15.876  25.347  1.00  0.00     0.090 A 
ATOM     30  N   UNL A   1      32.646  17.096  25.335  1.00  0.00    -0.242 NA
ATOM     31  S   UNL A   1      34.777  15.736  24.882  1.00  0.00    -0.127 S 
ATOM     32  C   UNL A   1      34.845  17.438  24.635  1.00  0.00     0.095 A 
ENDBRANCH  19  27
ENDBRANCH  15  18
ENDBRANCH   9  15
ENDBRANCH   6   8
ENDBRANCH   5   6
ENDBRANCH   4   5
ENDBRANCH   3   4
ENDBRANCH   2   3
ENDBRANCH   1   2
BRANCH   1  33
ATOM     33  C   UNL A   1      34.181  34.509  29.427  1.00  0.00     0.188 C 
BRANCH  33  34
ATOM     34  O   UNL A   1      35.069  34.833  30.464  1.00  0.00    -0.376 OA
BRANCH  34  35
ATOM     35  C   UNL A   1      34.650  34.779  31.814  1.00  0.00     0.202 C 
BRANCH  35  36
ATOM     36  C   UNL A   1      35.584  34.610  33.029  1.00  0.00     0.261 C 
BRANCH  36  37
ATOM     37  O   UNL A   1      36.798  33.874  32.861  1.00  0.00    -0.460 OA
BRANCH  37  38
ATOM     38  C   UNL A   1      36.732  32.540  33.078  1.00  0.00     0.338 C 
ATOM     39  O   UNL A   1      35.915  31.938  33.752  1.00  0.00    -0.246 OA
BRANCH  38  40
ATOM     40  C   UNL A   1      37.729  31.883  32.211  1.00  0.00     0.060 A 
ATOM     41  C   UNL A   1      38.788  31.185  32.806  1.00  0.00     0.016 A 
ATOM     42  C   UNL A   1      37.629  31.973  30.820  1.00  0.00     0.016 A 
ATOM     43  C   UNL A   1      39.770  30.596  32.007  1.00  0.00     0.010 A 
ATOM     44  C   UNL A   1      38.625  31.404  30.024  1.00  0.00     0.010 A 
ATOM     45  C   UNL A   1      39.716  30.739  30.614  1.00  0.00    -0.014 A 
BRANCH  45  46
ATOM     46  C   UNL A   1      40.877  30.340  29.782  1.00  0.00     0.031 A 
ATOM     47  C   UNL A   1      40.923  28.942  29.231  1.00  0.00     0.074 A 
ATOM     48  C   UNL A   1      41.867  31.206  29.505  1.00  0.00     0.049 A 
ATOM     49  N   UNL A   1      41.858  28.354  28.528  1.00  0.00    -0.248 NA
ATOM     50  C   UNL A   1      39.754  28.090  29.509  1.00  0.00     0.031 C 
ATOM     51  C   UNL A   1      41.911  32.602  29.933  1.00  0.00     0.029 A 
ATOM     52  N   UNL A   1      43.031  31.032  28.796  1.00  0.00    -0.354 N 
ATOM     53  C   UNL A   1      41.390  27.072  28.278  1.00  0.00     0.074 A 
ATOM     54  C   UNL A   1      40.105  26.950  28.932  1.00  0.00     0.031 C 
ATOM     55  C   UNL A   1      43.050  33.158  29.484  1.00  0.00     0.029 A 
ATOM     56  C   UNL A   1      43.827  32.149  28.765  1.00  0.00     0.049 A 
ATOM     57  H   UNL A   1      43.270  30.186  28.352  1.00  0.00     0.167 HD
ATOM     58  C   UNL A   1      41.975  26.087  27.556  1.00  0.00     0.037 A 
ATOM     59  C   UNL A   1      45.052  32.330  28.230  1.00  0.00     0.037 A 
ATOM     60  C   UNL A   1      43.251  26.209  26.905  1.00  0.00     0.049 A 
ATOM     61  C   UNL A   1      45.723  31.189  27.507  1.00  0.00     0.074 A 
ATOM     62  C   UNL A   1      43.922  25.267  26.145  1.00  0.00     0.029 A 
ATOM     63  N   UNL A   1      44.051  27.342  26.937  1.00  0.00    -0.354 N 
ATOM     64  N   UNL A   1      45.272  29.982  27.266  1.00  0.00    -0.248 NA
ATOM     65  C   UNL A   1      47.072  31.438  26.977  1.00  0.00     0.031 C 
ATOM     66  C   UNL A   1      45.150  25.810  25.760  1.00  0.00     0.029 A 
ATOM     67  C   UNL A   1      45.220  27.112  26.231  1.00  0.00     0.049 A 
ATOM     68  H   UNL A   1      43.821  28.183  27.393  1.00  0.00     0.167 HD
ATOM     69  C   UNL A   1      46.264  29.339  26.538  1.00  0.00     0.074 A 
ATOM     70  C   UNL A   1      47.340  30.292  26.365  1.00  0.00     0.031 C 
ATOM     71  C   UNL A   1      46.280  28.072  26.055  1.00  0.00     0.037 A 
BRANCH  58  72
ATOM     72  C   UNL A   1      41.249  24.781  27.436  1.00  0.00     0.064 A 
ATOM     73  C   UNL A   1      41.746  23.632  28.068  1.00  0.00     0.173 A 
ATOM     74  C   UNL A   1      40.106  24.649  26.633  1.00  0.00     0.173 A 
ATOM     75  F   UNL A   1      42.839  23.704  28.843  1.00  0.00    -0.203 F 
ATOM     76  C   UNL A   1      41.137  22.394  27.883  1.00  0.00     0.198 A 
ATOM     77  C   UNL A   1      39.483  23.415  26.474  1.00  0.00     0.198 A 
ATOM     78  F   UNL A   1      39.585  25.722  26.019  1.00  0.00    -0.203 F 
ATOM     79  F   UNL A   1      41.651  21.302  28.468  1.00  0.00    -0.200 F 
ATOM     80  C   UNL A   1      40.005  22.287  27.089  1.00  0.00     0.200 A 
ATOM     81  F   UNL A   1      38.377  23.316  25.724  1.00  0.00    -0.200 F 
ATOM     82  F   UNL A   1      39.417  21.094  26.916  1.00  0.00    -0.200 F 
ENDBRANCH  58  72
BRANCH  59  83
ATOM     83  C   UNL A   1      45.725  33.648  28.358  1.00  0.00     0.064 A 
ATOM     84  C   UNL A   1      46.714  33.870  29.329  1.00  0.00     0.173 A 
ATOM     85  C   UNL A   1      45.392  34.713  27.511  1.00  0.00     0.173 A 
ATOM     86  F   UNL A   1      47.076  32.880  30.158  1.00  0.00    -0.203 F 
ATOM     87  C   UNL A   1      47.329  35.113  29.458  1.00  0.00     0.198 A 
ATOM     88  C   UNL A   1      46.028  35.948  27.624  1.00  0.00     0.198 A 
ATOM     89  F   UNL A   1      44.474  34.543  26.548  1.00  0.00    -0.203 F 
ATOM     90  F   UNL A   1      48.254  35.305  30.409  1.00  0.00    -0.200 F 
ATOM     91  C   UNL A   1      46.990  36.150  28.603  1.00  0.00     0.200 A 
ATOM     92  F   UNL A   1      45.718  36.939  26.776  1.00  0.00    -0.200 F 
ATOM     93  F   UNL A   1      47.596  37.340  28.714  1.00  0.00    -0.200 F 
ENDBRANCH  59  83
BRANCH  71  94
ATOM     94  C   UNL A   1      47.478  27.635  25.263  1.00  0.00     0.064 A 
ATOM     95  C   UNL A   1      48.620  27.142  25.916  1.00  0.00     0.173 A 
ATOM     96  C   UNL A   1      47.533  27.787  23.870  1.00  0.00     0.173 A 
ATOM     97  F   UNL A   1      48.622  26.988  27.248  1.00  0.00    -0.203 F 
ATOM     98  C   UNL A   1      49.777  26.837  25.205  1.00  0.00     0.198 A 
ATOM     99  C   UNL A   1      48.683  27.452  23.159  1.00  0.00     0.198 A 
ATOM    100  F   UNL A   1      46.466  28.243  23.198  1.00  0.00    -0.203 F 
ATOM    101  F   UNL A   1      50.867  26.407  25.855  1.00  0.00    -0.200 F 
ATOM    102  C   UNL A   1      49.807  26.989  23.828  1.00  0.00     0.200 A 
ATOM    103  F   UNL A   1      48.703  27.578  21.825  1.00  0.00    -0.200 F 
ATOM    104  F   UNL A   1      50.919  26.688  23.143  1.00  0.00    -0.200 F 
ENDBRANCH  71  94
ENDBRANCH  45  46
ENDBRANCH  38  40
ENDBRANCH  37  38
ENDBRANCH  36  37
ENDBRANCH  35  36
ENDBRANCH  34  35
ENDBRANCH  33  34
ENDBRANCH   1  33
TORSDOF 20
ENDMDL
MODEL 3
REMARK VINA RESULT:     -10.0      2.033      3.116
REMARK SMILES Cc1nc(-c2ccc3c(c2)CCN3S(=O)(=O)c2ccc(F)c(C(=O)OCCOCCOCCOC(=O)c3ccc(-c4c5nc(c(-c6c(F)c(F)c(F)c(F)c6F)c6ccc([nH]6)c(-c6c(F)c(F)c(F)c(F)c6F)c6nc(c(-c7c(F)c(F)c(F)c(F)c7F)c7ccc4[nH]7)C=C6)C=C5)cc3)c2)cs1
REMARK SMILES IDX 29 1 28 2 27 3 26 4 25 5 23 6 24 7 22 8 17 9 18 10 100 11
REMARK SMILES IDX 19 12 20 13 21 14 14 15 15 16 16 17 13 18 5 19 6 20 10 21
REMARK SMILES IDX 7 22 9 23 8 24 11 25 12 26 4 27 1 28 2 29 3 30 102 31 101 32
REMARK SMILES IDX 30 33 31 34 32 35 33 36 34 37 35 38 36 39 37 40 38 41 99 42
REMARK SMILES IDX 39 43 98 44 40 45 41 46 42 47 92 48 43 49 97 50 91 51 93 52
REMARK SMILES IDX 44 53 96 54 90 55 89 56 45 58 77 59 57 60 76 61 58 62 61 63
REMARK SMILES IDX 75 64 94 65 59 66 60 67 74 69 95 70 62 71 46 72 47 73 55 74
REMARK SMILES IDX 48 75 49 76 53 77 56 78 50 79 51 80 54 81 52 82 78 83 79 84
REMARK SMILES IDX 87 85 80 86 81 87 85 88 88 89 82 90 83 91 86 92 84 93 63 94
REMARK SMILES IDX 64 95 72 96 65 97 66 98 70 99 73 100 67 101 68 102 71 103
REMARK SMILES IDX 69 104
REMARK H PARENT 93 57 61 68
REMARK Flexibility Score: inf
ROOT
ATOM      1  C   UNL A   1      33.065  29.043  27.423  1.00  0.00     0.188 C 
ENDROOT
BRANCH   1   2
ATOM      2  O   UNL A   1      31.663  28.829  27.307  1.00  0.00    -0.376 OA
BRANCH   2   3
ATOM      3  C   UNL A   1      31.173  27.829  26.417  1.00  0.00     0.202 C 
BRANCH   3   4
ATOM      4  C   UNL A   1      31.443  27.976  24.915  1.00  0.00     0.261 C 
BRANCH   4   5
ATOM      5  O   UNL A   1      31.601  26.713  24.252  1.00  0.00    -0.460 OA
BRANCH   5   6
ATOM      6  C   UNL A   1      30.511  25.909  24.227  1.00  0.00     0.341 C 
ATOM      7  O   UNL A   1      29.511  26.036  23.555  1.00  0.00    -0.246 OA
BRANCH   6   8
ATOM      8  C   UNL A   1      30.805  24.679  24.988  1.00  0.00     0.097 A 
ATOM      9  C   UNL A   1      32.064  22.629  25.189  1.00  0.00     0.089 A 
ATOM     10  C   UNL A   1      31.428  22.353  26.410  1.00  0.00     0.025 A 
ATOM     11  C   UNL A   1      31.794  23.812  24.493  1.00  0.00     0.041 A 
ATOM     12  C   UNL A   1      30.456  23.226  26.896  1.00  0.00     0.041 A 
ATOM     13  C   UNL A   1      30.134  24.374  26.173  1.00  0.00     0.137 A 
ATOM     14  F   UNL A   1      29.157  25.164  26.639  1.00  0.00    -0.206 F 
BRANCH   9  15
ATOM     15  S   UNL A   1      33.127  21.397  24.476  1.00  0.00     0.264 S 
ATOM     16  O   UNL A   1      32.556  21.040  23.193  1.00  0.00    -0.201 OA
ATOM     17  O   UNL A   1      33.317  20.381  25.493  1.00  0.00    -0.201 OA
BRANCH  15  18
ATOM     18  N   UNL A   1      34.634  22.149  24.195  1.00  0.00    -0.266 N 
ATOM     19  C   UNL A   1      38.481  21.188  25.629  1.00  0.00     0.001 A 
ATOM     20  C   UNL A   1      37.660  20.140  25.196  1.00  0.00     0.012 A 
ATOM     21  C   UNL A   1      37.990  22.500  25.608  1.00  0.00     0.016 A 
ATOM     22  C   UNL A   1      36.366  20.382  24.747  1.00  0.00     0.028 A 
ATOM     23  C   UNL A   1      36.684  22.717  25.158  1.00  0.00    -0.021 A 
ATOM     24  C   UNL A   1      35.855  21.664  24.775  1.00  0.00     0.055 A 
ATOM     25  C   UNL A   1      36.043  24.034  24.850  1.00  0.00     0.060 C 
ATOM     26  C   UNL A   1      34.601  23.630  24.501  1.00  0.00     0.140 C 
BRANCH  19  27
ATOM     27  C   UNL A   1      39.852  20.848  25.961  1.00  0.00     0.081 A 
ATOM     28  C   UNL A   1      43.154  22.180  26.747  1.00  0.00     0.079 C 
ATOM     29  C   UNL A   1      41.954  21.357  26.436  1.00  0.00     0.090 A 
ATOM     30  N   UNL A   1      40.759  21.860  26.232  1.00  0.00    -0.242 NA
ATOM     31  S   UNL A   1      42.062  19.648  26.299  1.00  0.00    -0.127 S 
ATOM     32  C   UNL A   1      40.379  19.576  25.948  1.00  0.00     0.095 A 
ENDBRANCH  19  27
ENDBRANCH  15  18
ENDBRANCH   9  15
ENDBRANCH   6   8
ENDBRANCH   5   6
ENDBRANCH   4   5
ENDBRANCH   3   4
ENDBRANCH   2   3
ENDBRANCH   1   2
BRANCH   1  33
ATOM     33  C   UNL A   1      33.694  30.343  26.877  1.00  0.00     0.188 C 
BRANCH  33  34
ATOM     34  O   UNL A   1      33.753  31.403  27.796  1.00  0.00    -0.376 OA
BRANCH  34  35
ATOM     35  C   UNL A   1      33.514  32.733  27.376  1.00  0.00     0.202 C 
BRANCH  35  36
ATOM     36  C   UNL A   1      32.462  33.682  27.986  1.00  0.00     0.261 C 
BRANCH  36  37
ATOM     37  O   UNL A   1      32.864  35.006  28.345  1.00  0.00    -0.460 OA
BRANCH  37  38
ATOM     38  C   UNL A   1      33.220  35.201  29.636  1.00  0.00     0.338 C 
ATOM     39  O   UNL A   1      32.647  35.880  30.469  1.00  0.00    -0.246 OA
BRANCH  38  40
ATOM     40  C   UNL A   1      34.352  34.304  29.941  1.00  0.00     0.060 A 
ATOM     41  C   UNL A   1      34.147  33.230  30.816  1.00  0.00     0.016 A 
ATOM     42  C   UNL A   1      35.611  34.536  29.381  1.00  0.00     0.016 A 
ATOM     43  C   UNL A   1      35.214  32.397  31.158  1.00  0.00     0.010 A 
ATOM     44  C   UNL A   1      36.682  33.715  29.743  1.00  0.00     0.010 A 
ATOM     45  C   UNL A   1      36.496  32.662  30.656  1.00  0.00    -0.014 A 
BRANCH  45  46
ATOM     46  C   UNL A   1      37.671  31.944  31.207  1.00  0.00     0.031 A 
ATOM     47  C   UNL A   1      38.150  32.297  32.587  1.00  0.00     0.074 A 
ATOM     48  C   UNL A   1      38.294  30.982  30.503  1.00  0.00     0.049 A 
ATOM     49  N   UNL A   1      39.183  31.846  33.251  1.00  0.00    -0.248 NA
ATOM     50  C   UNL A   1      37.355  33.297  33.320  1.00  0.00     0.031 C 
ATOM     51  C   UNL A   1      37.893  30.511  29.181  1.00  0.00     0.029 A 
ATOM     52  N   UNL A   1      39.403  30.232  30.809  1.00  0.00    -0.354 N 
ATOM     53  C   UNL A   1      39.159  32.500  34.475  1.00  0.00     0.074 A 
ATOM     54  C   UNL A   1      38.031  33.406  34.453  1.00  0.00     0.031 C 
ATOM     55  C   UNL A   1      38.750  29.554  28.783  1.00  0.00     0.029 A 
ATOM     56  C   UNL A   1      39.775  29.369  29.809  1.00  0.00     0.049 A 
ATOM     57  H   UNL A   1      39.885  30.306  31.664  1.00  0.00     0.167 HD
ATOM     58  C   UNL A   1      39.995  32.348  35.529  1.00  0.00     0.037 A 
ATOM     59  C   UNL A   1      40.833  28.537  29.727  1.00  0.00     0.037 A 
ATOM     60  C   UNL A   1      41.115  31.444  35.551  1.00  0.00     0.049 A 
ATOM     61  C   UNL A   1      41.802  28.451  30.878  1.00  0.00     0.074 A 
ATOM     62  C   UNL A   1      42.015  31.217  36.576  1.00  0.00     0.029 A 
ATOM     63  N   UNL A   1      41.488  30.622  34.499  1.00  0.00    -0.354 N 
ATOM     64  N   UNL A   1      41.769  29.065  32.036  1.00  0.00    -0.248 NA
ATOM     65  C   UNL A   1      42.955  27.552  30.713  1.00  0.00     0.031 C 
ATOM     66  C   UNL A   1      42.964  30.294  36.129  1.00  0.00     0.029 A 
ATOM     67  C   UNL A   1      42.622  29.904  34.843  1.00  0.00     0.049 A 
ATOM     68  H   UNL A   1      41.017  30.557  33.637  1.00  0.00     0.167 HD
ATOM     69  C   UNL A   1      42.874  28.610  32.744  1.00  0.00     0.074 A 
ATOM     70  C   UNL A   1      43.554  27.658  31.891  1.00  0.00     0.031 C 
ATOM     71  C   UNL A   1      43.285  28.950  33.991  1.00  0.00     0.037 A 
BRANCH  58  72
ATOM     72  C   UNL A   1      39.745  33.182  36.749  1.00  0.00     0.064 A 
ATOM     73  C   UNL A   1      38.809  32.771  37.710  1.00  0.00     0.173 A 
ATOM     74  C   UNL A   1      40.372  34.423  36.930  1.00  0.00     0.173 A 
ATOM     75  F   UNL A   1      38.178  31.594  37.581  1.00  0.00    -0.203 F 
ATOM     76  C   UNL A   1      38.496  33.583  38.796  1.00  0.00     0.198 A 
ATOM     77  C   UNL A   1      40.078  35.220  38.031  1.00  0.00     0.198 A 
ATOM     78  F   UNL A   1      41.285  34.853  36.044  1.00  0.00    -0.203 F 
ATOM     79  F   UNL A   1      37.572  33.187  39.683  1.00  0.00    -0.200 F 
ATOM     80  C   UNL A   1      39.132  34.805  38.958  1.00  0.00     0.200 A 
ATOM     81  F   UNL A   1      40.708  36.390  38.199  1.00  0.00    -0.200 F 
ATOM     82  F   UNL A   1      38.833  35.584  40.007  1.00  0.00    -0.200 F 
ENDBRANCH  58  72
BRANCH  59  83
ATOM     83  C   UNL A   1      41.030  27.715  28.504  1.00  0.00     0.064 A 
ATOM     84  C   UNL A   1      41.776  28.195  27.417  1.00  0.00     0.173 A 
ATOM     85  C   UNL A   1      40.477  26.432  28.401  1.00  0.00     0.173 A 
ATOM     86  F   UNL A   1      42.335  29.413  27.470  1.00  0.00    -0.203 F 
ATOM     87  C   UNL A   1      41.944  27.428  26.265  1.00  0.00     0.198 A 
ATOM     88  C   UNL A   1      40.669  25.656  27.258  1.00  0.00     0.198 A 
ATOM     89  F   UNL A   1      39.782  25.917  29.425  1.00  0.00    -0.203 F 
ATOM     90  F   UNL A   1      42.641  27.921  25.231  1.00  0.00    -0.200 F 
ATOM     91  C   UNL A   1      41.395  26.158  26.188  1.00  0.00     0.200 A 
ATOM     92  F   UNL A   1      40.161  24.417  27.201  1.00  0.00    -0.200 F 
ATOM     93  F   UNL A   1      41.572  25.414  25.089  1.00  0.00    -0.200 F 
ENDBRANCH  59  83
BRANCH  71  94
ATOM     94  C   UNL A   1      44.510  28.275  34.537  1.00  0.00     0.064 A 
ATOM     95  C   UNL A   1      44.396  27.078  35.264  1.00  0.00     0.173 A 
ATOM     96  C   UNL A   1      45.781  28.854  34.422  1.00  0.00     0.173 A 
ATOM     97  F   UNL A   1      43.200  26.489  35.412  1.00  0.00    -0.203 F 
ATOM     98  C   UNL A   1      45.507  26.499  35.871  1.00  0.00     0.198 A 
ATOM     99  C   UNL A   1      46.895  28.256  35.005  1.00  0.00     0.198 A 
ATOM    100  F   UNL A   1      45.944  29.991  33.730  1.00  0.00    -0.203 F 
ATOM    101  F   UNL A   1      45.367  25.379  36.593  1.00  0.00    -0.200 F 
ATOM    102  C   UNL A   1      46.755  27.086  35.738  1.00  0.00     0.200 A 
ATOM    103  F   UNL A   1      48.105  28.812  34.858  1.00  0.00    -0.200 F 
ATOM    104  F   UNL A   1      47.826  26.525  36.317  1.00  0.00    -0.200 F 
ENDBRANCH  71  94
ENDBRANCH  45  46
ENDBRANCH  38  40
ENDBRANCH  37  38
ENDBRANCH  36  37
ENDBRANCH  35  36
ENDBRANCH  34  35
ENDBRANCH  33  34
ENDBRANCH   1  33
TORSDOF 20
ENDMDL
