MODEL 1
REMARK VINA RESULT:     -12.3      0.000      0.000
REMARK SMILES O=C(OCCOCCOCCOC(=O)C1(C/C=C/c2ccccc2)Cc2ccccc2C1)c1ccc(-c2c3nc(c(-c4c(F)c(F)c(F)c(F)c4F)c4ccc([nH]4)c(-c4c(F)c(F)c(F)c(F)c4F)c4nc(c(-c5c(F)c(F)c(F)c(F)c5F)c5ccc2[nH]5)C=C4)C=C3)cc1
REMARK SMILES IDX 8 1 7 2 6 3 5 4 4 5 3 6 2 7 1 8 33 9 34 10 95 11 35 12 94 13
REMARK SMILES IDX 36 14 37 15 38 16 88 17 39 18 93 19 87 20 89 21 40 22 92 23
REMARK SMILES IDX 86 24 85 25 41 27 73 28 53 29 72 30 54 31 57 32 71 33 90 34
REMARK SMILES IDX 55 35 56 36 70 38 91 39 58 40 42 41 43 42 51 43 44 44 45 45
REMARK SMILES IDX 49 46 52 47 46 48 47 49 50 50 48 51 74 52 75 53 83 54 76 55
REMARK SMILES IDX 77 56 81 57 84 58 78 59 79 60 82 61 80 62 59 63 60 64 68 65
REMARK SMILES IDX 61 66 62 67 66 68 69 69 63 70 64 71 67 72 65 73 9 74 10 75
REMARK SMILES IDX 11 76 12 77 13 78 14 79 15 80 25 81 32 82 26 83 31 84 27 85
REMARK SMILES IDX 30 86 28 87 29 88 16 89 17 90 18 91 19 92 20 93 24 94 21 95
REMARK SMILES IDX 23 96 22 97
REMARK H PARENT 89 26 57 37
REMARK Flexibility Score: inf
ROOT
ATOM      1  C   UNL A   1      31.862  28.287  25.961  1.00  0.00     0.188 C 
ENDROOT
BRANCH   1   2
ATOM      2  C   UNL A   1      32.066  29.645  26.632  1.00  0.00     0.188 C 
BRANCH   2   3
ATOM      3  O   UNL A   1      31.708  30.778  25.836  1.00  0.00    -0.376 OA
BRANCH   3   4
ATOM      4  C   UNL A   1      31.367  31.932  26.615  1.00  0.00     0.202 C 
BRANCH   4   5
ATOM      5  C   UNL A   1      32.536  32.606  27.360  1.00  0.00     0.261 C 
BRANCH   5   6
ATOM      6  O   UNL A   1      32.313  33.988  27.703  1.00  0.00    -0.460 OA
BRANCH   6   7
ATOM      7  C   UNL A   1      32.935  34.773  28.615  1.00  0.00     0.338 C 
ATOM      8  O   UNL A   1      32.462  35.891  28.839  1.00  0.00    -0.246 OA
BRANCH   7   9
ATOM      9  C   UNL A   1      34.169  34.383  29.365  1.00  0.00     0.060 A 
ATOM     10  C   UNL A   1      35.462  34.420  28.849  1.00  0.00     0.016 A 
ATOM     11  C   UNL A   1      34.019  33.962  30.701  1.00  0.00     0.016 A 
ATOM     12  C   UNL A   1      36.554  33.960  29.563  1.00  0.00     0.010 A 
ATOM     13  C   UNL A   1      35.121  33.529  31.450  1.00  0.00     0.010 A 
ATOM     14  C   UNL A   1      36.387  33.476  30.852  1.00  0.00    -0.014 A 
BRANCH  14  15
ATOM     15  C   UNL A   1      37.505  32.704  31.427  1.00  0.00     0.031 A 
ATOM     16  C   UNL A   1      38.030  33.141  32.756  1.00  0.00     0.074 A 
ATOM     17  C   UNL A   1      37.904  31.541  30.882  1.00  0.00     0.049 A 
ATOM     18  N   UNL A   1      38.985  32.622  33.477  1.00  0.00    -0.248 NA
ATOM     19  C   UNL A   1      37.341  34.278  33.394  1.00  0.00     0.031 C 
ATOM     20  C   UNL A   1      37.271  30.896  29.739  1.00  0.00     0.029 A 
ATOM     21  N   UNL A   1      38.932  30.698  31.196  1.00  0.00    -0.354 N 
ATOM     22  C   UNL A   1      38.991  33.348  34.658  1.00  0.00     0.074 A 
ATOM     23  C   UNL A   1      37.991  34.383  34.541  1.00  0.00     0.031 C 
ATOM     24  C   UNL A   1      37.992  29.833  29.357  1.00  0.00     0.029 A 
ATOM     25  C   UNL A   1      39.122  29.709  30.258  1.00  0.00     0.049 A 
ATOM     26  H   UNL A   1      39.480  30.788  32.008  1.00  0.00     0.167 HD
ATOM     27  C   UNL A   1      39.754  33.137  35.752  1.00  0.00     0.037 A 
ATOM     28  C   UNL A   1      40.119  28.818  30.137  1.00  0.00     0.037 A 
ATOM     29  C   UNL A   1      40.750  32.104  35.823  1.00  0.00     0.049 A 
ATOM     30  C   UNL A   1      41.109  28.752  31.254  1.00  0.00     0.074 A 
ATOM     31  C   UNL A   1      41.627  31.814  36.849  1.00  0.00     0.029 A 
ATOM     32  N   UNL A   1      41.007  31.195  34.801  1.00  0.00    -0.354 N 
ATOM     33  N   UNL A   1      41.157  29.472  32.349  1.00  0.00    -0.248 NA
ATOM     34  C   UNL A   1      42.142  27.719  31.156  1.00  0.00     0.031 C 
ATOM     35  C   UNL A   1      42.460  30.775  36.420  1.00  0.00     0.029 A 
ATOM     36  C   UNL A   1      42.057  30.366  35.157  1.00  0.00     0.049 A 
ATOM     37  H   UNL A   1      40.515  31.148  33.950  1.00  0.00     0.167 HD
ATOM     38  C   UNL A   1      42.179  28.938  33.110  1.00  0.00     0.074 A 
ATOM     39  C   UNL A   1      42.741  27.848  32.332  1.00  0.00     0.031 C 
ATOM     40  C   UNL A   1      42.591  29.295  34.351  1.00  0.00     0.037 A 
BRANCH  27  41
ATOM     41  C   UNL A   1      39.572  34.092  36.895  1.00  0.00     0.064 A 
ATOM     42  C   UNL A   1      40.210  35.342  36.935  1.00  0.00     0.173 A 
ATOM     43  C   UNL A   1      38.800  33.715  38.002  1.00  0.00     0.173 A 
ATOM     44  F   UNL A   1      40.992  35.736  35.919  1.00  0.00    -0.203 F 
ATOM     45  C   UNL A   1      40.109  36.162  38.058  1.00  0.00     0.198 A 
ATOM     46  C   UNL A   1      38.676  34.550  39.109  1.00  0.00     0.198 A 
ATOM     47  F   UNL A   1      38.183  32.523  38.021  1.00  0.00    -0.203 F 
ATOM     48  F   UNL A   1      40.786  37.317  38.105  1.00  0.00    -0.200 F 
ATOM     49  C   UNL A   1      39.340  35.766  39.141  1.00  0.00     0.200 A 
ATOM     50  F   UNL A   1      37.933  34.165  40.156  1.00  0.00    -0.200 F 
ATOM     51  F   UNL A   1      39.256  36.548  40.226  1.00  0.00    -0.200 F 
ENDBRANCH  27  41
BRANCH  28  52
ATOM     52  C   UNL A   1      40.203  27.937  28.948  1.00  0.00     0.064 A 
ATOM     53  C   UNL A   1      40.903  28.321  27.799  1.00  0.00     0.173 A 
ATOM     54  C   UNL A   1      39.577  26.682  28.944  1.00  0.00     0.173 A 
ATOM     55  F   UNL A   1      41.498  29.521  27.748  1.00  0.00    -0.203 F 
ATOM     56  C   UNL A   1      40.965  27.487  26.683  1.00  0.00     0.198 A 
ATOM     57  C   UNL A   1      39.658  25.838  27.837  1.00  0.00     0.198 A 
ATOM     58  F   UNL A   1      38.866  26.284  30.010  1.00  0.00    -0.203 F 
ATOM     59  F   UNL A   1      41.606  27.895  25.579  1.00  0.00    -0.200 F 
ATOM     60  C   UNL A   1      40.347  26.244  26.705  1.00  0.00     0.200 A 
ATOM     61  F   UNL A   1      39.056  24.641  27.861  1.00  0.00    -0.200 F 
ATOM     62  F   UNL A   1      40.402  25.447  25.629  1.00  0.00    -0.200 F 
ENDBRANCH  28  52
BRANCH  40  63
ATOM     63  C   UNL A   1      43.660  28.443  34.961  1.00  0.00     0.064 A 
ATOM     64  C   UNL A   1      43.358  27.300  35.712  1.00  0.00     0.173 A 
ATOM     65  C   UNL A   1      45.009  28.780  34.774  1.00  0.00     0.173 A 
ATOM     66  F   UNL A   1      42.081  26.955  35.934  1.00  0.00    -0.203 F 
ATOM     67  C   UNL A   1      44.371  26.544  36.290  1.00  0.00     0.198 A 
ATOM     68  C   UNL A   1      46.020  27.997  35.319  1.00  0.00     0.198 A 
ATOM     69  F   UNL A   1      45.345  29.865  34.059  1.00  0.00    -0.203 F 
ATOM     70  F   UNL A   1      44.062  25.495  37.064  1.00  0.00    -0.200 F 
ATOM     71  C   UNL A   1      45.700  26.888  36.086  1.00  0.00     0.200 A 
ATOM     72  F   UNL A   1      47.302  28.323  35.107  1.00  0.00    -0.200 F 
ATOM     73  F   UNL A   1      46.675  26.154  36.640  1.00  0.00    -0.200 F 
ENDBRANCH  40  63
ENDBRANCH  14  15
ENDBRANCH   7   9
ENDBRANCH   6   7
ENDBRANCH   5   6
ENDBRANCH   4   5
ENDBRANCH   3   4
ENDBRANCH   2   3
ENDBRANCH   1   2
BRANCH   1  74
ATOM     74  O   UNL A   1      31.090  28.252  24.772  1.00  0.00    -0.376 OA
BRANCH  74  75
ATOM     75  C   UNL A   1      31.786  28.135  23.539  1.00  0.00     0.202 C 
BRANCH  75  76
ATOM     76  C   UNL A   1      31.243  27.198  22.446  1.00  0.00     0.261 C 
BRANCH  76  77
ATOM     77  O   UNL A   1      31.494  25.784  22.614  1.00  0.00    -0.463 OA
BRANCH  77  78
ATOM     78  C   UNL A   1      32.731  25.382  22.215  1.00  0.00     0.313 C 
ATOM     79  O   UNL A   1      33.299  25.829  21.220  1.00  0.00    -0.252 OA
BRANCH  78  80
ATOM     80  C   UNL A   1      33.376  24.296  23.077  1.00  0.00     0.079 C 
ATOM     81  C   UNL A   1      34.506  23.457  22.443  1.00  0.00     0.055 C 
ATOM     82  C   UNL A   1      34.109  25.107  24.195  1.00  0.00     0.055 C 
ATOM     83  C   UNL A   1      35.353  23.166  23.656  1.00  0.00    -0.044 A 
ATOM     84  C   UNL A   1      35.207  24.184  24.597  1.00  0.00    -0.044 A 
ATOM     85  C   UNL A   1      36.181  22.092  23.927  1.00  0.00     0.004 A 
ATOM     86  C   UNL A   1      35.991  24.248  25.734  1.00  0.00     0.004 A 
ATOM     87  C   UNL A   1      36.966  22.126  25.084  1.00  0.00     0.000 A 
ATOM     88  C   UNL A   1      36.892  23.213  25.967  1.00  0.00     0.000 A 
BRANCH  80  89
ATOM     89  C   UNL A   1      32.332  23.270  23.612  1.00  0.00     0.047 C 
BRANCH  89  90
ATOM     90  C   UNL A   1      32.627  21.837  23.319  1.00  0.00    -0.025 C 
ATOM     91  C   UNL A   1      32.491  20.863  24.231  1.00  0.00     0.004 C 
BRANCH  91  92
ATOM     92  C   UNL A   1      33.016  19.519  23.992  1.00  0.00    -0.026 A 
ATOM     93  C   UNL A   1      34.196  19.105  24.612  1.00  0.00     0.008 A 
ATOM     94  C   UNL A   1      32.387  18.671  23.070  1.00  0.00     0.008 A 
ATOM     95  C   UNL A   1      34.716  17.838  24.340  1.00  0.00     0.001 A 
ATOM     96  C   UNL A   1      32.904  17.407  22.803  1.00  0.00     0.001 A 
ATOM     97  C   UNL A   1      34.068  16.990  23.442  1.00  0.00     0.000 A 
ENDBRANCH  91  92
ENDBRANCH  89  90
ENDBRANCH  80  89
ENDBRANCH  78  80
ENDBRANCH  77  78
ENDBRANCH  76  77
ENDBRANCH  75  76
ENDBRANCH  74  75
ENDBRANCH   1  74
TORSDOF 20
ENDMDL
MODEL 2
REMARK VINA RESULT:     -12.2      1.927      2.765
REMARK SMILES O=C(OCCOCCOCCOC(=O)C1(C/C=C/c2ccccc2)Cc2ccccc2C1)c1ccc(-c2c3nc(c(-c4c(F)c(F)c(F)c(F)c4F)c4ccc([nH]4)c(-c4c(F)c(F)c(F)c(F)c4F)c4nc(c(-c5c(F)c(F)c(F)c(F)c5F)c5ccc2[nH]5)C=C4)C=C3)cc1
REMARK SMILES IDX 8 1 7 2 6 3 5 4 4 5 3 6 2 7 1 8 33 9 34 10 95 11 35 12 94 13
REMARK SMILES IDX 36 14 37 15 38 16 88 17 39 18 93 19 87 20 89 21 40 22 92 23
REMARK SMILES IDX 86 24 85 25 41 27 73 28 53 29 72 30 54 31 57 32 71 33 90 34
REMARK SMILES IDX 55 35 56 36 70 38 91 39 58 40 42 41 43 42 51 43 44 44 45 45
REMARK SMILES IDX 49 46 52 47 46 48 47 49 50 50 48 51 74 52 75 53 83 54 76 55
REMARK SMILES IDX 77 56 81 57 84 58 78 59 79 60 82 61 80 62 59 63 60 64 68 65
REMARK SMILES IDX 61 66 62 67 66 68 69 69 63 70 64 71 67 72 65 73 9 74 10 75
REMARK SMILES IDX 11 76 12 77 13 78 14 79 15 80 25 81 32 82 26 83 31 84 27 85
REMARK SMILES IDX 30 86 28 87 29 88 16 89 17 90 18 91 19 92 20 93 24 94 21 95
REMARK SMILES IDX 23 96 22 97
REMARK H PARENT 89 26 57 37
REMARK Flexibility Score: inf
ROOT
ATOM      1  C   UNL A   1      33.072  27.349  24.777  1.00  0.00     0.188 C 
ENDROOT
BRANCH   1   2
ATOM      2  C   UNL A   1      33.665  27.804  26.109  1.00  0.00     0.188 C 
BRANCH   2   3
ATOM      3  O   UNL A   1      32.711  28.144  27.119  1.00  0.00    -0.376 OA
BRANCH   3   4
ATOM      4  C   UNL A   1      31.777  29.148  26.700  1.00  0.00     0.202 C 
BRANCH   4   5
ATOM      5  C   UNL A   1      32.392  30.495  26.266  1.00  0.00     0.261 C 
BRANCH   5   6
ATOM      6  O   UNL A   1      32.544  31.455  27.329  1.00  0.00    -0.460 OA
BRANCH   6   7
ATOM      7  C   UNL A   1      33.635  32.153  27.725  1.00  0.00     0.338 C 
ATOM      8  O   UNL A   1      33.553  33.384  27.772  1.00  0.00    -0.246 OA
BRANCH   7   9
ATOM      9  C   UNL A   1      34.946  31.535  28.100  1.00  0.00     0.060 A 
ATOM     10  C   UNL A   1      35.139  30.187  28.386  1.00  0.00     0.016 A 
ATOM     11  C   UNL A   1      36.075  32.375  28.152  1.00  0.00     0.016 A 
ATOM     12  C   UNL A   1      36.357  29.692  28.816  1.00  0.00     0.010 A 
ATOM     13  C   UNL A   1      37.325  31.880  28.550  1.00  0.00     0.010 A 
ATOM     14  C   UNL A   1      37.447  30.540  28.938  1.00  0.00    -0.014 A 
BRANCH  14  15
ATOM     15  C   UNL A   1      38.603  30.037  29.705  1.00  0.00     0.031 A 
ATOM     16  C   UNL A   1      38.814  30.596  31.075  1.00  0.00     0.074 A 
ATOM     17  C   UNL A   1      39.319  28.982  29.278  1.00  0.00     0.049 A 
ATOM     18  N   UNL A   1      39.735  30.307  31.951  1.00  0.00    -0.248 NA
ATOM     19  C   UNL A   1      37.809  31.564  31.552  1.00  0.00     0.031 C 
ATOM     20  C   UNL A   1      39.021  28.199  28.086  1.00  0.00     0.029 A 
ATOM     21  N   UNL A   1      40.444  28.387  29.777  1.00  0.00    -0.354 N 
ATOM     22  C   UNL A   1      39.407  31.033  33.085  1.00  0.00     0.074 A 
ATOM     23  C   UNL A   1      38.238  31.823  32.775  1.00  0.00     0.031 C 
ATOM     24  C   UNL A   1      40.002  27.314  27.862  1.00  0.00     0.029 A 
ATOM     25  C   UNL A   1      40.981  27.451  28.924  1.00  0.00     0.049 A 
ATOM     26  H   UNL A   1      40.829  28.605  30.656  1.00  0.00     0.167 HD
ATOM     27  C   UNL A   1      40.021  31.008  34.288  1.00  0.00     0.037 A 
ATOM     28  C   UNL A   1      42.152  26.798  28.992  1.00  0.00     0.037 A 
ATOM     29  C   UNL A   1      41.191  30.218  34.550  1.00  0.00     0.049 A 
ATOM     30  C   UNL A   1      42.951  26.964  30.243  1.00  0.00     0.074 A 
ATOM     31  C   UNL A   1      41.942  30.139  35.706  1.00  0.00     0.029 A 
ATOM     32  N   UNL A   1      41.790  29.373  33.620  1.00  0.00    -0.354 N 
ATOM     33  N   UNL A   1      42.676  27.692  31.298  1.00  0.00    -0.248 NA
ATOM     34  C   UNL A   1      44.183  26.180  30.345  1.00  0.00     0.031 C 
ATOM     35  C   UNL A   1      43.034  29.301  35.452  1.00  0.00     0.029 A 
ATOM     36  C   UNL A   1      42.926  28.798  34.164  1.00  0.00     0.049 A 
ATOM     37  H   UNL A   1      41.454  29.208  32.710  1.00  0.00     0.167 HD
ATOM     38  C   UNL A   1      43.661  27.404  32.224  1.00  0.00     0.074 A 
ATOM     39  C   UNL A   1      44.555  26.452  31.589  1.00  0.00     0.031 C 
ATOM     40  C   UNL A   1      43.793  27.858  33.495  1.00  0.00     0.037 A 
BRANCH  27  41
ATOM     41  C   UNL A   1      39.467  31.915  35.346  1.00  0.00     0.064 A 
ATOM     42  C   UNL A   1      39.856  33.259  35.459  1.00  0.00     0.173 A 
ATOM     43  C   UNL A   1      38.582  31.406  36.307  1.00  0.00     0.173 A 
ATOM     44  F   UNL A   1      40.730  33.786  34.589  1.00  0.00    -0.203 F 
ATOM     45  C   UNL A   1      39.408  34.048  36.517  1.00  0.00     0.198 A 
ATOM     46  C   UNL A   1      38.113  32.206  37.346  1.00  0.00     0.198 A 
ATOM     47  F   UNL A   1      38.192  30.124  36.255  1.00  0.00    -0.203 F 
ATOM     48  F   UNL A   1      39.851  35.306  36.648  1.00  0.00    -0.200 F 
ATOM     49  C   UNL A   1      38.535  33.521  37.457  1.00  0.00     0.200 A 
ATOM     50  F   UNL A   1      37.269  31.694  38.253  1.00  0.00    -0.200 F 
ATOM     51  F   UNL A   1      38.117  34.276  38.482  1.00  0.00    -0.200 F 
ENDBRANCH  27  41
BRANCH  28  52
ATOM     52  C   UNL A   1      42.603  25.941  27.869  1.00  0.00     0.064 A 
ATOM     53  C   UNL A   1      43.451  26.428  26.869  1.00  0.00     0.173 A 
ATOM     54  C   UNL A   1      42.186  24.604  27.780  1.00  0.00     0.173 A 
ATOM     55  F   UNL A   1      43.857  27.706  26.900  1.00  0.00    -0.203 F 
ATOM     56  C   UNL A   1      43.858  25.614  25.813  1.00  0.00     0.198 A 
ATOM     57  C   UNL A   1      42.613  23.783  26.737  1.00  0.00     0.198 A 
ATOM     58  F   UNL A   1      41.347  24.101  28.697  1.00  0.00    -0.203 F 
ATOM     59  F   UNL A   1      44.637  26.116  24.845  1.00  0.00    -0.200 F 
ATOM     60  C   UNL A   1      43.444  24.291  25.750  1.00  0.00     0.200 A 
ATOM     61  F   UNL A   1      42.205  22.508  26.678  1.00  0.00    -0.200 F 
ATOM     62  F   UNL A   1      43.831  23.512  24.731  1.00  0.00    -0.200 F 
ENDBRANCH  28  52
BRANCH  40  63
ATOM     63  C   UNL A   1      44.913  27.269  34.293  1.00  0.00     0.064 A 
ATOM     64  C   UNL A   1      44.764  26.072  35.006  1.00  0.00     0.173 A 
ATOM     65  C   UNL A   1      46.157  27.915  34.329  1.00  0.00     0.173 A 
ATOM     66  F   UNL A   1      43.584  25.433  35.018  1.00  0.00    -0.203 F 
ATOM     67  C   UNL A   1      45.814  25.562  35.761  1.00  0.00     0.198 A 
ATOM     68  C   UNL A   1      47.217  27.380  35.051  1.00  0.00     0.198 A 
ATOM     69  F   UNL A   1      46.346  29.061  33.658  1.00  0.00    -0.203 F 
ATOM     70  F   UNL A   1      45.633  24.455  36.494  1.00  0.00    -0.200 F 
ATOM     71  C   UNL A   1      47.041  26.211  35.776  1.00  0.00     0.200 A 
ATOM     72  F   UNL A   1      48.404  28.000  35.051  1.00  0.00    -0.200 F 
ATOM     73  F   UNL A   1      48.052  25.715  36.501  1.00  0.00    -0.200 F 
ENDBRANCH  40  63
ENDBRANCH  14  15
ENDBRANCH   7   9
ENDBRANCH   6   7
ENDBRANCH   5   6
ENDBRANCH   4   5
ENDBRANCH   3   4
ENDBRANCH   2   3
ENDBRANCH   1   2
BRANCH   1  74
ATOM     74  O   UNL A   1      33.917  27.378  23.638  1.00  0.00    -0.376 OA
BRANCH  74  75
ATOM     75  C   UNL A   1      33.343  27.041  22.383  1.00  0.00     0.202 C 
BRANCH  75  76
ATOM     76  C   UNL A   1      33.291  25.567  21.943  1.00  0.00     0.261 C 
BRANCH  76  77
ATOM     77  O   UNL A   1      34.219  24.662  22.582  1.00  0.00    -0.463 OA
BRANCH  77  78
ATOM     78  C   UNL A   1      33.672  23.895  23.563  1.00  0.00     0.313 C 
ATOM     79  O   UNL A   1      32.460  23.807  23.756  1.00  0.00    -0.252 OA
BRANCH  78  80
ATOM     80  C   UNL A   1      34.673  23.156  24.451  1.00  0.00     0.079 C 
ATOM     81  C   UNL A   1      35.802  22.367  23.753  1.00  0.00     0.055 C 
ATOM     82  C   UNL A   1      35.434  24.310  25.181  1.00  0.00     0.055 C 
ATOM     83  C   UNL A   1      36.908  22.504  24.768  1.00  0.00    -0.044 A 
ATOM     84  C   UNL A   1      36.750  23.684  25.492  1.00  0.00    -0.044 A 
ATOM     85  C   UNL A   1      37.969  21.662  25.049  1.00  0.00     0.004 A 
ATOM     86  C   UNL A   1      37.711  24.134  26.379  1.00  0.00     0.004 A 
ATOM     87  C   UNL A   1      38.940  22.089  25.960  1.00  0.00     0.000 A 
ATOM     88  C   UNL A   1      38.826  23.332  26.598  1.00  0.00     0.000 A 
BRANCH  80  89
ATOM     89  C   UNL A   1      33.976  22.144  25.410  1.00  0.00     0.047 C 
BRANCH  89  90
ATOM     90  C   UNL A   1      34.001  20.718  24.972  1.00  0.00    -0.025 C 
ATOM     91  C   UNL A   1      32.983  19.871  25.189  1.00  0.00     0.004 C 
BRANCH  91  92
ATOM     92  C   UNL A   1      33.131  18.433  24.970  1.00  0.00    -0.026 A 
ATOM     93  C   UNL A   1      32.568  17.523  25.867  1.00  0.00     0.008 A 
ATOM     94  C   UNL A   1      33.915  17.959  23.909  1.00  0.00     0.008 A 
ATOM     95  C   UNL A   1      32.757  16.153  25.677  1.00  0.00     0.001 A 
ATOM     96  C   UNL A   1      34.099  16.593  23.718  1.00  0.00     0.001 A 
ATOM     97  C   UNL A   1      33.516  15.689  24.603  1.00  0.00     0.000 A 
ENDBRANCH  91  92
ENDBRANCH  89  90
ENDBRANCH  80  89
ENDBRANCH  78  80
ENDBRANCH  77  78
ENDBRANCH  76  77
ENDBRANCH  75  76
ENDBRANCH  74  75
ENDBRANCH   1  74
TORSDOF 20
ENDMDL
MODEL 3
REMARK VINA RESULT:     -12.0      1.748      2.613
REMARK SMILES O=C(OCCOCCOCCOC(=O)C1(C/C=C/c2ccccc2)Cc2ccccc2C1)c1ccc(-c2c3nc(c(-c4c(F)c(F)c(F)c(F)c4F)c4ccc([nH]4)c(-c4c(F)c(F)c(F)c(F)c4F)c4nc(c(-c5c(F)c(F)c(F)c(F)c5F)c5ccc2[nH]5)C=C4)C=C3)cc1
REMARK SMILES IDX 8 1 7 2 6 3 5 4 4 5 3 6 2 7 1 8 33 9 34 10 95 11 35 12 94 13
REMARK SMILES IDX 36 14 37 15 38 16 88 17 39 18 93 19 87 20 89 21 40 22 92 23
REMARK SMILES IDX 86 24 85 25 41 27 73 28 53 29 72 30 54 31 57 32 71 33 90 34
REMARK SMILES IDX 55 35 56 36 70 38 91 39 58 40 42 41 43 42 51 43 44 44 45 45
REMARK SMILES IDX 49 46 52 47 46 48 47 49 50 50 48 51 74 52 75 53 83 54 76 55
REMARK SMILES IDX 77 56 81 57 84 58 78 59 79 60 82 61 80 62 59 63 60 64 68 65
REMARK SMILES IDX 61 66 62 67 66 68 69 69 63 70 64 71 67 72 65 73 9 74 10 75
REMARK SMILES IDX 11 76 12 77 13 78 14 79 15 80 25 81 32 82 26 83 31 84 27 85
REMARK SMILES IDX 30 86 28 87 29 88 16 89 17 90 18 91 19 92 20 93 24 94 21 95
REMARK SMILES IDX 23 96 22 97
REMARK H PARENT 89 26 57 37
REMARK Flexibility Score: inf
ROOT
ATOM      1  C   UNL A   1      31.518  29.265  25.269  1.00  0.00     0.188 C 
ENDROOT
BRANCH   1   2
ATOM      2  C   UNL A   1      32.133  29.346  26.666  1.00  0.00     0.188 C 
BRANCH   2   3
ATOM      3  O   UNL A   1      32.272  30.668  27.196  1.00  0.00    -0.376 OA
BRANCH   3   4
ATOM      4  C   UNL A   1      31.423  31.628  26.553  1.00  0.00     0.202 C 
BRANCH   4   5
ATOM      5  C   UNL A   1      31.861  33.101  26.681  1.00  0.00     0.261 C 
BRANCH   5   6
ATOM      6  O   UNL A   1      32.534  33.422  27.914  1.00  0.00    -0.460 OA
BRANCH   6   7
ATOM      7  C   UNL A   1      33.785  33.893  28.129  1.00  0.00     0.338 C 
ATOM      8  O   UNL A   1      33.977  35.107  28.021  1.00  0.00    -0.246 OA
BRANCH   7   9
ATOM      9  C   UNL A   1      34.963  33.038  28.479  1.00  0.00     0.060 A 
ATOM     10  C   UNL A   1      34.890  31.711  28.894  1.00  0.00     0.016 A 
ATOM     11  C   UNL A   1      36.245  33.610  28.365  1.00  0.00     0.016 A 
ATOM     12  C   UNL A   1      36.009  31.001  29.292  1.00  0.00     0.010 A 
ATOM     13  C   UNL A   1      37.391  32.890  28.728  1.00  0.00     0.010 A 
ATOM     14  C   UNL A   1      37.261  31.596  29.248  1.00  0.00    -0.014 A 
BRANCH  14  15
ATOM     15  C   UNL A   1      38.348  30.923  29.985  1.00  0.00     0.031 A 
ATOM     16  C   UNL A   1      38.547  31.305  31.416  1.00  0.00     0.074 A 
ATOM     17  C   UNL A   1      38.999  29.870  29.459  1.00  0.00     0.049 A 
ATOM     18  N   UNL A   1      39.412  30.849  32.278  1.00  0.00    -0.248 NA
ATOM     19  C   UNL A   1      37.599  32.287  31.972  1.00  0.00     0.031 C 
ATOM     20  C   UNL A   1      38.689  29.252  28.178  1.00  0.00     0.029 A 
ATOM     21  N   UNL A   1      40.058  29.138  29.919  1.00  0.00    -0.354 N 
ATOM     22  C   UNL A   1      39.096  31.466  33.479  1.00  0.00     0.074 A 
ATOM     23  C   UNL A   1      38.001  32.373  33.229  1.00  0.00     0.031 C 
ATOM     24  C   UNL A   1      39.610  28.325  27.881  1.00  0.00     0.029 A 
ATOM     25  C   UNL A   1      40.556  28.265  28.979  1.00  0.00     0.049 A 
ATOM     26  H   UNL A   1      40.425  29.225  30.828  1.00  0.00     0.167 HD
ATOM     27  C   UNL A   1      39.661  31.258  34.688  1.00  0.00     0.037 A 
ATOM     28  C   UNL A   1      41.673  27.521  29.004  1.00  0.00     0.037 A 
ATOM     29  C   UNL A   1      40.760  30.355  34.891  1.00  0.00     0.049 A 
ATOM     30  C   UNL A   1      42.435  27.482  30.289  1.00  0.00     0.074 A 
ATOM     31  C   UNL A   1      41.460  30.089  36.050  1.00  0.00     0.029 A 
ATOM     32  N   UNL A   1      41.329  29.577  33.887  1.00  0.00    -0.354 N 
ATOM     33  N   UNL A   1      42.175  28.105  31.412  1.00  0.00    -0.248 NA
ATOM     34  C   UNL A   1      43.602  26.599  30.334  1.00  0.00     0.031 C 
ATOM     35  C   UNL A   1      42.496  29.203  35.733  1.00  0.00     0.029 A 
ATOM     36  C   UNL A   1      42.399  28.859  34.392  1.00  0.00     0.049 A 
ATOM     37  H   UNL A   1      41.016  29.543  32.954  1.00  0.00     0.167 HD
ATOM     38  C   UNL A   1      43.101  27.639  32.327  1.00  0.00     0.074 A 
ATOM     39  C   UNL A   1      43.946  26.699  31.611  1.00  0.00     0.031 C 
ATOM     40  C   UNL A   1      43.219  27.936  33.644  1.00  0.00     0.037 A 
BRANCH  27  41
ATOM     41  C   UNL A   1      39.136  32.079  35.827  1.00  0.00     0.064 A 
ATOM     42  C   UNL A   1      39.565  33.396  36.061  1.00  0.00     0.173 A 
ATOM     43  C   UNL A   1      38.239  31.511  36.742  1.00  0.00     0.173 A 
ATOM     44  F   UNL A   1      40.453  33.975  35.239  1.00  0.00    -0.203 F 
ATOM     45  C   UNL A   1      39.143  34.096  37.190  1.00  0.00     0.198 A 
ATOM     46  C   UNL A   1      37.795  32.225  37.851  1.00  0.00     0.198 A 
ATOM     47  F   UNL A   1      37.811  30.250  36.573  1.00  0.00    -0.203 F 
ATOM     48  F   UNL A   1      39.624  35.324  37.433  1.00  0.00    -0.200 F 
ATOM     49  C   UNL A   1      38.257  33.511  38.081  1.00  0.00     0.200 A 
ATOM     50  F   UNL A   1      36.939  31.657  38.711  1.00  0.00    -0.200 F 
ATOM     51  F   UNL A   1      37.863  34.181  39.173  1.00  0.00    -0.200 F 
ENDBRANCH  27  41
BRANCH  28  52
ATOM     52  C   UNL A   1      42.101  26.763  27.804  1.00  0.00     0.064 A 
ATOM     53  C   UNL A   1      43.021  27.293  26.892  1.00  0.00     0.173 A 
ATOM     54  C   UNL A   1      41.590  25.481  27.549  1.00  0.00     0.173 A 
ATOM     55  F   UNL A   1      43.518  28.523  27.082  1.00  0.00    -0.203 F 
ATOM     56  C   UNL A   1      43.406  26.574  25.761  1.00  0.00     0.198 A 
ATOM     57  C   UNL A   1      41.994  24.754  26.430  1.00  0.00     0.198 A 
ATOM     58  F   UNL A   1      40.682  24.945  28.376  1.00  0.00    -0.203 F 
ATOM     59  F   UNL A   1      44.256  27.120  24.880  1.00  0.00    -0.200 F 
ATOM     60  C   UNL A   1      42.897  25.303  25.534  1.00  0.00     0.200 A 
ATOM     61  F   UNL A   1      41.496  23.528  26.213  1.00  0.00    -0.200 F 
ATOM     62  F   UNL A   1      43.263  24.616  24.443  1.00  0.00    -0.200 F 
ENDBRANCH  28  52
BRANCH  40  63
ATOM     63  C   UNL A   1      44.262  27.176  34.401  1.00  0.00     0.064 A 
ATOM     64  C   UNL A   1      45.569  27.660  34.550  1.00  0.00     0.173 A 
ATOM     65  C   UNL A   1      43.936  25.947  34.993  1.00  0.00     0.173 A 
ATOM     66  F   UNL A   1      45.930  28.820  33.981  1.00  0.00    -0.203 F 
ATOM     67  C   UNL A   1      46.524  26.919  35.235  1.00  0.00     0.198 A 
ATOM     68  C   UNL A   1      44.884  25.229  35.712  1.00  0.00     0.198 A 
ATOM     69  F   UNL A   1      42.696  25.446  34.878  1.00  0.00    -0.203 F 
ATOM     70  F   UNL A   1      47.787  27.363  35.308  1.00  0.00    -0.200 F 
ATOM     71  C   UNL A   1      46.179  25.710  35.822  1.00  0.00     0.200 A 
ATOM     72  F   UNL A   1      44.543  24.070  36.292  1.00  0.00    -0.200 F 
ATOM     73  F   UNL A   1      47.102  25.000  36.486  1.00  0.00    -0.200 F 
ENDBRANCH  40  63
ENDBRANCH  14  15
ENDBRANCH   7   9
ENDBRANCH   6   7
ENDBRANCH   5   6
ENDBRANCH   4   5
ENDBRANCH   3   4
ENDBRANCH   2   3
ENDBRANCH   1   2
BRANCH   1  74
ATOM     74  O   UNL A   1      31.644  28.038  24.568  1.00  0.00    -0.376 OA
BRANCH  74  75
ATOM     75  C   UNL A   1      30.644  27.052  24.784  1.00  0.00     0.202 C 
BRANCH  75  76
ATOM     76  C   UNL A   1      30.768  26.093  25.980  1.00  0.00     0.261 C 
BRANCH  76  77
ATOM     77  O   UNL A   1      30.596  24.684  25.708  1.00  0.00    -0.463 OA
BRANCH  77  78
ATOM     78  C   UNL A   1      31.499  23.877  26.329  1.00  0.00     0.313 C 
ATOM     79  O   UNL A   1      31.527  23.705  27.546  1.00  0.00    -0.252 OA
BRANCH  78  80
ATOM     80  C   UNL A   1      32.517  23.204  25.408  1.00  0.00     0.079 C 
ATOM     81  C   UNL A   1      33.146  24.063  24.289  1.00  0.00     0.055 C 
ATOM     82  C   UNL A   1      33.723  22.904  26.356  1.00  0.00     0.055 C 
ATOM     83  C   UNL A   1      34.512  23.433  24.188  1.00  0.00    -0.044 A 
ATOM     84  C   UNL A   1      34.878  22.883  25.416  1.00  0.00    -0.044 A 
ATOM     85  C   UNL A   1      35.371  23.337  23.108  1.00  0.00     0.004 A 
ATOM     86  C   UNL A   1      36.146  22.382  25.645  1.00  0.00     0.004 A 
ATOM     87  C   UNL A   1      36.651  22.812  23.314  1.00  0.00     0.000 A 
ATOM     88  C   UNL A   1      37.046  22.366  24.584  1.00  0.00     0.000 A 
BRANCH  80  89
ATOM     89  C   UNL A   1      31.931  21.945  24.700  1.00  0.00     0.047 C 
BRANCH  89  90
ATOM     90  C   UNL A   1      32.643  20.662  24.972  1.00  0.00    -0.025 C 
ATOM     91  C   UNL A   1      32.638  19.630  24.116  1.00  0.00     0.004 C 
BRANCH  91  92
ATOM     92  C   UNL A   1      33.132  18.312  24.511  1.00  0.00    -0.026 A 
ATOM     93  C   UNL A   1      32.305  17.430  25.208  1.00  0.00     0.008 A 
ATOM     94  C   UNL A   1      34.468  17.960  24.272  1.00  0.00     0.008 A 
ATOM     95  C   UNL A   1      32.801  16.193  25.624  1.00  0.00     0.001 A 
ATOM     96  C   UNL A   1      34.961  16.726  24.683  1.00  0.00     0.001 A 
ATOM     97  C   UNL A   1      34.124  15.840  25.358  1.00  0.00     0.000 A 
ENDBRANCH  91  92
ENDBRANCH  89  90
ENDBRANCH  80  89
ENDBRANCH  78  80
ENDBRANCH  77  78
ENDBRANCH  76  77
ENDBRANCH  75  76
ENDBRANCH  74  75
ENDBRANCH   1  74
TORSDOF 20
ENDMDL
